AV-unprocessed.smi:1562|AV-procd|sdf|6287|dock4
  -GOLD-   22720 6483D 1   1.00000     0.00000
 Structure written by MMmdl.
 40 41  0  0  0  0  0  0  0  0  1 V2000
  156.2120  133.5851  160.6665 N   0  0  0  0  0  0  0  0  0  0  0  0
  155.1735  134.4246  160.6717 C   0  0  0  0  0  0  0  0  0  0  0  0
  154.2655  134.3443  159.8463 O   0  0  0  0  0  0  0  0  0  0  0  0
  155.1535  135.5071  161.7595 C   0  0  0  0  0  0  0  0  0  0  0  0
  153.8987  136.4038  161.6306 C   0  0  0  0  0  0  0  0  0  0  0  0
  153.9466  137.5730  162.6310 C   0  0  0  0  0  0  0  0  0  0  0  0
  155.1832  138.3395  162.4019 N   0  0  0  0  0  0  0  0  0  0  0  0
  155.2779  139.5444  161.7839 C   0  0  0  0  0  0  0  0  0  0  0  0
  156.3255  140.1894  161.7191 O   0  0  0  0  0  0  0  0  0  0  0  0
  154.1263  140.0056  161.2695 N   0  0  0  0  0  0  0  0  0  0  0  0
  153.9814  141.2782  160.5761 C   0  0  0  0  0  0  0  0  0  0  0  0
  152.5909  141.3930  159.9357 C   0  0  0  0  0  0  0  0  0  0  0  0
  152.2295  142.8287  159.6024 C   0  0  0  0  0  0  0  0  0  0  0  0
  152.3864  143.8535  160.5602 C   0  0  0  0  0  0  0  0  0  0  0  0
  152.0269  145.1674  160.2019 C   0  0  0  0  0  0  0  0  0  0  0  0
  151.5265  145.4049  158.9069 C   0  0  0  0  0  0  0  0  0  0  0  0
  151.4076  144.3129  158.0241 C   0  0  0  0  0  0  0  0  0  0  0  0
  151.7502  143.0497  158.3574 N   0  0  0  0  0  0  0  0  0  0  0  0
  156.3695  137.5318  162.7117 C   0  0  0  0  0  0  0  0  0  0  0  0
  156.4453  136.3575  161.7185 C   0  0  0  0  0  0  0  0  0  0  0  0
  156.2652  132.8599  159.9659 H   0  0  0  0  0  0  0  0  0  0  0  0
  156.9408  133.6785  161.3590 H   0  0  0  0  0  0  0  0  0  0  0  0
  155.1108  135.0171  162.7340 H   0  0  0  0  0  0  0  0  0  0  0  0
  153.8184  136.8043  160.6185 H   0  0  0  0  0  0  0  0  0  0  0  0
  152.9979  135.8129  161.8010 H   0  0  0  0  0  0  0  0  0  0  0  0
  153.0360  138.1664  162.5494 H   0  0  0  0  0  0  0  0  0  0  0  0
  153.9478  137.1884  163.6518 H   0  0  0  0  0  0  0  0  0  0  0  0
  153.2991  139.4344  161.3640 H   0  0  0  0  0  0  0  0  0  0  0  0
  154.1361  142.0971  161.2809 H   0  0  0  0  0  0  0  0  0  0  0  0
  154.7553  141.3587  159.8113 H   0  0  0  0  0  0  0  0  0  0  0  0
  152.5477  140.7913  159.0269 H   0  0  0  0  0  0  0  0  0  0  0  0
  151.8347  140.9858  160.6088 H   0  0  0  0  0  0  0  0  0  0  0  0
  152.7702  143.6397  161.5468 H   0  0  0  0  0  0  0  0  0  0  0  0
  152.1321  145.9782  160.9079 H   0  0  0  0  0  0  0  0  0  0  0  0
  151.2398  146.3992  158.5975 H   0  0  0  0  0  0  0  0  0  0  0  0
  151.0267  144.4579  157.0241 H   0  0  0  0  0  0  0  0  0  0  0  0
  157.2935  138.1108  162.6768 H   0  0  0  0  0  0  0  0  0  0  0  0
  156.2967  137.1564  163.7334 H   0  0  0  0  0  0  0  0  0  0  0  0
  157.3102  135.7355  161.9524 H   0  0  0  0  0  0  0  0  0  0  0  0
  156.6110  136.7503  160.7138 H   0  0  0  0  0  0  0  0  0  0  0  0
  1  2  1  0  0  0  0
  1 21  1  0  0  0  0
  1 22  1  0  0  0  0
  2  3  2  0  0  0  0
  2  4  1  0  0  0  0
  4 20  1  0  0  0  0
  4  5  1  0  0  0  0
  4 23  1  0  0  0  0
  5  6  1  0  0  0  0
  5 24  1  0  0  0  0
  5 25  1  0  0  0  0
  6  7  1  0  0  0  0
  6 26  1  0  0  0  0
  6 27  1  0  0  0  0
  7  8  1  0  0  0  0
  7 19  1  0  0  0  0
  8  9  2  0  0  0  0
  8 10  1  0  0  0  0
 10 11  1  0  0  0  0
 10 28  1  0  0  0  0
 11 12  1  0  0  0  0
 11 29  1  0  0  0  0
 11 30  1  0  0  0  0
 12 13  1  0  0  0  0
 12 31  1  0  0  0  0
 12 32  1  0  0  0  0
 13 18  1  0  0  0  0
 13 14  2  0  0  0  0
 14 15  1  0  0  0  0
 14 33  1  0  0  0  0
 15 16  2  0  0  0  0
 15 34  1  0  0  0  0
 16 17  1  0  0  0  0
 16 35  1  0  0  0  0
 17 18  2  0  0  0  0
 17 36  1  0  0  0  0
 19 20  1  0  0  0  0
 19 37  1  0  0  0  0
 19 38  1  0  0  0  0
 20 39  1  0  0  0  0
 20 40  1  0  0  0  0
M  END
> <s_m_source_file>
AV-unprocessed.smi

> <i_m_source_file_index>
1562

> <i_lp_mmshare_version>
43012

> <i_f3d_flags>
0

> <s_epik_input>
W05IMl1DKD1PKVtDSF0xW0NIMl1bQ0gyXU4oW0NIMl1bQ0gyXTEpQyg9TylbTkhdW0NIMl1bQ0gyXWMyW2NIXVtjSF1bY0hdW2NIXW4y

> <s_epik_cmdline>
J2VwaWtfcHl0aG9uJywgJy1waCcsICc3LjAnLCAnLXRuJywgJzgnLCAnLW1hJywgJzIwMCcsICctbWV0YWxfYmluZGluZycsICctaW1hZScsICc8aW5maWxlLm1hZT4nLCAnLW9tYWUnLCAnPG91dGZpbGUubWFlPic=

> <r_epik_Ionization_Penalty>
0.0445602

> <r_epik_Ionization_Penalty_Charging>
0

> <r_epik_Ionization_Penalty_Neutral>
0.0445602

> <r_epik_State_Penalty>
0.0377204

> <r_epik_Charging_Adjusted_Penalty>
0.0377204

> <i_epik_Tot_Q>
0

> <i_epik_Tot_abs_Q>
0

> <r_epik_Metal_State_Penalty>
0.0350723

> <b_epik_Metal_Only>
0

> <s_lp_Force_Field>
OPLS_2005

> <r_lp_Energy>
26.805

> <b_lp_Chiralities_Consistent>
1

> <s_lp_Variant>
AV-unprocessed.smi:1562-1

> <Gold.Version>
5.8.1

> <Gold.Id.Protein>
6NUR|6NUR_protein|mol2

> <Gold.PLP.Fitness>
43.7134

> <Gold.PLP.PLP>
-38.3370

> <Gold.PLP.part.hbond>
-2.0000

> <Gold.PLP.part.metal>
0.0000

> <Gold.PLP.part.buried>
-4.2649

> <Gold.PLP.part.nonpolar>
-32.6738

> <Gold.PLP.part.repulsive>
0.0483

> <Gold.PLP.ligand.clash>
0.0000

> <Gold.PLP.ligand.torsion>
0.3209

> <Gold.PLP.Chemscore.Hbond>
1.0000

> <Gold.PLP.Chemscore.CHOScore>
0.9839

> <Gold.PLP.Chemscore.Metal>
0.0000

> <Gold.Chemscore.Hbonds>
donor molecule, donor type, donor heavy atom, donor atom, acceptor molecule, acceptor atom, score
      P1  H  6896  6908       L1     3  1.00
      L1  C    17    36       P1  8028  1.00

> <Gold.PLP.Chemscore.Internal.Correction>
0.0666

> <Gold.Rescore>
     Score         DG    S(hbond)    S(metal)    S(lipo)     H(rot)  DE(clash)    DE(int)     intcor
     15.91     -16.40       1.00        0.00     107.48       1.95       0.19       0.30       ----

> <Gold.Chemscore.Fitness>
15.9073

> <Gold.Chemscore.DG>
-16.4035

> <Gold.Chemscore.ZeroCoef>
-5.4800

> <Gold.Chemscore.Hbond>
0.9996

> <Gold.Chemscore.Metal>
0.0000

> <Gold.Chemscore.Lipo>
107.4766

> <Gold.Chemscore.Internal_Hbond>
0.0000

> <Gold.Chemscore.DEClash>
0.1920

> <Gold.Chemscore.DEInternal>
0.3041

> <Gold.Chemscore.Rot>
1.9492

> <Gold.Chemscore.Internal.Correction>
   9.000000E+99

> <Gold.Chemscore.Hbonds>
donor molecule, donor type, donor heavy atom, donor atom, acceptor molecule, acceptor atom, score
      P1  H  6896  6908       L1     3  0.99

> <Gold.Chemscore.Hbond.Weighted>
-3.3387

> <Gold.Chemscore.Metal.Weighted>
-0.0000

> <Gold.Chemscore.Lipo.Weighted>
-12.5748

> <Gold.Chemscore.Internal_Hbond.Weighted>
0.0000

> <Gold.Chemscore.DEClash.Weighted>
0.1920

> <Gold.Chemscore.DEInternal.Weighted>
0.3041

> <Gold.Chemscore.Rot.Weighted>
4.9900

> <Gold.Chemscore.Internal.Correction.Weighted>
   9.000000E+99

> <Gold.Protein.RotatedTorsions>
[ 6907 6896 6895 6894 ] final  -46.33 input  -60.11 | X-H torsion
[ 7974 7965 7964 7962 ] final -164.58 input  175.53 | X-H torsion
[ 8008 7997 7996 7995 ] final -139.71 input   59.86 | X-H torsion
[ 10167 10162 10161 10158 ] final  150.37 input  -65.29 | X-H torsion
[ 10718 10713 10712 10709 ] final  -91.78 input   66.30 | X-H torsion
[ 10763 10752 10751 10750 ] final   24.01 input  -60.55 | X-H torsion
[ 11005 11000 10999 10996 ] final  -36.27 input  -57.11 | X-H torsion

> <Gold.Protein.ActiveResidues>
 VAL166  LYS551  ARG553  GLY616  TRP617  ASP618  TYR619  PRO620  LYS621  CYS622 
 ASP623  PHE694  ASN695  SER759  ASP760  ASP761  ALA762  ILE779  LEU786  VAL792 
 PHE793  MET794  SER795  GLU796  ALA797  LYS798  CYS799  TRP800  GLU811  SER814 

> <Gold.Protein.RotatedAtoms>
  150.9124  134.8541  159.7433 H   0  0  0  0  0  0  0  0  0  0  0  0  # atno 6907 bound_to 6896
  152.4951  134.4339  159.9531 H   0  0  0  0  0  0  0  0  0  0  0  0  # atno 6908 bound_to 6896
  151.4380  133.3612  159.2813 H   0  0  0  0  0  0  0  0  0  0  0  0  # atno 6909 bound_to 6896
  144.7293  140.2939  143.6216 H   0  0  0  0  0  0  0  0  0  0  0  0  # atno 7974 bound_to 7965
  155.4493  140.0537  157.3003 H   0  0  0  0  0  0  0  0  0  0  0  0  # atno 8008 bound_to 7997
  154.4784  140.2071  155.9778 H   0  0  0  0  0  0  0  0  0  0  0  0  # atno 8009 bound_to 7997
  156.1168  140.3195  155.8155 H   0  0  0  0  0  0  0  0  0  0  0  0  # atno 8010 bound_to 7997
  139.4851  144.5528  151.7371 H   0  0  0  0  0  0  0  0  0  0  0  0  # atno 10167 bound_to 10162
  155.9996  130.4961  150.5525 H   0  0  0  0  0  0  0  0  0  0  0  0  # atno 10718 bound_to 10713
  153.0796  135.6614  154.0074 H   0  0  0  0  0  0  0  0  0  0  0  0  # atno 10763 bound_to 10752
  153.9699  135.2965  155.3429 H   0  0  0  0  0  0  0  0  0  0  0  0  # atno 10764 bound_to 10752
  154.7192  135.5172  153.8856 H   0  0  0  0  0  0  0  0  0  0  0  0  # atno 10765 bound_to 10752
  140.9861  133.7030  156.1768 H   0  0  0  0  0  0  0  0  0  0  0  0  # atno 11005 bound_to 11000
  145.7827  139.1897  143.2148 LP  0  0  0  0  0  0  0  0  0  0  0  0  # atno 17320 bound_to 7965
  146.0820  140.7753  142.9637 LP  0  0  0  0  0  0  0  0  0  0  0  0  # atno 17321 bound_to 7965
  140.5084  144.1062  150.5988 LP  0  0  0  0  0  0  0  0  0  0  0  0  # atno 17342 bound_to 10162
  140.3979  143.2718  151.9982 LP  0  0  0  0  0  0  0  0  0  0  0  0  # atno 17343 bound_to 10162
  157.3446  131.0723  151.1761 LP  0  0  0  0  0  0  0  0  0  0  0  0  # atno 17370 bound_to 10713
  157.2598  130.6653  149.5969 LP  0  0  0  0  0  0  0  0  0  0  0  0  # atno 17371 bound_to 10713
  140.7112  134.4460  157.5581 LP  0  0  0  0  0  0  0  0  0  0  0  0  # atno 17394 bound_to 11000
  139.8971  134.8644  156.2057 LP  0  0  0  0  0  0  0  0  0  0  0  0  # atno 17395 bound_to 11000

$$$$
