AV-unprocessed.smi:1278|AV-procd|sdf|5347|dock3
  -GOLD-   22720 4483D 1   1.00000     0.00000
 Structure written by MMmdl.
 39 40  0  0  0  0  0  0  0  0  2 V2000
  145.8330  132.0767  149.7898 C   0  0  0  0  0  0  0  0  0  0  0  0
  146.3523  133.0971  150.8128 C   0  0  2  0  0  0  0  0  0  0  0  0
  146.2746  132.5442  152.2460 C   0  0  0  0  0  0  0  0  0  0  0  0
  146.7711  133.5933  153.2483 C   0  0  0  0  0  0  0  0  0  0  0  0
  145.9997  134.9128  153.0893 C   0  0  0  0  0  0  0  0  0  0  0  0
  146.0969  135.4270  151.6988 N   0  3  2  0  0  0  0  0  0  0  0  0
  145.4696  136.7645  151.5541 C   0  0  0  0  0  0  0  0  0  0  0  0
  145.8252  137.7114  152.7168 C   0  0  0  0  0  0  0  0  0  0  0  0
  147.2648  137.7586  152.9471 N   0  0  0  0  0  0  0  0  0  0  0  0
  147.8765  138.6147  153.7786 C   0  0  0  0  0  0  0  0  0  0  0  0
  147.2718  139.4571  154.4430 O   0  0  0  0  0  0  0  0  0  0  0  0
  149.2078  138.4261  153.7855 N   0  0  0  0  0  0  0  0  0  0  0  0
  150.1862  139.1163  154.5487 C   0  0  0  0  0  0  0  0  0  0  0  0
  149.9477  140.2324  155.2472 N   0  0  0  0  0  0  0  0  0  0  0  0
  151.0896  140.6916  155.9082 C   0  0  0  0  0  0  0  0  0  0  0  0
  152.1968  139.9069  155.7011 C   0  0  0  0  0  0  0  0  0  0  0  0
  151.8473  138.5529  154.6597 S   0  0  0  0  0  0  0  0  0  0  0  0
  145.5894  134.4338  150.7134 C   0  0  0  0  0  0  0  0  0  0  0  0
  144.7811  131.8443  149.9595 H   0  0  0  0  0  0  0  0  0  0  0  0
  146.3933  131.1431  149.8472 H   0  0  0  0  0  0  0  0  0  0  0  0
  145.9297  132.4560  148.7720 H   0  0  0  0  0  0  0  0  0  0  0  0
  147.4012  133.2890  150.5809 H   0  0  0  0  0  0  0  0  0  0  0  0
  145.2462  132.2682  152.4840 H   0  0  0  0  0  0  0  0  0  0  0  0
  146.8701  131.6349  152.3354 H   0  0  0  0  0  0  0  0  0  0  0  0
  146.6600  133.2175  154.2660 H   0  0  0  0  0  0  0  0  0  0  0  0
  147.8372  133.7704  153.0987 H   0  0  0  0  0  0  0  0  0  0  0  0
  144.9503  134.7720  153.3537 H   0  0  0  0  0  0  0  0  0  0  0  0
  146.4065  135.6478  153.7848 H   0  0  0  0  0  0  0  0  0  0  0  0
  145.7509  137.1946  150.5915 H   0  0  0  0  0  0  0  0  0  0  0  0
  144.3842  136.6544  151.5335 H   0  0  0  0  0  0  0  0  0  0  0  0
  145.4849  138.7221  152.4897 H   0  0  0  0  0  0  0  0  0  0  0  0
  145.3275  137.4183  153.6415 H   0  0  0  0  0  0  0  0  0  0  0  0
  147.8334  137.0989  152.4358 H   0  0  0  0  0  0  0  0  0  0  0  0
  149.5641  137.7011  153.1803 H   0  0  0  0  0  0  0  0  0  0  0  0
  151.0244  141.5877  156.5074 H   0  0  0  0  0  0  0  0  0  0  0  0
  153.1923  140.0431  156.0967 H   0  0  0  0  0  0  0  0  0  0  0  0
  145.6932  134.8248  149.7016 H   0  0  0  0  0  0  0  0  0  0  0  0
  144.5226  134.2724  150.8782 H   0  0  0  0  0  0  0  0  0  0  0  0
  147.0820  135.5505  151.5134 H   0  0  0  0  0  0  0  0  0  0  0  0
  1  2  1  0  0  0  0
  1 19  1  0  0  0  0
  1 20  1  0  0  0  0
  1 21  1  0  0  0  0
  2 18  1  0  0  0  0
  2  3  1  0  0  0  0
  2 22  1  0  0  0  0
  3  4  1  0  0  0  0
  3 23  1  0  0  0  0
  3 24  1  0  0  0  0
  4  5  1  0  0  0  0
  4 25  1  0  0  0  0
  4 26  1  0  0  0  0
  5  6  1  0  0  0  0
  5 27  1  0  0  0  0
  5 28  1  0  0  0  0
  6  7  1  0  0  0  0
  6 18  1  0  0  0  0
  6 39  1  0  0  0  0
  7  8  1  0  0  0  0
  7 29  1  0  0  0  0
  7 30  1  0  0  0  0
  8  9  1  0  0  0  0
  8 31  1  0  0  0  0
  8 32  1  0  0  0  0
  9 10  1  0  0  0  0
  9 33  1  0  0  0  0
 10 11  2  0  0  0  0
 10 12  1  0  0  0  0
 12 13  1  0  0  0  0
 12 34  1  0  0  0  0
 13 17  1  0  0  0  0
 13 14  2  0  0  0  0
 14 15  1  0  0  0  0
 15 16  2  0  0  0  0
 15 35  1  0  0  0  0
 16 17  1  0  0  0  0
 16 36  1  0  0  0  0
 18 37  1  0  0  0  0
 18 38  1  0  0  0  0
M  CHG  1   6   1
M  END
> <s_m_source_file>
AV-unprocessed.smi

> <i_m_source_file_index>
1278

> <i_lp_mmshare_version>
43012

> <i_f3d_flags>
0

> <s_epik_input>
W0NIM11bQ0BASF0xW0NIMl1bQ0gyXVtDSDJdTihbQ0gyXTEpW0NIMl1bQ0gyXVtOSF1DKD1PKVtOSF1jMm5bY0hdW2NIXXMy

> <s_epik_cmdline>
J2VwaWtfcHl0aG9uJywgJy1waCcsICc3LjAnLCAnLXRuJywgJzgnLCAnLW1hJywgJzIwMCcsICctbWV0YWxfYmluZGluZycsICctaW1hZScsICc8aW5maWxlLm1hZT4nLCAnLW9tYWUnLCAnPG91dGZpbGUubWFlPic=

> <r_lp_tautomer_probability>
0.999

> <r_epik_Ionization_Penalty>
0.00222194

> <r_epik_Ionization_Penalty_Charging>
0.00208169

> <r_epik_Ionization_Penalty_Neutral>
0.000140251

> <r_epik_State_Penalty>
0.00142585

> <r_epik_Charging_Adjusted_Penalty>
0.00350754

> <i_epik_Tot_Q>
1

> <i_epik_Tot_abs_Q>
1

> <r_epik_Metal_State_Penalty>
0.0570424

> <b_epik_Metal_Only>
0

> <s_lp_Force_Field>
OPLS_2005

> <r_lp_Energy>
14.0127

> <b_lp_Chiralities_Consistent>
1

> <s_lp_Variant>
AV-unprocessed.smi:1278-1

> <Gold.Version>
5.8.1

> <Gold.Id.Protein>
6NUR|6NUR_protein|mol2

> <Gold.PLP.Fitness>
43.4764

> <Gold.PLP.PLP>
-32.1813

> <Gold.PLP.part.hbond>
-3.7331

> <Gold.PLP.part.metal>
0.0000

> <Gold.PLP.part.buried>
-1.9504

> <Gold.PLP.part.nonpolar>
-27.6053

> <Gold.PLP.part.repulsive>
0.3138

> <Gold.PLP.ligand.clash>
0.0000

> <Gold.PLP.ligand.torsion>
0.1735

> <Gold.PLP.Chemscore.Hbond>
3.8713

> <Gold.PLP.Chemscore.CHOScore>
0.0000

> <Gold.PLP.Chemscore.Metal>
0.0000

> <Gold.Chemscore.Hbonds>
donor molecule, donor type, donor heavy atom, donor atom, acceptor molecule, acceptor atom, score
      L1  H     6    39       P1  7948  2.00
      L1  H     9    33       P1  7948  0.98
      L1  H    12    34       P1  7948  0.86

> <Gold.PLP.Chemscore.Internal.Correction>
0.0284

> <Gold.Rescore>
     Score         DG    S(hbond)    S(metal)    S(lipo)     H(rot)  DE(clash)    DE(int)     intcor
     17.15     -18.54       2.67        0.00      70.54       1.60       0.01       1.39       ----

> <Gold.Chemscore.Fitness>
17.1470

> <Gold.Chemscore.DG>
-18.5405

> <Gold.Chemscore.ZeroCoef>
-5.4800

> <Gold.Chemscore.Hbond>
2.6659

> <Gold.Chemscore.Metal>
0.0000

> <Gold.Chemscore.Lipo>
70.5359

> <Gold.Chemscore.Internal_Hbond>
0.0000

> <Gold.Chemscore.DEClash>
0.0060

> <Gold.Chemscore.DEInternal>
1.3875

> <Gold.Chemscore.Rot>
1.6001

> <Gold.Chemscore.Internal.Correction>
   9.000000E+99

> <Gold.Chemscore.Hbonds>
donor molecule, donor type, donor heavy atom, donor atom, acceptor molecule, acceptor atom, score
      L1  H     6    39       P1  7948  0.96
      L1  H     9    33       P1  7948  0.91
      L1  H    12    34       P1  7948  0.69

> <Gold.Chemscore.Hbond.Weighted>
-8.9040

> <Gold.Chemscore.Metal.Weighted>
-0.0000

> <Gold.Chemscore.Lipo.Weighted>
-8.2527

> <Gold.Chemscore.Internal_Hbond.Weighted>
0.0000

> <Gold.Chemscore.DEClash.Weighted>
0.0060

> <Gold.Chemscore.DEInternal.Weighted>
1.3875

> <Gold.Chemscore.Rot.Weighted>
4.0963

> <Gold.Chemscore.Internal.Correction.Weighted>
   9.000000E+99

> <Gold.Protein.RotatedTorsions>
[ 6907 6896 6895 6894 ] final -142.14 input  -60.11 | X-H torsion
[ 7974 7965 7964 7962 ] final -179.28 input  175.53 | X-H torsion
[ 8008 7997 7996 7995 ] final  -63.19 input   59.86 | X-H torsion
[ 10167 10162 10161 10158 ] final  -38.26 input  -65.29 | X-H torsion
[ 10718 10713 10712 10709 ] final  105.65 input   66.30 | X-H torsion
[ 10763 10752 10751 10750 ] final  179.99 input  -60.55 | X-H torsion
[ 11005 11000 10999 10996 ] final  113.21 input  -57.11 | X-H torsion

> <Gold.Protein.ActiveResidues>
 VAL166  LYS551  ARG553  GLY616  TRP617  ASP618  TYR619  PRO620  LYS621  CYS622 
 ASP623  PHE694  ASN695  SER759  ASP760  ASP761  ALA762  ILE779  LEU786  VAL792 
 PHE793  MET794  SER795  GLU796  ALA797  LYS798  CYS799  TRP800  GLU811  SER814 

> <Gold.Protein.RotatedAtoms>
  151.0831  133.5374  159.2619 H   0  0  0  0  0  0  0  0  0  0  0  0  # atno 6907 bound_to 6896
  151.2270  135.0539  159.8982 H   0  0  0  0  0  0  0  0  0  0  0  0  # atno 6908 bound_to 6896
  152.5426  134.0626  159.8212 H   0  0  0  0  0  0  0  0  0  0  0  0  # atno 6909 bound_to 6896
  144.7135  140.0741  143.6428 H   0  0  0  0  0  0  0  0  0  0  0  0  # atno 7974 bound_to 7965
  154.4541  140.0980  156.6705 H   0  0  0  0  0  0  0  0  0  0  0  0  # atno 8008 bound_to 7997
  155.5194  140.3478  155.4385 H   0  0  0  0  0  0  0  0  0  0  0  0  # atno 8009 bound_to 7997
  156.0741  140.1357  156.9782 H   0  0  0  0  0  0  0  0  0  0  0  0  # atno 8010 bound_to 7997
  140.7097  143.3288  151.2616 H   0  0  0  0  0  0  0  0  0  0  0  0  # atno 10167 bound_to 10162
  157.6697  131.0833  150.5889 H   0  0  0  0  0  0  0  0  0  0  0  0  # atno 10718 bound_to 10713
  154.5278  135.2798  155.1207 H   0  0  0  0  0  0  0  0  0  0  0  0  # atno 10763 bound_to 10752
  154.2739  135.6298  153.5324 H   0  0  0  0  0  0  0  0  0  0  0  0  # atno 10764 bound_to 10752
  152.9950  135.5635  154.5783 H   0  0  0  0  0  0  0  0  0  0  0  0  # atno 10765 bound_to 10752
  139.8947  134.9545  156.6704 H   0  0  0  0  0  0  0  0  0  0  0  0  # atno 11005 bound_to 11000
  145.9758  139.2904  143.1071 LP  0  0  0  0  0  0  0  0  0  0  0  0  # atno 17320 bound_to 7965
  145.9066  140.9208  143.0476 LP  0  0  0  0  0  0  0  0  0  0  0  0  # atno 17321 bound_to 7965
  139.6764  143.9930  152.2783 LP  0  0  0  0  0  0  0  0  0  0  0  0  # atno 17342 bound_to 10162
  139.9545  144.6598  150.8139 LP  0  0  0  0  0  0  0  0  0  0  0  0  # atno 17343 bound_to 10162
  156.6189  130.4400  149.5830 LP  0  0  0  0  0  0  0  0  0  0  0  0  # atno 17370 bound_to 10713
  156.2371  130.6829  151.1520 LP  0  0  0  0  0  0  0  0  0  0  0  0  # atno 17371 bound_to 10713
  140.7377  133.9004  155.8256 LP  0  0  0  0  0  0  0  0  0  0  0  0  # atno 17394 bound_to 11000
  141.0102  134.1030  157.4229 LP  0  0  0  0  0  0  0  0  0  0  0  0  # atno 17395 bound_to 11000

$$$$
