AV-unprocessed.smi:2517|AV-procd|sdf|9900|dock3
  -GOLD-   2272013533D 1   1.00000     0.00000
 Structure written by MMmdl.
 41 42  0  0  0  0  0  0  0  0  1 V2000
  150.7058  145.2811  159.6277 C   0  0  0  0  0  0  0  0  0  0  0  0
  152.1885  144.9687  159.3975 C   0  0  0  0  0  0  0  0  0  0  0  0
  152.4600  143.4894  159.4094 C   0  0  0  0  0  0  0  0  0  0  0  0
  153.2538  142.9696  160.3360 N   0  0  0  0  0  0  0  0  0  0  0  0
  153.2805  141.6406  160.0768 N   0  0  0  0  0  0  0  0  0  0  0  0
  154.0706  140.7703  160.9206 C   0  0  0  0  0  0  0  0  0  0  0  0
  152.5044  141.3043  158.9865 C   0  0  0  0  0  0  0  0  0  0  0  0
  151.9640  142.4781  158.5427 C   0  0  0  0  0  0  0  0  0  0  0  0
  151.0789  142.7021  157.4571 N   0  0  0  0  0  0  0  0  0  0  0  0
  150.7574  141.8449  156.4749 C   0  0  0  0  0  0  0  0  0  0  0  0
  151.2150  140.7094  156.3457 O   0  0  0  0  0  0  0  0  0  0  0  0
  149.8641  142.3818  155.6350 N   0  0  0  0  0  0  0  0  0  0  0  0
  149.3051  141.6973  154.4769 C   0  0  0  0  0  0  0  0  0  0  0  0
  147.8593  141.2607  154.7502 C   0  0  0  0  0  0  0  0  0  0  0  0
  147.7981  140.1510  155.6468 O   0  0  0  0  0  0  0  0  0  0  0  0
  148.3923  138.9445  155.1857 C   0  0  0  0  0  0  0  0  0  0  0  0
  146.8691  142.3304  155.2488 C   0  0  0  0  0  0  0  0  0  0  0  0
  146.3600  142.4738  153.8135 C   0  0  0  0  0  0  0  0  0  0  0  0
  146.9039  141.0679  153.5553 C   0  0  0  0  0  0  0  0  0  0  0  0
  150.5285  146.3564  159.6137 H   0  0  0  0  0  0  0  0  0  0  0  0
  150.3670  144.9001  160.5914 H   0  0  0  0  0  0  0  0  0  0  0  0
  150.0858  144.8308  158.8521 H   0  0  0  0  0  0  0  0  0  0  0  0
  152.5053  145.3989  158.4472 H   0  0  0  0  0  0  0  0  0  0  0  0
  152.7860  145.4639  160.1639 H   0  0  0  0  0  0  0  0  0  0  0  0
  153.9416  139.7322  160.6128 H   0  0  0  0  0  0  0  0  0  0  0  0
  153.7531  140.8739  161.9586 H   0  0  0  0  0  0  0  0  0  0  0  0
  155.1248  141.0361  160.8393 H   0  0  0  0  0  0  0  0  0  0  0  0
  152.4098  140.2854  158.6417 H   0  0  0  0  0  0  0  0  0  0  0  0
  150.6357  143.6088  157.4319 H   0  0  0  0  0  0  0  0  0  0  0  0
  149.5357  143.3196  155.8134 H   0  0  0  0  0  0  0  0  0  0  0  0
  149.3419  142.3775  153.6249 H   0  0  0  0  0  0  0  0  0  0  0  0
  149.9285  140.8445  154.2059 H   0  0  0  0  0  0  0  0  0  0  0  0
  148.1833  138.1479  155.8996 H   0  0  0  0  0  0  0  0  0  0  0  0
  149.4757  139.0316  155.1067 H   0  0  0  0  0  0  0  0  0  0  0  0
  147.9930  138.6363  154.2194 H   0  0  0  0  0  0  0  0  0  0  0  0
  146.1083  141.9329  155.9232 H   0  0  0  0  0  0  0  0  0  0  0  0
  147.3289  143.2318  155.6547 H   0  0  0  0  0  0  0  0  0  0  0  0
  145.2781  142.5705  153.7195 H   0  0  0  0  0  0  0  0  0  0  0  0
  146.8887  143.2444  153.2503 H   0  0  0  0  0  0  0  0  0  0  0  0
  147.3968  140.9446  152.5907 H   0  0  0  0  0  0  0  0  0  0  0  0
  146.1508  140.2955  153.7223 H   0  0  0  0  0  0  0  0  0  0  0  0
  1  2  1  0  0  0  0
  1 20  1  0  0  0  0
  1 21  1  0  0  0  0
  1 22  1  0  0  0  0
  2  3  1  0  0  0  0
  2 23  1  0  0  0  0
  2 24  1  0  0  0  0
  3  8  1  0  0  0  0
  3  4  2  0  0  0  0
  4  5  1  0  0  0  0
  5  6  1  0  0  0  0
  5  7  1  0  0  0  0
  6 25  1  0  0  0  0
  6 26  1  0  0  0  0
  6 27  1  0  0  0  0
  7  8  2  0  0  0  0
  7 28  1  0  0  0  0
  8  9  1  0  0  0  0
  9 10  1  0  0  0  0
  9 29  1  0  0  0  0
 10 11  2  0  0  0  0
 10 12  1  0  0  0  0
 12 13  1  0  0  0  0
 12 30  1  0  0  0  0
 13 14  1  0  0  0  0
 13 31  1  0  0  0  0
 13 32  1  0  0  0  0
 14 19  1  0  0  0  0
 14 15  1  0  0  0  0
 14 17  1  0  0  0  0
 15 16  1  0  0  0  0
 16 33  1  0  0  0  0
 16 34  1  0  0  0  0
 16 35  1  0  0  0  0
 17 18  1  0  0  0  0
 17 36  1  0  0  0  0
 17 37  1  0  0  0  0
 18 19  1  0  0  0  0
 18 38  1  0  0  0  0
 18 39  1  0  0  0  0
 19 40  1  0  0  0  0
 19 41  1  0  0  0  0
M  END
> <s_m_source_file>
AV-unprocessed.smi

> <i_m_source_file_index>
2517

> <i_lp_mmshare_version>
43012

> <i_f3d_flags>
0

> <s_epik_input>
W0NIM11bQ0gyXWMxbm4oW0NIM10pW2NIXWMxW05IXUMoPU8pW05IXVtDSDJdQzIoT1tDSDNdKVtDSDJdW0NIMl1bQ0gyXTI=

> <s_epik_cmdline>
J2VwaWtfcHl0aG9uJywgJy1waCcsICc3LjAnLCAnLXRuJywgJzgnLCAnLW1hJywgJzIwMCcsICctbWV0YWxfYmluZGluZycsICctaW1hZScsICc8aW5maWxlLm1hZT4nLCAnLW9tYWUnLCAnPG91dGZpbGUubWFlPic=

> <r_lp_tautomer_probability>
1

> <r_epik_Ionization_Penalty>
0.000729918

> <r_epik_Ionization_Penalty_Charging>
0

> <r_epik_Ionization_Penalty_Neutral>
0.000729918

> <r_epik_State_Penalty>
-0

> <r_epik_Charging_Adjusted_Penalty>
0

> <i_epik_Tot_Q>
0

> <i_epik_Tot_abs_Q>
0

> <r_epik_Metal_State_Penalty>
-0

> <b_epik_Metal_Only>
0

> <s_lp_Force_Field>
OPLS_2005

> <r_lp_Energy>
14.833

> <b_lp_Chiralities_Consistent>
1

> <s_lp_Variant>
AV-unprocessed.smi:2517-1

> <Gold.Version>
5.8.1

> <Gold.Id.Protein>
6NUR|6NUR_protein|mol2

> <Gold.PLP.Fitness>
44.0257

> <Gold.PLP.PLP>
-41.5449

> <Gold.PLP.part.hbond>
-1.0000

> <Gold.PLP.part.metal>
0.0000

> <Gold.PLP.part.buried>
-4.7386

> <Gold.PLP.part.nonpolar>
-35.8602

> <Gold.PLP.part.repulsive>
0.2221

> <Gold.PLP.ligand.clash>
0.0000

> <Gold.PLP.ligand.torsion>
0.4234

> <Gold.PLP.Chemscore.Hbond>
1.0000

> <Gold.PLP.Chemscore.CHOScore>
0.0000

> <Gold.PLP.Chemscore.Metal>
0.0000

> <Gold.Chemscore.Hbonds>
donor molecule, donor type, donor heavy atom, donor atom, acceptor molecule, acceptor atom, score
      L1  H    12    30       P1  8028  1.00

> <Gold.PLP.Chemscore.Internal.Correction>
0.3276

> <Gold.Rescore>
     Score         DG    S(hbond)    S(metal)    S(lipo)     H(rot)  DE(clash)    DE(int)     intcor
     14.91     -16.53       0.98        0.00     100.30       1.55       0.11       1.51       ----

> <Gold.Chemscore.Fitness>
14.9113

> <Gold.Chemscore.DG>
-16.5310

> <Gold.Chemscore.ZeroCoef>
-5.4800

> <Gold.Chemscore.Hbond>
0.9826

> <Gold.Chemscore.Metal>
0.0000

> <Gold.Chemscore.Lipo>
100.3013

> <Gold.Chemscore.Internal_Hbond>
0.0000

> <Gold.Chemscore.DEClash>
0.1083

> <Gold.Chemscore.DEInternal>
1.5114

> <Gold.Chemscore.Rot>
1.5493

> <Gold.Chemscore.Internal.Correction>
   9.000000E+99

> <Gold.Chemscore.Hbonds>
donor molecule, donor type, donor heavy atom, donor atom, acceptor molecule, acceptor atom, score
      L1  H    12    30       P1  8028  0.95

> <Gold.Chemscore.Hbond.Weighted>
-3.2818

> <Gold.Chemscore.Metal.Weighted>
-0.0000

> <Gold.Chemscore.Lipo.Weighted>
-11.7353

> <Gold.Chemscore.Internal_Hbond.Weighted>
0.0000

> <Gold.Chemscore.DEClash.Weighted>
0.1083

> <Gold.Chemscore.DEInternal.Weighted>
1.5114

> <Gold.Chemscore.Rot.Weighted>
3.9661

> <Gold.Chemscore.Internal.Correction.Weighted>
   9.000000E+99

> <Gold.Protein.RotatedTorsions>
[ 6907 6896 6895 6894 ] final -149.70 input  -60.11 | X-H torsion
[ 7974 7965 7964 7962 ] final  124.58 input  175.53 | X-H torsion
[ 8008 7997 7996 7995 ] final   42.27 input   59.86 | X-H torsion
[ 10167 10162 10161 10158 ] final  163.60 input  -65.29 | X-H torsion
[ 10718 10713 10712 10709 ] final -166.85 input   66.30 | X-H torsion
[ 10763 10752 10751 10750 ] final   79.93 input  -60.55 | X-H torsion
[ 11005 11000 10999 10996 ] final  111.72 input  -57.11 | X-H torsion

> <Gold.Protein.ActiveResidues>
 VAL166  LYS551  ARG553  GLY616  TRP617  ASP618  TYR619  PRO620  LYS621  CYS622 
 ASP623  PHE694  ASN695  SER759  ASP760  ASP761  ALA762  ILE779  LEU786  VAL792 
 PHE793  MET794  SER795  GLU796  ALA797  LYS798  CYS799  TRP800  GLU811  SER814 

> <Gold.Protein.RotatedAtoms>
  151.1878  133.4685  159.2594 H   0  0  0  0  0  0  0  0  0  0  0  0  # atno 6907 bound_to 6896
  151.1194  135.0070  159.8541 H   0  0  0  0  0  0  0  0  0  0  0  0  # atno 6908 bound_to 6896
  152.5455  134.1791  159.8681 H   0  0  0  0  0  0  0  0  0  0  0  0  # atno 6909 bound_to 6896
  145.0827  139.3645  143.4901 H   0  0  0  0  0  0  0  0  0  0  0  0  # atno 7974 bound_to 7965
  155.2834  140.3374  155.4257 H   0  0  0  0  0  0  0  0  0  0  0  0  # atno 8008 bound_to 7997
  156.2079  140.1758  156.7800 H   0  0  0  0  0  0  0  0  0  0  0  0  # atno 8009 bound_to 7997
  154.5646  140.0681  156.8856 H   0  0  0  0  0  0  0  0  0  0  0  0  # atno 8010 bound_to 7997
  139.4876  144.4320  151.9058 H   0  0  0  0  0  0  0  0  0  0  0  0  # atno 10167 bound_to 10162
  156.6739  130.9095  151.3047 H   0  0  0  0  0  0  0  0  0  0  0  0  # atno 10718 bound_to 10713
  153.0992  135.4821  154.8836 H   0  0  0  0  0  0  0  0  0  0  0  0  # atno 10763 bound_to 10752
  154.7360  135.3071  154.8813 H   0  0  0  0  0  0  0  0  0  0  0  0  # atno 10764 bound_to 10752
  153.9435  135.6831  153.4797 H   0  0  0  0  0  0  0  0  0  0  0  0  # atno 10765 bound_to 10752
  139.8910  134.9514  156.6476 H   0  0  0  0  0  0  0  0  0  0  0  0  # atno 11005 bound_to 11000
  146.3531  140.0625  142.8628 LP  0  0  0  0  0  0  0  0  0  0  0  0  # atno 17320 bound_to 7965
  145.1159  140.9433  143.4629 LP  0  0  0  0  0  0  0  0  0  0  0  0  # atno 17321 bound_to 7965
  140.3768  144.2786  150.5913 LP  0  0  0  0  0  0  0  0  0  0  0  0  # atno 17342 bound_to 10162
  140.5269  143.2252  151.8300 LP  0  0  0  0  0  0  0  0  0  0  0  0  # atno 17343 bound_to 10162
  157.7067  130.9393  150.0955 LP  0  0  0  0  0  0  0  0  0  0  0  0  # atno 17370 bound_to 10713
  156.1918  130.3655  149.8900 LP  0  0  0  0  0  0  0  0  0  0  0  0  # atno 17371 bound_to 10713
  140.7546  133.8869  155.8372 LP  0  0  0  0  0  0  0  0  0  0  0  0  # atno 17394 bound_to 11000
  140.9973  134.1198  157.4351 LP  0  0  0  0  0  0  0  0  0  0  0  0  # atno 17395 bound_to 11000

$$$$
