AV-unprocessed.smi:2722|AV-procd|sdf|10504|dock1
  -GOLD-   2272014543D 1   1.00000     0.00000
 Structure written by MMmdl.
 27 27  0  0  0  0  0  0  0  0  2 V2000
  149.3848  138.5646  154.5318 C   0  0  0  0  0  0  0  0  0  0  0  0
  150.4345  139.3065  155.3892 C   0  0  1  0  0  0  0  0  0  0  0  0
  150.7142  140.5144  154.7056 O   0  0  0  0  0  0  0  0  0  0  0  0
  149.8832  139.7052  156.7943 C   0  0  0  0  0  0  0  0  0  0  0  0
  150.8522  140.3422  157.7099 N   0  0  0  0  0  0  0  0  0  0  0  0
  150.8649  141.7515  157.7581 C   0  0  0  0  0  0  0  0  0  0  0  0
  151.6948  142.4536  158.5515 C   0  0  0  0  0  0  0  0  0  0  0  0
  151.6871  143.9737  158.5461 C   0  0  0  0  0  0  0  0  0  0  0  0
  150.4930  144.4267  158.9271 F   0  0  0  0  0  0  0  0  0  0  0  0
  152.6070  144.4720  159.3729 F   0  0  0  0  0  0  0  0  0  0  0  0
  151.9306  144.4362  157.3200 F   0  0  0  0  0  0  0  0  0  0  0  0
  152.6038  141.6836  159.3774 C   0  0  0  0  0  0  0  0  0  0  0  0
  152.5907  140.3366  159.3609 C   0  0  0  0  0  0  0  0  0  0  0  0
  151.6632  139.5871  158.5098 C   0  0  0  0  0  0  0  0  0  0  0  0
  151.6181  138.3570  158.5239 O   0  0  0  0  0  0  0  0  0  0  0  0
  151.7435  138.4885  155.4905 C   0  0  0  0  0  0  0  0  0  0  0  0
  152.7247  139.0554  156.0223 O   0  0  0  0  0  0  0  0  0  0  0  0
  151.7467  137.3100  155.0697 O   0  5  0  0  0  0  0  0  0  0  0  0
  149.1089  137.6022  154.9623 H   0  0  0  0  0  0  0  0  0  0  0  0
  149.7562  138.3733  153.5240 H   0  0  0  0  0  0  0  0  0  0  0  0
  148.4705  139.1505  154.4345 H   0  0  0  0  0  0  0  0  0  0  0  0
  150.7669  141.2057  155.3481 H   0  0  0  0  0  0  0  0  0  0  0  0
  149.0442  140.3912  156.6628 H   0  0  0  0  0  0  0  0  0  0  0  0
  149.4296  138.8343  157.2711 H   0  0  0  0  0  0  0  0  0  0  0  0
  150.1597  142.2323  157.0956 H   0  0  0  0  0  0  0  0  0  0  0  0
  153.3073  142.1906  160.0205 H   0  0  0  0  0  0  0  0  0  0  0  0
  153.2814  139.7936  159.9891 H   0  0  0  0  0  0  0  0  0  0  0  0
  1  2  1  0  0  0  0
  1 19  1  0  0  0  0
  1 20  1  0  0  0  0
  1 21  1  0  0  0  0
  2  3  1  0  0  0  0
  2  4  1  0  0  0  0
  2 16  1  0  0  0  0
  3 22  1  0  0  0  0
  4  5  1  0  0  0  0
  4 23  1  0  0  0  0
  4 24  1  0  0  0  0
  5 14  1  0  0  0  0
  5  6  1  0  0  0  0
  6  7  2  0  0  0  0
  6 25  1  0  0  0  0
  7  8  1  0  0  0  0
  7 12  1  0  0  0  0
  8  9  1  0  0  0  0
  8 10  1  0  0  0  0
  8 11  1  0  0  0  0
 12 13  2  0  0  0  0
 12 26  1  0  0  0  0
 13 14  1  0  0  0  0
 13 27  1  0  0  0  0
 14 15  2  0  0  0  0
 16 17  2  0  0  0  0
 16 18  1  0  0  0  0
M  CHG  1  18  -1
M  END
> <s_m_source_file>
AV-unprocessed.smi

> <i_m_source_file_index>
2722

> <i_lp_mmshare_version>
43012

> <i_f3d_flags>
0

> <s_epik_input>
Tz1DKFtPSF0pW0NAXShbQ0gzXSkoW09IXSlbQ0gyXW4xW2NIXWMoQyhGKShGKUYpW2NIXVtjSF1jMT1P

> <s_epik_cmdline>
J2VwaWtfcHl0aG9uJywgJy1waCcsICc3LjAnLCAnLXRuJywgJzgnLCAnLW1hJywgJzIwMCcsICctbWV0YWxfYmluZGluZycsICctaW1hZScsICc8aW5maWxlLm1hZT4nLCAnLW9tYWUnLCAnPG91dGZpbGUubWFlPic=

> <r_lp_tautomer_probability>
1

> <r_epik_Ionization_Penalty>
0.000391429

> <r_epik_Ionization_Penalty_Charging>
0.000383902

> <r_epik_Ionization_Penalty_Neutral>
7.52792e-06

> <r_epik_State_Penalty>
0.000234534

> <r_epik_Charging_Adjusted_Penalty>
0.000618436

> <i_epik_Tot_Q>
-1

> <i_epik_Tot_abs_Q>
1

> <r_epik_Metal_State_Penalty>
-0

> <b_epik_Metal_Only>
0

> <s_lp_Force_Field>
OPLS_2005

> <r_lp_Energy>
15.2908

> <b_lp_Chiralities_Consistent>
1

> <s_lp_Variant>
AV-unprocessed.smi:2722-1

> <Gold.Version>
5.8.1

> <Gold.Id.Protein>
6NUR|6NUR_protein|mol2

> <Gold.PLP.Fitness>
50.0634

> <Gold.PLP.PLP>
-36.3375

> <Gold.PLP.part.hbond>
-2.8223

> <Gold.PLP.part.metal>
0.0000

> <Gold.PLP.part.buried>
-5.9523

> <Gold.PLP.part.nonpolar>
-28.1262

> <Gold.PLP.part.repulsive>
0.0894

> <Gold.PLP.ligand.clash>
0.0000

> <Gold.PLP.ligand.torsion>
0.5168

> <Gold.PLP.Chemscore.Hbond>
4.8560

> <Gold.PLP.Chemscore.CHOScore>
0.0000

> <Gold.PLP.Chemscore.Metal>
0.0000

> <Gold.Chemscore.Hbonds>
donor molecule, donor type, donor heavy atom, donor atom, acceptor molecule, acceptor atom, score
      P1  H  7989  7998       L1     3  1.00
      P1  H  7997  8010       L1    17  2.00
      P1  H 10752 10765       L1    18  1.50

> <Gold.PLP.Chemscore.Internal.Correction>
0.1916

> <Gold.Rescore>
     Score         DG    S(hbond)    S(metal)    S(lipo)     H(rot)  DE(clash)    DE(int)     intcor
     11.17     -14.36       2.71        0.00      56.13       2.63       0.01       3.18       ----

> <Gold.Chemscore.Fitness>
11.1707

> <Gold.Chemscore.DG>
-14.3617

> <Gold.Chemscore.ZeroCoef>
-5.4800

> <Gold.Chemscore.Hbond>
2.7123

> <Gold.Chemscore.Metal>
0.0000

> <Gold.Chemscore.Lipo>
56.1334

> <Gold.Chemscore.Internal_Hbond>
0.0000

> <Gold.Chemscore.DEClash>
0.0106

> <Gold.Chemscore.DEInternal>
3.1804

> <Gold.Chemscore.Rot>
2.6348

> <Gold.Chemscore.Internal.Correction>
   9.000000E+99

> <Gold.Chemscore.Hbonds>
donor molecule, donor type, donor heavy atom, donor atom, acceptor molecule, acceptor atom, score
      P1  H  7989  7998       L1     3  0.64
      P1  H  7997  8010       L1    17  0.98
      P1  H 10752 10765       L1    18  0.71

> <Gold.Chemscore.Hbond.Weighted>
-9.0592

> <Gold.Chemscore.Metal.Weighted>
-0.0000

> <Gold.Chemscore.Lipo.Weighted>
-6.5676

> <Gold.Chemscore.Internal_Hbond.Weighted>
0.0000

> <Gold.Chemscore.DEClash.Weighted>
0.0106

> <Gold.Chemscore.DEInternal.Weighted>
3.1804

> <Gold.Chemscore.Rot.Weighted>
6.7451

> <Gold.Chemscore.Internal.Correction.Weighted>
   9.000000E+99

> <Gold.Protein.RotatedTorsions>
[ 6907 6896 6895 6894 ] final   30.90 input  -60.11 | X-H torsion
[ 7974 7965 7964 7962 ] final  -56.37 input  175.53 | X-H torsion
[ 8008 7997 7996 7995 ] final   89.30 input   59.86 | X-H torsion
[ 10167 10162 10161 10158 ] final   13.43 input  -65.29 | X-H torsion
[ 10718 10713 10712 10709 ] final -155.55 input   66.30 | X-H torsion
[ 10763 10752 10751 10750 ] final  176.48 input  -60.55 | X-H torsion
[ 11005 11000 10999 10996 ] final  -41.80 input  -57.11 | X-H torsion

> <Gold.Protein.ActiveResidues>
 VAL166  LYS551  ARG553  GLY616  TRP617  ASP618  TYR619  PRO620  LYS621  CYS622 
 ASP623  PHE694  ASN695  SER759  ASP760  ASP761  ALA762  ILE779  LEU786  VAL792 
 PHE793  MET794  SER795  GLU796  ALA797  LYS798  CYS799  TRP800  GLU811  SER814 

> <Gold.Protein.RotatedAtoms>
  152.0526  134.9644  160.0574 H   0  0  0  0  0  0  0  0  0  0  0  0  # atno 6907 bound_to 6896
  152.1039  133.4260  159.4608 H   0  0  0  0  0  0  0  0  0  0  0  0  # atno 6908 bound_to 6896
  150.6840  134.2647  159.4607 H   0  0  0  0  0  0  0  0  0  0  0  0  # atno 6909 bound_to 6896
  145.8634  140.8269  142.9925 H   0  0  0  0  0  0  0  0  0  0  0  0  # atno 7974 bound_to 7965
  155.9982  140.3362  155.6819 H   0  0  0  0  0  0  0  0  0  0  0  0  # atno 8008 bound_to 7997
  155.6327  140.0686  157.2662 H   0  0  0  0  0  0  0  0  0  0  0  0  # atno 8009 bound_to 7997
  154.4241  140.1757  156.1476 H   0  0  0  0  0  0  0  0  0  0  0  0  # atno 8010 bound_to 7997
  140.6003  143.8618  150.6958 H   0  0  0  0  0  0  0  0  0  0  0  0  # atno 10167 bound_to 10162
  156.5144  130.8449  151.2658 H   0  0  0  0  0  0  0  0  0  0  0  0  # atno 10718 bound_to 10713
  154.4817  135.2775  155.1565 H   0  0  0  0  0  0  0  0  0  0  0  0  # atno 10763 bound_to 10752
  154.3272  135.6197  153.5538 H   0  0  0  0  0  0  0  0  0  0  0  0  # atno 10764 bound_to 10752
  152.9876  135.5757  154.5220 H   0  0  0  0  0  0  0  0  0  0  0  0  # atno 10765 bound_to 10752
  141.0271  133.6836  156.2508 H   0  0  0  0  0  0  0  0  0  0  0  0  # atno 11005 bound_to 11000
  144.6726  140.1130  143.7454 LP  0  0  0  0  0  0  0  0  0  0  0  0  # atno 17320 bound_to 7965
  145.9221  139.2552  143.1375 LP  0  0  0  0  0  0  0  0  0  0  0  0  # atno 17321 bound_to 7965
  140.2163  143.3844  152.1679 LP  0  0  0  0  0  0  0  0  0  0  0  0  # atno 17342 bound_to 10162
  139.5286  144.7133  151.5137 LP  0  0  0  0  0  0  0  0  0  0  0  0  # atno 17343 bound_to 10162
  157.7446  130.9938  150.2687 LP  0  0  0  0  0  0  0  0  0  0  0  0  # atno 17370 bound_to 10713
  156.3209  130.3786  149.7576 LP  0  0  0  0  0  0  0  0  0  0  0  0  # atno 17371 bound_to 10713
  140.6471  134.5105  157.5574 LP  0  0  0  0  0  0  0  0  0  0  0  0  # atno 17394 bound_to 11000
  139.9183  134.8200  156.1292 LP  0  0  0  0  0  0  0  0  0  0  0  0  # atno 17395 bound_to 11000

$$$$
