AV-unprocessed.smi:531|AV-procd|sdf|2847|dock9
  -GOLD-   2262023333D 1   1.00000     0.00000
 Structure written by MMmdl.
 45 47  0  0  0  0  0  0  0  0  2 V2000
  146.6660  142.6261  154.1168 C   0  0  0  0  0  0  0  0  0  0  0  0
  147.6485  141.5293  153.7002 C   0  0  0  0  0  0  0  0  0  0  0  0
  148.9517  141.9177  154.0942 O   0  0  0  0  0  0  0  0  0  0  0  0
  149.3149  141.4289  155.3744 C   0  0  0  0  0  0  0  0  0  0  0  0
  150.6800  142.0043  155.7762 C   0  0  0  0  0  0  0  0  0  0  0  0
  151.3733  141.1380  156.7296 N   0  0  0  0  0  0  0  0  0  0  0  0
  151.7838  141.4421  157.9918 C   0  0  0  0  0  0  0  0  0  0  0  0
  151.6147  142.7108  158.5510 N   0  0  0  0  0  0  0  0  0  0  0  0
  150.5026  143.6267  158.2941 C   0  0  0  0  0  0  0  0  0  0  0  0
  149.8998  144.1699  159.6023 C   0  0  0  0  0  0  0  0  0  0  0  0
  150.9760  144.8831  160.4322 C   0  0  0  0  0  0  0  0  0  0  0  0
  152.1945  143.9664  160.6102 C   0  0  0  0  0  0  0  0  0  0  0  0
  152.6781  143.4300  159.2508 C   0  0  0  0  0  0  0  0  0  0  0  0
  152.3132  140.4199  158.6658 N   0  0  0  0  0  0  0  0  0  0  0  0
  152.2584  139.3804  157.7513 C   0  0  0  0  0  0  0  0  0  0  0  0
  151.6905  139.7812  156.5819 C   0  0  0  0  0  0  0  0  0  0  0  0
  151.4567  138.8747  155.4329 C   0  0  0  0  0  0  0  0  0  0  0  0
  150.9215  139.2739  154.4011 O   0  0  0  0  0  0  0  0  0  0  0  0
  151.8950  137.6000  155.6809 N   0  5  0  0  0  0  0  0  0  0  0  0
  152.4782  137.1555  156.8473 C   0  0  0  0  0  0  0  0  0  0  0  0
  152.8372  135.9858  156.9900 O   0  0  0  0  0  0  0  0  0  0  0  0
  152.6689  138.0263  157.8872 N   0  0  0  0  0  0  0  0  0  0  0  0
  153.2818  137.5804  159.1420 C   0  0  0  0  0  0  0  0  0  0  0  0
  145.6470  142.3681  153.8282 H   0  0  0  0  0  0  0  0  0  0  0  0
  146.9183  143.5757  153.6442 H   0  0  0  0  0  0  0  0  0  0  0  0
  146.6816  142.7753  155.1966 H   0  0  0  0  0  0  0  0  0  0  0  0
  147.3778  140.5838  154.1725 H   0  0  0  0  0  0  0  0  0  0  0  0
  147.6091  141.3850  152.6195 H   0  0  0  0  0  0  0  0  0  0  0  0
  148.5613  141.7094  156.1115 H   0  0  0  0  0  0  0  0  0  0  0  0
  149.3633  140.3392  155.3556 H   0  0  0  0  0  0  0  0  0  0  0  0
  151.2995  142.1615  154.8971 H   0  0  0  0  0  0  0  0  0  0  0  0
  150.5547  142.9976  156.1954 H   0  0  0  0  0  0  0  0  0  0  0  0
  150.8690  144.4564  157.6880 H   0  0  0  0  0  0  0  0  0  0  0  0
  149.7400  143.1396  157.6879 H   0  0  0  0  0  0  0  0  0  0  0  0
  149.0828  144.8570  159.3816 H   0  0  0  0  0  0  0  0  0  0  0  0
  149.4705  143.3528  160.1826 H   0  0  0  0  0  0  0  0  0  0  0  0
  151.2807  145.7989  159.9245 H   0  0  0  0  0  0  0  0  0  0  0  0
  150.5760  145.1795  161.4022 H   0  0  0  0  0  0  0  0  0  0  0  0
  152.9998  144.5078  161.1073 H   0  0  0  0  0  0  0  0  0  0  0  0
  151.9343  143.1303  161.2604 H   0  0  0  0  0  0  0  0  0  0  0  0
  153.5278  142.7642  159.4058 H   0  0  0  0  0  0  0  0  0  0  0  0
  153.0348  144.2481  158.6236 H   0  0  0  0  0  0  0  0  0  0  0  0
  154.2581  137.1305  158.9558 H   0  0  0  0  0  0  0  0  0  0  0  0
  152.6498  136.8364  159.6288 H   0  0  0  0  0  0  0  0  0  0  0  0
  153.4327  138.3952  159.8496 H   0  0  0  0  0  0  0  0  0  0  0  0
  1  2  1  0  0  0  0
  1 24  1  0  0  0  0
  1 25  1  0  0  0  0
  1 26  1  0  0  0  0
  2  3  1  0  0  0  0
  2 27  1  0  0  0  0
  2 28  1  0  0  0  0
  3  4  1  0  0  0  0
  4  5  1  0  0  0  0
  4 29  1  0  0  0  0
  4 30  1  0  0  0  0
  5  6  1  0  0  0  0
  5 31  1  0  0  0  0
  5 32  1  0  0  0  0
  6 16  1  0  0  0  0
  6  7  1  0  0  0  0
  7  8  1  0  0  0  0
  7 14  2  0  0  0  0
  8 13  1  0  0  0  0
  8  9  1  0  0  0  0
  9 10  1  0  0  0  0
  9 33  1  0  0  0  0
  9 34  1  0  0  0  0
 10 11  1  0  0  0  0
 10 35  1  0  0  0  0
 10 36  1  0  0  0  0
 11 12  1  0  0  0  0
 11 37  1  0  0  0  0
 11 38  1  0  0  0  0
 12 13  1  0  0  0  0
 12 39  1  0  0  0  0
 12 40  1  0  0  0  0
 13 41  1  0  0  0  0
 13 42  1  0  0  0  0
 14 15  1  0  0  0  0
 15 22  1  0  0  0  0
 15 16  2  0  0  0  0
 16 17  1  0  0  0  0
 17 18  2  0  0  0  0
 17 19  1  0  0  0  0
 19 20  1  0  0  0  0
 20 21  2  0  0  0  0
 20 22  1  0  0  0  0
 22 23  1  0  0  0  0
 23 43  1  0  0  0  0
 23 44  1  0  0  0  0
 23 45  1  0  0  0  0
M  CHG  1  19  -1
M  END
> <s_m_source_file>
AV-unprocessed.smi

> <i_m_source_file_index>
531

> <i_lp_mmshare_version>
43012

> <i_f3d_flags>
0

> <s_epik_input>
W0NIM11uMWMoPU8pW25IXWMoPU8pYyhjMTIpbihbQ0gyXVtDSDJdT1tDSDJdW0NIM10pYyhuMilOM1tDSDJdW0NIMl1bQ0gyXVtDSDJdW0NIMl0z

> <s_epik_cmdline>
J2VwaWtfcHl0aG9uJywgJy1waCcsICc3LjAnLCAnLXRuJywgJzgnLCAnLW1hJywgJzIwMCcsICctbWV0YWxfYmluZGluZycsICctaW1hZScsICc8aW5maWxlLm1hZT4nLCAnLW9tYWUnLCAnPG91dGZpbGUubWFlPic=

> <r_lp_tautomer_probability>
1

> <r_epik_Ionization_Penalty>
5.10252

> <r_epik_Ionization_Penalty_Charging>
0.0734613

> <r_epik_Ionization_Penalty_Neutral>
5.02906

> <r_epik_State_Penalty>
5.02576

> <r_epik_Charging_Adjusted_Penalty>
5.09922

> <i_epik_Tot_Q>
-1

> <i_epik_Tot_abs_Q>
1

> <r_epik_Metal_State_Penalty>
1.13821

> <b_epik_Metal_Only>
1

> <s_lp_Force_Field>
OPLS_2005

> <r_lp_Energy>
41.0851

> <b_lp_Chiralities_Consistent>
1

> <s_lp_Variant>
AV-unprocessed.smi:531-2

> <Gold.Version>
5.8.1

> <Gold.Id.Protein>
6NUR|6NUR_protein|mol2

> <Gold.PLP.Fitness>
48.6285

> <Gold.PLP.PLP>
-42.7285

> <Gold.PLP.part.hbond>
-3.0053

> <Gold.PLP.part.metal>
0.0000

> <Gold.PLP.part.buried>
-7.1728

> <Gold.PLP.part.nonpolar>
-32.9359

> <Gold.PLP.part.repulsive>
0.3617

> <Gold.PLP.ligand.clash>
0.0000

> <Gold.PLP.ligand.torsion>
1.0373

> <Gold.PLP.Chemscore.Hbond>
2.4800

> <Gold.PLP.Chemscore.CHOScore>
0.0000

> <Gold.PLP.Chemscore.Metal>
0.0000

> <Gold.Chemscore.Hbonds>
donor molecule, donor type, donor heavy atom, donor atom, acceptor molecule, acceptor atom, score
      P1  H  7989  7998       L1    18  1.00
      P1  H  8011  8017       L1     3  0.45
      P1  H 10752 10763       L1    21  1.00

> <Gold.PLP.Chemscore.Internal.Correction>
0.5345

> <Gold.Rescore>
     Score         DG    S(hbond)    S(metal)    S(lipo)     H(rot)  DE(clash)    DE(int)     intcor
     15.52     -18.67       2.01        0.00      90.14       1.59       0.61       2.54       ----

> <Gold.Chemscore.Fitness>
15.5224

> <Gold.Chemscore.DG>
-18.6701

> <Gold.Chemscore.ZeroCoef>
-5.4800

> <Gold.Chemscore.Hbond>
2.0118

> <Gold.Chemscore.Metal>
0.0000

> <Gold.Chemscore.Lipo>
90.1398

> <Gold.Chemscore.Internal_Hbond>
0.0000

> <Gold.Chemscore.DEClash>
0.6054

> <Gold.Chemscore.DEInternal>
2.5423

> <Gold.Chemscore.Rot>
1.5920

> <Gold.Chemscore.Internal.Correction>
   9.000000E+99

> <Gold.Chemscore.Hbonds>
donor molecule, donor type, donor heavy atom, donor atom, acceptor molecule, acceptor atom, score
      P1  H  7989  7998       L1    18  0.96
      P1  H  8011  8017       L1     3  0.15
      P1  H 10752 10763       L1    21  0.55

> <Gold.Chemscore.Hbond.Weighted>
-6.7193

> <Gold.Chemscore.Metal.Weighted>
-0.0000

> <Gold.Chemscore.Lipo.Weighted>
-10.5464

> <Gold.Chemscore.Internal_Hbond.Weighted>
0.0000

> <Gold.Chemscore.DEClash.Weighted>
0.6054

> <Gold.Chemscore.DEInternal.Weighted>
2.5423

> <Gold.Chemscore.Rot.Weighted>
4.0756

> <Gold.Chemscore.Internal.Correction.Weighted>
   9.000000E+99

> <Gold.Protein.RotatedTorsions>
[ 6907 6896 6895 6894 ] final  -72.91 input  -60.11 | X-H torsion
[ 7974 7965 7964 7962 ] final  147.85 input  175.53 | X-H torsion
[ 8008 7997 7996 7995 ] final  137.42 input   59.86 | X-H torsion
[ 10167 10162 10161 10158 ] final -155.37 input  -65.29 | X-H torsion
[ 10718 10713 10712 10709 ] final -154.57 input   66.30 | X-H torsion
[ 10763 10752 10751 10750 ] final  107.76 input  -60.55 | X-H torsion
[ 11005 11000 10999 10996 ] final  -27.74 input  -57.11 | X-H torsion

> <Gold.Protein.ActiveResidues>
 VAL166  LYS551  ARG553  GLY616  TRP617  ASP618  TYR619  PRO620  LYS621  CYS622 
 ASP623  PHE694  ASN695  SER759  ASP760  ASP761  ALA762  ILE779  LEU786  VAL792 
 PHE793  MET794  SER795  GLU796  ALA797  LYS798  CYS799  TRP800  GLU811  SER814 

> <Gold.Protein.RotatedAtoms>
  150.7151  134.5094  159.5599 H   0  0  0  0  0  0  0  0  0  0  0  0  # atno 6907 bound_to 6896
  152.2674  134.7966  160.0429 H   0  0  0  0  0  0  0  0  0  0  0  0  # atno 6908 bound_to 6896
  151.8658  133.3431  159.3755 H   0  0  0  0  0  0  0  0  0  0  0  0  # atno 6909 bound_to 6896
  144.8559  139.6080  143.5952 H   0  0  0  0  0  0  0  0  0  0  0  0  # atno 7974 bound_to 7965
  156.3002  140.2420  156.3907 H   0  0  0  0  0  0  0  0  0  0  0  0  # atno 8008 bound_to 7997
  154.8616  140.0420  157.1688 H   0  0  0  0  0  0  0  0  0  0  0  0  # atno 8009 bound_to 7997
  154.8890  140.2960  155.5385 H   0  0  0  0  0  0  0  0  0  0  0  0  # atno 8010 bound_to 7997
  139.6937  143.9378  152.2397 H   0  0  0  0  0  0  0  0  0  0  0  0  # atno 10167 bound_to 10162
  156.5011  130.8391  151.2609 H   0  0  0  0  0  0  0  0  0  0  0  0  # atno 10718 bound_to 10713
  153.4112  135.3834  155.2051 H   0  0  0  0  0  0  0  0  0  0  0  0  # atno 10763 bound_to 10752
  154.8738  135.3794  154.4499 H   0  0  0  0  0  0  0  0  0  0  0  0  # atno 10764 bound_to 10752
  153.5008  135.7088  153.5895 H   0  0  0  0  0  0  0  0  0  0  0  0  # atno 10765 bound_to 10752
  140.9146  133.7438  156.0717 H   0  0  0  0  0  0  0  0  0  0  0  0  # atno 11005 bound_to 11000
  146.2822  139.6909  142.9220 LP  0  0  0  0  0  0  0  0  0  0  0  0  # atno 17320 bound_to 7965
  145.4407  141.0422  143.2859 LP  0  0  0  0  0  0  0  0  0  0  0  0  # atno 17321 bound_to 7965
  139.9201  144.6805  150.8471 LP  0  0  0  0  0  0  0  0  0  0  0  0  # atno 17342 bound_to 10162
  140.7690  143.3381  151.2266 LP  0  0  0  0  0  0  0  0  0  0  0  0  # atno 17343 bound_to 10162
  157.7463  130.9981  150.2842 LP  0  0  0  0  0  0  0  0  0  0  0  0  # atno 17370 bound_to 10713
  156.3332  130.3803  149.7473 LP  0  0  0  0  0  0  0  0  0  0  0  0  # atno 17371 bound_to 10713
  140.8066  134.3447  157.5424 LP  0  0  0  0  0  0  0  0  0  0  0  0  # atno 17394 bound_to 11000
  139.8763  134.9229  156.3312 LP  0  0  0  0  0  0  0  0  0  0  0  0  # atno 17395 bound_to 11000

$$$$
