#       Name:                AV-unprocessed.smi:1139
#       Creating user name   scv26
#       Creation time:       Fri Mar 27 03:44:12 2020


#       File generated by GOLD software.
#

@<TRIPOS>MOLECULE
AV-unprocessed.smi:1139
    48    49     1
SMALL
NO_CHARGES


@<TRIPOS>ATOM
      1 ****        -2.7320   1.9219  -1.5953 C.3            1 S1                 0.0000
      2 ****        -2.9627   2.7601  -0.3707 C.2            1 S1                 0.0000
      3 ****        -3.1799   4.0573  -0.5055 N.2            1 S1                 0.0000
      4 ****        -3.3439   4.5556   0.7904 O.3            1 S1                 0.0000
      5 ****        -3.2137   3.5262   1.6655 C.2            1 S1                 0.0000
      6 ****        -3.3494   3.8542   3.1139 C.3            1 S1                 0.0000
      7 ****        -2.9714   2.3581   0.9966 C.2            1 S1                 0.0000
      8 ****        -2.7580   0.9802   1.5680 C.3            1 S1                 0.0000
      9 ****        -1.2604   0.6846   1.6423 C.2            1 S1                 0.0000
     10 ****        -0.5825   1.1573   2.5543 O.2            1 S1                 0.0000
     11 ****        -0.7519  -0.0863   0.6704 N.am           1 S1                 0.0000
     12 ****         0.6594  -0.4287   0.5465 C.3            1 S1                 0.0000
     13 ****         0.9388  -1.3097  -0.6959 C.3            1 S1                 0.0000
     14 ****         0.4388  -0.6186  -1.9849 C.3            1 S1                 0.0000
     15 ****         2.3879  -1.6468  -0.8098 N.4            1 S1                 1.0000
     16 ****         3.0147  -2.2238   0.3998 C.3            1 S1                 0.0000
     17 ****         4.2797  -2.9112  -0.1000 C.3            1 S1                 0.0000
     18 ****         3.8493  -3.4867  -1.4439 C.3            1 S1                 0.0000
     19 ****         2.7427  -2.5449  -1.9387 C.3            1 S1                 0.0000
     20 ****        -1.6725   1.8927  -1.8495 H              1 S1                 0.0000
     21 ****        -3.2705   2.3168  -2.4577 H              1 S1                 0.0000
     22 ****        -3.0658   0.8958  -1.4417 H              1 S1                 0.0000
     23 ****        -2.5119   3.4475   3.6808 H              1 S1                 0.0000
     24 ****        -4.2689   3.4324   3.5195 H              1 S1                 0.0000
     25 ****        -3.3725   4.9324   3.2736 H              1 S1                 0.0000
     26 ****        -3.1782   0.8969   2.5711 H              1 S1                 0.0000
     27 ****        -3.2584   0.2185   0.9689 H              1 S1                 0.0000
     28 ****        -1.3792  -0.4359  -0.0395 H              1 S1                 0.0000
     29 ****         1.2463   0.4900   0.4924 H              1 S1                 0.0000
     30 ****         0.9531  -0.9433   1.4622 H              1 S1                 0.0000
     31 ****         0.3905  -2.2459  -0.5757 H              1 S1                 0.0000
     32 ****        -0.6313  -0.4164  -1.9446 H              1 S1                 0.0000
     33 ****         0.5978  -1.2318  -2.8714 H              1 S1                 0.0000
     34 ****         0.9482   0.3323  -2.1451 H              1 S1                 0.0000
     35 ****         3.2357  -1.4632   1.1493 H              1 S1                 0.0000
     36 ****         2.3462  -2.9622   0.8462 H              1 S1                 0.0000
     37 ****         5.0694  -2.1731  -0.2478 H              1 S1                 0.0000
     38 ****         4.6517  -3.6703   0.5886 H              1 S1                 0.0000
     39 ****         4.6788  -3.5655  -2.1472 H              1 S1                 0.0000
     40 ****         3.4417  -4.4882  -1.3002 H              1 S1                 0.0000
     41 ****         1.8860  -3.1326  -2.2722 H              1 S1                 0.0000
     42 ****         3.0818  -1.9432  -2.7826 H              1 S1                 0.0000
     43 ****         2.8783  -0.7804  -0.9811 H              1 S1                 0.0000
     44 ****        -3.2189   4.5759  -1.3596 LP             1 S1                 0.0000
     45 ****        -4.2519   4.9643   0.8826 LP             1 S1                 0.0000
     46 ****        -2.6465   5.2475   0.9769 LP             1 S1                 0.0000
     47 ****        -1.0115   1.7357   3.2481 LP             1 S1                 0.0000
     48 ****         0.3973   0.9629   2.6015 LP             1 S1                 0.0000
@<TRIPOS>BOND
    1    1    2 1     
    2    1   20 1     
    3    1   21 1     
    4    1   22 1     
    5    2    7 1     
    6    2    3 2     
    7    3    4 1     
    8    4    5 1     
    9    5    6 1     
   10    5    7 2     
   11    6   23 1     
   12    6   24 1     
   13    6   25 1     
   14    7    8 1     
   15    8    9 1     
   16    8   26 1     
   17    8   27 1     
   18    9   10 2     
   19    9   11 am    
   20   11   12 1     
   21   11   28 1     
   22   12   13 1     
   23   12   29 1     
   24   12   30 1     
   25   13   14 1     
   26   13   15 1     
   27   13   31 1     
   28   14   32 1     
   29   14   33 1     
   30   14   34 1     
   31   15   19 1     
   32   15   16 1     
   33   15   43 1     
   34   16   17 1     
   35   16   35 1     
   36   16   36 1     
   37   17   18 1     
   38   17   37 1     
   39   17   38 1     
   40   18   19 1     
   41   18   39 1     
   42   18   40 1     
   43   19   41 1     
   44   19   42 1     
   45    3   44 1     
   46    4   45 1     
   47    4   46 1     
   48   10   47 1     
   49   10   48 1     
@<TRIPOS>SUBSTRUCTURE
      1 S1             1
@<TRIPOS>SET
LONE_PAIRS      STATIC     ATOMS    <user>   **** ""
5 44 45 46 47 48
DONOR_HYDROGENS      STATIC     ATOMS    <user>   **** ""
2 28 43
ATOM$BLUE        STATIC     ATOMS    COLORGROUP SYSTEM
5 44 45 46 47 48
ATOM$RED        STATIC     ATOMS    COLORGROUP SYSTEM
2 28 43
