#       Name:                AV-unprocessed.smi:212
#       Creating user name   scv26
#       Creation time:       Thu Mar 26 19:56:47 2020


#       File generated by GOLD software.
#

@<TRIPOS>MOLECULE
AV-unprocessed.smi:212
    75    78     1
SMALL
NO_CHARGES


@<TRIPOS>ATOM
      1 ****        -1.3220  -1.3255  -1.0499 C.3            1 S1                 0.0000
      2 ****        -2.0331   0.0315  -0.8782 C.3            1 S1                 0.0000
      3 ****        -1.8875   0.9333  -2.1209 C.3            1 S1                 0.0000
      4 ****        -2.6355   2.2044  -1.9441 N.4            1 S1                 1.0000
      5 ****        -2.6347   3.0615  -3.1587 C.3            1 S1                 0.0000
      6 ****        -4.0403   3.1869  -3.7891 C.3            1 S1                 0.0000
      7 ****        -3.9924   4.1242  -5.0074 C.3            1 S1                 0.0000
      8 ****        -4.6353   1.8242  -4.1896 C.3            1 S1                 0.0000
      9 ****        -4.9032   3.7895  -2.8439 O.3            1 S1                 0.0000
     10 ****        -2.2356   2.9329  -0.7137 C.3            1 S1                 0.0000
     11 ****        -2.3339   2.0297   0.5327 C.3            1 S1                 0.0000
     12 ****        -1.6534   0.7512   0.3423 N.3            1 S1                 0.0000
     13 ****        -0.3483   0.7377   0.7024 C.ar           1 S1                 0.0000
     14 ****         0.5559   1.5002   0.0348 N.ar           1 S1                 0.0000
     15 ****         1.8452   1.4661   0.3855 C.ar           1 S1                 0.0000
     16 ****         2.4292   0.7510   1.3495 N.ar           1 S1                 0.0000
     17 ****         1.5217  -0.0168   2.0181 C.ar           1 S1                 0.0000
     18 ****         0.1237  -0.0778   1.7634 C.ar           1 S1                 0.0000
     19 ****        -0.4863  -0.9625   2.6427 N.2            1 S1                 0.0000
     20 ****         0.4979  -1.4040   3.3779 C.2            1 S1                 0.0000
     21 ****         1.7411  -0.9056   3.0565 N.pl3          1 S1                 0.0000
     22 ****         2.9965  -1.2330   3.7062 C.3            1 S1                 0.0000
     23 ****         3.4306  -2.7184   3.5552 C.3            1 S1                 0.0000
     24 ****         4.6711  -2.9960   4.4331 C.3            1 S1                 0.0000
     25 ****         4.3644  -2.8679   5.8066 O.3            1 S1                 0.0000
     26 ****         3.6906  -3.2244   2.1046 C.3            1 S1                 0.0000
     27 ****         2.4918  -3.4724   1.2059 C.3            1 S1                 0.0000
     28 ****         3.1636  -3.6358  -0.1541 C.3            1 S1                 0.0000
     29 ****         4.3191  -2.8009  -0.1232 O.3            1 S1                 0.0000
     30 ****         4.5744  -2.3558   1.2066 C.3            1 S1                 0.0000
     31 ****        -1.7212  -1.8661  -1.9083 H              1 S1                 0.0000
     32 ****        -1.4629  -1.9573  -0.1724 H              1 S1                 0.0000
     33 ****        -0.2496  -1.2079  -1.2107 H              1 S1                 0.0000
     34 ****        -3.0949  -0.1918  -0.7648 H              1 S1                 0.0000
     35 ****        -0.8370   1.1509  -2.3186 H              1 S1                 0.0000
     36 ****        -2.2705   0.4101  -2.9980 H              1 S1                 0.0000
     37 ****        -2.2565   4.0562  -2.9149 H              1 S1                 0.0000
     38 ****        -1.9369   2.6640  -3.8977 H              1 S1                 0.0000
     39 ****        -3.3424   3.7244  -5.7865 H              1 S1                 0.0000
     40 ****        -3.6130   5.1108  -4.7377 H              1 S1                 0.0000
     41 ****        -4.9820   4.2620  -5.4450 H              1 S1                 0.0000
     42 ****        -3.9917   1.3090  -4.9034 H              1 S1                 0.0000
     43 ****        -5.6140   1.9421  -4.6565 H              1 S1                 0.0000
     44 ****        -4.7662   1.1673  -3.3291 H              1 S1                 0.0000
     45 ****        -5.7499   3.9161  -3.2455 H              1 S1                 0.0000
     46 ****        -1.2197   3.3107  -0.8325 H              1 S1                 0.0000
     47 ****        -2.8781   3.8039  -0.5808 H              1 S1                 0.0000
     48 ****        -1.9344   2.5470   1.4065 H              1 S1                 0.0000
     49 ****        -3.3819   1.8224   0.7520 H              1 S1                 0.0000
     50 ****         2.5046   2.0994  -0.1897 H              1 S1                 0.0000
     51 ****         0.3460  -2.1204   4.1723 H              1 S1                 0.0000
     52 ****         3.7750  -0.5634   3.3411 H              1 S1                 0.0000
     53 ****         2.8724  -0.9862   4.7610 H              1 S1                 0.0000
     54 ****         2.6273  -3.3399   3.9533 H              1 S1                 0.0000
     55 ****         5.0395  -4.0105   4.2778 H              1 S1                 0.0000
     56 ****         5.4865  -2.3181   4.1793 H              1 S1                 0.0000
     57 ****         5.1434  -3.0557   6.3081 H              1 S1                 0.0000
     58 ****         4.1837  -4.1946   2.1874 H              1 S1                 0.0000
     59 ****         1.9113  -4.3477   1.4985 H              1 S1                 0.0000
     60 ****         1.8193  -2.6209   1.1618 H              1 S1                 0.0000
     61 ****         3.4860  -4.6678  -0.2970 H              1 S1                 0.0000
     62 ****         2.5019  -3.3711  -0.9793 H              1 S1                 0.0000
     63 ****         4.2990  -1.3043   1.2596 H              1 S1                 0.0000
     64 ****         5.6322  -2.4399   1.4563 H              1 S1                 0.0000
     65 ****        -3.6003   1.9415  -1.8007 H              1 S1                 0.0000
     66 ****        -4.5290   4.6727  -2.5613 LP             1 S1                 0.0000
     67 ****        -4.9949   3.1953  -2.0447 LP             1 S1                 0.0000
     68 ****        -2.0378   0.1493   1.0424 LP             1 S1                 0.0000
     69 ****         0.2573   2.0864  -0.7182 LP             1 S1                 0.0000
     70 ****         3.4075   0.7751   1.5553 LP             1 S1                 0.0000
     71 ****        -1.4548  -1.2052   2.6996 LP             1 S1                 0.0000
     72 ****         3.6417  -3.5140   6.0522 LP             1 S1                 0.0000
     73 ****         4.0572  -1.9357   5.9978 LP             1 S1                 0.0000
     74 ****         4.1684  -2.0076  -0.7130 LP             1 S1                 0.0000
     75 ****         5.1082  -3.3179  -0.4549 LP             1 S1                 0.0000
@<TRIPOS>BOND
    1    1    2 1     
    2    1   31 1     
    3    1   32 1     
    4    1   33 1     
    5    2   12 1     
    6    2    3 1     
    7    2   34 1     
    8    3    4 1     
    9    3   35 1     
   10    3   36 1     
   11    4    5 1     
   12    4   10 1     
   13    4   65 1     
   14    5    6 1     
   15    5   37 1     
   16    5   38 1     
   17    6    7 1     
   18    6    8 1     
   19    6    9 1     
   20    7   39 1     
   21    7   40 1     
   22    7   41 1     
   23    8   42 1     
   24    8   43 1     
   25    8   44 1     
   26    9   45 1     
   27   10   11 1     
   28   10   46 1     
   29   10   47 1     
   30   11   12 1     
   31   11   48 1     
   32   11   49 1     
   33   12   13 1     
   34   13   18 ar    
   35   13   14 ar    
   36   14   15 ar    
   37   15   16 ar    
   38   15   50 1     
   39   16   17 ar    
   40   17   21 1     
   41   17   18 ar    
   42   18   19 1     
   43   19   20 2     
   44   20   21 1     
   45   20   51 1     
   46   21   22 1     
   47   22   23 1     
   48   22   52 1     
   49   22   53 1     
   50   23   24 1     
   51   23   26 1     
   52   23   54 1     
   53   24   25 1     
   54   24   55 1     
   55   24   56 1     
   56   25   57 1     
   57   26   30 1     
   58   26   27 1     
   59   26   58 1     
   60   27   28 1     
   61   27   59 1     
   62   27   60 1     
   63   28   29 1     
   64   28   61 1     
   65   28   62 1     
   66   29   30 1     
   67   30   63 1     
   68   30   64 1     
   69    9   66 1     
   70    9   67 1     
   71   12   68 1     
   72   14   69 1     
   73   16   70 1     
   74   19   71 1     
   75   25   72 1     
   76   25   73 1     
   77   29   74 1     
   78   29   75 1     
@<TRIPOS>SUBSTRUCTURE
      1 S1             1
@<TRIPOS>SET
LONE_PAIRS      STATIC     ATOMS    <user>   **** ""
10 66 67 68 69 70 71 72 73 74 75
DONOR_HYDROGENS      STATIC     ATOMS    <user>   **** ""
3 65 45 57
ATOM$BLUE        STATIC     ATOMS    COLORGROUP SYSTEM
10 66 67 68 69 70 71 72 73 74 75
ATOM$RED        STATIC     ATOMS    COLORGROUP SYSTEM
3 65 45 57
