AV-unprocessed.smi:3283|AV-procd|sdf|12571|dock7
  -GOLD-   2272018493D 1   1.00000     0.00000
 Structure written by MMmdl.
 44 45  0  0  0  0  0  0  0  0  2 V2000
  154.4790  140.7899  161.1446 C   0  0  0  0  0  0  0  0  0  0  0  0
  153.5373  141.9630  160.9259 C   0  0  0  0  0  0  0  0  0  0  0  0
  153.0674  142.6733  161.9706 C   0  0  0  0  0  0  0  0  0  0  0  0
  152.1754  143.8968  161.8565 C   0  0  0  0  0  0  0  0  0  0  0  0
  151.6919  144.1602  160.4209 C   0  0  0  0  0  0  0  0  0  0  0  0
  152.7840  143.8291  159.3884 C   0  0  2  0  0  0  0  0  0  0  0  0
  152.4054  144.3033  157.9747 C   0  0  0  0  0  0  0  0  0  0  0  0
  153.1976  142.3326  159.4752 C   0  0  2  0  0  0  0  0  0  0  0  0
  152.1446  141.3788  158.8508 C   0  0  0  0  0  0  0  0  0  0  0  0
  152.4901  139.9529  159.0108 N   0  3  0  0  0  0  0  0  0  0  0  0
  151.8087  139.0539  158.0596 C   0  0  0  0  0  0  0  0  0  0  0  0
  152.2106  139.3784  156.6136 C   0  0  0  0  0  0  0  0  0  0  0  0
  151.1854  140.1598  155.8485 C   0  0  0  0  0  0  0  0  0  0  0  0
  150.7182  141.4343  156.0229 C   0  0  0  0  0  0  0  0  0  0  0  0
  149.7632  141.6026  154.9832 C   0  0  0  0  0  0  0  0  0  0  0  0
  149.6449  140.5266  154.2265 N   0  0  0  0  0  0  0  0  0  0  0  0
  150.5149  139.6399  154.7533 N   0  0  0  0  0  0  0  0  0  0  0  0
  150.6242  138.3318  154.1347 C   0  0  0  0  0  0  0  0  0  0  0  0
  155.3489  140.8700  160.4922 H   0  0  0  0  0  0  0  0  0  0  0  0
  153.9857  139.8381  160.9549 H   0  0  0  0  0  0  0  0  0  0  0  0
  154.8401  140.7653  162.1734 H   0  0  0  0  0  0  0  0  0  0  0  0
  153.3534  142.3977  162.9753 H   0  0  0  0  0  0  0  0  0  0  0  0
  151.3224  143.7902  162.5273 H   0  0  0  0  0  0  0  0  0  0  0  0
  152.7498  144.7526  162.2122 H   0  0  0  0  0  0  0  0  0  0  0  0
  150.8009  143.5652  160.2195 H   0  0  0  0  0  0  0  0  0  0  0  0
  151.3826  145.2022  160.3309 H   0  0  0  0  0  0  0  0  0  0  0  0
  153.6647  144.4112  159.6661 H   0  0  0  0  0  0  0  0  0  0  0  0
  151.4477  143.8966  157.6502 H   0  0  0  0  0  0  0  0  0  0  0  0
  153.1627  144.0149  157.2454 H   0  0  0  0  0  0  0  0  0  0  0  0
  152.3188  145.3898  157.9432 H   0  0  0  0  0  0  0  0  0  0  0  0
  154.1179  142.2327  158.8977 H   0  0  0  0  0  0  0  0  0  0  0  0
  151.1633  141.5553  159.2924 H   0  0  0  0  0  0  0  0  0  0  0  0
  152.0500  141.5618  157.7811 H   0  0  0  0  0  0  0  0  0  0  0  0
  153.4880  139.8480  158.8945 H   0  0  0  0  0  0  0  0  0  0  0  0
  152.0672  138.0205  158.2951 H   0  0  0  0  0  0  0  0  0  0  0  0
  150.7299  139.1572  158.1839 H   0  0  0  0  0  0  0  0  0  0  0  0
  153.1479  139.9365  156.6194 H   0  0  0  0  0  0  0  0  0  0  0  0
  152.4130  138.4460  156.0851 H   0  0  0  0  0  0  0  0  0  0  0  0
  151.0129  142.1465  156.7795 H   0  0  0  0  0  0  0  0  0  0  0  0
  149.1578  142.4680  154.7573 H   0  0  0  0  0  0  0  0  0  0  0  0
  151.3578  137.7143  154.6520 H   0  0  0  0  0  0  0  0  0  0  0  0
  150.9314  138.4420  153.0942 H   0  0  0  0  0  0  0  0  0  0  0  0
  149.6574  137.8283  154.1679 H   0  0  0  0  0  0  0  0  0  0  0  0
  152.2430  139.6722  159.9491 H   0  0  0  0  0  0  0  0  0  0  0  0
  1  2  1  0  0  0  0
  1 19  1  0  0  0  0
  1 20  1  0  0  0  0
  1 21  1  0  0  0  0
  2  8  1  0  0  0  0
  2  3  2  0  0  0  0
  3  4  1  0  0  0  0
  3 22  1  0  0  0  0
  4  5  1  0  0  0  0
  4 23  1  0  0  0  0
  4 24  1  0  0  0  0
  5  6  1  0  0  0  0
  5 25  1  0  0  0  0
  5 26  1  0  0  0  0
  6  7  1  0  0  0  0
  6  8  1  0  0  0  0
  6 27  1  0  0  0  0
  7 28  1  0  0  0  0
  7 29  1  0  0  0  0
  7 30  1  0  0  0  0
  8  9  1  0  0  0  0
  8 31  1  0  0  0  0
  9 10  1  0  0  0  0
  9 32  1  0  0  0  0
  9 33  1  0  0  0  0
 10 11  1  0  0  0  0
 10 34  1  0  0  0  0
 10 44  1  0  0  0  0
 11 12  1  0  0  0  0
 11 35  1  0  0  0  0
 11 36  1  0  0  0  0
 12 13  1  0  0  0  0
 12 37  1  0  0  0  0
 12 38  1  0  0  0  0
 13 17  1  0  0  0  0
 13 14  2  0  0  0  0
 14 15  1  0  0  0  0
 14 39  1  0  0  0  0
 15 16  2  0  0  0  0
 15 40  1  0  0  0  0
 16 17  1  0  0  0  0
 17 18  1  0  0  0  0
 18 41  1  0  0  0  0
 18 42  1  0  0  0  0
 18 43  1  0  0  0  0
M  CHG  1  10   1
M  END
> <s_m_source_file>
AV-unprocessed.smi

> <i_m_source_file_index>
3283

> <i_lp_mmshare_version>
43012

> <i_f3d_flags>
0

> <s_epik_input>
W0NIM11DMT1bQ0hdW0NIMl1bQ0gyXVtDQEBIXShbQ0gzXSlbQ0BIXTFbQ0gyXVtOSF1bQ0gyXVtDSDJdYzJbY0hdW2NIXW5uMltDSDNd

> <s_epik_cmdline>
J2VwaWtfcHl0aG9uJywgJy1waCcsICc3LjAnLCAnLXRuJywgJzgnLCAnLW1hJywgJzIwMCcsICctbWV0YWxfYmluZGluZycsICctaW1hZScsICc8aW5maWxlLm1hZT4nLCAnLW9tYWUnLCAnPG91dGZpbGUubWFlPic=

> <r_lp_tautomer_probability>
1

> <r_epik_Ionization_Penalty>
0.000866911

> <r_epik_Ionization_Penalty_Charging>
0.000836385

> <r_epik_Ionization_Penalty_Neutral>
3.05258e-05

> <r_epik_State_Penalty>
-0

> <r_epik_Charging_Adjusted_Penalty>
0.000836385

> <i_epik_Tot_Q>
1

> <i_epik_Tot_abs_Q>
1

> <r_epik_Metal_State_Penalty>
-0

> <b_epik_Metal_Only>
0

> <s_lp_Force_Field>
OPLS_2005

> <r_lp_Energy>
12.7435

> <b_lp_Chiralities_Consistent>
1

> <s_lp_Variant>
AV-unprocessed.smi:3283-4

> <Gold.Version>
5.8.1

> <Gold.Id.Protein>
6NUR|6NUR_protein|mol2

> <Gold.PLP.Fitness>
52.6535

> <Gold.PLP.PLP>
-50.5338

> <Gold.PLP.part.hbond>
-1.0000

> <Gold.PLP.part.metal>
0.0000

> <Gold.PLP.part.buried>
-2.5615

> <Gold.PLP.part.nonpolar>
-47.2605

> <Gold.PLP.part.repulsive>
0.2439

> <Gold.PLP.ligand.clash>
0.0000

> <Gold.PLP.ligand.torsion>
0.4560

> <Gold.PLP.Chemscore.Hbond>
0.0000

> <Gold.PLP.Chemscore.CHOScore>
1.0000

> <Gold.PLP.Chemscore.Metal>
0.0000

> <Gold.Chemscore.Hbonds>
donor molecule, donor type, donor heavy atom, donor atom, acceptor molecule, acceptor atom, score
      L1  C    15    40       P1  8028  1.00

> <Gold.PLP.Chemscore.Internal.Correction>
0.0318

> <Gold.Rescore>
     Score         DG    S(hbond)    S(metal)    S(lipo)     H(rot)  DE(clash)    DE(int)     intcor
     17.63     -18.67       0.00        0.00     145.19       1.48       0.04       1.00       ----

> <Gold.Chemscore.Fitness>
17.6251

> <Gold.Chemscore.DG>
-18.6658

> <Gold.Chemscore.ZeroCoef>
-5.4800

> <Gold.Chemscore.Hbond>
0.0000

> <Gold.Chemscore.Metal>
0.0000

> <Gold.Chemscore.Lipo>
145.1851

> <Gold.Chemscore.Internal_Hbond>
0.0000

> <Gold.Chemscore.DEClash>
0.0361

> <Gold.Chemscore.DEInternal>
1.0047

> <Gold.Chemscore.Rot>
1.4847

> <Gold.Chemscore.Internal.Correction>
   9.000000E+99

> <Gold.Chemscore.Hbond.Weighted>
-0.0000

> <Gold.Chemscore.Metal.Weighted>
-0.0000

> <Gold.Chemscore.Lipo.Weighted>
-16.9867

> <Gold.Chemscore.Internal_Hbond.Weighted>
0.0000

> <Gold.Chemscore.DEClash.Weighted>
0.0361

> <Gold.Chemscore.DEInternal.Weighted>
1.0047

> <Gold.Chemscore.Rot.Weighted>
3.8008

> <Gold.Chemscore.Internal.Correction.Weighted>
   9.000000E+99

> <Gold.Protein.RotatedTorsions>
[ 6907 6896 6895 6894 ] final   81.95 input  -60.11 | X-H torsion
[ 7974 7965 7964 7962 ] final  -94.91 input  175.53 | X-H torsion
[ 8008 7997 7996 7995 ] final -167.19 input   59.86 | X-H torsion
[ 10167 10162 10161 10158 ] final   92.22 input  -65.29 | X-H torsion
[ 10718 10713 10712 10709 ] final -136.36 input   66.30 | X-H torsion
[ 10763 10752 10751 10750 ] final -120.39 input  -60.55 | X-H torsion
[ 11005 11000 10999 10996 ] final  112.10 input  -57.11 | X-H torsion

> <Gold.Protein.ActiveResidues>
 VAL166  LYS551  ARG553  GLY616  TRP617  ASP618  TYR619  PRO620  LYS621  CYS622 
 ASP623  PHE694  ASN695  SER759  ASP760  ASP761  ALA762  ILE779  LEU786  VAL792 
 PHE793  MET794  SER795  GLU796  ALA797  LYS798  CYS799  TRP800  GLU811  SER814 

> <Gold.Protein.RotatedAtoms>
  152.5284  134.3125  159.9118 H   0  0  0  0  0  0  0  0  0  0  0  0  # atno 6907 bound_to 6896
  151.3075  133.4089  159.2652 H   0  0  0  0  0  0  0  0  0  0  0  0  # atno 6908 bound_to 6896
  151.0067  134.9381  159.8041 H   0  0  0  0  0  0  0  0  0  0  0  0  # atno 6909 bound_to 6896
  145.3671  140.9500  143.2468 H   0  0  0  0  0  0  0  0  0  0  0  0  # atno 7974 bound_to 7965
  155.8743  140.0998  157.1529 H   0  0  0  0  0  0  0  0  0  0  0  0  # atno 8008 bound_to 7997
  154.3999  140.1341  156.4180 H   0  0  0  0  0  0  0  0  0  0  0  0  # atno 8009 bound_to 7997
  155.7716  140.3460  155.5252 H   0  0  0  0  0  0  0  0  0  0  0  0  # atno 8010 bound_to 7997
  139.8298  144.6692  150.9414 H   0  0  0  0  0  0  0  0  0  0  0  0  # atno 10167 bound_to 10162
  156.2762  130.7294  151.1277 H   0  0  0  0  0  0  0  0  0  0  0  0  # atno 10718 bound_to 10713
  154.8643  135.4204  154.2452 H   0  0  0  0  0  0  0  0  0  0  0  0  # atno 10763 bound_to 10752
  153.3410  135.6993  153.6873 H   0  0  0  0  0  0  0  0  0  0  0  0  # atno 10764 bound_to 10752
  153.5852  135.3565  155.2863 H   0  0  0  0  0  0  0  0  0  0  0  0  # atno 10765 bound_to 10752
  139.8919  134.9522  156.6534 H   0  0  0  0  0  0  0  0  0  0  0  0  # atno 11005 bound_to 11000
  144.8604  139.5186  143.6815 LP  0  0  0  0  0  0  0  0  0  0  0  0  # atno 17320 bound_to 7965
  146.2902  139.7117  142.9166 LP  0  0  0  0  0  0  0  0  0  0  0  0  # atno 17321 bound_to 7965
  140.7807  143.4012  151.1147 LP  0  0  0  0  0  0  0  0  0  0  0  0  # atno 17342 bound_to 10162
  139.7666  143.8556  152.3112 LP  0  0  0  0  0  0  0  0  0  0  0  0  # atno 17343 bound_to 10162
  157.7300  131.0620  150.5747 LP  0  0  0  0  0  0  0  0  0  0  0  0  # atno 17370 bound_to 10713
  156.5848  130.4314  149.5961 LP  0  0  0  0  0  0  0  0  0  0  0  0  # atno 17371 bound_to 10713
  140.7502  133.8903  155.8342 LP  0  0  0  0  0  0  0  0  0  0  0  0  # atno 17394 bound_to 11000
  141.0006  134.1155  157.4320 LP  0  0  0  0  0  0  0  0  0  0  0  0  # atno 17395 bound_to 11000

$$$$
