AV-unprocessed.smi:750|AV-procd|sdf|3589|dock7
  -GOLD-   22720 0583D 1   1.00000     0.00000
 Structure written by MMmdl.
 23 24  0  0  0  0  0  0  0  0  1 V2000
  148.2301  142.2519  158.1691 C   0  0  0  0  0  0  0  0  0  0  0  0
  149.5733  141.9490  157.4749 C   0  0  2  0  0  0  0  0  0  0  0  0
  150.7658  142.5940  158.1984 C   0  0  0  0  0  0  0  0  0  0  0  0
  151.7693  141.7903  158.7886 C   0  0  0  0  0  0  0  0  0  0  0  0
  152.8509  142.4047  159.4471 C   0  0  0  0  0  0  0  0  0  0  0  0
  152.8936  143.8105  159.4958 C   0  0  0  0  0  0  0  0  0  0  0  0
  151.9479  144.5968  158.9415 N   0  0  0  0  0  0  0  0  0  0  0  0
  150.9144  143.9985  158.3110 C   0  0  0  0  0  0  0  0  0  0  0  0
  149.4856  142.2900  156.0601 N   0  0  0  0  0  0  0  0  0  0  0  0
  149.6759  141.2376  155.2529 C   0  0  0  0  0  0  0  0  0  0  0  0
  149.6727  141.2582  154.0245 O   0  0  0  0  0  0  0  0  0  0  0  0
  149.8603  140.1610  156.0217 N   0  0  0  0  0  0  0  0  0  0  0  0
  149.7991  140.4469  157.3209 C   0  0  0  0  0  0  0  0  0  0  0  0
  149.8999  139.6485  158.2513 O   0  0  0  0  0  0  0  0  0  0  0  0
  148.2108  141.8904  159.1975 H   0  0  0  0  0  0  0  0  0  0  0  0
  147.3947  141.7823  157.6477 H   0  0  0  0  0  0  0  0  0  0  0  0
  148.0376  143.3248  158.1943 H   0  0  0  0  0  0  0  0  0  0  0  0
  151.7188  140.7130  158.7356 H   0  0  0  0  0  0  0  0  0  0  0  0
  153.6299  141.8117  159.9026 H   0  0  0  0  0  0  0  0  0  0  0  0
  153.7085  144.3165  159.9918 H   0  0  0  0  0  0  0  0  0  0  0  0
  150.1902  144.6780  157.8876 H   0  0  0  0  0  0  0  0  0  0  0  0
  149.3170  143.2309  155.7348 H   0  0  0  0  0  0  0  0  0  0  0  0
  150.0119  139.2314  155.6583 H   0  0  0  0  0  0  0  0  0  0  0  0
  1  2  1  0  0  0  0
  1 15  1  0  0  0  0
  1 16  1  0  0  0  0
  1 17  1  0  0  0  0
  2 13  1  0  0  0  0
  2  3  1  0  0  0  0
  2  9  1  0  0  0  0
  3  8  1  0  0  0  0
  3  4  2  0  0  0  0
  4  5  1  0  0  0  0
  4 18  1  0  0  0  0
  5  6  2  0  0  0  0
  5 19  1  0  0  0  0
  6  7  1  0  0  0  0
  6 20  1  0  0  0  0
  7  8  2  0  0  0  0
  8 21  1  0  0  0  0
  9 10  1  0  0  0  0
  9 22  1  0  0  0  0
 10 11  2  0  0  0  0
 10 12  1  0  0  0  0
 12 13  1  0  0  0  0
 12 23  1  0  0  0  0
 13 14  2  0  0  0  0
M  END
> <s_m_source_file>
AV-unprocessed.smi

> <i_m_source_file_index>
750

> <i_lp_mmshare_version>
43012

> <i_f3d_flags>
0

> <s_epik_input>
Tz1DMVtOSF1DKD1PKVtOSF1bQ0BAXTEoW0NIM10pYzJbY0hdW2NIXVtjSF1uW2NIXTI=

> <s_epik_cmdline>
J2VwaWtfcHl0aG9uJywgJy1waCcsICc3LjAnLCAnLXRuJywgJzgnLCAnLW1hJywgJzIwMCcsICctbWV0YWxfYmluZGluZycsICctaW1hZScsICc8aW5maWxlLm1hZT4nLCAnLW9tYWUnLCAnPG91dGZpbGUubWFlPic=

> <r_lp_tautomer_probability>
1

> <r_epik_Ionization_Penalty>
0.0296909

> <r_epik_Ionization_Penalty_Charging>
0

> <r_epik_Ionization_Penalty_Neutral>
0.0296909

> <r_epik_State_Penalty>
0.022996

> <r_epik_Charging_Adjusted_Penalty>
0.022996

> <i_epik_Tot_Q>
0

> <i_epik_Tot_abs_Q>
0

> <r_epik_Metal_State_Penalty>
0.427807

> <b_epik_Metal_Only>
0

> <s_lp_Force_Field>
OPLS_2005

> <r_lp_Energy>
18.5111

> <b_lp_Chiralities_Consistent>
1

> <s_lp_Variant>
AV-unprocessed.smi:750-2

> <Gold.Version>
5.8.1

> <Gold.Id.Protein>
6NUR|6NUR_protein|mol2

> <Gold.PLP.Fitness>
33.3523

> <Gold.PLP.PLP>
-24.1988

> <Gold.PLP.part.hbond>
-2.9821

> <Gold.PLP.part.metal>
0.0000

> <Gold.PLP.part.buried>
-4.4220

> <Gold.PLP.part.nonpolar>
-17.8277

> <Gold.PLP.part.repulsive>
0.5182

> <Gold.PLP.ligand.clash>
0.0000

> <Gold.PLP.ligand.torsion>
0.0998

> <Gold.PLP.Chemscore.Hbond>
2.0421

> <Gold.PLP.Chemscore.CHOScore>
1.0362

> <Gold.PLP.Chemscore.Metal>
0.0000

> <Gold.Chemscore.Hbonds>
donor molecule, donor type, donor heavy atom, donor atom, acceptor molecule, acceptor atom, score
      L1  H     9    22       P1  8028  1.00
      P1  H  7989  7998       L1    11  0.33
      P1  H  8011  8017       L1    11  0.72
      L1  C     8    21       P1  8028  0.74
      L1  C     8    21       P1  8029  0.29

> <Gold.PLP.Chemscore.Internal.Correction>
0.1182

> <Gold.Rescore>
     Score         DG    S(hbond)    S(metal)    S(lipo)     H(rot)  DE(clash)    DE(int)     intcor
     14.18     -15.92       1.88        0.00      57.33       1.00       0.45       1.30       ----

> <Gold.Chemscore.Fitness>
14.1765

> <Gold.Chemscore.DG>
-15.9208

> <Gold.Chemscore.ZeroCoef>
-5.4800

> <Gold.Chemscore.Hbond>
1.8841

> <Gold.Chemscore.Metal>
0.0000

> <Gold.Chemscore.Lipo>
57.3321

> <Gold.Chemscore.Internal_Hbond>
0.0000

> <Gold.Chemscore.DEClash>
0.4479

> <Gold.Chemscore.DEInternal>
1.2963

> <Gold.Chemscore.Rot>
1.0000

> <Gold.Chemscore.Internal.Correction>
   9.000000E+99

> <Gold.Chemscore.Hbonds>
donor molecule, donor type, donor heavy atom, donor atom, acceptor molecule, acceptor atom, score
      L1  H     9    22       P1  8028  0.95
      P1  H  7989  7998       L1    11  0.17
      P1  H  8011  8017       L1    11  0.68

> <Gold.Chemscore.Hbond.Weighted>
-6.2929

> <Gold.Chemscore.Metal.Weighted>
-0.0000

> <Gold.Chemscore.Lipo.Weighted>
-6.7079

> <Gold.Chemscore.Internal_Hbond.Weighted>
0.0000

> <Gold.Chemscore.DEClash.Weighted>
0.4479

> <Gold.Chemscore.DEInternal.Weighted>
1.2963

> <Gold.Chemscore.Rot.Weighted>
2.5600

> <Gold.Chemscore.Internal.Correction.Weighted>
   9.000000E+99

> <Gold.Protein.RotatedTorsions>
[ 6907 6896 6895 6894 ] final -178.38 input  -60.11 | X-H torsion
[ 7974 7965 7964 7962 ] final  -39.84 input  175.53 | X-H torsion
[ 8008 7997 7996 7995 ] final  -47.42 input   59.86 | X-H torsion
[ 10167 10162 10161 10158 ] final   48.21 input  -65.29 | X-H torsion
[ 10718 10713 10712 10709 ] final   65.70 input   66.30 | X-H torsion
[ 10763 10752 10751 10750 ] final -166.79 input  -60.55 | X-H torsion
[ 11005 11000 10999 10996 ] final -105.62 input  -57.11 | X-H torsion

> <Gold.Protein.ActiveResidues>
 VAL166  LYS551  ARG553  GLY616  TRP617  ASP618  TYR619  PRO620  LYS621  CYS622 
 ASP623  PHE694  ASN695  SER759  ASP760  ASP761  ALA762  ILE779  LEU786  VAL792 
 PHE793  MET794  SER795  GLU796  ALA797  LYS798  CYS799  TRP800  GLU811  SER814 

> <Gold.Protein.RotatedAtoms>
  151.6364  133.3328  159.3119 H   0  0  0  0  0  0  0  0  0  0  0  0  # atno 6907 bound_to 6896
  150.8030  134.7141  159.6630 H   0  0  0  0  0  0  0  0  0  0  0  0  # atno 6908 bound_to 6896
  152.4124  134.6106  160.0076 H   0  0  0  0  0  0  0  0  0  0  0  0  # atno 6909 bound_to 6896
  146.0360  140.6671  142.9110 H   0  0  0  0  0  0  0  0  0  0  0  0  # atno 7974 bound_to 7965
  154.4016  140.1347  156.4172 H   0  0  0  0  0  0  0  0  0  0  0  0  # atno 8008 bound_to 7997
  155.7677  140.3484  155.5210 H   0  0  0  0  0  0  0  0  0  0  0  0  # atno 8009 bound_to 7997
  155.8797  140.0985  157.1484 H   0  0  0  0  0  0  0  0  0  0  0  0  # atno 8010 bound_to 7997
  140.2956  144.2995  150.6230 H   0  0  0  0  0  0  0  0  0  0  0  0  # atno 10167 bound_to 10162
  157.6122  130.9228  150.0011 H   0  0  0  0  0  0  0  0  0  0  0  0  # atno 10718 bound_to 10713
  154.6797  135.2952  154.9630 H   0  0  0  0  0  0  0  0  0  0  0  0  # atno 10763 bound_to 10752
  154.0629  135.6629  153.4818 H   0  0  0  0  0  0  0  0  0  0  0  0  # atno 10764 bound_to 10752
  153.0539  135.5156  154.7834 H   0  0  0  0  0  0  0  0  0  0  0  0  # atno 10765 bound_to 10752
  141.1044  133.8824  157.1757 H   0  0  0  0  0  0  0  0  0  0  0  0  # atno 11005 bound_to 11000
  144.7052  140.3821  143.7124 LP  0  0  0  0  0  0  0  0  0  0  0  0  # atno 17320 bound_to 7965
  145.6964  139.1651  143.2618 LP  0  0  0  0  0  0  0  0  0  0  0  0  # atno 17321 bound_to 7965
  140.5695  143.2182  151.7624 LP  0  0  0  0  0  0  0  0  0  0  0  0  # atno 17342 bound_to 10162
  139.4927  144.4236  151.9950 LP  0  0  0  0  0  0  0  0  0  0  0  0  # atno 17343 bound_to 10162
  156.1230  130.3645  149.9856 LP  0  0  0  0  0  0  0  0  0  0  0  0  # atno 17370 bound_to 10713
  156.7933  130.9264  151.3646 LP  0  0  0  0  0  0  0  0  0  0  0  0  # atno 17371 bound_to 10713
  139.9908  135.0065  156.9971 LP  0  0  0  0  0  0  0  0  0  0  0  0  # atno 17394 bound_to 11000
  140.4939  134.1165  155.7238 LP  0  0  0  0  0  0  0  0  0  0  0  0  # atno 17395 bound_to 11000

$$$$
