AV-unprocessed.smi:100|AV-procd|sdf|911|dock2
  -GOLD-   2262017413D 1   1.00000     0.00000
 Structure written by MMmdl.
 31 33  0  0  0  0  0  0  0  0  1 V2000
  150.8622  138.0836  153.7196 N   0  0  0  0  0  0  0  0  0  0  0  0
  150.5813  139.2978  154.2130 C   0  0  0  0  0  0  0  0  0  0  0  0
  149.5788  140.0069  153.6434 N   0  0  0  0  0  0  0  0  0  0  0  0
  149.2781  141.2199  154.1183 C   0  0  0  0  0  0  0  0  0  0  0  0
  149.8434  141.8850  155.1292 N   0  0  0  0  0  0  0  0  0  0  0  0
  150.8540  141.1688  155.7036 C   0  0  0  0  0  0  0  0  0  0  0  0
  151.2833  139.8731  155.3024 C   0  0  0  0  0  0  0  0  0  0  0  0
  152.3359  139.4539  156.1044 N   0  0  0  0  0  0  0  0  0  0  0  0
  152.5147  140.4480  156.9323 C   0  0  0  0  0  0  0  0  0  0  0  0
  151.6677  141.5216  156.7627 N   0  0  0  0  0  0  0  0  0  0  0  0
  151.6410  142.7908  157.5580 C   0  0  2  0  0  0  0  0  0  0  0  0
  152.6721  142.7775  158.4965 O   0  0  0  0  0  0  0  0  0  0  0  0
  152.2406  143.3494  159.7323 C   0  0  2  0  0  0  0  0  0  0  0  0
  152.3788  142.2848  160.8334 C   0  0  0  0  0  0  0  0  0  0  0  0
  151.6525  142.6690  161.9819 O   0  0  0  0  0  0  0  0  0  0  0  0
  150.7952  143.8175  159.5059 C   0  0  1  0  0  0  0  0  0  0  0  0
  150.7957  145.1103  159.1753 F   0  0  0  0  0  0  0  0  0  0  0  0
  150.3244  143.0029  158.3163 C   0  0  2  0  0  0  0  0  0  0  0  0
  149.6827  141.8076  158.7219 O   0  0  0  0  0  0  0  0  0  0  0  0
  151.6051  137.5343  154.1271 H   0  0  0  0  0  0  0  0  0  0  0  0
  150.3267  137.7184  152.9455 H   0  0  0  0  0  0  0  0  0  0  0  0
  148.4688  141.7308  153.6178 H   0  0  0  0  0  0  0  0  0  0  0  0
  153.2780  140.4258  157.6967 H   0  0  0  0  0  0  0  0  0  0  0  0
  151.8378  143.5837  156.8346 H   0  0  0  0  0  0  0  0  0  0  0  0
  152.8884  144.1956  159.9664 H   0  0  0  0  0  0  0  0  0  0  0  0
  152.0323  141.3100  160.4900 H   0  0  0  0  0  0  0  0  0  0  0  0
  153.4259  142.1727  161.1161 H   0  0  0  0  0  0  0  0  0  0  0  0
  151.7102  143.6079  162.0727 H   0  0  0  0  0  0  0  0  0  0  0  0
  150.1558  143.7201  160.3844 H   0  0  0  0  0  0  0  0  0  0  0  0
  149.6273  143.5581  157.6877 H   0  0  0  0  0  0  0  0  0  0  0  0
  149.7934  141.7113  159.6556 H   0  0  0  0  0  0  0  0  0  0  0  0
  1  2  1  0  0  0  0
  1 20  1  0  0  0  0
  1 21  1  0  0  0  0
  2  7  1  0  0  0  0
  2  3  2  0  0  0  0
  3  4  1  0  0  0  0
  4  5  2  0  0  0  0
  4 22  1  0  0  0  0
  5  6  1  0  0  0  0
  6 10  1  0  0  0  0
  6  7  2  0  0  0  0
  7  8  1  0  0  0  0
  8  9  2  0  0  0  0
  9 10  1  0  0  0  0
  9 23  1  0  0  0  0
 10 11  1  0  0  0  0
 11 18  1  0  0  0  0
 11 12  1  0  0  0  0
 11 24  1  0  0  0  0
 12 13  1  0  0  0  0
 13 14  1  0  0  0  0
 13 16  1  0  0  0  0
 13 25  1  0  0  0  0
 14 15  1  0  0  0  0
 14 26  1  0  0  0  0
 14 27  1  0  0  0  0
 15 28  1  0  0  0  0
 16 17  1  0  0  0  0
 16 18  1  0  0  0  0
 16 29  1  0  0  0  0
 18 19  1  0  0  0  0
 18 30  1  0  0  0  0
 19 31  1  0  0  0  0
M  END
> <s_m_source_file>
AV-unprocessed.smi

> <i_m_source_file_index>
100

> <i_lp_mmshare_version>
43012

> <i_f3d_flags>
0

> <s_epik_input>
bjFbY0hdbmMoW05IMl0pYyhjMTIpbltjSF1uMltDQEBIXTNPW0NAQEhdKFtDSDJdW09IXSlbQ0BIXShGKVtDQEhdM1tPSF0=

> <s_epik_cmdline>
J2VwaWtfcHl0aG9uJywgJy1waCcsICc3LjAnLCAnLXRuJywgJzgnLCAnLW1hJywgJzIwMCcsICctbWV0YWxfYmluZGluZycsICctaW1hZScsICc8aW5maWxlLm1hZT4nLCAnLW9tYWUnLCAnPG91dGZpbGUubWFlPic=

> <r_lp_tautomer_probability>
1

> <r_epik_Ionization_Penalty>
0.000750324

> <r_epik_Ionization_Penalty_Charging>
0

> <r_epik_Ionization_Penalty_Neutral>
0.000750324

> <r_epik_State_Penalty>
-0

> <r_epik_Charging_Adjusted_Penalty>
0

> <i_epik_Tot_Q>
0

> <i_epik_Tot_abs_Q>
0

> <r_epik_Metal_State_Penalty>
-0

> <b_epik_Metal_Only>
0

> <s_epik_Chemistry_Notes>
This compound contains an acetal/aminal-like group ( X-CH(R)-Y where X, Y are N, S, or O) that may be acid/base labile, releasing an aldehyde.

> <s_lp_Force_Field>
OPLS_2005

> <r_lp_Energy>
38.301

> <b_lp_Chiralities_Consistent>
1

> <s_lp_Variant>
AV-unprocessed.smi:100-15

> <Gold.Version>
5.8.1

> <Gold.Id.Protein>
6NUR|6NUR_protein|mol2

> <Gold.PLP.Fitness>
39.1764

> <Gold.PLP.PLP>
-33.8889

> <Gold.PLP.part.hbond>
-4.0000

> <Gold.PLP.part.metal>
0.0000

> <Gold.PLP.part.buried>
-4.9582

> <Gold.PLP.part.nonpolar>
-27.0708

> <Gold.PLP.part.repulsive>
1.8507

> <Gold.PLP.ligand.clash>
0.0000

> <Gold.PLP.ligand.torsion>
0.1158

> <Gold.PLP.Chemscore.Hbond>
1.8393

> <Gold.PLP.Chemscore.CHOScore>
0.0000

> <Gold.PLP.Chemscore.Metal>
0.0000

> <Gold.Chemscore.Hbonds>
donor molecule, donor type, donor heavy atom, donor atom, acceptor molecule, acceptor atom, score
      L1  H     1    21       P1  7948  0.32
      P1  H  6933  6945       L1    15  0.83

> <Gold.PLP.Chemscore.Internal.Correction>
0.0014

> <Gold.Rescore>
     Score         DG    S(hbond)    S(metal)    S(lipo)     H(rot)  DE(clash)    DE(int)     intcor
      5.83      -7.29       1.56        0.00      40.75       3.19       1.04       0.42       ----

> <Gold.Chemscore.Fitness>
5.8346

> <Gold.Chemscore.DG>
-7.2862

> <Gold.Chemscore.ZeroCoef>
-5.4800

> <Gold.Chemscore.Hbond>
1.5584

> <Gold.Chemscore.Metal>
0.0000

> <Gold.Chemscore.Lipo>
40.7508

> <Gold.Chemscore.Internal_Hbond>
0.0000

> <Gold.Chemscore.DEClash>
1.0355

> <Gold.Chemscore.DEInternal>
0.4161

> <Gold.Chemscore.Rot>
3.1901

> <Gold.Chemscore.Internal.Correction>
   9.000000E+99

> <Gold.Chemscore.Hbonds>
donor molecule, donor type, donor heavy atom, donor atom, acceptor molecule, acceptor atom, score
      L1  H     1    21       P1  7948  0.03
      P1  H  6933  6945       L1    15  0.74

> <Gold.Chemscore.Hbond.Weighted>
-5.2051

> <Gold.Chemscore.Metal.Weighted>
-0.0000

> <Gold.Chemscore.Lipo.Weighted>
-4.7678

> <Gold.Chemscore.Internal_Hbond.Weighted>
0.0000

> <Gold.Chemscore.DEClash.Weighted>
1.0355

> <Gold.Chemscore.DEInternal.Weighted>
0.4161

> <Gold.Chemscore.Rot.Weighted>
8.1667

> <Gold.Chemscore.Internal.Correction.Weighted>
   9.000000E+99

> <Gold.Protein.RotatedTorsions>
[ 6907 6896 6895 6894 ] final   73.52 input  -60.11 | X-H torsion
[ 7974 7965 7964 7962 ] final -144.70 input  175.53 | X-H torsion
[ 8008 7997 7996 7995 ] final  165.38 input   59.86 | X-H torsion
[ 10167 10162 10161 10158 ] final -154.23 input  -65.29 | X-H torsion
[ 10718 10713 10712 10709 ] final -100.49 input   66.30 | X-H torsion
[ 10763 10752 10751 10750 ] final  -91.43 input  -60.55 | X-H torsion
[ 11005 11000 10999 10996 ] final -140.80 input  -57.11 | X-H torsion

> <Gold.Protein.ActiveResidues>
 VAL166  LYS551  ARG553  GLY616  TRP617  ASP618  TYR619  PRO620  LYS621  CYS622 
 ASP623  PHE694  ASN695  SER759  ASP760  ASP761  ALA762  ILE779  LEU786  VAL792 
 PHE793  MET794  SER795  GLU796  ALA797  LYS798  CYS799  TRP800  GLU811  SER814 

> <Gold.Protein.RotatedAtoms>
  152.4927  134.4410  159.9543 H   0  0  0  0  0  0  0  0  0  0  0  0  # atno 6907 bound_to 6896
  151.4394  133.3641  159.2787 H   0  0  0  0  0  0  0  0  0  0  0  0  # atno 6908 bound_to 6896
  150.9098  134.8538  159.7478 H   0  0  0  0  0  0  0  0  0  0  0  0  # atno 6909 bound_to 6896
  144.8279  140.5676  143.5535 H   0  0  0  0  0  0  0  0  0  0  0  0  # atno 7974 bound_to 7965
  156.1805  140.1671  156.8283 H   0  0  0  0  0  0  0  0  0  0  0  0  # atno 8008 bound_to 7997
  154.5355  140.0748  156.8452 H   0  0  0  0  0  0  0  0  0  0  0  0  # atno 8009 bound_to 7997
  155.3320  140.3379  155.4242 H   0  0  0  0  0  0  0  0  0  0  0  0  # atno 8010 bound_to 7997
  139.7030  143.9232  152.2437 H   0  0  0  0  0  0  0  0  0  0  0  0  # atno 10167 bound_to 10162
  156.0165  130.5330  150.6825 H   0  0  0  0  0  0  0  0  0  0  0  0  # atno 10718 bound_to 10713
  154.6760  135.5268  153.8199 H   0  0  0  0  0  0  0  0  0  0  0  0  # atno 10763 bound_to 10752
  153.0532  135.6540  154.0651 H   0  0  0  0  0  0  0  0  0  0  0  0  # atno 10764 bound_to 10752
  154.0544  135.2966  155.3315 H   0  0  0  0  0  0  0  0  0  0  0  0  # atno 10765 bound_to 10752
  140.8387  134.2428  157.4821 H   0  0  0  0  0  0  0  0  0  0  0  0  # atno 11005 bound_to 11000
  145.4961  139.1486  143.3683 LP  0  0  0  0  0  0  0  0  0  0  0  0  # atno 17320 bound_to 7965
  146.2583  140.5100  142.8864 LP  0  0  0  0  0  0  0  0  0  0  0  0  # atno 17321 bound_to 7965
  139.9079  144.6873  150.8593 LP  0  0  0  0  0  0  0  0  0  0  0  0  # atno 17342 bound_to 10162
  140.7714  143.3464  151.2101 LP  0  0  0  0  0  0  0  0  0  0  0  0  # atno 17343 bound_to 10162
  157.4524  131.0874  151.0832 LP  0  0  0  0  0  0  0  0  0  0  0  0  # atno 17370 bound_to 10713
  157.1344  130.6116  149.5538 LP  0  0  0  0  0  0  0  0  0  0  0  0  # atno 17371 bound_to 10713
  139.8703  134.9624  156.4428 LP  0  0  0  0  0  0  0  0  0  0  0  0  # atno 17394 bound_to 11000
  140.8919  133.7842  155.9581 LP  0  0  0  0  0  0  0  0  0  0  0  0  # atno 17395 bound_to 11000

$$$$
