AV-unprocessed.smi:2044|AV-procd|sdf|8304|dock7
  -GOLD-   2272010573D 1   1.00000     0.00000
 Structure written by MMmdl.
 39 40  0  0  0  0  0  0  0  0  3 V2000
  146.3721  135.9972  162.7259 C   0  0  0  0  0  0  0  0  0  0  0  0
  147.2695  135.9579  161.5363 C   0  0  0  0  0  0  0  0  0  0  0  0
  147.7196  134.9380  160.7466 C   0  0  0  0  0  0  0  0  0  0  0  0
  148.5323  135.6037  159.7882 C   0  0  0  0  0  0  0  0  0  0  0  0
  149.2143  135.0232  158.7887 N   0  5  0  0  0  0  0  0  0  0  0  0
  148.7950  135.1592  157.5102 C   0  0  0  0  0  0  0  0  0  0  0  0
  147.6871  135.5535  157.1393 O   0  0  0  0  0  0  0  0  0  0  0  0
  149.7189  134.8188  156.6020 N   0  0  0  0  0  0  0  0  0  0  0  0
  149.5418  134.8887  155.1560 C   0  0  0  0  0  0  0  0  0  0  0  0
  148.7547  133.6744  154.5958 C   0  0  2  0  0  0  0  0  0  0  0  0
  149.7301  132.5314  154.2194 C   0  0  0  0  0  0  0  0  0  0  0  0
  147.8789  134.0476  153.4345 N   0  3  0  0  0  0  0  0  0  0  0  0
  147.4613  132.8794  152.6091 C   0  0  0  0  0  0  0  0  0  0  0  0
  146.5910  133.3125  151.4179 C   0  0  0  0  0  0  0  0  0  0  0  0
  145.4536  134.0171  151.8883 O   0  0  0  0  0  0  0  0  0  0  0  0
  145.8316  135.2025  152.5694 C   0  0  0  0  0  0  0  0  0  0  0  0
  146.6786  134.8503  153.8038 C   0  0  0  0  0  0  0  0  0  0  0  0
  148.5857  136.9093  159.9906 N   0  0  0  0  0  0  0  0  0  0  0  0
  147.7729  137.1458  161.1056 O   0  0  0  0  0  0  0  0  0  0  0  0
  146.7555  135.3558  163.5194 H   0  0  0  0  0  0  0  0  0  0  0  0
  145.3717  135.6521  162.4649 H   0  0  0  0  0  0  0  0  0  0  0  0
  146.2876  137.0095  163.1219 H   0  0  0  0  0  0  0  0  0  0  0  0
  147.4994  133.8848  160.8354 H   0  0  0  0  0  0  0  0  0  0  0  0
  150.6134  134.5000  156.9448 H   0  0  0  0  0  0  0  0  0  0  0  0
  149.0150  135.8242  154.9714 H   0  0  0  0  0  0  0  0  0  0  0  0
  150.5150  134.9571  154.6665 H   0  0  0  0  0  0  0  0  0  0  0  0
  148.1046  133.3106  155.3935 H   0  0  0  0  0  0  0  0  0  0  0  0
  150.4268  132.2999  155.0245 H   0  0  0  0  0  0  0  0  0  0  0  0
  150.3231  132.7914  153.3422 H   0  0  0  0  0  0  0  0  0  0  0  0
  149.2139  131.5949  154.0151 H   0  0  0  0  0  0  0  0  0  0  0  0
  148.3238  132.3544  152.2035 H   0  0  0  0  0  0  0  0  0  0  0  0
  146.9138  132.1699  153.2314 H   0  0  0  0  0  0  0  0  0  0  0  0
  147.1603  133.9318  150.7225 H   0  0  0  0  0  0  0  0  0  0  0  0
  146.2564  132.4371  150.8609 H   0  0  0  0  0  0  0  0  0  0  0  0
  146.3788  135.8661  151.8978 H   0  0  0  0  0  0  0  0  0  0  0  0
  144.9304  135.7351  152.8741 H   0  0  0  0  0  0  0  0  0  0  0  0
  146.0772  134.2976  154.5274 H   0  0  0  0  0  0  0  0  0  0  0  0
  146.9641  135.7928  154.2674 H   0  0  0  0  0  0  0  0  0  0  0  0
  148.4387  134.6381  152.8361 H   0  0  0  0  0  0  0  0  0  0  0  0
  1  2  1  0  0  0  0
  1 20  1  0  0  0  0
  1 21  1  0  0  0  0
  1 22  1  0  0  0  0
  2 19  1  0  0  0  0
  2  3  2  0  0  0  0
  3  4  1  0  0  0  0
  3 23  1  0  0  0  0
  4  5  1  0  0  0  0
  4 18  2  0  0  0  0
  5  6  1  0  0  0  0
  6  7  2  0  0  0  0
  6  8  1  0  0  0  0
  8  9  1  0  0  0  0
  8 24  1  0  0  0  0
  9 10  1  0  0  0  0
  9 25  1  0  0  0  0
  9 26  1  0  0  0  0
 10 11  1  0  0  0  0
 10 12  1  0  0  0  0
 10 27  1  0  0  0  0
 11 28  1  0  0  0  0
 11 29  1  0  0  0  0
 11 30  1  0  0  0  0
 12 17  1  0  0  0  0
 12 13  1  0  0  0  0
 12 39  1  0  0  0  0
 13 14  1  0  0  0  0
 13 31  1  0  0  0  0
 13 32  1  0  0  0  0
 14 15  1  0  0  0  0
 14 33  1  0  0  0  0
 14 34  1  0  0  0  0
 15 16  1  0  0  0  0
 16 17  1  0  0  0  0
 16 35  1  0  0  0  0
 16 36  1  0  0  0  0
 17 37  1  0  0  0  0
 17 38  1  0  0  0  0
 18 19  1  0  0  0  0
M  CHG  1   5  -1
M  CHG  1  12   1
M  END
> <s_m_source_file>
AV-unprocessed.smi

> <i_m_source_file_index>
2044

> <i_lp_mmshare_version>
43012

> <i_f3d_flags>
0

> <s_epik_input>
W0NIM11jMVtjSF1jKG5vMSlbTkhdQyg9TylbTkhdW0NIMl1bQ0BIXShbQ0gzXSlOMltDSDJdW0NIMl1PW0NIMl1bQ0gyXTI=

> <s_epik_cmdline>
J2VwaWtfcHl0aG9uJywgJy1waCcsICc3LjAnLCAnLXRuJywgJzgnLCAnLW1hJywgJzIwMCcsICctbWV0YWxfYmluZGluZycsICctaW1hZScsICc8aW5maWxlLm1hZT4nLCAnLW9tYWUnLCAnPG91dGZpbGUubWFlPic=

> <r_epik_Ionization_Penalty>
6.73014

> <r_epik_Ionization_Penalty_Charging>
6.73004

> <r_epik_Ionization_Penalty_Neutral>
9.51297e-05

> <r_epik_State_Penalty>
6.93052

> <r_epik_Charging_Adjusted_Penalty>
13.6606

> <i_epik_Tot_Q>
0

> <i_epik_Tot_abs_Q>
2

> <r_epik_Metal_State_Penalty>
2.86736

> <b_epik_Metal_Only>
1

> <s_lp_Force_Field>
OPLS_2005

> <r_lp_Energy>
9.04271

> <b_lp_Chiralities_Consistent>
1

> <s_lp_Variant>
AV-unprocessed.smi:2044-7

> <Gold.Version>
5.8.1

> <Gold.Id.Protein>
6NUR|6NUR_protein|mol2

> <Gold.PLP.Fitness>
40.6133

> <Gold.PLP.PLP>
-27.3042

> <Gold.PLP.part.hbond>
-4.7940

> <Gold.PLP.part.metal>
0.0000

> <Gold.PLP.part.buried>
-3.0861

> <Gold.PLP.part.nonpolar>
-19.3633

> <Gold.PLP.part.repulsive>
0.1760

> <Gold.PLP.ligand.clash>
0.0000

> <Gold.PLP.ligand.torsion>
1.6008

> <Gold.PLP.Chemscore.Hbond>
5.4768

> <Gold.PLP.Chemscore.CHOScore>
0.0000

> <Gold.PLP.Chemscore.Metal>
0.0000

> <Gold.Chemscore.Hbonds>
donor molecule, donor type, donor heavy atom, donor atom, acceptor molecule, acceptor atom, score
      L1  H    12    39       P1  7948  2.00
      P1  H  6896  6907       L1     5  1.90
      P1  H  6931  6943       L1    19  0.62
      P1  H  6934  6947       L1    19  0.83

> <Gold.PLP.Chemscore.Internal.Correction>
0.0803

> <Gold.Rescore>
     Score         DG    S(hbond)    S(metal)    S(lipo)     H(rot)  DE(clash)    DE(int)     intcor
     13.59     -15.24       2.25        0.00      54.05       1.59       0.06       1.59       ----

> <Gold.Chemscore.Fitness>
13.5866

> <Gold.Chemscore.DG>
-15.2382

> <Gold.Chemscore.ZeroCoef>
-5.4800

> <Gold.Chemscore.Hbond>
2.2491

> <Gold.Chemscore.Metal>
0.0000

> <Gold.Chemscore.Lipo>
54.0531

> <Gold.Chemscore.Internal_Hbond>
0.0000

> <Gold.Chemscore.DEClash>
0.0637

> <Gold.Chemscore.DEInternal>
1.5879

> <Gold.Chemscore.Rot>
1.5930

> <Gold.Chemscore.Internal.Correction>
   9.000000E+99

> <Gold.Chemscore.Hbonds>
donor molecule, donor type, donor heavy atom, donor atom, acceptor molecule, acceptor atom, score
      L1  H    12    39       P1  7948  0.30
      P1  H  6896  6907       L1     5  0.21
      P1  H  6931  6943       L1    19  0.05
      P1  H  6934  6947       L1    19  0.41

> <Gold.Chemscore.Hbond.Weighted>
-7.5120

> <Gold.Chemscore.Metal.Weighted>
-0.0000

> <Gold.Chemscore.Lipo.Weighted>
-6.3242

> <Gold.Chemscore.Internal_Hbond.Weighted>
0.0000

> <Gold.Chemscore.DEClash.Weighted>
0.0637

> <Gold.Chemscore.DEInternal.Weighted>
1.5879

> <Gold.Chemscore.Rot.Weighted>
4.0781

> <Gold.Chemscore.Internal.Correction.Weighted>
   9.000000E+99

> <Gold.Protein.RotatedTorsions>
[ 6907 6896 6895 6894 ] final  -57.86 input  -60.11 | X-H torsion
[ 7974 7965 7964 7962 ] final  -33.74 input  175.53 | X-H torsion
[ 8008 7997 7996 7995 ] final  175.16 input   59.86 | X-H torsion
[ 10167 10162 10161 10158 ] final   -3.98 input  -65.29 | X-H torsion
[ 10718 10713 10712 10709 ] final  -95.51 input   66.30 | X-H torsion
[ 10763 10752 10751 10750 ] final  162.43 input  -60.55 | X-H torsion
[ 11005 11000 10999 10996 ] final  177.98 input  -57.11 | X-H torsion

> <Gold.Protein.ActiveResidues>
 VAL166  LYS551  ARG553  GLY616  TRP617  ASP618  TYR619  PRO620  LYS621  CYS622 
 ASP623  PHE694  ASN695  SER759  ASP760  ASP761  ALA762  ILE779  LEU786  VAL792 
 PHE793  MET794  SER795  GLU796  ALA797  LYS798  CYS799  TRP800  GLU811  SER814 

> <Gold.Protein.RotatedAtoms>
  150.8052  134.7173  159.6637 H   0  0  0  0  0  0  0  0  0  0  0  0  # atno 6907 bound_to 6896
  152.4171  134.6018  160.0012 H   0  0  0  0  0  0  0  0  0  0  0  0  # atno 6908 bound_to 6896
  151.6244  133.3299  159.3131 H   0  0  0  0  0  0  0  0  0  0  0  0  # atno 6909 bound_to 6896
  146.0886  140.5953  142.8875 H   0  0  0  0  0  0  0  0  0  0  0  0  # atno 7974 bound_to 7965
  156.0900  140.1416  156.9605 H   0  0  0  0  0  0  0  0  0  0  0  0  # atno 8008 bound_to 7997
  154.4636  140.0934  156.7007 H   0  0  0  0  0  0  0  0  0  0  0  0  # atno 8009 bound_to 7997
  155.4936  140.3449  155.4361 H   0  0  0  0  0  0  0  0  0  0  0  0  # atno 8010 bound_to 7997
  140.6911  143.6476  150.8379 H   0  0  0  0  0  0  0  0  0  0  0  0  # atno 10167 bound_to 10162
  156.0045  130.5112  150.6087 H   0  0  0  0  0  0  0  0  0  0  0  0  # atno 10718 bound_to 10713
  154.2782  135.2764  155.2709 H   0  0  0  0  0  0  0  0  0  0  0  0  # atno 10763 bound_to 10752
  154.5241  135.5748  153.6708 H   0  0  0  0  0  0  0  0  0  0  0  0  # atno 10764 bound_to 10752
  152.9933  135.6212  154.2940 H   0  0  0  0  0  0  0  0  0  0  0  0  # atno 10765 bound_to 10752
  140.3901  134.6870  157.4502 H   0  0  0  0  0  0  0  0  0  0  0  0  # atno 11005 bound_to 11000
  144.7344  140.4765  143.6914 LP  0  0  0  0  0  0  0  0  0  0  0  0  # atno 17320 bound_to 7965
  145.6082  139.1510  143.3091 LP  0  0  0  0  0  0  0  0  0  0  0  0  # atno 17321 bound_to 7965
  140.0189  143.5563  152.2808 LP  0  0  0  0  0  0  0  0  0  0  0  0  # atno 17342 bound_to 10162
  139.6314  144.7644  151.2528 LP  0  0  0  0  0  0  0  0  0  0  0  0  # atno 17343 bound_to 10162
  157.3923  131.0797  151.1382 LP  0  0  0  0  0  0  0  0  0  0  0  0  # atno 17370 bound_to 10713
  157.2070  130.6420  149.5760 LP  0  0  0  0  0  0  0  0  0  0  0  0  # atno 17371 bound_to 10713
  140.0413  134.6263  155.8977 LP  0  0  0  0  0  0  0  0  0  0  0  0  # atno 17394 bound_to 11000
  141.1894  133.6565  156.5365 LP  0  0  0  0  0  0  0  0  0  0  0  0  # atno 17395 bound_to 11000

$$$$
