AV-unprocessed.smi:1624|AV-procd|sdf|6503|dock10
  -GOLD-   22720 7173D 1   1.00000     0.00000
 Structure written by MMmdl.
 36 37  0  0  0  0  0  0  0  0  1 V2000
  144.6202  137.3474  152.5115 O   0  0  0  0  0  0  0  0  0  0  0  0
  145.7798  137.0085  152.2729 C   0  0  0  0  0  0  0  0  0  0  0  0
  146.8418  137.7924  152.5077 N   0  0  0  0  0  0  0  0  0  0  0  0
  146.7811  139.1344  153.0725 C   0  0  0  0  0  0  0  0  0  0  0  0
  147.3751  139.1801  154.4926 C   0  0  0  0  0  0  0  0  0  0  0  0
  148.8228  139.4185  154.4504 N   0  0  0  0  0  0  0  0  0  0  0  0
  149.2468  140.7999  154.1674 C   0  0  0  0  0  0  0  0  0  0  0  0
  149.8695  141.5214  155.3856 C   0  0  0  0  0  0  0  0  0  0  0  0
  150.5993  140.6294  156.4095 C   0  0  0  0  0  0  0  0  0  0  0  0
  151.6695  139.6919  155.8121 C   0  0  0  0  0  0  0  0  0  0  0  0
  151.2107  138.7671  154.6594 C   0  0  0  0  0  0  0  0  0  0  0  0
  149.7128  138.4226  154.6836 C   0  0  0  0  0  0  0  0  0  0  0  0
  149.3756  137.2623  154.9210 O   0  0  0  0  0  0  0  0  0  0  0  0
  146.1547  135.8272  151.7516 N   0  0  0  0  0  0  0  0  0  0  0  0
  145.3350  134.7333  151.3672 C   0  0  0  0  0  0  0  0  0  0  0  0
  144.0042  134.7032  151.5383 N   0  0  0  0  0  0  0  0  0  0  0  0
  143.4475  133.5184  151.0737 N   0  0  0  0  0  0  0  0  0  0  0  0
  144.3791  132.7032  150.5711 C   0  0  0  0  0  0  0  0  0  0  0  0
  146.0277  133.3033  150.6158 S   0  0  0  0  0  0  0  0  0  0  0  0
  147.7589  137.4360  152.2821 H   0  0  0  0  0  0  0  0  0  0  0  0
  147.2985  139.8385  152.4184 H   0  0  0  0  0  0  0  0  0  0  0  0
  145.7352  139.4414  153.0903 H   0  0  0  0  0  0  0  0  0  0  0  0
  146.8838  139.9600  155.0771 H   0  0  0  0  0  0  0  0  0  0  0  0
  147.1546  138.2522  155.0213 H   0  0  0  0  0  0  0  0  0  0  0  0
  149.9559  140.7940  153.3395 H   0  0  0  0  0  0  0  0  0  0  0  0
  148.4157  141.4010  153.7975 H   0  0  0  0  0  0  0  0  0  0  0  0
  150.5478  142.2958  155.0264 H   0  0  0  0  0  0  0  0  0  0  0  0
  149.0761  142.0495  155.9156 H   0  0  0  0  0  0  0  0  0  0  0  0
  151.0682  141.2674  157.1590 H   0  0  0  0  0  0  0  0  0  0  0  0
  149.8664  140.0397  156.9622 H   0  0  0  0  0  0  0  0  0  0  0  0
  152.5094  140.2923  155.4609 H   0  0  0  0  0  0  0  0  0  0  0  0
  152.0692  139.0752  156.6180 H   0  0  0  0  0  0  0  0  0  0  0  0
  151.4546  139.2170  153.6973 H   0  0  0  0  0  0  0  0  0  0  0  0
  151.7907  137.8437  154.6894 H   0  0  0  0  0  0  0  0  0  0  0  0
  147.1456  135.6934  151.6148 H   0  0  0  0  0  0  0  0  0  0  0  0
  144.0938  131.7418  150.1707 H   0  0  0  0  0  0  0  0  0  0  0  0
  1  2  2  0  0  0  0
  2  3  1  0  0  0  0
  2 14  1  0  0  0  0
  3  4  1  0  0  0  0
  3 20  1  0  0  0  0
  4  5  1  0  0  0  0
  4 21  1  0  0  0  0
  4 22  1  0  0  0  0
  5  6  1  0  0  0  0
  5 23  1  0  0  0  0
  5 24  1  0  0  0  0
  6 12  1  0  0  0  0
  6  7  1  0  0  0  0
  7  8  1  0  0  0  0
  7 25  1  0  0  0  0
  7 26  1  0  0  0  0
  8  9  1  0  0  0  0
  8 27  1  0  0  0  0
  8 28  1  0  0  0  0
  9 10  1  0  0  0  0
  9 29  1  0  0  0  0
  9 30  1  0  0  0  0
 10 11  1  0  0  0  0
 10 31  1  0  0  0  0
 10 32  1  0  0  0  0
 11 12  1  0  0  0  0
 11 33  1  0  0  0  0
 11 34  1  0  0  0  0
 12 13  2  0  0  0  0
 14 15  1  0  0  0  0
 14 35  1  0  0  0  0
 15 19  1  0  0  0  0
 15 16  2  0  0  0  0
 16 17  1  0  0  0  0
 17 18  2  0  0  0  0
 18 19  1  0  0  0  0
 18 36  1  0  0  0  0
M  END
> <s_m_source_file>
AV-unprocessed.smi

> <i_m_source_file_index>
1624

> <i_lp_mmshare_version>
43012

> <i_f3d_flags>
0

> <s_epik_input>
czFbY0hdbm5jMVtOSF1DKD1PKVtOSF1bQ0gyXVtDSDJdTjJbQ0gyXVtDSDJdW0NIMl1bQ0gyXVtDSDJdQzI9Tw==

> <s_epik_cmdline>
J2VwaWtfcHl0aG9uJywgJy1waCcsICc3LjAnLCAnLXRuJywgJzgnLCAnLW1hJywgJzIwMCcsICctbWV0YWxfYmluZGluZycsICctaW1hZScsICc8aW5maWxlLm1hZT4nLCAnLW9tYWUnLCAnPG91dGZpbGUubWFlPic=

> <r_lp_tautomer_probability>
1

> <r_epik_Ionization_Penalty>
0.00222419

> <r_epik_Ionization_Penalty_Charging>
0

> <r_epik_Ionization_Penalty_Neutral>
0.00222419

> <r_epik_State_Penalty>
-0

> <r_epik_Charging_Adjusted_Penalty>
0

> <i_epik_Tot_Q>
0

> <i_epik_Tot_abs_Q>
0

> <r_epik_Metal_State_Penalty>
0.3454

> <b_epik_Metal_Only>
0

> <s_lp_Force_Field>
OPLS_2005

> <r_lp_Energy>
20.1162

> <b_lp_Chiralities_Consistent>
1

> <s_lp_Variant>
AV-unprocessed.smi:1624-1

> <Gold.Version>
5.8.1

> <Gold.Id.Protein>
6NUR|6NUR_protein|mol2

> <Gold.PLP.Fitness>
37.3905

> <Gold.PLP.PLP>
-32.1975

> <Gold.PLP.part.hbond>
-2.0000

> <Gold.PLP.part.metal>
0.0000

> <Gold.PLP.part.buried>
-1.4681

> <Gold.PLP.part.nonpolar>
-28.0315

> <Gold.PLP.part.repulsive>
0.8903

> <Gold.PLP.ligand.clash>
0.0000

> <Gold.PLP.ligand.torsion>
0.4090

> <Gold.PLP.Chemscore.Hbond>
2.0000

> <Gold.PLP.Chemscore.CHOScore>
0.0000

> <Gold.PLP.Chemscore.Metal>
0.0000

> <Gold.Chemscore.Hbonds>
donor molecule, donor type, donor heavy atom, donor atom, acceptor molecule, acceptor atom, score
      L1  H     3    20       P1  7948  1.00
      L1  H    14    35       P1  7948  1.00

> <Gold.PLP.Chemscore.Internal.Correction>
0.0109

> <Gold.Rescore>
     Score         DG    S(hbond)    S(metal)    S(lipo)     H(rot)  DE(clash)    DE(int)     intcor
     13.05     -14.97       1.95        0.00      63.87       1.76       0.11       1.80       ----

> <Gold.Chemscore.Fitness>
13.0540

> <Gold.Chemscore.DG>
-14.9683

> <Gold.Chemscore.ZeroCoef>
-5.4800

> <Gold.Chemscore.Hbond>
1.9535

> <Gold.Chemscore.Metal>
0.0000

> <Gold.Chemscore.Lipo>
63.8715

> <Gold.Chemscore.Internal_Hbond>
0.0000

> <Gold.Chemscore.DEClash>
0.1136

> <Gold.Chemscore.DEInternal>
1.8008

> <Gold.Chemscore.Rot>
1.7615

> <Gold.Chemscore.Internal.Correction>
   9.000000E+99

> <Gold.Chemscore.Hbonds>
donor molecule, donor type, donor heavy atom, donor atom, acceptor molecule, acceptor atom, score
      L1  H     3    20       P1  7948  0.99
      L1  H    14    35       P1  7948  0.97

> <Gold.Chemscore.Hbond.Weighted>
-6.5248

> <Gold.Chemscore.Metal.Weighted>
-0.0000

> <Gold.Chemscore.Lipo.Weighted>
-7.4730

> <Gold.Chemscore.Internal_Hbond.Weighted>
0.0000

> <Gold.Chemscore.DEClash.Weighted>
0.1136

> <Gold.Chemscore.DEInternal.Weighted>
1.8008

> <Gold.Chemscore.Rot.Weighted>
4.5095

> <Gold.Chemscore.Internal.Correction.Weighted>
   9.000000E+99

> <Gold.Protein.RotatedTorsions>
[ 6907 6896 6895 6894 ] final  -74.12 input  -60.11 | X-H torsion
[ 7974 7965 7964 7962 ] final   95.32 input  175.53 | X-H torsion
[ 8008 7997 7996 7995 ] final  -28.35 input   59.86 | X-H torsion
[ 10167 10162 10161 10158 ] final -121.49 input  -65.29 | X-H torsion
[ 10718 10713 10712 10709 ] final  -94.40 input   66.30 | X-H torsion
[ 10763 10752 10751 10750 ] final   -4.46 input  -60.55 | X-H torsion
[ 11005 11000 10999 10996 ] final  150.12 input  -57.11 | X-H torsion

> <Gold.Protein.ActiveResidues>
 VAL166  LYS551  ARG553  GLY616  TRP617  ASP618  TYR619  PRO620  LYS621  CYS622 
 ASP623  PHE694  ASN695  SER759  ASP760  ASP761  ALA762  ILE779  LEU786  VAL792 
 PHE793  MET794  SER795  GLU796  ALA797  LYS798  CYS799  TRP800  GLU811  SER814 

> <Gold.Protein.RotatedAtoms>
  150.7104  134.4916  159.5517 H   0  0  0  0  0  0  0  0  0  0  0  0  # atno 6907 bound_to 6896
  152.2532  134.8108  160.0452 H   0  0  0  0  0  0  0  0  0  0  0  0  # atno 6908 bound_to 6896
  151.8848  133.3468  159.3815 H   0  0  0  0  0  0  0  0  0  0  0  0  # atno 6909 bound_to 6896
  145.4538  139.2291  143.3025 H   0  0  0  0  0  0  0  0  0  0  0  0  # atno 7974 bound_to 7965
  154.4336  140.1848  156.1075 H   0  0  0  0  0  0  0  0  0  0  0  0  # atno 8008 bound_to 7997
  156.0244  140.3337  155.7047 H   0  0  0  0  0  0  0  0  0  0  0  0  # atno 8009 bound_to 7997
  155.5930  140.0633  157.2744 H   0  0  0  0  0  0  0  0  0  0  0  0  # atno 8010 bound_to 7997
  140.0245  143.5310  152.2205 H   0  0  0  0  0  0  0  0  0  0  0  0  # atno 10167 bound_to 10162
  156.0026  130.5066  150.5921 H   0  0  0  0  0  0  0  0  0  0  0  0  # atno 10718 bound_to 10713
  153.3851  135.7000  153.6536 H   0  0  0  0  0  0  0  0  0  0  0  0  # atno 10763 bound_to 10752
  153.5131  135.3627  155.2597 H   0  0  0  0  0  0  0  0  0  0  0  0  # atno 10764 bound_to 10752
  154.8697  135.4139  154.3157 H   0  0  0  0  0  0  0  0  0  0  0  0  # atno 10765 bound_to 10752
  140.1103  134.8928  157.1927 H   0  0  0  0  0  0  0  0  0  0  0  0  # atno 11005 bound_to 11000
  146.2490  140.5299  142.8901 LP  0  0  0  0  0  0  0  0  0  0  0  0  # atno 17320 bound_to 7965
  144.8045  140.6274  143.6456 LP  0  0  0  0  0  0  0  0  0  0  0  0  # atno 17321 bound_to 7965
  139.6117  144.7610  151.2936 LP  0  0  0  0  0  0  0  0  0  0  0  0  # atno 17342 bound_to 10162
  140.7328  143.6812  150.7999 LP  0  0  0  0  0  0  0  0  0  0  0  0  # atno 17343 bound_to 10162
  157.3784  131.0777  151.1498 LP  0  0  0  0  0  0  0  0  0  0  0  0  # atno 17370 bound_to 10713
  157.2229  130.6489  149.5818 LP  0  0  0  0  0  0  0  0  0  0  0  0  # atno 17371 bound_to 10713
  140.3099  134.3035  155.7269 LP  0  0  0  0  0  0  0  0  0  0  0  0  # atno 17394 bound_to 11000
  141.2128  133.7644  156.9762 LP  0  0  0  0  0  0  0  0  0  0  0  0  # atno 17395 bound_to 11000

$$$$
