#       Name:                AV-unprocessed.smi:1139
#       Creating user name   scv26
#       Creation time:       Fri Mar 27 03:44:03 2020


#       File generated by GOLD software.
#

@<TRIPOS>MOLECULE
AV-unprocessed.smi:1139
    48    49     1
SMALL
NO_CHARGES


@<TRIPOS>ATOM
      1 ****        -2.9548   2.8120  -1.8847 C.3            1 S1                 0.0000
      2 ****        -3.0678   3.2904  -0.4655 C.2            1 S1                 0.0000
      3 ****        -3.2422   4.5788  -0.2238 N.2            1 S1                 0.0000
      4 ****        -3.3123   4.7019   1.1672 O.3            1 S1                 0.0000
      5 ****        -3.1756   3.4675   1.7149 C.2            1 S1                 0.0000
      6 ****        -3.2246   3.3860   3.2033 C.3            1 S1                 0.0000
      7 ****        -3.0168   2.5256   0.7355 C.2            1 S1                 0.0000
      8 ****        -2.8333   1.0377   0.8840 C.3            1 S1                 0.0000
      9 ****        -1.3432   0.7109   0.9863 C.2            1 S1                 0.0000
     10 ****        -0.7472   0.8815   2.0496 O.2            1 S1                 0.0000
     11 ****        -0.7537   0.2429  -0.1252 N.am           1 S1                 0.0000
     12 ****         0.6636  -0.0838  -0.2618 C.3            1 S1                 0.0000
     13 ****         0.9442  -1.6086  -0.2186 C.3            1 S1                 0.0000
     14 ****         0.4372  -2.2404   1.0977 C.3            1 S1                 0.0000
     15 ****         2.3977  -1.8896  -0.4166 N.4            1 S1                 1.0000
     16 ****         2.7740  -3.3204  -0.4012 C.3            1 S1                 0.0000
     17 ****         4.1482  -3.4062  -1.0684 C.3            1 S1                 0.0000
     18 ****         4.2775  -2.1303  -1.9033 C.3            1 S1                 0.0000
     19 ****         2.9824  -1.3501  -1.6641 C.3            1 S1                 0.0000
     20 ****        -2.1763   2.0557  -1.9831 H              1 S1                 0.0000
     21 ****        -2.7076   3.6269  -2.5662 H              1 S1                 0.0000
     22 ****        -3.8926   2.3701  -2.2214 H              1 S1                 0.0000
     23 ****        -2.5481   2.6151   3.5724 H              1 S1                 0.0000
     24 ****        -4.2313   3.1423   3.5424 H              1 S1                 0.0000
     25 ****        -2.9339   4.3333   3.6579 H              1 S1                 0.0000
     26 ****        -3.3334   0.6645   1.7784 H              1 S1                 0.0000
     27 ****        -3.2745   0.4969   0.0455 H              1 S1                 0.0000
     28 ****        -1.3270   0.1342  -0.9495 H              1 S1                 0.0000
     29 ****         0.9703   0.3350  -1.2197 H              1 S1                 0.0000
     30 ****         1.2575   0.4310   0.4957 H              1 S1                 0.0000
     31 ****         0.4011  -2.0752  -1.0423 H              1 S1                 0.0000
     32 ****        -0.6302  -2.0753   1.2401 H              1 S1                 0.0000
     33 ****         0.9548  -1.8219   1.9616 H              1 S1                 0.0000
     34 ****         0.5748  -3.3210   1.1165 H              1 S1                 0.0000
     35 ****         2.7939  -3.7283   0.6098 H              1 S1                 0.0000
     36 ****         2.0503  -3.8933  -0.9836 H              1 S1                 0.0000
     37 ****         4.9339  -3.4342  -0.3123 H              1 S1                 0.0000
     38 ****         4.2441  -4.3077  -1.6747 H              1 S1                 0.0000
     39 ****         5.1383  -1.5521  -1.5646 H              1 S1                 0.0000
     40 ****         4.4232  -2.3457  -2.9624 H              1 S1                 0.0000
     41 ****         2.2947  -1.5246  -2.4933 H              1 S1                 0.0000
     42 ****         3.1677  -0.2776  -1.5984 H              1 S1                 0.0000
     43 ****         2.8983  -1.4543   0.3454 H              1 S1                 0.0000
     44 ****        -3.3101   5.3144  -0.8978 LP             1 S1                 0.0000
     45 ****        -4.1961   5.0908   1.4276 LP             1 S1                 0.0000
     46 ****        -2.5775   5.2980   1.4908 LP             1 S1                 0.0000
     47 ****        -1.2376   1.2339   2.8467 LP             1 S1                 0.0000
     48 ****         0.2274   0.6677   2.1164 LP             1 S1                 0.0000
@<TRIPOS>BOND
    1    1    2 1     
    2    1   20 1     
    3    1   21 1     
    4    1   22 1     
    5    2    7 1     
    6    2    3 2     
    7    3    4 1     
    8    4    5 1     
    9    5    6 1     
   10    5    7 2     
   11    6   23 1     
   12    6   24 1     
   13    6   25 1     
   14    7    8 1     
   15    8    9 1     
   16    8   26 1     
   17    8   27 1     
   18    9   10 2     
   19    9   11 am    
   20   11   12 1     
   21   11   28 1     
   22   12   13 1     
   23   12   29 1     
   24   12   30 1     
   25   13   14 1     
   26   13   15 1     
   27   13   31 1     
   28   14   32 1     
   29   14   33 1     
   30   14   34 1     
   31   15   19 1     
   32   15   16 1     
   33   15   43 1     
   34   16   17 1     
   35   16   35 1     
   36   16   36 1     
   37   17   18 1     
   38   17   37 1     
   39   17   38 1     
   40   18   19 1     
   41   18   39 1     
   42   18   40 1     
   43   19   41 1     
   44   19   42 1     
   45    3   44 1     
   46    4   45 1     
   47    4   46 1     
   48   10   47 1     
   49   10   48 1     
@<TRIPOS>SUBSTRUCTURE
      1 S1             1
@<TRIPOS>SET
LONE_PAIRS      STATIC     ATOMS    <user>   **** ""
5 44 45 46 47 48
DONOR_HYDROGENS      STATIC     ATOMS    <user>   **** ""
2 28 43
ATOM$BLUE        STATIC     ATOMS    COLORGROUP SYSTEM
5 44 45 46 47 48
ATOM$RED        STATIC     ATOMS    COLORGROUP SYSTEM
2 28 43
