AV-unprocessed.smi:1291|AV-procd|sdf|5391|dock4
  -GOLD-   22720 4543D 1   1.00000     0.00000
 Structure written by MMmdl.
 43 45  0  0  0  0  0  0  0  0  1 V2000
  150.1883  140.1996  154.1695 O   0  0  0  0  0  0  0  0  0  0  0  0
  149.4879  140.5345  155.3476 C   0  0  0  0  0  0  0  0  0  0  0  0
  150.4005  140.7625  156.5132 C   0  0  0  0  0  0  0  0  0  0  0  0
  150.4967  141.9539  157.1045 N   0  0  0  0  0  0  0  0  0  0  0  0
  151.4444  141.7325  158.0843 C   0  0  0  0  0  0  0  0  0  0  0  0
  151.9905  142.6096  159.0486 C   0  0  0  0  0  0  0  0  0  0  0  0
  152.9667  142.1522  159.9578 C   0  0  0  0  0  0  0  0  0  0  0  0
  153.4105  140.8146  159.9157 C   0  0  0  0  0  0  0  0  0  0  0  0
  152.8786  139.9240  158.9635 C   0  0  0  0  0  0  0  0  0  0  0  0
  151.9026  140.3849  158.0593 C   0  0  0  0  0  0  0  0  0  0  0  0
  151.1907  139.7845  157.0254 N   0  0  0  0  0  0  0  0  0  0  0  0
  151.3081  138.3959  156.6042 C   0  0  0  0  0  0  0  0  0  0  0  0
  151.1243  137.4099  157.7811 C   0  0  2  0  0  0  0  0  0  0  0  0
  151.0197  136.1026  157.2525 O   0  0  0  0  0  0  0  0  0  0  0  0
  149.8591  137.7060  158.6026 C   0  0  0  0  0  0  0  0  0  0  0  0
  149.5561  136.5815  159.4162 O   0  0  0  0  0  0  0  0  0  0  0  0
  148.3257  136.6966  160.1180 C   0  0  0  0  0  0  0  0  0  0  0  0
  147.8733  135.3899  160.7510 C   0  0  0  0  0  0  0  0  0  0  0  0
  147.7132  134.2447  159.9426 C   0  0  0  0  0  0  0  0  0  0  0  0
  147.2988  133.0253  160.5125 C   0  0  0  0  0  0  0  0  0  0  0  0
  147.0459  132.9446  161.8952 C   0  0  0  0  0  0  0  0  0  0  0  0
  147.2104  134.0830  162.7073 C   0  0  0  0  0  0  0  0  0  0  0  0
  147.6246  135.3039  162.1392 C   0  0  0  0  0  0  0  0  0  0  0  0
  147.7756  136.3901  162.9347 F   0  0  0  0  0  0  0  0  0  0  0  0
  149.5671  140.1217  153.4620 H   0  0  0  0  0  0  0  0  0  0  0  0
  148.9133  141.4426  155.1610 H   0  0  0  0  0  0  0  0  0  0  0  0
  148.7641  139.7537  155.5779 H   0  0  0  0  0  0  0  0  0  0  0  0
  151.6586  143.6367  159.0875 H   0  0  0  0  0  0  0  0  0  0  0  0
  153.3779  142.8313  160.6902 H   0  0  0  0  0  0  0  0  0  0  0  0
  154.1596  140.4727  160.6148 H   0  0  0  0  0  0  0  0  0  0  0  0
  153.2188  138.8998  158.9291 H   0  0  0  0  0  0  0  0  0  0  0  0
  150.5617  138.2154  155.8300 H   0  0  0  0  0  0  0  0  0  0  0  0
  152.2648  138.2556  156.1005 H   0  0  0  0  0  0  0  0  0  0  0  0
  151.9951  137.4461  158.4378 H   0  0  0  0  0  0  0  0  0  0  0  0
  151.8812  135.7152  157.2373 H   0  0  0  0  0  0  0  0  0  0  0  0
  150.0446  138.5564  159.2607 H   0  0  0  0  0  0  0  0  0  0  0  0
  149.0253  137.9757  157.9527 H   0  0  0  0  0  0  0  0  0  0  0  0
  148.4642  137.4239  160.9181 H   0  0  0  0  0  0  0  0  0  0  0  0
  147.5591  137.1096  159.4611 H   0  0  0  0  0  0  0  0  0  0  0  0
  147.9054  134.3018  158.8811 H   0  0  0  0  0  0  0  0  0  0  0  0
  147.1749  132.1523  159.8888 H   0  0  0  0  0  0  0  0  0  0  0  0
  146.7268  132.0102  162.3330 H   0  0  0  0  0  0  0  0  0  0  0  0
  147.0181  134.0205  163.7682 H   0  0  0  0  0  0  0  0  0  0  0  0
  1  2  1  0  0  0  0
  1 25  1  0  0  0  0
  2  3  1  0  0  0  0
  2 26  1  0  0  0  0
  2 27  1  0  0  0  0
  3 11  1  0  0  0  0
  3  4  2  0  0  0  0
  4  5  1  0  0  0  0
  5 10  2  0  0  0  0
  5  6  1  0  0  0  0
  6  7  2  0  0  0  0
  6 28  1  0  0  0  0
  7  8  1  0  0  0  0
  7 29  1  0  0  0  0
  8  9  2  0  0  0  0
  8 30  1  0  0  0  0
  9 10  1  0  0  0  0
  9 31  1  0  0  0  0
 10 11  1  0  0  0  0
 11 12  1  0  0  0  0
 12 13  1  0  0  0  0
 12 32  1  0  0  0  0
 12 33  1  0  0  0  0
 13 14  1  0  0  0  0
 13 15  1  0  0  0  0
 13 34  1  0  0  0  0
 14 35  1  0  0  0  0
 15 16  1  0  0  0  0
 15 36  1  0  0  0  0
 15 37  1  0  0  0  0
 16 17  1  0  0  0  0
 17 18  1  0  0  0  0
 17 38  1  0  0  0  0
 17 39  1  0  0  0  0
 18 23  1  0  0  0  0
 18 19  2  0  0  0  0
 19 20  1  0  0  0  0
 19 40  1  0  0  0  0
 20 21  2  0  0  0  0
 20 41  1  0  0  0  0
 21 22  1  0  0  0  0
 21 42  1  0  0  0  0
 22 23  2  0  0  0  0
 22 43  1  0  0  0  0
 23 24  1  0  0  0  0
M  END
> <s_m_source_file>
AV-unprocessed.smi

> <i_m_source_file_index>
1291

> <i_lp_mmshare_version>
43012

> <i_f3d_flags>
0

> <s_epik_input>
W2NIXTFbY0hdW2NIXVtjSF1jKGMxMiluKGMobjIpW0NIMl1bT0hdKVtDSDJdW0NASF0oW09IXSlbQ0gyXU9bQ0gyXWMzW2NIXVtjSF1bY0hdW2NIXWMzRg==

> <s_epik_cmdline>
J2VwaWtfcHl0aG9uJywgJy1waCcsICc3LjAnLCAnLXRuJywgJzgnLCAnLW1hJywgJzIwMCcsICctbWV0YWxfYmluZGluZycsICctaW1hZScsICc8aW5maWxlLm1hZT4nLCAnLW9tYWUnLCAnPG91dGZpbGUubWFlPic=

> <r_epik_Ionization_Penalty>
0.0649918

> <r_epik_Ionization_Penalty_Charging>
0

> <r_epik_Ionization_Penalty_Neutral>
0.0649918

> <r_epik_State_Penalty>
0.0565791

> <r_epik_Charging_Adjusted_Penalty>
0.0565791

> <i_epik_Tot_Q>
0

> <i_epik_Tot_abs_Q>
0

> <r_epik_Metal_State_Penalty>
5.93658e-05

> <b_epik_Metal_Only>
0

> <s_lp_Force_Field>
OPLS_2005

> <r_lp_Energy>
20.1032

> <b_lp_Chiralities_Consistent>
1

> <s_lp_Variant>
AV-unprocessed.smi:1291-1

> <Gold.Version>
5.8.1

> <Gold.Id.Protein>
6NUR|6NUR_protein|mol2

> <Gold.PLP.Fitness>
55.6094

> <Gold.PLP.PLP>
-48.6674

> <Gold.PLP.part.hbond>
-3.4238

> <Gold.PLP.part.metal>
0.0000

> <Gold.PLP.part.buried>
-6.2121

> <Gold.PLP.part.nonpolar>
-40.1370

> <Gold.PLP.part.repulsive>
0.0692

> <Gold.PLP.ligand.clash>
0.0000

> <Gold.PLP.ligand.torsion>
0.2877

> <Gold.PLP.Chemscore.Hbond>
2.4749

> <Gold.PLP.Chemscore.CHOScore>
0.0000

> <Gold.PLP.Chemscore.Metal>
0.0000

> <Gold.Chemscore.Hbonds>
donor molecule, donor type, donor heavy atom, donor atom, acceptor molecule, acceptor atom, score
      L1  H     1    25       P1  7957  0.24
      P1  H  6896  6907       L1    16  0.67
      P1  H  7989  7998       L1     1  0.98

> <Gold.PLP.Chemscore.Internal.Correction>
0.0929

> <Gold.Rescore>
     Score         DG    S(hbond)    S(metal)    S(lipo)     H(rot)  DE(clash)    DE(int)     intcor
     18.22     -18.56       2.45        0.00     114.81       3.33       0.02       0.32       ----

> <Gold.Chemscore.Fitness>
18.2175

> <Gold.Chemscore.DG>
-18.5634

> <Gold.Chemscore.ZeroCoef>
-5.4800

> <Gold.Chemscore.Hbond>
2.4490

> <Gold.Chemscore.Metal>
0.0000

> <Gold.Chemscore.Lipo>
114.8068

> <Gold.Chemscore.Internal_Hbond>
0.0000

> <Gold.Chemscore.DEClash>
0.0213

> <Gold.Chemscore.DEInternal>
0.3245

> <Gold.Chemscore.Rot>
3.3316

> <Gold.Chemscore.Internal.Correction>
   9.000000E+99

> <Gold.Chemscore.Hbonds>
donor molecule, donor type, donor heavy atom, donor atom, acceptor molecule, acceptor atom, score
      L1  H     1    25       P1  7957  0.24
      P1  H  6896  6907       L1    16  0.65
      P1  H  7989  7998       L1     1  0.51

> <Gold.Chemscore.Hbond.Weighted>
-8.1798

> <Gold.Chemscore.Metal.Weighted>
-0.0000

> <Gold.Chemscore.Lipo.Weighted>
-13.4324

> <Gold.Chemscore.Internal_Hbond.Weighted>
0.0000

> <Gold.Chemscore.DEClash.Weighted>
0.0213

> <Gold.Chemscore.DEInternal.Weighted>
0.3245

> <Gold.Chemscore.Rot.Weighted>
8.5288

> <Gold.Chemscore.Internal.Correction.Weighted>
   9.000000E+99

> <Gold.Protein.RotatedTorsions>
[ 6907 6896 6895 6894 ] final  -51.86 input  -60.11 | X-H torsion
[ 7974 7965 7964 7962 ] final  -11.26 input  175.53 | X-H torsion
[ 8008 7997 7996 7995 ] final  125.37 input   59.86 | X-H torsion
[ 10167 10162 10161 10158 ] final    3.89 input  -65.29 | X-H torsion
[ 10718 10713 10712 10709 ] final  -66.79 input   66.30 | X-H torsion
[ 10763 10752 10751 10750 ] final   24.12 input  -60.55 | X-H torsion
[ 11005 11000 10999 10996 ] final -172.86 input  -57.11 | X-H torsion

> <Gold.Protein.ActiveResidues>
 VAL166  LYS551  ARG553  GLY616  TRP617  ASP618  TYR619  PRO620  LYS621  CYS622 
 ASP623  PHE694  ASN695  SER759  ASP760  ASP761  ALA762  ILE779  LEU786  VAL792 
 PHE793  MET794  SER795  GLU796  ALA797  LYS798  CYS799  TRP800  GLU811  SER814 

> <Gold.Protein.RotatedAtoms>
  150.8571  134.7913  159.7053 H   0  0  0  0  0  0  0  0  0  0  0  0  # atno 6907 bound_to 6896
  152.4619  134.5160  159.9778 H   0  0  0  0  0  0  0  0  0  0  0  0  # atno 6908 bound_to 6896
  151.5271  133.3417  159.2947 H   0  0  0  0  0  0  0  0  0  0  0  0  # atno 6909 bound_to 6896
  146.2193  140.2885  142.8367 H   0  0  0  0  0  0  0  0  0  0  0  0  # atno 7974 bound_to 7965
  156.2832  140.2718  156.1939 H   0  0  0  0  0  0  0  0  0  0  0  0  # atno 8008 bound_to 7997
  155.0430  140.0386  157.2534 H   0  0  0  0  0  0  0  0  0  0  0  0  # atno 8009 bound_to 7997
  154.7258  140.2697  155.6505 H   0  0  0  0  0  0  0  0  0  0  0  0  # atno 8010 bound_to 7997
  140.6562  143.7420  150.7659 H   0  0  0  0  0  0  0  0  0  0  0  0  # atno 10167 bound_to 10162
  156.0593  130.4267  150.1760 H   0  0  0  0  0  0  0  0  0  0  0  0  # atno 10718 bound_to 10713
  153.0787  135.6612  154.0091 H   0  0  0  0  0  0  0  0  0  0  0  0  # atno 10763 bound_to 10752
  153.9718  135.2964  155.3428 H   0  0  0  0  0  0  0  0  0  0  0  0  # atno 10764 bound_to 10752
  154.7181  135.5176  153.8841 H   0  0  0  0  0  0  0  0  0  0  0  0  # atno 10765 bound_to 10752
  140.4922  134.5974  157.4958 H   0  0  0  0  0  0  0  0  0  0  0  0  # atno 11005 bound_to 11000
  144.9144  140.7795  143.5787 LP  0  0  0  0  0  0  0  0  0  0  0  0  # atno 17320 bound_to 7965
  145.2818  139.1915  143.4787 LP  0  0  0  0  0  0  0  0  0  0  0  0  # atno 17321 bound_to 7965
  140.1080  143.4726  152.2387 LP  0  0  0  0  0  0  0  0  0  0  0  0  # atno 17342 bound_to 10162
  139.5786  144.7499  151.3700 LP  0  0  0  0  0  0  0  0  0  0  0  0  # atno 17343 bound_to 10162
  156.9831  130.9870  151.3432 LP  0  0  0  0  0  0  0  0  0  0  0  0  # atno 17370 bound_to 10713
  157.5588  130.8232  149.8239 LP  0  0  0  0  0  0  0  0  0  0  0  0  # atno 17371 bound_to 10713
  139.9762  134.7211  155.9945 LP  0  0  0  0  0  0  0  0  0  0  0  0  # atno 17394 bound_to 11000
  141.1478  133.6553  156.3921 LP  0  0  0  0  0  0  0  0  0  0  0  0  # atno 17395 bound_to 11000

$$$$
