#       Name:                AV-unprocessed.smi:3009
#       Creating user name   scv26
#       Creation time:       Fri Mar 27 16:38:02 2020


#       File generated by GOLD software.
#

@<TRIPOS>MOLECULE
AV-unprocessed.smi:3009
    49    50     1
SMALL
NO_CHARGES


@<TRIPOS>ATOM
      1 ****        -5.5260   2.3013   0.0254 C.3            1 S1                 0.0000
      2 ****        -3.9923   2.2321  -0.0177 C.3            1 S1                 0.0000
      3 ****        -3.4826   2.5331  -1.4373 C.3            1 S1                 0.0000
      4 ****        -3.4977   0.8620   0.4962 C.3            1 S1                 0.0000
      5 ****        -2.0181   0.7698   0.5951 N.4            1 S1                 1.0000
      6 ****        -1.4473   1.5161   1.7438 C.3            1 S1                 0.0000
      7 ****         0.0856   1.3971   1.7519 C.3            1 S1                 0.0000
      8 ****         0.4567   0.0249   1.7803 O.3            1 S1                 0.0000
      9 ****        -0.0002  -0.6807   0.6306 C.3            1 S1                 0.0000
     10 ****         0.5285  -2.1247   0.7023 C.3            1 S1                 0.0000
     11 ****         1.9860  -2.1755   0.6564 N.am           1 S1                 0.0000
     12 ****         2.7248  -2.0038  -0.4485 C.2            1 S1                 0.0000
     13 ****         2.2417  -1.7800  -1.5585 O.2            1 S1                 0.0000
     14 ****         4.0366  -2.1047  -0.1814 N.am           1 S1                 0.0000
     15 ****         5.1102  -1.9599  -1.0954 C.2            1 S1                 0.0000
     16 ****         5.0747  -1.6516  -2.4871 C.2            1 S1                 0.0000
     17 ****         6.2966  -1.5993  -2.9981 N.2            1 S1                 0.0000
     18 ****         7.1082  -1.8701  -1.9513 N.pl3          1 S1                 0.0000
     19 ****         6.4282  -2.0950  -0.7748 C.2            1 S1                 0.0000
     20 ****        -1.5398  -0.6332   0.6045 C.3            1 S1                 0.0000
     21 ****         8.1127  -1.8971  -2.0551 H              1 S1                 0.0000
     22 ****        -5.9755   1.5492  -0.6239 H              1 S1                 0.0000
     23 ****        -5.8859   3.2784  -0.2988 H              1 S1                 0.0000
     24 ****        -5.8998   2.1344   1.0361 H              1 S1                 0.0000
     25 ****        -3.6265   3.0169   0.6435 H              1 S1                 0.0000
     26 ****        -3.8193   1.7784  -2.1489 H              1 S1                 0.0000
     27 ****        -2.3935   2.5639  -1.4737 H              1 S1                 0.0000
     28 ****        -3.8445   3.5010  -1.7852 H              1 S1                 0.0000
     29 ****        -3.9355   0.6370   1.4701 H              1 S1                 0.0000
     30 ****        -3.8617   0.0907  -0.1844 H              1 S1                 0.0000
     31 ****        -1.7226   2.5687   1.6939 H              1 S1                 0.0000
     32 ****        -1.8547   1.1222   2.6763 H              1 S1                 0.0000
     33 ****         0.5202   1.8878   0.8795 H              1 S1                 0.0000
     34 ****         0.4965   1.8918   2.6321 H              1 S1                 0.0000
     35 ****         0.3860  -0.1980  -0.2691 H              1 S1                 0.0000
     36 ****         0.1967  -2.6012   1.6252 H              1 S1                 0.0000
     37 ****         0.1197  -2.7193  -0.1164 H              1 S1                 0.0000
     38 ****         2.4640  -2.3530   1.5277 H              1 S1                 0.0000
     39 ****         4.2948  -2.3029   0.7741 H              1 S1                 0.0000
     40 ****         4.2312  -1.4664  -3.1354 H              1 S1                 0.0000
     41 ****         6.9274  -2.3243   0.1550 H              1 S1                 0.0000
     42 ****        -1.9506  -1.1532   1.4717 H              1 S1                 0.0000
     43 ****        -1.9053  -1.1508  -0.2834 H              1 S1                 0.0000
     44 ****        -1.6461   1.1883  -0.2458 H              1 S1                 0.0000
     45 ****         0.0620  -0.3985   2.5957 LP             1 S1                 0.0000
     46 ****         1.4538  -0.0381   1.8214 LP             1 S1                 0.0000
     47 ****         1.2497  -1.7182  -1.6689 LP             1 S1                 0.0000
     48 ****         2.8412  -1.6600  -2.3498 LP             1 S1                 0.0000
     49 ****         6.5586  -1.4039  -3.9432 LP             1 S1                 0.0000
@<TRIPOS>BOND
    1    1    2 1     
    2    1   22 1     
    3    1   23 1     
    4    1   24 1     
    5    2    3 1     
    6    2    4 1     
    7    2   25 1     
    8    3   26 1     
    9    3   27 1     
   10    3   28 1     
   11    4    5 1     
   12    4   29 1     
   13    4   30 1     
   14    5   20 1     
   15    5    6 1     
   16    5   44 1     
   17    6    7 1     
   18    6   31 1     
   19    6   32 1     
   20    7    8 1     
   21    7   33 1     
   22    7   34 1     
   23    8    9 1     
   24    9   10 1     
   25    9   20 1     
   26    9   35 1     
   27   10   11 1     
   28   10   36 1     
   29   10   37 1     
   30   11   12 am    
   31   11   38 1     
   32   12   13 2     
   33   12   14 am    
   34   14   15 1     
   35   14   39 1     
   36   15   19 2     
   37   15   16 1     
   38   16   17 2     
   39   16   40 1     
   40   17   18 1     
   41   18   21 1     
   42   18   19 1     
   43   19   41 1     
   44   20   42 1     
   45   20   43 1     
   46    8   45 1     
   47    8   46 1     
   48   13   47 1     
   49   13   48 1     
   50   17   49 1     
@<TRIPOS>SUBSTRUCTURE
      1 S1             1
@<TRIPOS>SET
LONE_PAIRS      STATIC     ATOMS    <user>   **** ""
5 45 46 47 48 49
DONOR_HYDROGENS      STATIC     ATOMS    <user>   **** ""
4 44 38 39 21
ATOM$BLUE        STATIC     ATOMS    COLORGROUP SYSTEM
5 45 46 47 48 49
ATOM$RED        STATIC     ATOMS    COLORGROUP SYSTEM
4 44 38 39 21
