AV-unprocessed.smi:487|AV-procd|sdf|2700|dock8
  -GOLD-   2262023133D 1   1.00000     0.00000
 Structure written by MMmdl.
 40 41  0  0  0  0  0  0  0  0  2 V2000
  152.5886  139.9489  155.1105 O   0  0  0  0  0  0  0  0  0  0  0  0
  151.5275  139.5288  155.5715 C   0  0  0  0  0  0  0  0  0  0  0  0
  150.8063  138.3741  154.8545 C   0  0  0  0  0  0  0  0  0  0  0  0
  150.5403  137.1914  155.6943 N   0  0  0  0  0  0  0  0  0  0  0  0
  149.1972  136.8302  155.9009 C   0  0  0  0  0  0  0  0  0  0  0  0
  148.8544  135.7719  156.6597 C   0  0  0  0  0  0  0  0  0  0  0  0
  149.9194  134.9906  157.2758 C   0  0  0  0  0  0  0  0  0  0  0  0
  149.6252  134.0203  157.9712 O   0  0  0  0  0  0  0  0  0  0  0  0
  151.2071  135.3820  157.0473 N   0  5  0  0  0  0  0  0  0  0  0  0
  151.5409  136.4620  156.2750 C   0  0  0  0  0  0  0  0  0  0  0  0
  152.7090  136.8048  156.0911 O   0  0  0  0  0  0  0  0  0  0  0  0
  150.9596  140.0400  156.6776 N   0  0  0  0  0  0  0  0  0  0  0  0
  151.4926  141.1234  157.4992 C   0  0  0  0  0  0  0  0  0  0  0  0
  151.5109  140.6842  158.9821 C   0  0  0  0  0  0  0  0  0  0  0  0
  152.8895  140.7676  159.6655 C   0  0  0  0  0  0  0  0  0  0  0  0
  153.7384  142.0312  159.4126 C   0  0  0  0  0  0  0  0  0  0  0  0
  153.0482  143.3832  159.6646 C   0  0  0  0  0  0  0  0  0  0  0  0
  152.3608  144.0150  158.4343 C   0  0  0  0  0  0  0  0  0  0  0  0
  150.8989  143.5903  158.2113 C   0  0  0  0  0  0  0  0  0  0  0  0
  150.6690  142.4071  157.2482 C   0  0  0  0  0  0  0  0  0  0  0  0
  149.8694  138.7614  154.4520 H   0  0  0  0  0  0  0  0  0  0  0  0
  151.3921  138.0915  153.9783 H   0  0  0  0  0  0  0  0  0  0  0  0
  148.4706  137.4642  155.4144 H   0  0  0  0  0  0  0  0  0  0  0  0
  147.8176  135.5096  156.8105 H   0  0  0  0  0  0  0  0  0  0  0  0
  150.0911  139.6255  156.9848 H   0  0  0  0  0  0  0  0  0  0  0  0
  152.5136  141.2998  157.1637 H   0  0  0  0  0  0  0  0  0  0  0  0
  150.7871  141.2548  159.5614 H   0  0  0  0  0  0  0  0  0  0  0  0
  151.1637  139.6538  159.0753 H   0  0  0  0  0  0  0  0  0  0  0  0
  152.7449  140.6467  160.7396 H   0  0  0  0  0  0  0  0  0  0  0  0
  153.4792  139.9049  159.3533 H   0  0  0  0  0  0  0  0  0  0  0  0
  154.5972  141.9677  160.0817 H   0  0  0  0  0  0  0  0  0  0  0  0
  154.1741  142.0153  158.4138 H   0  0  0  0  0  0  0  0  0  0  0  0
  152.3665  143.3216  160.5137 H   0  0  0  0  0  0  0  0  0  0  0  0
  153.8282  144.0787  159.9765 H   0  0  0  0  0  0  0  0  0  0  0  0
  152.3518  145.0928  158.6019 H   0  0  0  0  0  0  0  0  0  0  0  0
  152.9530  143.8733  157.5295 H   0  0  0  0  0  0  0  0  0  0  0  0
  150.4130  143.4100  159.1699 H   0  0  0  0  0  0  0  0  0  0  0  0
  150.3634  144.4431  157.7927 H   0  0  0  0  0  0  0  0  0  0  0  0
  150.8624  142.7472  156.2301 H   0  0  0  0  0  0  0  0  0  0  0  0
  149.6062  142.1615  157.2761 H   0  0  0  0  0  0  0  0  0  0  0  0
  1  2  2  0  0  0  0
  2  3  1  0  0  0  0
  2 12  1  0  0  0  0
  3  4  1  0  0  0  0
  3 21  1  0  0  0  0
  3 22  1  0  0  0  0
  4 10  1  0  0  0  0
  4  5  1  0  0  0  0
  5  6  2  0  0  0  0
  5 23  1  0  0  0  0
  6  7  1  0  0  0  0
  6 24  1  0  0  0  0
  7  8  2  0  0  0  0
  7  9  1  0  0  0  0
  9 10  1  0  0  0  0
 10 11  2  0  0  0  0
 12 13  1  0  0  0  0
 12 25  1  0  0  0  0
 13 20  1  0  0  0  0
 13 14  1  0  0  0  0
 13 26  1  0  0  0  0
 14 15  1  0  0  0  0
 14 27  1  0  0  0  0
 14 28  1  0  0  0  0
 15 16  1  0  0  0  0
 15 29  1  0  0  0  0
 15 30  1  0  0  0  0
 16 17  1  0  0  0  0
 16 31  1  0  0  0  0
 16 32  1  0  0  0  0
 17 18  1  0  0  0  0
 17 33  1  0  0  0  0
 17 34  1  0  0  0  0
 18 19  1  0  0  0  0
 18 35  1  0  0  0  0
 18 36  1  0  0  0  0
 19 20  1  0  0  0  0
 19 37  1  0  0  0  0
 19 38  1  0  0  0  0
 20 39  1  0  0  0  0
 20 40  1  0  0  0  0
M  CHG  1   9  -1
M  END
> <s_m_source_file>
AV-unprocessed.smi

> <i_m_source_file_index>
487

> <i_lp_mmshare_version>
43012

> <i_f3d_flags>
0

> <s_epik_input>
Tz1jMVtuSF1jKD1PKVtjSF1bY0hdbjFbQ0gyXUMoPU8pW05IXVtDSF0yW0NIMl1bQ0gyXVtDSDJdW0NIMl1bQ0gyXVtDSDJdW0NIMl0y

> <s_epik_cmdline>
J2VwaWtfcHl0aG9uJywgJy1waCcsICc3LjAnLCAnLXRuJywgJzgnLCAnLW1hJywgJzIwMCcsICctbWV0YWxfYmluZGluZycsICctaW1hZScsICc8aW5maWxlLm1hZT4nLCAnLW9tYWUnLCAnPG91dGZpbGUubWFlPic=

> <r_lp_tautomer_probability>
0.999537

> <r_epik_Ionization_Penalty>
3.09244

> <r_epik_Ionization_Penalty_Charging>
2.84692e-08

> <r_epik_Ionization_Penalty_Neutral>
3.09244

> <r_epik_State_Penalty>
3.09149

> <r_epik_Charging_Adjusted_Penalty>
3.09149

> <i_epik_Tot_Q>
-1

> <i_epik_Tot_abs_Q>
1

> <r_epik_Metal_State_Penalty>
0.461034

> <b_epik_Metal_Only>
1

> <s_lp_Force_Field>
OPLS_2005

> <r_lp_Energy>
30.2877

> <b_lp_Chiralities_Consistent>
1

> <s_lp_Variant>
AV-unprocessed.smi:487-2

> <Gold.Version>
5.8.1

> <Gold.Id.Protein>
6NUR|6NUR_protein|mol2

> <Gold.PLP.Fitness>
44.6756

> <Gold.PLP.PLP>
-35.2505

> <Gold.PLP.part.hbond>
-4.6492

> <Gold.PLP.part.metal>
0.0000

> <Gold.PLP.part.buried>
-4.3824

> <Gold.PLP.part.nonpolar>
-27.3186

> <Gold.PLP.part.repulsive>
0.0788

> <Gold.PLP.ligand.clash>
0.0000

> <Gold.PLP.ligand.torsion>
0.1369

> <Gold.PLP.Chemscore.Hbond>
3.2287

> <Gold.PLP.Chemscore.CHOScore>
0.0000

> <Gold.PLP.Chemscore.Metal>
0.0000

> <Gold.Chemscore.Hbonds>
donor molecule, donor type, donor heavy atom, donor atom, acceptor molecule, acceptor atom, score
      P1  H  6896  6908       L1     8  1.00
      P1  H  7989  7998       L1     1  0.36
      P1  H  7997  8009       L1     1  0.99
      P1  H 10752 10764       L1    11  0.76

> <Gold.PLP.Chemscore.Internal.Correction>
0.0127

> <Gold.Rescore>
     Score         DG    S(hbond)    S(metal)    S(lipo)     H(rot)  DE(clash)    DE(int)     intcor
     18.96     -19.21       2.45        0.00      83.40       1.64       0.12       0.13       ----

> <Gold.Chemscore.Fitness>
18.9568

> <Gold.Chemscore.DG>
-19.2138

> <Gold.Chemscore.ZeroCoef>
-5.4800

> <Gold.Chemscore.Hbond>
2.4503

> <Gold.Chemscore.Metal>
0.0000

> <Gold.Chemscore.Lipo>
83.4011

> <Gold.Chemscore.Internal_Hbond>
0.0000

> <Gold.Chemscore.DEClash>
0.1241

> <Gold.Chemscore.DEInternal>
0.1329

> <Gold.Chemscore.Rot>
1.6438

> <Gold.Chemscore.Internal.Correction>
   9.000000E+99

> <Gold.Chemscore.Hbonds>
donor molecule, donor type, donor heavy atom, donor atom, acceptor molecule, acceptor atom, score
      P1  H  6896  6908       L1     8  0.77
      P1  H  7989  7998       L1     1  0.04
      P1  H  7997  8009       L1     1  0.92
      P1  H 10752 10764       L1    11  0.15

> <Gold.Chemscore.Hbond.Weighted>
-8.1839

> <Gold.Chemscore.Metal.Weighted>
-0.0000

> <Gold.Chemscore.Lipo.Weighted>
-9.7579

> <Gold.Chemscore.Internal_Hbond.Weighted>
0.0000

> <Gold.Chemscore.DEClash.Weighted>
0.1241

> <Gold.Chemscore.DEInternal.Weighted>
0.1329

> <Gold.Chemscore.Rot.Weighted>
4.2080

> <Gold.Chemscore.Internal.Correction.Weighted>
   9.000000E+99

> <Gold.Protein.RotatedTorsions>
[ 6907 6896 6895 6894 ] final  117.93 input  -60.11 | X-H torsion
[ 7974 7965 7964 7962 ] final -172.28 input  175.53 | X-H torsion
[ 8008 7997 7996 7995 ] final -146.59 input   59.86 | X-H torsion
[ 10167 10162 10161 10158 ] final  -23.85 input  -65.29 | X-H torsion
[ 10718 10713 10712 10709 ] final  -39.20 input   66.30 | X-H torsion
[ 10763 10752 10751 10750 ] final  -28.93 input  -60.55 | X-H torsion
[ 11005 11000 10999 10996 ] final   86.76 input  -57.11 | X-H torsion

> <Gold.Protein.ActiveResidues>
 VAL166  LYS551  ARG553  GLY616  TRP617  ASP618  TYR619  PRO620  LYS621  CYS622 
 ASP623  PHE694  ASN695  SER759  ASP760  ASP761  ALA762  ILE779  LEU786  VAL792 
 PHE793  MET794  SER795  GLU796  ALA797  LYS798  CYS799  TRP800  GLU811  SER814 

> <Gold.Protein.RotatedAtoms>
  152.4578  133.7759  159.6823 H   0  0  0  0  0  0  0  0  0  0  0  0  # atno 6907 bound_to 6896
  150.8511  133.7776  159.3031 H   0  0  0  0  0  0  0  0  0  0  0  0  # atno 6908 bound_to 6896
  151.5371  135.1071  159.9969 H   0  0  0  0  0  0  0  0  0  0  0  0  # atno 6909 bound_to 6896
  144.7148  140.1796  143.6359 H   0  0  0  0  0  0  0  0  0  0  0  0  # atno 7974 bound_to 7965
  155.5618  140.0626  157.2827 H   0  0  0  0  0  0  0  0  0  0  0  0  # atno 8008 bound_to 7997
  154.4388  140.1884  156.0836 H   0  0  0  0  0  0  0  0  0  0  0  0  # atno 8009 bound_to 7997
  156.0441  140.3292  155.7280 H   0  0  0  0  0  0  0  0  0  0  0  0  # atno 8010 bound_to 7997
  140.7288  143.4406  151.0663 H   0  0  0  0  0  0  0  0  0  0  0  0  # atno 10167 bound_to 10162
  156.2951  130.4233  149.8199 H   0  0  0  0  0  0  0  0  0  0  0  0  # atno 10718 bound_to 10713
  153.7564  135.6922  153.4935 H   0  0  0  0  0  0  0  0  0  0  0  0  # atno 10763 bound_to 10752
  153.1968  135.4451  155.0217 H   0  0  0  0  0  0  0  0  0  0  0  0  # atno 10764 bound_to 10752
  154.8169  135.3403  154.7081 H   0  0  0  0  0  0  0  0  0  0  0  0  # atno 10765 bound_to 10752
  139.8936  134.8377  156.2766 H   0  0  0  0  0  0  0  0  0  0  0  0  # atno 11005 bound_to 11000
  145.8869  139.2354  143.1572 LP  0  0  0  0  0  0  0  0  0  0  0  0  # atno 17320 bound_to 7965
  145.9941  140.8577  143.0051 LP  0  0  0  0  0  0  0  0  0  0  0  0  # atno 17321 bound_to 7965
  139.8072  143.8001  152.3168 LP  0  0  0  0  0  0  0  0  0  0  0  0  # atno 17342 bound_to 10162
  139.8038  144.7363  150.9789 LP  0  0  0  0  0  0  0  0  0  0  0  0  # atno 17343 bound_to 10162
  156.5597  130.8378  151.3325 LP  0  0  0  0  0  0  0  0  0  0  0  0  # atno 17370 bound_to 10713
  157.7353  130.9760  150.2075 LP  0  0  0  0  0  0  0  0  0  0  0  0  # atno 17371 bound_to 10713
  141.0066  133.7120  156.1045 LP  0  0  0  0  0  0  0  0  0  0  0  0  # atno 17394 bound_to 11000
  140.7425  134.4135  157.5553 LP  0  0  0  0  0  0  0  0  0  0  0  0  # atno 17395 bound_to 11000

$$$$
