AV-unprocessed.smi:607|AV-procd|sdf|3042|dock10
  -GOLD-   2262023563D 1   1.00000     0.00000
 Structure written by MMmdl.
 42 43  0  0  0  0  0  0  0  0  1 V2000
  152.8906  138.2810  154.4972 C   0  0  0  0  0  0  0  0  0  0  0  0
  152.0303  139.1234  155.3951 C   0  0  0  0  0  0  0  0  0  0  0  0
  152.6060  139.9168  156.2819 N   0  0  0  0  0  0  0  0  0  0  0  0
  151.5835  140.5208  156.9173 N   0  0  0  0  0  0  0  0  0  0  0  0
  151.8700  141.4700  157.9755 C   0  0  0  0  0  0  0  0  0  0  0  0
  150.3576  140.1134  156.4275 C   0  0  0  0  0  0  0  0  0  0  0  0
  149.0731  140.6473  156.9804 C   0  0  0  0  0  0  0  0  0  0  0  0
  150.6062  139.1929  155.4390 C   0  0  0  0  0  0  0  0  0  0  0  0
  149.6413  138.4068  154.5725 C   0  0  2  0  0  0  0  0  0  0  0  0
  148.4919  139.2951  154.0612 C   0  0  0  0  0  0  0  0  0  0  0  0
  149.1553  137.1534  155.3197 C   0  0  0  0  0  0  0  0  0  0  0  0
  148.6569  137.2400  156.4423 O   0  0  0  0  0  0  0  0  0  0  0  0
  149.3182  135.9829  154.6810 N   0  0  0  0  0  0  0  0  0  0  0  0
  149.0180  134.6592  155.2236 C   0  0  0  0  0  0  0  0  0  0  0  0
  149.7682  134.3952  156.4670 C   0  0  0  0  0  0  0  0  0  0  0  0
  150.3574  134.1874  157.4410 N   0  0  0  0  0  0  0  0  0  0  0  0
  147.5055  134.4522  155.4333 C   0  0  0  0  0  0  0  0  0  0  0  0
  147.2267  132.9616  155.1916 C   0  0  0  0  0  0  0  0  0  0  0  0
  148.4910  132.3830  154.5468 C   0  0  0  0  0  0  0  0  0  0  0  0
  149.3527  133.5904  154.1752 C   0  0  0  0  0  0  0  0  0  0  0  0
  152.7641  137.2215  154.7200 H   0  0  0  0  0  0  0  0  0  0  0  0
  153.9490  138.5193  154.6089 H   0  0  0  0  0  0  0  0  0  0  0  0
  152.6277  138.4348  153.4505 H   0  0  0  0  0  0  0  0  0  0  0  0
  151.2520  141.2492  158.8461 H   0  0  0  0  0  0  0  0  0  0  0  0
  151.6514  142.4804  157.6292 H   0  0  0  0  0  0  0  0  0  0  0  0
  152.9194  141.4146  158.2690 H   0  0  0  0  0  0  0  0  0  0  0  0
  148.2454  140.4914  156.2904 H   0  0  0  0  0  0  0  0  0  0  0  0
  149.1411  141.7183  157.1709 H   0  0  0  0  0  0  0  0  0  0  0  0
  148.8236  140.1511  157.9183 H   0  0  0  0  0  0  0  0  0  0  0  0
  150.1607  138.0339  153.6892 H   0  0  0  0  0  0  0  0  0  0  0  0
  147.9114  139.7231  154.8785 H   0  0  0  0  0  0  0  0  0  0  0  0
  147.8072  138.7324  153.4254 H   0  0  0  0  0  0  0  0  0  0  0  0
  148.8799  140.1225  153.4666 H   0  0  0  0  0  0  0  0  0  0  0  0
  149.7351  136.0085  153.7618 H   0  0  0  0  0  0  0  0  0  0  0  0
  147.1750  134.7756  156.4212 H   0  0  0  0  0  0  0  0  0  0  0  0
  146.9417  135.0348  154.7026 H   0  0  0  0  0  0  0  0  0  0  0  0
  147.0100  132.4472  156.1285 H   0  0  0  0  0  0  0  0  0  0  0  0
  146.3594  132.8355  154.5428 H   0  0  0  0  0  0  0  0  0  0  0  0
  149.0211  131.7670  155.2739 H   0  0  0  0  0  0  0  0  0  0  0  0
  148.2688  131.7543  153.6842 H   0  0  0  0  0  0  0  0  0  0  0  0
  149.0668  133.9352  153.1798 H   0  0  0  0  0  0  0  0  0  0  0  0
  150.4158  133.3486  154.1429 H   0  0  0  0  0  0  0  0  0  0  0  0
  1  2  1  0  0  0  0
  1 21  1  0  0  0  0
  1 22  1  0  0  0  0
  1 23  1  0  0  0  0
  2  8  1  0  0  0  0
  2  3  2  0  0  0  0
  3  4  1  0  0  0  0
  4  5  1  0  0  0  0
  4  6  1  0  0  0  0
  5 24  1  0  0  0  0
  5 25  1  0  0  0  0
  5 26  1  0  0  0  0
  6  7  1  0  0  0  0
  6  8  2  0  0  0  0
  7 27  1  0  0  0  0
  7 28  1  0  0  0  0
  7 29  1  0  0  0  0
  8  9  1  0  0  0  0
  9 10  1  0  0  0  0
  9 11  1  0  0  0  0
  9 30  1  0  0  0  0
 10 31  1  0  0  0  0
 10 32  1  0  0  0  0
 10 33  1  0  0  0  0
 11 12  2  0  0  0  0
 11 13  1  0  0  0  0
 13 14  1  0  0  0  0
 13 34  1  0  0  0  0
 14 20  1  0  0  0  0
 14 15  1  0  0  0  0
 14 17  1  0  0  0  0
 15 16  3  0  0  0  0
 17 18  1  0  0  0  0
 17 35  1  0  0  0  0
 17 36  1  0  0  0  0
 18 19  1  0  0  0  0
 18 37  1  0  0  0  0
 18 38  1  0  0  0  0
 19 20  1  0  0  0  0
 19 39  1  0  0  0  0
 19 40  1  0  0  0  0
 20 41  1  0  0  0  0
 20 42  1  0  0  0  0
M  END
> <s_m_source_file>
AV-unprocessed.smi

> <i_m_source_file_index>
607

> <i_lp_mmshare_version>
43012

> <i_f3d_flags>
0

> <s_epik_input>
W0NIM11jMW5uKFtDSDNdKWMoW0NIM10pYzFbQ0BIXShbQ0gzXSlDKD1PKVtOSF1DMihDI04pW0NIMl1bQ0gyXVtDSDJdW0NIMl0y

> <s_epik_cmdline>
J2VwaWtfcHl0aG9uJywgJy1waCcsICc3LjAnLCAnLXRuJywgJzgnLCAnLW1hJywgJzIwMCcsICctbWV0YWxfYmluZGluZycsICctaW1hZScsICc8aW5maWxlLm1hZT4nLCAnLW9tYWUnLCAnPG91dGZpbGUubWFlPic=

> <r_lp_tautomer_probability>
1

> <r_epik_Ionization_Penalty>
0.00342632

> <r_epik_Ionization_Penalty_Charging>
0

> <r_epik_Ionization_Penalty_Neutral>
0.00342632

> <r_epik_State_Penalty>
0.00242724

> <r_epik_Charging_Adjusted_Penalty>
0.00242724

> <i_epik_Tot_Q>
0

> <i_epik_Tot_abs_Q>
0

> <r_epik_Metal_State_Penalty>
-0

> <b_epik_Metal_Only>
0

> <s_lp_Force_Field>
OPLS_2005

> <r_lp_Energy>
13.4407

> <b_lp_Chiralities_Consistent>
1

> <s_lp_Variant>
AV-unprocessed.smi:607-1

> <Gold.Version>
5.8.1

> <Gold.Id.Protein>
6NUR|6NUR_protein|mol2

> <Gold.PLP.Fitness>
34.7726

> <Gold.PLP.PLP>
-29.3418

> <Gold.PLP.part.hbond>
-3.0000

> <Gold.PLP.part.metal>
0.0000

> <Gold.PLP.part.buried>
-3.0623

> <Gold.PLP.part.nonpolar>
-23.2703

> <Gold.PLP.part.repulsive>
0.0417

> <Gold.PLP.ligand.clash>
0.0000

> <Gold.PLP.ligand.torsion>
0.7454

> <Gold.PLP.Chemscore.Hbond>
2.2709

> <Gold.PLP.Chemscore.CHOScore>
0.0000

> <Gold.PLP.Chemscore.Metal>
0.0000

> <Gold.Chemscore.Hbonds>
donor molecule, donor type, donor heavy atom, donor atom, acceptor molecule, acceptor atom, score
      L1  H    13    34       P1  7948  0.69
      P1  H  6896  6907       L1    16  0.74
      P1  H  7997  8008       L1     3  1.00

> <Gold.PLP.Chemscore.Internal.Correction>
0.1089

> <Gold.Rescore>
     Score         DG    S(hbond)    S(metal)    S(lipo)     H(rot)  DE(clash)    DE(int)     intcor
     15.77     -16.43       1.96        0.00      67.68       1.37       0.02       0.64       ----

> <Gold.Chemscore.Fitness>
15.7699

> <Gold.Chemscore.DG>
-16.4338

> <Gold.Chemscore.ZeroCoef>
-5.4800

> <Gold.Chemscore.Hbond>
1.9603

> <Gold.Chemscore.Metal>
0.0000

> <Gold.Chemscore.Lipo>
67.6821

> <Gold.Chemscore.Internal_Hbond>
0.0000

> <Gold.Chemscore.DEClash>
0.0217

> <Gold.Chemscore.DEInternal>
0.6422

> <Gold.Chemscore.Rot>
1.3720

> <Gold.Chemscore.Internal.Correction>
   9.000000E+99

> <Gold.Chemscore.Hbonds>
donor molecule, donor type, donor heavy atom, donor atom, acceptor molecule, acceptor atom, score
      L1  H    13    34       P1  7948  0.17
      P1  H  6896  6907       L1    16  0.74
      P1  H  7997  8008       L1     3  0.98

> <Gold.Chemscore.Hbond.Weighted>
-6.5473

> <Gold.Chemscore.Metal.Weighted>
-0.0000

> <Gold.Chemscore.Lipo.Weighted>
-7.9188

> <Gold.Chemscore.Internal_Hbond.Weighted>
0.0000

> <Gold.Chemscore.DEClash.Weighted>
0.0217

> <Gold.Chemscore.DEInternal.Weighted>
0.6422

> <Gold.Chemscore.Rot.Weighted>
3.5123

> <Gold.Chemscore.Internal.Correction.Weighted>
   9.000000E+99

> <Gold.Protein.RotatedTorsions>
[ 6907 6896 6895 6894 ] final -122.23 input  -60.11 | X-H torsion
[ 7974 7965 7964 7962 ] final -174.67 input  175.53 | X-H torsion
[ 8008 7997 7996 7995 ] final  -35.93 input   59.86 | X-H torsion
[ 10167 10162 10161 10158 ] final   28.76 input  -65.29 | X-H torsion
[ 10718 10713 10712 10709 ] final  -13.06 input   66.30 | X-H torsion
[ 10763 10752 10751 10750 ] final    5.29 input  -60.55 | X-H torsion
[ 11005 11000 10999 10996 ] final -152.28 input  -57.11 | X-H torsion

> <Gold.Protein.ActiveResidues>
 VAL166  LYS551  ARG553  GLY616  TRP617  ASP618  TYR619  PRO620  LYS621  CYS622 
 ASP623  PHE694  ASN695  SER759  ASP760  ASP761  ALA762  ILE779  LEU786  VAL792 
 PHE793  MET794  SER795  GLU796  ALA797  LYS798  CYS799  TRP800  GLU811  SER814 

> <Gold.Protein.RotatedAtoms>
  150.8557  133.7719  159.3009 H   0  0  0  0  0  0  0  0  0  0  0  0  # atno 6907 bound_to 6896
  151.5377  135.1067  159.9928 H   0  0  0  0  0  0  0  0  0  0  0  0  # atno 6908 bound_to 6896
  152.4587  133.7734  159.6867 H   0  0  0  0  0  0  0  0  0  0  0  0  # atno 6909 bound_to 6896
  144.7131  140.1436  143.6390 H   0  0  0  0  0  0  0  0  0  0  0  0  # atno 7974 bound_to 7965
  154.4084  140.1644  156.2291 H   0  0  0  0  0  0  0  0  0  0  0  0  # atno 8008 bound_to 7997
  155.9298  140.3415  155.6217 H   0  0  0  0  0  0  0  0  0  0  0  0  # atno 8009 bound_to 7997
  155.7120  140.0758  157.2358 H   0  0  0  0  0  0  0  0  0  0  0  0  # atno 8010 bound_to 7997
  140.4824  144.0595  150.6269 H   0  0  0  0  0  0  0  0  0  0  0  0  # atno 10167 bound_to 10162
  156.6356  130.4914  149.6113 H   0  0  0  0  0  0  0  0  0  0  0  0  # atno 10718 bound_to 10713
  153.2611  135.6923  153.7577 H   0  0  0  0  0  0  0  0  0  0  0  0  # atno 10763 bound_to 10752
  153.6636  135.3356  155.3135 H   0  0  0  0  0  0  0  0  0  0  0  0  # atno 10764 bound_to 10752
  154.8430  135.4483  154.1602 H   0  0  0  0  0  0  0  0  0  0  0  0  # atno 10765 bound_to 10752
  140.7206  134.3732  157.5184 H   0  0  0  0  0  0  0  0  0  0  0  0  # atno 11005 bound_to 11000
  145.9180  139.2527  143.1398 LP  0  0  0  0  0  0  0  0  0  0  0  0  # atno 17320 bound_to 7965
  145.9650  140.8806  143.0192 LP  0  0  0  0  0  0  0  0  0  0  0  0  # atno 17321 bound_to 7965
  140.3841  143.2787  152.0137 LP  0  0  0  0  0  0  0  0  0  0  0  0  # atno 17342 bound_to 10162
  139.4836  144.6131  151.7396 LP  0  0  0  0  0  0  0  0  0  0  0  0  # atno 17343 bound_to 10162
  156.2199  130.6731  151.1358 LP  0  0  0  0  0  0  0  0  0  0  0  0  # atno 17370 bound_to 10713
  157.7186  131.0695  150.6226 LP  0  0  0  0  0  0  0  0  0  0  0  0  # atno 17371 bound_to 10713
  139.8849  134.8952  156.2675 LP  0  0  0  0  0  0  0  0  0  0  0  0  # atno 17394 bound_to 11000
  141.0007  133.7153  156.0956 LP  0  0  0  0  0  0  0  0  0  0  0  0  # atno 17395 bound_to 11000

$$$$
