AV-unprocessed.smi:2220|AV-procd|sdf|8978|dock4
  -GOLD-   2272012193D 1   1.00000     0.00000
 Structure written by MMmdl.
 39 40  0  0  0  0  0  0  0  0  2 V2000
  145.5863  130.8619  150.2055 C   0  0  0  0  0  0  0  0  0  0  0  0
  144.9102  132.1269  150.5050 N   0  0  0  0  0  0  0  0  0  0  0  0
  143.5754  132.2202  150.5602 C   0  0  0  0  0  0  0  0  0  0  0  0
  143.2870  133.4910  150.8501 N   0  3  0  0  0  0  0  0  0  0  0  0
  144.4399  134.2150  150.9812 C   0  0  0  0  0  0  0  0  0  0  0  0
  145.4853  133.3516  150.7637 C   0  0  0  0  0  0  0  0  0  0  0  0
  146.9611  133.5924  150.7888 C   0  0  0  0  0  0  0  0  0  0  0  0
  147.6598  132.7188  151.8441 C   0  0  0  0  0  0  0  0  0  0  0  0
  148.7707  133.4240  152.4719 N   0  0  0  0  0  0  0  0  0  0  0  0
  149.6604  132.8681  153.3092 C   0  0  0  0  0  0  0  0  0  0  0  0
  149.6235  131.6823  153.6396 O   0  0  0  0  0  0  0  0  0  0  0  0
  150.7557  133.7921  153.8577 C   0  0  0  0  0  0  0  0  0  0  0  0
  151.7053  133.0229  154.7997 C   0  0  0  0  0  0  0  0  0  0  0  0
  152.8075  133.9425  155.3494 C   0  0  0  0  0  0  0  0  0  0  0  0
  152.2120  135.1745  156.0522 C   0  0  0  0  0  0  0  0  0  0  0  0
  151.5710  134.7876  157.1561 F   0  0  0  0  0  0  0  0  0  0  0  0
  153.2011  135.9927  156.4110 F   0  0  0  0  0  0  0  0  0  0  0  0
  151.2374  135.9348  155.1363 C   0  0  0  0  0  0  0  0  0  0  0  0
  150.1424  135.0063  154.5866 C   0  0  0  0  0  0  0  0  0  0  0  0
  144.8529  130.0895  149.9702 H   0  0  0  0  0  0  0  0  0  0  0  0
  146.1691  130.5526  151.0732 H   0  0  0  0  0  0  0  0  0  0  0  0
  146.2467  131.0006  149.3494 H   0  0  0  0  0  0  0  0  0  0  0  0
  142.8671  131.4264  150.4021 H   0  0  0  0  0  0  0  0  0  0  0  0
  144.4344  135.2693  151.2178 H   0  0  0  0  0  0  0  0  0  0  0  0
  147.3785  133.4024  149.7996 H   0  0  0  0  0  0  0  0  0  0  0  0
  147.1337  134.6488  150.9985 H   0  0  0  0  0  0  0  0  0  0  0  0
  146.9474  132.3936  152.6046 H   0  0  0  0  0  0  0  0  0  0  0  0
  148.0549  131.8134  151.3837 H   0  0  0  0  0  0  0  0  0  0  0  0
  148.8750  134.4040  152.2509 H   0  0  0  0  0  0  0  0  0  0  0  0
  151.3417  134.1647  153.0152 H   0  0  0  0  0  0  0  0  0  0  0  0
  151.1454  132.5959  155.6332 H   0  0  0  0  0  0  0  0  0  0  0  0
  152.1609  132.1837  154.2727 H   0  0  0  0  0  0  0  0  0  0  0  0
  153.4459  133.3889  156.0389 H   0  0  0  0  0  0  0  0  0  0  0  0
  153.4484  134.2660  154.5281 H   0  0  0  0  0  0  0  0  0  0  0  0
  150.7846  136.7661  155.6777 H   0  0  0  0  0  0  0  0  0  0  0  0
  151.7882  136.3732  154.3030 H   0  0  0  0  0  0  0  0  0  0  0  0
  149.4968  135.5664  153.9089 H   0  0  0  0  0  0  0  0  0  0  0  0
  149.5090  134.6722  155.4097 H   0  0  0  0  0  0  0  0  0  0  0  0
  142.3510  133.8614  150.9574 H   0  0  0  0  0  0  0  0  0  0  0  0
  1  2  1  0  0  0  0
  1 20  1  0  0  0  0
  1 21  1  0  0  0  0
  1 22  1  0  0  0  0
  2  6  1  0  0  0  0
  2  3  1  0  0  0  0
  3  4  2  0  0  0  0
  3 23  1  0  0  0  0
  4  5  1  0  0  0  0
  4 39  1  0  0  0  0
  5  6  2  0  0  0  0
  5 24  1  0  0  0  0
  6  7  1  0  0  0  0
  7  8  1  0  0  0  0
  7 25  1  0  0  0  0
  7 26  1  0  0  0  0
  8  9  1  0  0  0  0
  8 27  1  0  0  0  0
  8 28  1  0  0  0  0
  9 10  1  0  0  0  0
  9 29  1  0  0  0  0
 10 11  2  0  0  0  0
 10 12  1  0  0  0  0
 12 19  1  0  0  0  0
 12 13  1  0  0  0  0
 12 30  1  0  0  0  0
 13 14  1  0  0  0  0
 13 31  1  0  0  0  0
 13 32  1  0  0  0  0
 14 15  1  0  0  0  0
 14 33  1  0  0  0  0
 14 34  1  0  0  0  0
 15 16  1  0  0  0  0
 15 17  1  0  0  0  0
 15 18  1  0  0  0  0
 18 19  1  0  0  0  0
 18 35  1  0  0  0  0
 18 36  1  0  0  0  0
 19 37  1  0  0  0  0
 19 38  1  0  0  0  0
M  CHG  1   4   1
M  END
> <s_m_source_file>
AV-unprocessed.smi

> <i_m_source_file_index>
2220

> <i_lp_mmshare_version>
43012

> <i_f3d_flags>
0

> <s_epik_input>
W0NIM11uMVtjSF1uW2NIXWMxW0NIMl1bQ0gyXVtOSF1DKD1PKVtDSF0oW0NIMl1bQ0gyXTIpW0NIMl1bQ0gyXUMyKEYpRg==

> <s_epik_cmdline>
J2VwaWtfcHl0aG9uJywgJy1waCcsICc3LjAnLCAnLXRuJywgJzgnLCAnLW1hJywgJzIwMCcsICctbWV0YWxfYmluZGluZycsICctaW1hZScsICc8aW5maWxlLm1hZT4nLCAnLW9tYWUnLCAnPG91dGZpbGUubWFlPic=

> <r_lp_tautomer_probability>
1

> <r_epik_Ionization_Penalty>
0.15432

> <r_epik_Ionization_Penalty_Charging>
0

> <r_epik_Ionization_Penalty_Neutral>
0.15432

> <r_epik_State_Penalty>
0.143614

> <r_epik_Charging_Adjusted_Penalty>
0.143614

> <i_epik_Tot_Q>
1

> <i_epik_Tot_abs_Q>
1

> <r_epik_Metal_State_Penalty>
0.465047

> <b_epik_Metal_Only>
0

> <s_lp_Force_Field>
OPLS_2005

> <r_lp_Energy>
11.3937

> <b_lp_Chiralities_Consistent>
1

> <s_lp_Variant>
AV-unprocessed.smi:2220-1

> <Gold.Version>
5.8.1

> <Gold.Id.Protein>
6NUR|6NUR_protein|mol2

> <Gold.PLP.Fitness>
42.4749

> <Gold.PLP.PLP>
-31.0352

> <Gold.PLP.part.hbond>
-2.0000

> <Gold.PLP.part.metal>
0.0000

> <Gold.PLP.part.buried>
-4.5423

> <Gold.PLP.part.nonpolar>
-24.3818

> <Gold.PLP.part.repulsive>
0.0202

> <Gold.PLP.ligand.clash>
0.0000

> <Gold.PLP.ligand.torsion>
0.2868

> <Gold.PLP.Chemscore.Hbond>
3.0000

> <Gold.PLP.Chemscore.CHOScore>
1.0000

> <Gold.PLP.Chemscore.Metal>
0.0000

> <Gold.Chemscore.Hbonds>
donor molecule, donor type, donor heavy atom, donor atom, acceptor molecule, acceptor atom, score
      L1  H     4    39       P1 10186  1.25
      L1  C     3    23       P1 10952  1.00

> <Gold.PLP.Chemscore.Internal.Correction>
0.0132

> <Gold.Rescore>
     Score         DG    S(hbond)    S(metal)    S(lipo)     H(rot)  DE(clash)    DE(int)     intcor
     12.60     -12.99       1.60        0.00      59.28       1.87       0.04       0.35       ----

> <Gold.Chemscore.Fitness>
12.6000

> <Gold.Chemscore.DG>
-12.9883

> <Gold.Chemscore.ZeroCoef>
-5.4800

> <Gold.Chemscore.Hbond>
1.6026

> <Gold.Chemscore.Metal>
0.0000

> <Gold.Chemscore.Lipo>
59.2791

> <Gold.Chemscore.Internal_Hbond>
0.0000

> <Gold.Chemscore.DEClash>
0.0377

> <Gold.Chemscore.DEInternal>
0.3506

> <Gold.Chemscore.Rot>
1.8672

> <Gold.Chemscore.Internal.Correction>
   9.000000E+99

> <Gold.Chemscore.Hbonds>
donor molecule, donor type, donor heavy atom, donor atom, acceptor molecule, acceptor atom, score
      L1  H     4    39       P1 10186  0.32

> <Gold.Chemscore.Hbond.Weighted>
-5.3526

> <Gold.Chemscore.Metal.Weighted>
-0.0000

> <Gold.Chemscore.Lipo.Weighted>
-6.9357

> <Gold.Chemscore.Internal_Hbond.Weighted>
0.0000

> <Gold.Chemscore.DEClash.Weighted>
0.0377

> <Gold.Chemscore.DEInternal.Weighted>
0.3506

> <Gold.Chemscore.Rot.Weighted>
4.7800

> <Gold.Chemscore.Internal.Correction.Weighted>
   9.000000E+99

> <Gold.Protein.RotatedTorsions>
[ 6907 6896 6895 6894 ] final  -44.97 input  -60.11 | X-H torsion
[ 7974 7965 7964 7962 ] final  -49.38 input  175.53 | X-H torsion
[ 8008 7997 7996 7995 ] final  -61.74 input   59.86 | X-H torsion
[ 10167 10162 10161 10158 ] final  153.84 input  -65.29 | X-H torsion
[ 10718 10713 10712 10709 ] final  109.58 input   66.30 | X-H torsion
[ 10763 10752 10751 10750 ] final -140.86 input  -60.55 | X-H torsion
[ 11005 11000 10999 10996 ] final  -85.97 input  -57.11 | X-H torsion

> <Gold.Protein.ActiveResidues>
 VAL166  LYS551  ARG553  GLY616  TRP617  ASP618  TYR619  PRO620  LYS621  CYS622 
 ASP623  PHE694  ASN695  SER759  ASP760  ASP761  ALA762  ILE779  LEU786  VAL792 
 PHE793  MET794  SER795  GLU796  ALA797  LYS798  CYS799  TRP800  GLU811  SER814 

> <Gold.Protein.RotatedAtoms>
  150.9270  134.8686  159.7526 H   0  0  0  0  0  0  0  0  0  0  0  0  # atno 6907 bound_to 6896
  152.5020  134.4134  159.9466 H   0  0  0  0  0  0  0  0  0  0  0  0  # atno 6908 bound_to 6896
  151.4164  133.3672  159.2785 H   0  0  0  0  0  0  0  0  0  0  0  0  # atno 6909 bound_to 6896
  145.9411  140.7661  142.9551 H   0  0  0  0  0  0  0  0  0  0  0  0  # atno 7974 bound_to 7965
  154.4463  140.1011  156.6479 H   0  0  0  0  0  0  0  0  0  0  0  0  # atno 8008 bound_to 7997
  155.5430  140.3484  155.4432 H   0  0  0  0  0  0  0  0  0  0  0  0  # atno 8009 bound_to 7997
  156.0583  140.1320  156.9959 H   0  0  0  0  0  0  0  0  0  0  0  0  # atno 8010 bound_to 7997
  139.4825  144.5238  151.7833 H   0  0  0  0  0  0  0  0  0  0  0  0  # atno 10167 bound_to 10162
  157.6534  131.0916  150.6475 H   0  0  0  0  0  0  0  0  0  0  0  0  # atno 10718 bound_to 10713
  154.8564  135.3541  154.5776 H   0  0  0  0  0  0  0  0  0  0  0  0  # atno 10763 bound_to 10752
  153.6387  135.6999  153.5254 H   0  0  0  0  0  0  0  0  0  0  0  0  # atno 10764 bound_to 10752
  153.2989  135.4212  155.1193 H   0  0  0  0  0  0  0  0  0  0  0  0  # atno 10765 bound_to 10752
  141.1635  133.7429  156.9094 H   0  0  0  0  0  0  0  0  0  0  0  0  # atno 11005 bound_to 11000
  144.6779  140.2282  143.7358 LP  0  0  0  0  0  0  0  0  0  0  0  0  # atno 17320 bound_to 7965
  145.8298  139.2081  143.1889 LP  0  0  0  0  0  0  0  0  0  0  0  0  # atno 17321 bound_to 7965
  140.4756  144.1524  150.5924 LP  0  0  0  0  0  0  0  0  0  0  0  0  # atno 17342 bound_to 10162
  140.4334  143.2558  151.9566 LP  0  0  0  0  0  0  0  0  0  0  0  0  # atno 17343 bound_to 10162
  156.6784  130.4560  149.5635 LP  0  0  0  0  0  0  0  0  0  0  0  0  # atno 17370 bound_to 10713
  156.1947  130.6582  151.1100 LP  0  0  0  0  0  0  0  0  0  0  0  0  # atno 17371 bound_to 10713
  140.1528  134.9219  157.2614 LP  0  0  0  0  0  0  0  0  0  0  0  0  # atno 17394 bound_to 11000
  140.2703  134.3468  155.7376 LP  0  0  0  0  0  0  0  0  0  0  0  0  # atno 17395 bound_to 11000

$$$$
