AV-unprocessed.smi:2855|AV-procd|sdf|10989|dock10
  -GOLD-   2272015443D 1   1.00000     0.00000
 Structure written by MMmdl.
 46 47  0  0  0  0  0  0  0  0  2 V2000
  154.2274  139.7881  161.7364 C   0  0  0  0  0  0  0  0  0  0  0  0
  153.8815  141.0233  160.8928 C   0  0  2  0  0  0  0  0  0  0  0  0
  153.2114  142.1164  161.7414 C   0  0  0  0  0  0  0  0  0  0  0  0
  152.8740  143.3541  160.8969 C   0  0  0  0  0  0  0  0  0  0  0  0
  151.9694  143.0060  159.6904 C   0  0  1  0  0  0  0  0  0  0  0  0
  151.5370  144.2578  158.8683 C   0  0  0  0  0  0  0  0  0  0  0  0
  152.6600  144.8609  158.0045 C   0  0  0  0  0  0  0  0  0  0  0  0
  150.8872  145.3419  159.7456 C   0  0  0  0  0  0  0  0  0  0  0  0
  152.6288  141.8843  158.8382 C   0  0  2  0  0  0  0  0  0  0  0  0
  151.7409  141.4491  157.7607 N   0  0  0  0  0  0  0  0  0  0  0  0
  151.9105  140.3686  156.9828 C   0  0  0  0  0  0  0  0  0  0  0  0
  152.8650  139.5977  157.0922 O   0  0  0  0  0  0  0  0  0  0  0  0
  150.8373  140.1569  155.9055 C   0  0  0  0  0  0  0  0  0  0  0  0
  150.6377  138.7448  155.5408 N   0  0  0  0  0  0  0  0  0  0  0  0
  149.3672  138.1881  155.7707 C   0  0  0  0  0  0  0  0  0  0  0  0
  149.0874  136.9063  155.4676 C   0  0  0  0  0  0  0  0  0  0  0  0
  150.1443  136.0884  154.8858 C   0  0  0  0  0  0  0  0  0  0  0  0
  149.9091  134.9138  154.6093 O   0  0  0  0  0  0  0  0  0  0  0  0
  151.3584  136.6764  154.6749 N   0  5  0  0  0  0  0  0  0  0  0  0
  151.6274  137.9830  154.9845 C   0  0  0  0  0  0  0  0  0  0  0  0
  152.7288  138.4951  154.7813 O   0  0  0  0  0  0  0  0  0  0  0  0
  152.9815  140.6560  159.7003 C   0  0  0  0  0  0  0  0  0  0  0  0
  153.3313  139.3335  162.1606 H   0  0  0  0  0  0  0  0  0  0  0  0
  154.8912  140.0488  162.5611 H   0  0  0  0  0  0  0  0  0  0  0  0
  154.7317  139.0316  161.1344 H   0  0  0  0  0  0  0  0  0  0  0  0
  154.8163  141.4254  160.4993 H   0  0  0  0  0  0  0  0  0  0  0  0
  152.3004  141.7267  162.1981 H   0  0  0  0  0  0  0  0  0  0  0  0
  153.8684  142.4055  162.5626 H   0  0  0  0  0  0  0  0  0  0  0  0
  152.3920  144.0907  161.5384 H   0  0  0  0  0  0  0  0  0  0  0  0
  153.8033  143.8072  160.5510 H   0  0  0  0  0  0  0  0  0  0  0  0
  151.0526  142.5790  160.1011 H   0  0  0  0  0  0  0  0  0  0  0  0
  150.7519  143.9443  158.1805 H   0  0  0  0  0  0  0  0  0  0  0  0
  153.4664  145.2674  158.6144 H   0  0  0  0  0  0  0  0  0  0  0  0
  152.2781  145.6751  157.3884 H   0  0  0  0  0  0  0  0  0  0  0  0
  153.0902  144.1250  157.3263 H   0  0  0  0  0  0  0  0  0  0  0  0
  151.6074  145.8095  160.4168 H   0  0  0  0  0  0  0  0  0  0  0  0
  150.0805  144.9299  160.3524 H   0  0  0  0  0  0  0  0  0  0  0  0
  150.4588  146.1334  159.1300 H   0  0  0  0  0  0  0  0  0  0  0  0
  153.5640  142.2652  158.4254 H   0  0  0  0  0  0  0  0  0  0  0  0
  150.9261  142.0206  157.5913 H   0  0  0  0  0  0  0  0  0  0  0  0
  149.8996  140.6006  156.2446 H   0  0  0  0  0  0  0  0  0  0  0  0
  151.1217  140.7319  155.0230 H   0  0  0  0  0  0  0  0  0  0  0  0
  148.6406  138.8635  156.1978 H   0  0  0  0  0  0  0  0  0  0  0  0
  148.1050  136.4949  155.6475 H   0  0  0  0  0  0  0  0  0  0  0  0
  153.4813  139.9084  159.0822 H   0  0  0  0  0  0  0  0  0  0  0  0
  152.0662  140.1882  160.0666 H   0  0  0  0  0  0  0  0  0  0  0  0
  1  2  1  0  0  0  0
  1 23  1  0  0  0  0
  1 24  1  0  0  0  0
  1 25  1  0  0  0  0
  2 22  1  0  0  0  0
  2  3  1  0  0  0  0
  2 26  1  0  0  0  0
  3  4  1  0  0  0  0
  3 27  1  0  0  0  0
  3 28  1  0  0  0  0
  4  5  1  0  0  0  0
  4 29  1  0  0  0  0
  4 30  1  0  0  0  0
  5  6  1  0  0  0  0
  5  9  1  0  0  0  0
  5 31  1  0  0  0  0
  6  7  1  0  0  0  0
  6  8  1  0  0  0  0
  6 32  1  0  0  0  0
  7 33  1  0  0  0  0
  7 34  1  0  0  0  0
  7 35  1  0  0  0  0
  8 36  1  0  0  0  0
  8 37  1  0  0  0  0
  8 38  1  0  0  0  0
  9 10  1  0  0  0  0
  9 22  1  0  0  0  0
  9 39  1  0  0  0  0
 10 11  1  0  0  0  0
 10 40  1  0  0  0  0
 11 12  2  0  0  0  0
 11 13  1  0  0  0  0
 13 14  1  0  0  0  0
 13 41  1  0  0  0  0
 13 42  1  0  0  0  0
 14 20  1  0  0  0  0
 14 15  1  0  0  0  0
 15 16  2  0  0  0  0
 15 43  1  0  0  0  0
 16 17  1  0  0  0  0
 16 44  1  0  0  0  0
 17 18  2  0  0  0  0
 17 19  1  0  0  0  0
 19 20  1  0  0  0  0
 20 21  2  0  0  0  0
 22 45  1  0  0  0  0
 22 46  1  0  0  0  0
M  CHG  1  19  -1
M  END
> <s_m_source_file>
AV-unprocessed.smi

> <i_m_source_file_index>
2855

> <i_lp_mmshare_version>
43012

> <i_f3d_flags>
0

> <s_epik_input>
W0NIM11bQ0BASF0xW0NIMl1bQ0gyXVtDQEBIXShbQ0hdKFtDSDNdKVtDSDNdKVtDQEhdKFtDSDJdMSlbTkhdQyg9TylbQ0gyXW4yW2NIXVtjSF1jKD1PKVtuSF1jMj1P

> <s_epik_cmdline>
J2VwaWtfcHl0aG9uJywgJy1waCcsICc3LjAnLCAnLXRuJywgJzgnLCAnLW1hJywgJzIwMCcsICctbWV0YWxfYmluZGluZycsICctaW1hZScsICc8aW5maWxlLm1hZT4nLCAnLW9tYWUnLCAnPG91dGZpbGUubWFlPic=

> <r_lp_tautomer_probability>
0.999537

> <r_epik_Ionization_Penalty>
3.12102

> <r_epik_Ionization_Penalty_Charging>
2.9581e-08

> <r_epik_Ionization_Penalty_Neutral>
3.12102

> <r_epik_State_Penalty>
3.12011

> <r_epik_Charging_Adjusted_Penalty>
3.12011

> <i_epik_Tot_Q>
-1

> <i_epik_Tot_abs_Q>
1

> <r_epik_Metal_State_Penalty>
0.463583

> <b_epik_Metal_Only>
1

> <s_lp_Force_Field>
OPLS_2005

> <r_lp_Energy>
24.0282

> <b_lp_Chiralities_Consistent>
1

> <s_lp_Variant>
AV-unprocessed.smi:2855-13

> <Gold.Version>
5.8.1

> <Gold.Id.Protein>
6NUR|6NUR_protein|mol2

> <Gold.PLP.Fitness>
53.3176

> <Gold.PLP.PLP>
-45.4253

> <Gold.PLP.part.hbond>
-2.0000

> <Gold.PLP.part.metal>
0.0000

> <Gold.PLP.part.buried>
-8.0120

> <Gold.PLP.part.nonpolar>
-37.2003

> <Gold.PLP.part.repulsive>
0.4227

> <Gold.PLP.ligand.clash>
0.0000

> <Gold.PLP.ligand.torsion>
0.5841

> <Gold.PLP.Chemscore.Hbond>
3.0000

> <Gold.PLP.Chemscore.CHOScore>
0.0000

> <Gold.PLP.Chemscore.Metal>
0.0000

> <Gold.Chemscore.Hbonds>
donor molecule, donor type, donor heavy atom, donor atom, acceptor molecule, acceptor atom, score
      P1  H  7997  8010       L1    12  1.00
      P1  H 10752 10764       L1    19  2.00

> <Gold.PLP.Chemscore.Internal.Correction>
0.0605

> <Gold.Rescore>
     Score         DG    S(hbond)    S(metal)    S(lipo)     H(rot)  DE(clash)    DE(int)     intcor
     15.08     -20.90       1.85        0.00     118.67       1.81       0.13       5.69       ----

> <Gold.Chemscore.Fitness>
15.0788

> <Gold.Chemscore.DG>
-20.8971

> <Gold.Chemscore.ZeroCoef>
-5.4800

> <Gold.Chemscore.Hbond>
1.8461

> <Gold.Chemscore.Metal>
0.0000

> <Gold.Chemscore.Lipo>
118.6711

> <Gold.Chemscore.Internal_Hbond>
0.0000

> <Gold.Chemscore.DEClash>
0.1310

> <Gold.Chemscore.DEInternal>
5.6874

> <Gold.Chemscore.Rot>
1.8100

> <Gold.Chemscore.Internal.Correction>
   9.000000E+99

> <Gold.Chemscore.Hbonds>
donor molecule, donor type, donor heavy atom, donor atom, acceptor molecule, acceptor atom, score
      P1  H  7997  8010       L1    12  0.90
      P1  H 10752 10764       L1    19  0.83

> <Gold.Chemscore.Hbond.Weighted>
-6.1661

> <Gold.Chemscore.Metal.Weighted>
-0.0000

> <Gold.Chemscore.Lipo.Weighted>
-13.8845

> <Gold.Chemscore.Internal_Hbond.Weighted>
0.0000

> <Gold.Chemscore.DEClash.Weighted>
0.1310

> <Gold.Chemscore.DEInternal.Weighted>
5.6874

> <Gold.Chemscore.Rot.Weighted>
4.6335

> <Gold.Chemscore.Internal.Correction.Weighted>
   9.000000E+99

> <Gold.Protein.RotatedTorsions>
[ 6907 6896 6895 6894 ] final    3.88 input  -60.11 | X-H torsion
[ 7974 7965 7964 7962 ] final   43.69 input  175.53 | X-H torsion
[ 8008 7997 7996 7995 ] final   75.15 input   59.86 | X-H torsion
[ 10167 10162 10161 10158 ] final  116.22 input  -65.29 | X-H torsion
[ 10718 10713 10712 10709 ] final  -95.17 input   66.30 | X-H torsion
[ 10763 10752 10751 10750 ] final  -82.64 input  -60.55 | X-H torsion
[ 11005 11000 10999 10996 ] final  169.94 input  -57.11 | X-H torsion

> <Gold.Protein.ActiveResidues>
 VAL166  LYS551  ARG553  GLY616  TRP617  ASP618  TYR619  PRO620  LYS621  CYS622 
 ASP623  PHE694  ASN695  SER759  ASP760  ASP761  ALA762  ILE779  LEU786  VAL792 
 PHE793  MET794  SER795  GLU796  ALA797  LYS798  CYS799  TRP800  GLU811  SER814 

> <Gold.Protein.RotatedAtoms>
  151.6322  135.1022  160.0123 H   0  0  0  0  0  0  0  0  0  0  0  0  # atno 6907 bound_to 6896
  152.4100  133.6944  159.6398 H   0  0  0  0  0  0  0  0  0  0  0  0  # atno 6908 bound_to 6896
  150.7991  133.8558  159.3259 H   0  0  0  0  0  0  0  0  0  0  0  0  # atno 6909 bound_to 6896
  146.0633  139.5158  142.9644 H   0  0  0  0  0  0  0  0  0  0  0  0  # atno 7974 bound_to 7965
  155.8087  140.3474  155.5445 H   0  0  0  0  0  0  0  0  0  0  0  0  # atno 8008 bound_to 7997
  155.8463  140.0949  157.1723 H   0  0  0  0  0  0  0  0  0  0  0  0  # atno 8009 bound_to 7997
  154.4006  140.1385  156.3778 H   0  0  0  0  0  0  0  0  0  0  0  0  # atno 8010 bound_to 7997
  139.6262  144.7109  151.2528 H   0  0  0  0  0  0  0  0  0  0  0  0  # atno 10167 bound_to 10162
  156.0039  130.5098  150.6037 H   0  0  0  0  0  0  0  0  0  0  0  0  # atno 10718 bound_to 10713
  154.5781  135.5584  153.7159 H   0  0  0  0  0  0  0  0  0  0  0  0  # atno 10763 bound_to 10752
  153.0072  135.6313  154.2020 H   0  0  0  0  0  0  0  0  0  0  0  0  # atno 10764 bound_to 10752
  154.1961  135.2880  155.2986 H   0  0  0  0  0  0  0  0  0  0  0  0  # atno 10765 bound_to 10752
  140.3031  134.7579  157.3932 H   0  0  0  0  0  0  0  0  0  0  0  0  # atno 11005 bound_to 11000
  145.6521  141.0260  143.1754 LP  0  0  0  0  0  0  0  0  0  0  0  0  # atno 17320 bound_to 7965
  144.7188  139.8103  143.7389 LP  0  0  0  0  0  0  0  0  0  0  0  0  # atno 17321 bound_to 7965
  140.7412  143.6563  150.8203 LP  0  0  0  0  0  0  0  0  0  0  0  0  # atno 17342 bound_to 10162
  140.0182  143.5571  152.2811 LP  0  0  0  0  0  0  0  0  0  0  0  0  # atno 17343 bound_to 10162
  157.3881  131.0791  151.1418 LP  0  0  0  0  0  0  0  0  0  0  0  0  # atno 17370 bound_to 10713
  157.2118  130.6441  149.5777 LP  0  0  0  0  0  0  0  0  0  0  0  0  # atno 17371 bound_to 10713
  140.1091  134.5369  155.8282 LP  0  0  0  0  0  0  0  0  0  0  0  0  # atno 17394 bound_to 11000
  141.2124  133.6719  156.6655 LP  0  0  0  0  0  0  0  0  0  0  0  0  # atno 17395 bound_to 11000

$$$$
