AV-unprocessed.smi:1428|AV-procd|sdf|5816|dock6
  -GOLD-   22720 5473D 1   1.00000     0.00000
 Structure written by MMmdl.
 43 44  0  0  0  0  0  0  0  0  3 V2000
  138.2396  136.8391  158.8476 C   0  0  0  0  0  0  0  0  0  0  0  0
  139.0322  136.9633  157.6715 O   0  0  0  0  0  0  0  0  0  0  0  0
  138.5603  137.7504  156.6380 C   0  0  0  0  0  0  0  0  0  0  0  0
  137.5068  138.5696  156.8821 N   0  0  0  0  0  0  0  0  0  0  0  0
  137.0461  139.3414  155.8769 C   0  0  0  0  0  0  0  0  0  0  0  0
  137.6097  139.3443  154.5884 C   0  0  0  0  0  0  0  0  0  0  0  0
  138.7034  138.4969  154.3326 C   0  0  0  0  0  0  0  0  0  0  0  0
  139.1904  137.6682  155.3735 C   0  0  0  0  0  0  0  0  0  0  0  0
  140.2953  136.7811  155.2354 N   0  0  0  0  0  0  0  0  0  0  0  0
  141.0270  136.4990  154.1437 C   0  0  0  0  0  0  0  0  0  0  0  0
  140.8519  136.9735  153.0219 O   0  0  0  0  0  0  0  0  0  0  0  0
  141.9866  135.6053  154.4234 N   0  0  0  0  0  0  0  0  0  0  0  0
  142.9614  135.0912  153.4655 C   0  0  2  0  0  0  0  0  0  0  0  0
  143.4527  136.2046  152.5219 C   0  0  0  0  0  0  0  0  0  0  0  0
  144.4072  135.6441  151.4550 C   0  0  0  0  0  0  0  0  0  0  0  0
  143.7628  134.5495  150.6812 N   0  3  1  0  0  0  0  0  0  0  0  0
  144.5918  134.0639  149.5484 C   0  0  0  0  0  0  0  0  0  0  0  0
  143.7829  133.1279  148.6437 C   0  0  0  0  0  0  0  0  0  0  0  0
  143.6098  133.6334  147.4056 N   0  5  0  0  0  0  0  0  0  0  0  0
  143.3779  132.0552  149.0851 O   0  0  0  0  0  0  0  0  0  0  0  0
  143.3073  133.4461  151.5639 C   0  0  0  0  0  0  0  0  0  0  0  0
  142.3325  133.9593  152.6372 C   0  0  0  0  0  0  0  0  0  0  0  0
  138.7470  136.1855  159.5569 H   0  0  0  0  0  0  0  0  0  0  0  0
  137.2663  136.3971  158.6299 H   0  0  0  0  0  0  0  0  0  0  0  0
  138.0941  137.8050  159.3338 H   0  0  0  0  0  0  0  0  0  0  0  0
  136.2066  139.9804  156.1083 H   0  0  0  0  0  0  0  0  0  0  0  0
  137.2147  139.9853  153.8145 H   0  0  0  0  0  0  0  0  0  0  0  0
  139.1477  138.5133  153.3503 H   0  0  0  0  0  0  0  0  0  0  0  0
  140.5262  136.2578  156.0675 H   0  0  0  0  0  0  0  0  0  0  0  0
  142.0543  135.2630  155.3708 H   0  0  0  0  0  0  0  0  0  0  0  0
  143.8144  134.6830  154.0115 H   0  0  0  0  0  0  0  0  0  0  0  0
  142.6016  136.6803  152.0319 H   0  0  0  0  0  0  0  0  0  0  0  0
  143.9593  136.9865  153.0887 H   0  0  0  0  0  0  0  0  0  0  0  0
  144.7077  136.4519  150.7870 H   0  0  0  0  0  0  0  0  0  0  0  0
  145.3177  135.2707  151.9263 H   0  0  0  0  0  0  0  0  0  0  0  0
  144.9885  134.9055  148.9785 H   0  0  0  0  0  0  0  0  0  0  0  0
  145.4537  133.5062  149.9191 H   0  0  0  0  0  0  0  0  0  0  0  0
  142.7411  133.4161  146.9025 H   0  0  0  0  0  0  0  0  0  0  0  0
  142.8086  132.6808  150.9677 H   0  0  0  0  0  0  0  0  0  0  0  0
  144.1715  132.9719  152.0316 H   0  0  0  0  0  0  0  0  0  0  0  0
  142.0377  133.1361  153.2892 H   0  0  0  0  0  0  0  0  0  0  0  0
  141.4203  134.3143  152.1548 H   0  0  0  0  0  0  0  0  0  0  0  0
  142.9326  134.9373  150.2545 H   0  0  0  0  0  0  0  0  0  0  0  0
  1  2  1  0  0  0  0
  1 23  1  0  0  0  0
  1 24  1  0  0  0  0
  1 25  1  0  0  0  0
  2  3  1  0  0  0  0
  3  8  1  0  0  0  0
  3  4  2  0  0  0  0
  4  5  1  0  0  0  0
  5  6  2  0  0  0  0
  5 26  1  0  0  0  0
  6  7  1  0  0  0  0
  6 27  1  0  0  0  0
  7  8  2  0  0  0  0
  7 28  1  0  0  0  0
  8  9  1  0  0  0  0
  9 10  1  0  0  0  0
  9 29  1  0  0  0  0
 10 11  2  0  0  0  0
 10 12  1  0  0  0  0
 12 13  1  0  0  0  0
 12 30  1  0  0  0  0
 13 22  1  0  0  0  0
 13 14  1  0  0  0  0
 13 31  1  0  0  0  0
 14 15  1  0  0  0  0
 14 32  1  0  0  0  0
 14 33  1  0  0  0  0
 15 16  1  0  0  0  0
 15 34  1  0  0  0  0
 15 35  1  0  0  0  0
 16 17  1  0  0  0  0
 16 21  1  0  0  0  0
 16 43  1  0  0  0  0
 17 18  1  0  0  0  0
 17 36  1  0  0  0  0
 17 37  1  0  0  0  0
 18 19  1  0  0  0  0
 18 20  2  0  0  0  0
 19 38  1  0  0  0  0
 21 22  1  0  0  0  0
 21 39  1  0  0  0  0
 21 40  1  0  0  0  0
 22 41  1  0  0  0  0
 22 42  1  0  0  0  0
M  CHG  1  16   1
M  CHG  1  19  -1
M  END
> <s_m_source_file>
AV-unprocessed.smi

> <i_m_source_file_index>
1428

> <i_lp_mmshare_version>
43012

> <i_f3d_flags>
0

> <s_epik_input>
W0NIM11PYzFuW2NIXVtjSF1bY0hdYzFbTkhdQyg9TylbTkhdW0NIXTJbQ0gyXVtDSDJdTihbQ0gyXVtDSDJdMilbQ0gyXUMoPU8pW05IMl0=

> <s_epik_cmdline>
J2VwaWtfcHl0aG9uJywgJy1waCcsICc3LjAnLCAnLXRuJywgJzgnLCAnLW1hJywgJzIwMCcsICctbWV0YWxfYmluZGluZycsICctaW1hZScsICc8aW5maWxlLm1hZT4nLCAnLW9tYWUnLCAnPG91dGZpbGUubWFlPic=

> <r_lp_tautomer_probability>
1

> <r_epik_Ionization_Penalty>
5.72888

> <r_epik_Ionization_Penalty_Charging>
5.7288

> <r_epik_Ionization_Penalty_Neutral>
7.84403e-05

> <r_epik_State_Penalty>
6.54882

> <r_epik_Charging_Adjusted_Penalty>
12.2776

> <i_epik_Tot_Q>
0

> <i_epik_Tot_abs_Q>
2

> <r_epik_Metal_State_Penalty>
2.51301

> <b_epik_Metal_Only>
1

> <s_lp_Force_Field>
OPLS_2005

> <r_lp_Energy>
10.0981

> <b_lp_Chiralities_Consistent>
1

> <s_lp_Variant>
AV-unprocessed.smi:1428-4

> <Gold.Version>
5.8.1

> <Gold.Id.Protein>
6NUR|6NUR_protein|mol2

> <Gold.PLP.Fitness>
45.8892

> <Gold.PLP.PLP>
-28.8782

> <Gold.PLP.part.hbond>
-8.3195

> <Gold.PLP.part.metal>
0.0000

> <Gold.PLP.part.buried>
3.1350

> <Gold.PLP.part.nonpolar>
-25.7891

> <Gold.PLP.part.repulsive>
1.0708

> <Gold.PLP.ligand.clash>
0.0000

> <Gold.PLP.ligand.torsion>
0.4934

> <Gold.PLP.Chemscore.Hbond>
5.9884

> <Gold.PLP.Chemscore.CHOScore>
0.0000

> <Gold.PLP.Chemscore.Metal>
0.0000

> <Gold.Chemscore.Hbonds>
donor molecule, donor type, donor heavy atom, donor atom, acceptor molecule, acceptor atom, score
      L1  H    12    30       P1 11000  0.01
      L1  H    16    43       P1 10186  1.46
      L1  H    19    38       P1 10195  1.00
      P1  H  7918  7932       L1    19  0.87
      P1  H 10785 10796       L1    20  0.98
      P1  H 11000 11005       L1     2  0.42

> <Gold.PLP.Chemscore.Internal.Correction>
0.0326

> <Gold.Rescore>
     Score         DG    S(hbond)    S(metal)    S(lipo)     H(rot)  DE(clash)    DE(int)     intcor
     11.43     -19.82       3.99        0.00      58.85       2.29       3.69       4.70       ----

> <Gold.Chemscore.Fitness>
11.4291

> <Gold.Chemscore.DG>
-19.8159

> <Gold.Chemscore.ZeroCoef>
-5.4800

> <Gold.Chemscore.Hbond>
3.9855

> <Gold.Chemscore.Metal>
0.0000

> <Gold.Chemscore.Lipo>
58.8477

> <Gold.Chemscore.Internal_Hbond>
0.0000

> <Gold.Chemscore.DEClash>
3.6886

> <Gold.Chemscore.DEInternal>
4.6981

> <Gold.Chemscore.Rot>
2.2894

> <Gold.Chemscore.Internal.Correction>
   9.000000E+99

> <Gold.Chemscore.Hbonds>
donor molecule, donor type, donor heavy atom, donor atom, acceptor molecule, acceptor atom, score
      L1  H    16    43       P1 10186  0.18
      L1  H    19    38       P1 10195  0.98
      P1  H  7918  7932       L1    19  0.40
      P1  H 10785 10796       L1    20  0.92
      P1  H 11000 11005       L1     2  0.31

> <Gold.Chemscore.Hbond.Weighted>
-13.3115

> <Gold.Chemscore.Metal.Weighted>
-0.0000

> <Gold.Chemscore.Lipo.Weighted>
-6.8852

> <Gold.Chemscore.Internal_Hbond.Weighted>
0.0000

> <Gold.Chemscore.DEClash.Weighted>
3.6886

> <Gold.Chemscore.DEInternal.Weighted>
4.6981

> <Gold.Chemscore.Rot.Weighted>
5.8608

> <Gold.Chemscore.Internal.Correction.Weighted>
   9.000000E+99

> <Gold.Protein.RotatedTorsions>
[ 6907 6896 6895 6894 ] final  146.77 input  -60.11 | X-H torsion
[ 7974 7965 7964 7962 ] final   77.53 input  175.53 | X-H torsion
[ 8008 7997 7996 7995 ] final  -45.06 input   59.86 | X-H torsion
[ 10167 10162 10161 10158 ] final  177.34 input  -65.29 | X-H torsion
[ 10718 10713 10712 10709 ] final  -14.54 input   66.30 | X-H torsion
[ 10763 10752 10751 10750 ] final   16.28 input  -60.55 | X-H torsion
[ 11005 11000 10999 10996 ] final  132.13 input  -57.11 | X-H torsion

> <Gold.Protein.ActiveResidues>
 VAL166  LYS551  ARG553  GLY616  TRP617  ASP618  TYR619  PRO620  LYS621  CYS622 
 ASP623  PHE694  ASN695  SER759  ASP760  ASP761  ALA762  ILE779  LEU786  VAL792 
 PHE793  MET794  SER795  GLU796  ALA797  LYS798  CYS799  TRP800  GLU811  SER814 

> <Gold.Protein.RotatedAtoms>
  152.1635  133.4597  159.4872 H   0  0  0  0  0  0  0  0  0  0  0  0  # atno 6907 bound_to 6896
  150.6910  134.2042  159.4343 H   0  0  0  0  0  0  0  0  0  0  0  0  # atno 6908 bound_to 6896
  151.9945  134.9961  160.0613 H   0  0  0  0  0  0  0  0  0  0  0  0  # atno 6909 bound_to 6896
  145.6889  139.2546  143.1771 H   0  0  0  0  0  0  0  0  0  0  0  0  # atno 7974 bound_to 7965
  154.3999  140.1406  156.3785 H   0  0  0  0  0  0  0  0  0  0  0  0  # atno 8008 bound_to 7997
  155.8026  140.3475  155.5391 H   0  0  0  0  0  0  0  0  0  0  0  0  # atno 8009 bound_to 7997
  155.8468  140.0935  157.1690 H   0  0  0  0  0  0  0  0  0  0  0  0  # atno 8010 bound_to 7997
  139.5249  144.2810  152.0546 H   0  0  0  0  0  0  0  0  0  0  0  0  # atno 10167 bound_to 10162
  156.6145  130.4858  149.6188 H   0  0  0  0  0  0  0  0  0  0  0  0  # atno 10718 bound_to 10713
  153.1445  135.6766  153.8975 H   0  0  0  0  0  0  0  0  0  0  0  0  # atno 10763 bound_to 10752
  153.8422  135.3104  155.3428 H   0  0  0  0  0  0  0  0  0  0  0  0  # atno 10764 bound_to 10752
  154.7814  135.4886  153.9938 H   0  0  0  0  0  0  0  0  0  0  0  0  # atno 10765 bound_to 10752
  139.9772  134.9560  156.9538 H   0  0  0  0  0  0  0  0  0  0  0  0  # atno 11005 bound_to 11000
  146.0899  140.7667  142.9600 LP  0  0  0  0  0  0  0  0  0  0  0  0  # atno 17320 bound_to 7965
  144.7003  140.3621  143.7162 LP  0  0  0  0  0  0  0  0  0  0  0  0  # atno 17321 bound_to 7965
  140.2265  144.4412  150.6318 LP  0  0  0  0  0  0  0  0  0  0  0  0  # atno 17342 bound_to 10162
  140.6384  143.2199  151.6345 LP  0  0  0  0  0  0  0  0  0  0  0  0  # atno 17343 bound_to 10162
  156.2362  130.6824  151.1512 LP  0  0  0  0  0  0  0  0  0  0  0  0  # atno 17370 bound_to 10713
  157.7245  131.0659  150.5993 LP  0  0  0  0  0  0  0  0  0  0  0  0  # atno 17371 bound_to 10713
  140.5171  134.0944  155.7283 LP  0  0  0  0  0  0  0  0  0  0  0  0  # atno 17394 bound_to 11000
  141.1447  133.9075  157.2242 LP  0  0  0  0  0  0  0  0  0  0  0  0  # atno 17395 bound_to 11000

$$$$
