AV-unprocessed.smi:705|AV-procd|sdf|3446|dock7
  -GOLD-   22720 0433D 1   1.00000     0.00000
 Structure written by MMmdl.
 29 30  0  0  0  0  0  0  0  0  2 V2000
  150.1196  138.0749  153.6635 N   0  0  0  0  0  0  0  0  0  0  0  0
  150.9141  137.5650  154.6091 C   0  0  0  0  0  0  0  0  0  0  0  0
  151.1904  136.3680  154.6561 O   0  0  0  0  0  0  0  0  0  0  0  0
  151.4856  138.5167  155.5844 C   0  0  0  0  0  0  0  0  0  0  0  0
  151.0940  139.8104  155.7812 C   0  0  0  0  0  0  0  0  0  0  0  0
  151.9509  140.2432  156.8387 C   0  0  0  0  0  0  0  0  0  0  0  0
  151.9939  141.6067  157.4804 C   0  0  2  0  0  0  0  0  0  0  0  0
  151.8079  141.5315  159.0084 C   0  0  0  0  0  0  0  0  0  0  0  0
  151.8536  142.9382  159.6243 C   0  0  0  0  0  0  0  0  0  0  0  0
  150.8315  143.8670  158.9476 C   0  0  0  0  0  0  0  0  0  0  0  0
  151.0508  143.9118  157.4852 N   0  3  0  0  0  0  0  0  0  0  0  0
  150.9761  142.5788  156.8473 C   0  0  0  0  0  0  0  0  0  0  0  0
  152.7793  139.2856  157.2534 N   0  0  0  0  0  0  0  0  0  0  0  0
  152.4802  138.2220  156.4819 N   0  0  0  0  0  0  0  0  0  0  0  0
  152.9533  137.3339  156.5737 H   0  0  0  0  0  0  0  0  0  0  0  0
  149.7090  137.4653  152.9713 H   0  0  0  0  0  0  0  0  0  0  0  0
  149.9362  139.0672  153.6411 H   0  0  0  0  0  0  0  0  0  0  0  0
  150.3275  140.3651  155.2601 H   0  0  0  0  0  0  0  0  0  0  0  0
  152.9863  142.0235  157.3006 H   0  0  0  0  0  0  0  0  0  0  0  0
  150.8520  141.0630  159.2476 H   0  0  0  0  0  0  0  0  0  0  0  0
  152.5818  140.9050  159.4535 H   0  0  0  0  0  0  0  0  0  0  0  0
  151.6554  142.8825  160.6950 H   0  0  0  0  0  0  0  0  0  0  0  0
  152.8566  143.3537  159.5169 H   0  0  0  0  0  0  0  0  0  0  0  0
  149.8156  143.5238  159.1479 H   0  0  0  0  0  0  0  0  0  0  0  0
  150.9129  144.8767  159.3510 H   0  0  0  0  0  0  0  0  0  0  0  0
  150.3554  144.5137  157.0676 H   0  0  0  0  0  0  0  0  0  0  0  0
  151.1683  142.6887  155.7795 H   0  0  0  0  0  0  0  0  0  0  0  0
  149.9595  142.1964  156.9505 H   0  0  0  0  0  0  0  0  0  0  0  0
  151.9661  144.3006  157.3099 H   0  0  0  0  0  0  0  0  0  0  0  0
  1  2  1  0  0  0  0
  1 16  1  0  0  0  0
  1 17  1  0  0  0  0
  2  3  2  0  0  0  0
  2  4  1  0  0  0  0
  4 14  1  0  0  0  0
  4  5  2  0  0  0  0
  5  6  1  0  0  0  0
  5 18  1  0  0  0  0
  6  7  1  0  0  0  0
  6 13  2  0  0  0  0
  7 12  1  0  0  0  0
  7  8  1  0  0  0  0
  7 19  1  0  0  0  0
  8  9  1  0  0  0  0
  8 20  1  0  0  0  0
  8 21  1  0  0  0  0
  9 10  1  0  0  0  0
  9 22  1  0  0  0  0
  9 23  1  0  0  0  0
 10 11  1  0  0  0  0
 10 24  1  0  0  0  0
 10 25  1  0  0  0  0
 11 12  1  0  0  0  0
 11 26  1  0  0  0  0
 11 29  1  0  0  0  0
 12 27  1  0  0  0  0
 12 28  1  0  0  0  0
 13 14  1  0  0  0  0
 14 15  1  0  0  0  0
M  CHG  1  11   1
M  END
> <s_m_source_file>
AV-unprocessed.smi

> <i_m_source_file_index>
705

> <i_lp_mmshare_version>
43012

> <i_f3d_flags>
0

> <s_epik_input>
W05IMl1DKD1PKWMxW2NIXWMoW25IXW4xKVtDQEBIXTJbQ0gyXVtDSDJdW0NIMl1bTkhdW0NIMl0y

> <s_epik_cmdline>
J2VwaWtfcHl0aG9uJywgJy1waCcsICc3LjAnLCAnLXRuJywgJzgnLCAnLW1hJywgJzIwMCcsICctbWV0YWxfYmluZGluZycsICctaW1hZScsICc8aW5maWxlLm1hZT4nLCAnLW9tYWUnLCAnPG91dGZpbGUubWFlPic=

> <r_lp_tautomer_probability>
0.5

> <r_epik_Ionization_Penalty>
0.000242638

> <r_epik_Ionization_Penalty_Charging>
0.000157527

> <r_epik_Ionization_Penalty_Neutral>
8.51112e-05

> <r_epik_State_Penalty>
0.41068

> <r_epik_Charging_Adjusted_Penalty>
0.410837

> <i_epik_Tot_Q>
1

> <i_epik_Tot_abs_Q>
1

> <r_epik_Metal_State_Penalty>
0.446108

> <b_epik_Metal_Only>
0

> <s_lp_Force_Field>
OPLS_2005

> <r_lp_Energy>
10.1374

> <b_lp_Chiralities_Consistent>
1

> <s_lp_Variant>
AV-unprocessed.smi:705-1

> <Gold.Version>
5.8.1

> <Gold.Id.Protein>
6NUR|6NUR_protein|mol2

> <Gold.PLP.Fitness>
38.8855

> <Gold.PLP.PLP>
-24.1615

> <Gold.PLP.part.hbond>
-5.7437

> <Gold.PLP.part.metal>
0.0000

> <Gold.PLP.part.buried>
-3.7776

> <Gold.PLP.part.nonpolar>
-15.7137

> <Gold.PLP.part.repulsive>
1.1110

> <Gold.PLP.ligand.clash>
0.0000

> <Gold.PLP.ligand.torsion>
0.0824

> <Gold.PLP.Chemscore.Hbond>
4.9520

> <Gold.PLP.Chemscore.CHOScore>
0.0000

> <Gold.PLP.Chemscore.Metal>
0.0000

> <Gold.Chemscore.Hbonds>
donor molecule, donor type, donor heavy atom, donor atom, acceptor molecule, acceptor atom, score
      L1  H     1    16       P1  7948  1.00
      L1  H    11    26       P1  8028  1.95
      P1  H  7997  8010       L1    13  1.00
      P1  H 10752 10765       L1     3  1.00

> <Gold.PLP.Chemscore.Internal.Correction>
0.0328

> <Gold.Rescore>
     Score         DG    S(hbond)    S(metal)    S(lipo)     H(rot)  DE(clash)    DE(int)     intcor
     21.55     -23.19       3.72        0.00      66.98       1.00       1.58       0.05       ----

> <Gold.Chemscore.Fitness>
21.5538

> <Gold.Chemscore.DG>
-23.1912

> <Gold.Chemscore.ZeroCoef>
-5.4800

> <Gold.Chemscore.Hbond>
3.7231

> <Gold.Chemscore.Metal>
0.0000

> <Gold.Chemscore.Lipo>
66.9762

> <Gold.Chemscore.Internal_Hbond>
0.0000

> <Gold.Chemscore.DEClash>
1.5829

> <Gold.Chemscore.DEInternal>
0.0546

> <Gold.Chemscore.Rot>
1.0000

> <Gold.Chemscore.Internal.Correction>
   9.000000E+99

> <Gold.Chemscore.Hbonds>
donor molecule, donor type, donor heavy atom, donor atom, acceptor molecule, acceptor atom, score
      L1  H     1    16       P1  7948  0.55
      L1  H    11    26       P1  8028  0.66
      P1  H  7997  8010       L1    13  0.21
      P1  H 10752 10765       L1     3  1.00

> <Gold.Chemscore.Hbond.Weighted>
-12.4350

> <Gold.Chemscore.Metal.Weighted>
-0.0000

> <Gold.Chemscore.Lipo.Weighted>
-7.8362

> <Gold.Chemscore.Internal_Hbond.Weighted>
0.0000

> <Gold.Chemscore.DEClash.Weighted>
1.5829

> <Gold.Chemscore.DEInternal.Weighted>
0.0546

> <Gold.Chemscore.Rot.Weighted>
2.5600

> <Gold.Chemscore.Internal.Correction.Weighted>
   9.000000E+99

> <Gold.Protein.RotatedTorsions>
[ 6907 6896 6895 6894 ] final -159.16 input  -60.11 | X-H torsion
[ 7974 7965 7964 7962 ] final -165.10 input  175.53 | X-H torsion
[ 8008 7997 7996 7995 ] final   52.32 input   59.86 | X-H torsion
[ 10167 10162 10161 10158 ] final  134.72 input  -65.29 | X-H torsion
[ 10718 10713 10712 10709 ] final    0.22 input   66.30 | X-H torsion
[ 10763 10752 10751 10750 ] final  176.16 input  -60.55 | X-H torsion
[ 11005 11000 10999 10996 ] final  -10.73 input  -57.11 | X-H torsion

> <Gold.Protein.ActiveResidues>
 VAL166  LYS551  ARG553  GLY616  TRP617  ASP618  TYR619  PRO620  LYS621  CYS622 
 ASP623  PHE694  ASN695  SER759  ASP760  ASP761  ALA762  ILE779  LEU786  VAL792 
 PHE793  MET794  SER795  GLU796  ALA797  LYS798  CYS799  TRP800  GLU811  SER814 

> <Gold.Protein.RotatedAtoms>
  151.3293  133.4007  159.2660 H   0  0  0  0  0  0  0  0  0  0  0  0  # atno 6907 bound_to 6896
  150.9969  134.9291  159.7942 H   0  0  0  0  0  0  0  0  0  0  0  0  # atno 6908 bound_to 6896
  152.5264  134.3258  159.9217 H   0  0  0  0  0  0  0  0  0  0  0  0  # atno 6909 bound_to 6896
  144.7279  140.2864  143.6227 H   0  0  0  0  0  0  0  0  0  0  0  0  # atno 7974 bound_to 7965
  155.4499  140.3458  155.4299 H   0  0  0  0  0  0  0  0  0  0  0  0  # atno 8008 bound_to 7997
  156.1227  140.1491  156.9211 H   0  0  0  0  0  0  0  0  0  0  0  0  # atno 8009 bound_to 7997
  154.4835  140.0862  156.7412 H   0  0  0  0  0  0  0  0  0  0  0  0  # atno 8010 bound_to 7997
  139.5245  144.6553  151.5181 H   0  0  0  0  0  0  0  0  0  0  0  0  # atno 10167 bound_to 10162
  156.8302  130.5486  149.5687 H   0  0  0  0  0  0  0  0  0  0  0  0  # atno 10718 bound_to 10713
  154.4774  135.2773  155.1596 H   0  0  0  0  0  0  0  0  0  0  0  0  # atno 10763 bound_to 10752
  154.3320  135.6188  153.5559 H   0  0  0  0  0  0  0  0  0  0  0  0  # atno 10764 bound_to 10752
  152.9871  135.5768  154.5168 H   0  0  0  0  0  0  0  0  0  0  0  0  # atno 10765 bound_to 10752
  140.7479  133.8617  155.9020 H   0  0  0  0  0  0  0  0  0  0  0  0  # atno 11005 bound_to 11000
  145.7899  139.1923  143.2109 LP  0  0  0  0  0  0  0  0  0  0  0  0  # atno 17320 bound_to 7965
  146.0765  140.7812  142.9662 LP  0  0  0  0  0  0  0  0  0  0  0  0  # atno 17321 bound_to 7965
  140.6376  143.8954  150.6661 LP  0  0  0  0  0  0  0  0  0  0  0  0  # atno 17342 bound_to 10162
  140.2278  143.3759  152.1591 LP  0  0  0  0  0  0  0  0  0  0  0  0  # atno 17343 bound_to 10162
  156.0938  130.5917  150.9779 LP  0  0  0  0  0  0  0  0  0  0  0  0  # atno 17370 bound_to 10713
  157.6411  131.0910  150.8250 LP  0  0  0  0  0  0  0  0  0  0  0  0  # atno 17371 bound_to 10713
  140.9778  134.1446  157.4521 LP  0  0  0  0  0  0  0  0  0  0  0  0  # atno 17394 bound_to 11000
  139.8793  135.0000  156.5987 LP  0  0  0  0  0  0  0  0  0  0  0  0  # atno 17395 bound_to 11000

$$$$
