#       Name:                AV-unprocessed.smi:72
#       Creating user name   scv26
#       Creation time:       Thu Mar 26 17:04:42 2020


#       File generated by GOLD software.
#

@<TRIPOS>MOLECULE
AV-unprocessed.smi:72
    41    42     1
SMALL
NO_CHARGES


@<TRIPOS>ATOM
      1 ****        -2.6302   4.5318  -0.9531 N.2            1 S1                 0.0000
      2 ****        -2.1483   3.4129  -0.6290 C.2            1 S1                 0.0000
      3 ****        -0.7179   3.1982  -0.6717 N.2            1 S1                 0.0000
      4 ****        -0.2704   2.0353  -0.3088 C.2            1 S1                 0.0000
      5 ****        -1.1628   0.9757   0.1409 N.am           1 S1                 0.0000
      6 ****        -0.6231  -0.3779   0.5576 C.3            1 S1                 0.0000
      7 ****         0.6445  -0.2119   1.1127 O.3            1 S1                 0.0000
      8 ****         1.4042  -1.3843   0.8639 C.3            1 S1                 0.0000
      9 ****         2.9031  -1.0770   1.0047 C.3            1 S1                 0.0000
     10 ****         3.2918  -1.1530   2.3597 O.3            1 S1                 0.0000
     11 ****         0.9875  -1.7536  -0.5637 C.3            1 S1                 0.0000
     12 ****         1.1579  -3.1393  -0.7854 O.3            1 S1                 0.0000
     13 ****        -0.4911  -1.3790  -0.6130 C.3            1 S1                 0.0000
     14 ****        -0.8240  -0.8491  -1.8837 O.3            1 S1                 0.0000
     15 ****        -2.5643   1.2023   0.1400 C.2            1 S1                 0.0000
     16 ****        -3.3033   0.2761   0.4744 O.2            1 S1                 0.0000
     17 ****        -3.0278   2.4249  -0.2436 N.pl3          1 S1                -1.0000
     18 ****        -1.2766  -0.7438   1.3512 H              1 S1                 0.0000
     19 ****         1.0909  -2.1674   1.5583 H              1 S1                 0.0000
     20 ****         1.5627  -1.1726  -1.2870 H              1 S1                 0.0000
     21 ****        -1.1352  -2.2317  -0.3926 H              1 S1                 0.0000
     22 ****        -3.6373   4.5506  -0.8826 H              1 S1                 0.0000
     23 ****         0.7892   1.7774  -0.3231 H              1 S1                 0.0000
     24 ****         3.4895  -1.8148   0.4565 H              1 S1                 0.0000
     25 ****         3.1476  -0.0977   0.5919 H              1 S1                 0.0000
     26 ****         4.2182  -0.9760   2.4168 H              1 S1                 0.0000
     27 ****         0.8331  -3.3428  -1.6495 H              1 S1                 0.0000
     28 ****        -1.7074  -0.5139  -1.8440 H              1 S1                 0.0000
     29 ****        -2.0779   5.3120  -1.2466 LP             1 S1                 0.0000
     30 ****        -0.0953   3.9214  -0.9707 LP             1 S1                 0.0000
     31 ****         0.5641  -0.0654   2.0987 LP             1 S1                 0.0000
     32 ****         1.0950   0.5767   0.6942 LP             1 S1                 0.0000
     33 ****         3.1009  -2.0683   2.7144 LP             1 S1                 0.0000
     34 ****         2.7856  -0.4761   2.8942 LP             1 S1                 0.0000
     35 ****         0.6452  -3.6571  -0.1005 LP             1 S1                 0.0000
     36 ****         2.1278  -3.3750  -0.7242 LP             1 S1                 0.0000
     37 ****        -0.7663  -1.5687  -2.5757 LP             1 S1                 0.0000
     38 ****        -0.1923  -0.1101  -2.1178 LP             1 S1                 0.0000
     39 ****        -2.9121  -0.6060   0.7369 LP             1 S1                 0.0000
     40 ****        -4.2948   0.4059   0.4836 LP             1 S1                 0.0000
     41 ****        -4.0113   2.6059  -0.2454 LP             1 S1                 0.0000
@<TRIPOS>BOND
    1    1    2 2     
    2    1   22 1     
    3    2   17 1     
    4    2    3 1     
    5    3    4 2     
    6    4    5 1     
    7    4   23 1     
    8    5    6 1     
    9    5   15 am    
   10    6   18 1     
   11    6   13 1     
   12    6    7 1     
   13    7    8 1     
   14    8   19 1     
   15    8    9 1     
   16    8   11 1     
   17    9   10 1     
   18    9   24 1     
   19    9   25 1     
   20   10   26 1     
   21   11   20 1     
   22   11   12 1     
   23   11   13 1     
   24   12   27 1     
   25   13   21 1     
   26   13   14 1     
   27   14   28 1     
   28   15   16 2     
   29   15   17 1     
   30    1   29 1     
   31    3   30 1     
   32    7   31 1     
   33    7   32 1     
   34   10   33 1     
   35   10   34 1     
   36   12   35 1     
   37   12   36 1     
   38   14   37 1     
   39   14   38 1     
   40   16   39 1     
   41   16   40 1     
   42   17   41 1     
@<TRIPOS>SUBSTRUCTURE
      1 S1             1
@<TRIPOS>SET
LONE_PAIRS      STATIC     ATOMS    <user>   **** ""
13 29 30 31 32 33 34 35 36 37 38 39 40 41
DONOR_HYDROGENS      STATIC     ATOMS    <user>   **** ""
4 22 26 27 28
ATOM$BLUE        STATIC     ATOMS    COLORGROUP SYSTEM
13 29 30 31 32 33 34 35 36 37 38 39 40 41
ATOM$RED        STATIC     ATOMS    COLORGROUP SYSTEM
4 22 26 27 28
