AV-unprocessed.smi:2218|AV-procd|sdf|8976|dock1
  -GOLD-   2272012193D 1   1.00000     0.00000
 Structure written by MMmdl.
 32 32  0  0  0  0  0  0  0  0  2 V2000
  154.1683  141.4061  161.3038 C   0  0  0  0  0  0  0  0  0  0  0  0
  153.2680  142.3930  160.6435 C   0  0  0  0  0  0  0  0  0  0  0  0
  152.9842  142.3759  159.3386 N   0  0  0  0  0  0  0  0  0  0  0  0
  152.1204  143.4099  158.9614 C   0  0  0  0  0  0  0  0  0  0  0  0
  151.6917  143.5449  157.5267 C   0  0  0  0  0  0  0  0  0  0  0  0
  151.0395  142.2641  156.9886 C   0  0  0  0  0  0  0  0  0  0  0  0
  151.5274  141.1540  157.2084 O   0  0  0  0  0  0  0  0  0  0  0  0
  149.9244  142.4418  156.2638 N   0  0  0  0  0  0  0  0  0  0  0  0
  149.1633  141.3783  155.6186 C   0  0  0  0  0  0  0  0  0  0  0  0
  150.0835  140.4310  154.8320 C   0  0  0  0  0  0  0  0  0  0  0  0
  150.0873  139.0051  155.4002 C   0  0  0  0  0  0  0  0  0  0  0  0
  151.0508  138.0756  154.6357 C   0  0  0  0  0  0  0  0  0  0  0  0
  152.5296  138.4184  154.8592 C   0  0  0  0  0  0  0  0  0  0  0  0
  152.8539  139.6118  154.6747 O   0  0  0  0  0  0  0  0  0  0  0  0
  153.3121  137.5075  155.2113 O   0  5  0  0  0  0  0  0  0  0  0  0
  151.7447  144.2101  160.0126 C   0  0  0  0  0  0  0  0  0  0  0  0
  152.4745  143.7020  161.5104 S   0  0  0  0  0  0  0  0  0  0  0  0
  154.3279  140.5409  160.6595 H   0  0  0  0  0  0  0  0  0  0  0  0
  153.7266  141.0662  162.2406 H   0  0  0  0  0  0  0  0  0  0  0  0
  155.1326  141.8674  161.5172 H   0  0  0  0  0  0  0  0  0  0  0  0
  150.9890  144.3715  157.4142 H   0  0  0  0  0  0  0  0  0  0  0  0
  152.5512  143.7843  156.8996 H   0  0  0  0  0  0  0  0  0  0  0  0
  149.5888  143.3849  156.1327 H   0  0  0  0  0  0  0  0  0  0  0  0
  148.5830  140.8248  156.3589 H   0  0  0  0  0  0  0  0  0  0  0  0
  148.4434  141.8414  154.9434 H   0  0  0  0  0  0  0  0  0  0  0  0
  149.7666  140.4030  153.7886 H   0  0  0  0  0  0  0  0  0  0  0  0
  151.1021  140.8208  154.8352 H   0  0  0  0  0  0  0  0  0  0  0  0
  150.3671  139.0416  156.4541 H   0  0  0  0  0  0  0  0  0  0  0  0
  149.0743  138.6016  155.3594 H   0  0  0  0  0  0  0  0  0  0  0  0
  150.8878  137.0415  154.9418 H   0  0  0  0  0  0  0  0  0  0  0  0
  150.8442  138.1239  153.5660 H   0  0  0  0  0  0  0  0  0  0  0  0
  151.0906  145.0690  159.9939 H   0  0  0  0  0  0  0  0  0  0  0  0
  1  2  1  0  0  0  0
  1 18  1  0  0  0  0
  1 19  1  0  0  0  0
  1 20  1  0  0  0  0
  2 17  1  0  0  0  0
  2  3  2  0  0  0  0
  3  4  1  0  0  0  0
  4  5  1  0  0  0  0
  4 16  2  0  0  0  0
  5  6  1  0  0  0  0
  5 21  1  0  0  0  0
  5 22  1  0  0  0  0
  6  7  2  0  0  0  0
  6  8  1  0  0  0  0
  8  9  1  0  0  0  0
  8 23  1  0  0  0  0
  9 10  1  0  0  0  0
  9 24  1  0  0  0  0
  9 25  1  0  0  0  0
 10 11  1  0  0  0  0
 10 26  1  0  0  0  0
 10 27  1  0  0  0  0
 11 12  1  0  0  0  0
 11 28  1  0  0  0  0
 11 29  1  0  0  0  0
 12 13  1  0  0  0  0
 12 30  1  0  0  0  0
 12 31  1  0  0  0  0
 13 14  2  0  0  0  0
 13 15  1  0  0  0  0
 16 17  1  0  0  0  0
 16 32  1  0  0  0  0
M  CHG  1  15  -1
M  END
> <s_m_source_file>
AV-unprocessed.smi

> <i_m_source_file_index>
2218

> <i_lp_mmshare_version>
43012

> <i_f3d_flags>
0

> <s_epik_input>
W0NIM11jMW5jKFtjSF1zMSlbQ0gyXUMoPU8pW05IXVtDSDJdW0NIMl1bQ0gyXVtDSDJdQyg9TylbT0hd

> <s_epik_cmdline>
J2VwaWtfcHl0aG9uJywgJy1waCcsICc3LjAnLCAnLXRuJywgJzgnLCAnLW1hJywgJzIwMCcsICctbWV0YWxfYmluZGluZycsICctaW1hZScsICc8aW5maWxlLm1hZT4nLCAnLW9tYWUnLCAnPG91dGZpbGUubWFlPic=

> <r_epik_Ionization_Penalty>
0.0039764

> <r_epik_Ionization_Penalty_Charging>
0.00392012

> <r_epik_Ionization_Penalty_Neutral>
5.62812e-05

> <r_epik_State_Penalty>
0.00280293

> <r_epik_Charging_Adjusted_Penalty>
0.00672305

> <i_epik_Tot_Q>
-1

> <i_epik_Tot_abs_Q>
1

> <r_epik_Metal_State_Penalty>
-0

> <b_epik_Metal_Only>
0

> <s_lp_Force_Field>
OPLS_2005

> <r_lp_Energy>
1.59535

> <b_lp_Chiralities_Consistent>
1

> <s_lp_Variant>
AV-unprocessed.smi:2218-1

> <Gold.Version>
5.8.1

> <Gold.Id.Protein>
6NUR|6NUR_protein|mol2

> <Gold.PLP.Fitness>
51.4069

> <Gold.PLP.PLP>
-41.6452

> <Gold.PLP.part.hbond>
-3.9752

> <Gold.PLP.part.metal>
0.0000

> <Gold.PLP.part.buried>
-5.3200

> <Gold.PLP.part.nonpolar>
-33.9430

> <Gold.PLP.part.repulsive>
0.1587

> <Gold.PLP.ligand.clash>
0.0000

> <Gold.PLP.ligand.torsion>
0.7467

> <Gold.PLP.Chemscore.Hbond>
3.7384

> <Gold.PLP.Chemscore.CHOScore>
0.0000

> <Gold.PLP.Chemscore.Metal>
0.0000

> <Gold.Chemscore.Hbonds>
donor molecule, donor type, donor heavy atom, donor atom, acceptor molecule, acceptor atom, score
      L1  H     8    23       P1  8028  1.00
      P1  H  7989  7998       L1    14  0.40
      P1  H  7997  8010       L1    14  1.72
      P1  H 10752 10764       L1    15  0.32

> <Gold.PLP.Chemscore.Internal.Correction>
0.0399

> <Gold.Rescore>
     Score         DG    S(hbond)    S(metal)    S(lipo)     H(rot)  DE(clash)    DE(int)     intcor
     12.30     -17.02       2.37        0.00      93.06       2.83       0.03       4.70       ----

> <Gold.Chemscore.Fitness>
12.3005

> <Gold.Chemscore.DG>
-17.0238

> <Gold.Chemscore.ZeroCoef>
-5.4800

> <Gold.Chemscore.Hbond>
2.3664

> <Gold.Chemscore.Metal>
0.0000

> <Gold.Chemscore.Lipo>
93.0632

> <Gold.Chemscore.Internal_Hbond>
0.0000

> <Gold.Chemscore.DEClash>
0.0263

> <Gold.Chemscore.DEInternal>
4.6970

> <Gold.Chemscore.Rot>
2.8313

> <Gold.Chemscore.Internal.Correction>
   9.000000E+99

> <Gold.Chemscore.Hbonds>
donor molecule, donor type, donor heavy atom, donor atom, acceptor molecule, acceptor atom, score
      L1  H     8    23       P1  8028  0.98
      P1  H  7989  7998       L1    14  0.38
      P1  H  7997  8010       L1    14  0.72
      P1  H 10752 10764       L1    15  0.16

> <Gold.Chemscore.Hbond.Weighted>
-7.9036

> <Gold.Chemscore.Metal.Weighted>
-0.0000

> <Gold.Chemscore.Lipo.Weighted>
-10.8884

> <Gold.Chemscore.Internal_Hbond.Weighted>
0.0000

> <Gold.Chemscore.DEClash.Weighted>
0.0263

> <Gold.Chemscore.DEInternal.Weighted>
4.6970

> <Gold.Chemscore.Rot.Weighted>
7.2482

> <Gold.Chemscore.Internal.Correction.Weighted>
   9.000000E+99

> <Gold.Protein.RotatedTorsions>
[ 6907 6896 6895 6894 ] final   67.68 input  -60.11 | X-H torsion
[ 7974 7965 7964 7962 ] final  -81.66 input  175.53 | X-H torsion
[ 8008 7997 7996 7995 ] final  109.18 input   59.86 | X-H torsion
[ 10167 10162 10161 10158 ] final -105.25 input  -65.29 | X-H torsion
[ 10718 10713 10712 10709 ] final   32.38 input   66.30 | X-H torsion
[ 10763 10752 10751 10750 ] final  -54.57 input  -60.55 | X-H torsion
[ 11005 11000 10999 10996 ] final -162.52 input  -57.11 | X-H torsion

> <Gold.Protein.ActiveResidues>
 VAL166  LYS551  ARG553  GLY616  TRP617  ASP618  TYR619  PRO620  LYS621  CYS622 
 ASP623  PHE694  ASN695  SER759  ASP760  ASP761  ALA762  ILE779  LEU786  VAL792 
 PHE793  MET794  SER795  GLU796  ALA797  LYS798  CYS799  TRP800  GLU811  SER814 

> <Gold.Protein.RotatedAtoms>
  152.4569  134.5272  159.9799 H   0  0  0  0  0  0  0  0  0  0  0  0  # atno 6907 bound_to 6896
  151.5330  133.3440  159.2929 H   0  0  0  0  0  0  0  0  0  0  0  0  # atno 6908 bound_to 6896
  150.8516  134.7873  159.7076 H   0  0  0  0  0  0  0  0  0  0  0  0  # atno 6909 bound_to 6896
  145.5437  140.9506  143.1537 H   0  0  0  0  0  0  0  0  0  0  0  0  # atno 7974 bound_to 7965
  156.1960  140.3062  155.9428 H   0  0  0  0  0  0  0  0  0  0  0  0  # atno 8008 bound_to 7997
  155.3065  140.0449  157.3049 H   0  0  0  0  0  0  0  0  0  0  0  0  # atno 8009 bound_to 7997
  154.5510  140.2291  155.8494 H   0  0  0  0  0  0  0  0  0  0  0  0  # atno 8010 bound_to 7997
  140.2005  143.3822  152.1133 H   0  0  0  0  0  0  0  0  0  0  0  0  # atno 10167 bound_to 10162
  157.2845  130.7271  149.6575 H   0  0  0  0  0  0  0  0  0  0  0  0  # atno 10718 bound_to 10713
  154.1769  135.6450  153.5024 H   0  0  0  0  0  0  0  0  0  0  0  0  # atno 10763 bound_to 10752
  153.0069  135.5397  154.6555 H   0  0  0  0  0  0  0  0  0  0  0  0  # atno 10764 bound_to 10752
  154.5908  135.2934  155.0609 H   0  0  0  0  0  0  0  0  0  0  0  0  # atno 10765 bound_to 10752
  140.6084  134.4875  157.5213 H   0  0  0  0  0  0  0  0  0  0  0  0  # atno 11005 bound_to 11000
  144.7564  139.7064  143.7252 LP  0  0  0  0  0  0  0  0  0  0  0  0  # atno 17320 bound_to 7965
  146.1964  139.5232  142.9772 LP  0  0  0  0  0  0  0  0  0  0  0  0  # atno 17321 bound_to 7965
  139.5219  144.7052  151.5376 LP  0  0  0  0  0  0  0  0  0  0  0  0  # atno 17342 bound_to 10162
  140.6393  143.8920  150.6677 LP  0  0  0  0  0  0  0  0  0  0  0  0  # atno 17343 bound_to 10162
  155.9665  130.4328  150.4978 LP  0  0  0  0  0  0  0  0  0  0  0  0  # atno 17370 bound_to 10713
  157.2929  131.0630  151.2122 LP  0  0  0  0  0  0  0  0  0  0  0  0  # atno 17371 bound_to 10713
  139.9203  134.8163  156.1234 LP  0  0  0  0  0  0  0  0  0  0  0  0  # atno 17394 bound_to 11000
  141.0825  133.6748  156.2366 LP  0  0  0  0  0  0  0  0  0  0  0  0  # atno 17395 bound_to 11000

$$$$
