#       Name:                AV-unprocessed.smi:72
#       Creating user name   scv26
#       Creation time:       Thu Mar 26 16:57:13 2020


#       File generated by GOLD software.
#

@<TRIPOS>MOLECULE
AV-unprocessed.smi:72
    41    42     1
SMALL
NO_CHARGES


@<TRIPOS>ATOM
      1 ****        -3.7938   2.6758  -2.0772 N.2            1 S1                 0.0000
      2 ****        -2.7730   2.1890  -1.4666 C.2            1 S1                 0.0000
      3 ****        -1.5043   1.9987  -2.0334 N.2            1 S1                 0.0000
      4 ****        -0.5680   1.4738  -1.3047 C.2            1 S1                 0.0000
      5 ****        -0.7965   1.0530   0.0727 N.am           1 S1                 0.0000
      6 ****         0.3001   0.4601   0.9445 C.3            1 S1                 0.0000
      7 ****         1.5034   0.3975   0.2389 O.3            1 S1                 0.0000
      8 ****         1.6410  -0.8869  -0.3558 C.3            1 S1                 0.0000
      9 ****         3.1126  -1.1430  -0.7121 C.3            1 S1                 0.0000
     10 ****         3.4182  -0.5413  -1.9520 O.3            1 S1                 0.0000
     11 ****         1.1037  -1.8040   0.7438 C.3            1 S1                 0.0000
     12 ****         0.6113  -3.0054   0.1847 O.3            1 S1                 0.0000
     13 ****        -0.0325  -0.9909   1.3613 C.3            1 S1                 0.0000
     14 ****        -0.0324  -1.1415   2.7660 O.3            1 S1                 0.0000
     15 ****        -2.0571   1.2955   0.6739 C.2            1 S1                 0.0000
     16 ****        -2.2880   1.0255   1.8525 O.2            1 S1                 0.0000
     17 ****        -2.9963   1.8406  -0.1286 N.am           1 S1                 0.0000
     18 ****         0.3968   1.1593   1.7773 H              1 S1                 0.0000
     19 ****         1.0053  -0.9601  -1.2405 H              1 S1                 0.0000
     20 ****         1.8843  -2.0128   1.4777 H              1 S1                 0.0000
     21 ****        -1.0004  -1.2892   0.9549 H              1 S1                 0.0000
     22 ****        -4.5905   2.7173  -1.4591 H              1 S1                 0.0000
     23 ****         0.4421   1.3217  -1.6850 H              1 S1                 0.0000
     24 ****         3.7808  -0.7737   0.0663 H              1 S1                 0.0000
     25 ****         3.2929  -2.2135  -0.8144 H              1 S1                 0.0000
     26 ****         4.3219  -0.7227  -2.1596 H              1 S1                 0.0000
     27 ****         0.2456  -3.5296   0.8810 H              1 S1                 0.0000
     28 ****        -0.7202  -0.6000   3.1232 H              1 S1                 0.0000
     29 ****        -3.9073   2.0117   0.2712 H              1 S1                 0.0000
     30 ****        -3.7980   2.9722  -3.0322 LP             1 S1                 0.0000
     31 ****        -1.3248   2.2625  -2.9811 LP             1 S1                 0.0000
     32 ****         2.2658   0.5573   0.8660 LP             1 S1                 0.0000
     33 ****         1.5072   1.0972  -0.4755 LP             1 S1                 0.0000
     34 ****         3.2783   0.4469  -1.8907 LP             1 S1                 0.0000
     35 ****         2.8265  -0.9183  -2.6645 LP             1 S1                 0.0000
     36 ****         1.3576  -3.5034  -0.2570 LP             1 S1                 0.0000
     37 ****        -0.0969  -2.7987  -0.4903 LP             1 S1                 0.0000
     38 ****         0.8509  -0.8543   3.1367 LP             1 S1                 0.0000
     39 ****        -0.1981  -2.0987   3.0033 LP             1 S1                 0.0000
     40 ****        -1.5729   0.6200   2.4219 LP             1 S1                 0.0000
     41 ****        -3.1906   1.2116   2.2405 LP             1 S1                 0.0000
@<TRIPOS>BOND
    1    1    2 2     
    2    1   22 1     
    3    2   17 1     
    4    2    3 1     
    5    3    4 2     
    6    4    5 1     
    7    4   23 1     
    8    5    6 1     
    9    5   15 am    
   10    6   18 1     
   11    6   13 1     
   12    6    7 1     
   13    7    8 1     
   14    8   19 1     
   15    8    9 1     
   16    8   11 1     
   17    9   10 1     
   18    9   24 1     
   19    9   25 1     
   20   10   26 1     
   21   11   20 1     
   22   11   12 1     
   23   11   13 1     
   24   12   27 1     
   25   13   21 1     
   26   13   14 1     
   27   14   28 1     
   28   15   16 2     
   29   15   17 am    
   30   17   29 1     
   31    1   30 1     
   32    3   31 1     
   33    7   32 1     
   34    7   33 1     
   35   10   34 1     
   36   10   35 1     
   37   12   36 1     
   38   12   37 1     
   39   14   38 1     
   40   14   39 1     
   41   16   40 1     
   42   16   41 1     
@<TRIPOS>SUBSTRUCTURE
      1 S1             1
@<TRIPOS>SET
LONE_PAIRS      STATIC     ATOMS    <user>   **** ""
12 30 31 32 33 34 35 36 37 38 39 40 41
DONOR_HYDROGENS      STATIC     ATOMS    <user>   **** ""
5 22 26 27 28 29
ATOM$BLUE        STATIC     ATOMS    COLORGROUP SYSTEM
12 30 31 32 33 34 35 36 37 38 39 40 41
ATOM$RED        STATIC     ATOMS    COLORGROUP SYSTEM
5 22 26 27 28 29
