AV-unprocessed.smi:2649|AV-procd|sdf|10289|dock6
  -GOLD-   2272014303D 1   1.00000     0.00000
 Structure written by MMmdl.
 34 35  0  0  0  0  0  0  0  0  1 V2000
  156.7028  139.9111  161.1114 C   0  0  0  0  0  0  0  0  0  0  0  0
  155.5381  140.8086  160.0494 S   0  0  0  0  0  0  0  0  0  0  0  0
  154.1490  141.0666  161.1944 C   0  0  0  0  0  0  0  0  0  0  0  0
  153.0602  141.9100  160.5499 C   0  0  0  0  0  0  0  0  0  0  0  0
  152.6128  141.4633  159.3553 N   0  0  0  0  0  0  0  0  0  0  0  0
  151.6495  142.1539  158.6982 C   0  0  0  0  0  0  0  0  0  0  0  0
  151.1211  141.7617  157.4400 N   0  0  0  0  0  0  0  0  0  0  0  0
  151.5401  140.7699  156.6303 C   0  0  0  0  0  0  0  0  0  0  0  0
  152.4900  140.0261  156.8793 O   0  0  0  0  0  0  0  0  0  0  0  0
  150.7340  140.5826  155.3362 C   0  0  2  0  0  0  0  0  0  0  0  0
  149.7495  141.7433  155.0612 C   0  0  0  0  0  0  0  0  0  0  0  0
  149.0265  141.4725  153.8673 O   0  0  0  0  0  0  0  0  0  0  0  0
  148.2881  140.2631  153.9717 C   0  0  0  0  0  0  0  0  0  0  0  0
  149.2629  139.1042  154.2368 C   0  0  0  0  0  0  0  0  0  0  0  0
  149.9879  139.3711  155.4303 O   0  0  0  0  0  0  0  0  0  0  0  0
  151.0951  143.3329  159.2427 C   0  0  0  0  0  0  0  0  0  0  0  0
  151.5518  143.7996  160.4900 C   0  0  0  0  0  0  0  0  0  0  0  0
  152.5542  143.0783  161.1637 C   0  0  0  0  0  0  0  0  0  0  0  0
  153.1266  143.6313  162.6979 Cl  0  0  0  0  0  0  0  0  0  0  0  0
  157.6448  139.7570  160.5852 H   0  0  0  0  0  0  0  0  0  0  0  0
  156.3031  138.9353  161.3864 H   0  0  0  0  0  0  0  0  0  0  0  0
  156.9031  140.4763  162.0217 H   0  0  0  0  0  0  0  0  0  0  0  0
  153.7531  140.0970  161.4995 H   0  0  0  0  0  0  0  0  0  0  0  0
  154.5118  141.5557  162.0985 H   0  0  0  0  0  0  0  0  0  0  0  0
  150.3350  142.3020  157.1088 H   0  0  0  0  0  0  0  0  0  0  0  0
  151.4471  140.5034  154.5137 H   0  0  0  0  0  0  0  0  0  0  0  0
  149.0565  141.8819  155.8934 H   0  0  0  0  0  0  0  0  0  0  0  0
  150.2870  142.6831  154.9294 H   0  0  0  0  0  0  0  0  0  0  0  0
  147.5472  140.3404  154.7691 H   0  0  0  0  0  0  0  0  0  0  0  0
  147.7442  140.0962  153.0419 H   0  0  0  0  0  0  0  0  0  0  0  0
  148.7165  138.1683  154.3535 H   0  0  0  0  0  0  0  0  0  0  0  0
  149.9499  138.9736  153.3992 H   0  0  0  0  0  0  0  0  0  0  0  0
  150.3264  143.8777  158.7139 H   0  0  0  0  0  0  0  0  0  0  0  0
  151.1372  144.6986  160.9218 H   0  0  0  0  0  0  0  0  0  0  0  0
  1  2  1  0  0  0  0
  1 20  1  0  0  0  0
  1 21  1  0  0  0  0
  1 22  1  0  0  0  0
  2  3  1  0  0  0  0
  3  4  1  0  0  0  0
  3 23  1  0  0  0  0
  3 24  1  0  0  0  0
  4 18  1  0  0  0  0
  4  5  2  0  0  0  0
  5  6  1  0  0  0  0
  6  7  1  0  0  0  0
  6 16  2  0  0  0  0
  7  8  1  0  0  0  0
  7 25  1  0  0  0  0
  8  9  2  0  0  0  0
  8 10  1  0  0  0  0
 10 15  1  0  0  0  0
 10 11  1  0  0  0  0
 10 26  1  0  0  0  0
 11 12  1  0  0  0  0
 11 27  1  0  0  0  0
 11 28  1  0  0  0  0
 12 13  1  0  0  0  0
 13 14  1  0  0  0  0
 13 29  1  0  0  0  0
 13 30  1  0  0  0  0
 14 15  1  0  0  0  0
 14 31  1  0  0  0  0
 14 32  1  0  0  0  0
 16 17  1  0  0  0  0
 16 33  1  0  0  0  0
 17 18  2  0  0  0  0
 17 34  1  0  0  0  0
 18 19  1  0  0  0  0
M  END
> <s_m_source_file>
AV-unprocessed.smi

> <i_m_source_file_index>
2649

> <i_lp_mmshare_version>
43012

> <i_f3d_flags>
0

> <s_epik_input>
W0NIM11TW0NIMl1jMW5jKFtjSF1bY0hdYzFDbClbTkhdQyg9TylbQ0BASF0yW0NIMl1PW0NIMl1bQ0gyXU8y

> <s_epik_cmdline>
J2VwaWtfcHl0aG9uJywgJy1waCcsICc3LjAnLCAnLXRuJywgJzgnLCAnLW1hJywgJzIwMCcsICctbWV0YWxfYmluZGluZycsICctaW1hZScsICc8aW5maWxlLm1hZT4nLCAnLW9tYWUnLCAnPG91dGZpbGUubWFlPic=

> <r_lp_tautomer_probability>
1

> <r_epik_Ionization_Penalty>
9.71596e-06

> <r_epik_Ionization_Penalty_Charging>
0

> <r_epik_Ionization_Penalty_Neutral>
9.71596e-06

> <r_epik_State_Penalty>
-0

> <r_epik_Charging_Adjusted_Penalty>
0

> <i_epik_Tot_Q>
0

> <i_epik_Tot_abs_Q>
0

> <r_epik_Metal_State_Penalty>
-0

> <b_epik_Metal_Only>
0

> <s_lp_Force_Field>
OPLS_2005

> <r_lp_Energy>
11.5794

> <b_lp_Chiralities_Consistent>
1

> <s_lp_Variant>
AV-unprocessed.smi:2649-1

> <Gold.Version>
5.8.1

> <Gold.Id.Protein>
6NUR|6NUR_protein|mol2

> <Gold.PLP.Fitness>
42.3152

> <Gold.PLP.PLP>
-37.6291

> <Gold.PLP.part.hbond>
-2.6699

> <Gold.PLP.part.metal>
0.0000

> <Gold.PLP.part.buried>
-2.0054

> <Gold.PLP.part.nonpolar>
-31.8734

> <Gold.PLP.part.repulsive>
0.6927

> <Gold.PLP.ligand.clash>
0.1467

> <Gold.PLP.ligand.torsion>
0.2611

> <Gold.PLP.Chemscore.Hbond>
1.7840

> <Gold.PLP.Chemscore.CHOScore>
0.0000

> <Gold.PLP.Chemscore.Metal>
0.0000

> <Gold.Chemscore.Hbonds>
donor molecule, donor type, donor heavy atom, donor atom, acceptor molecule, acceptor atom, score
      P1  H  7997  8008       L1     9  1.00
      P1  H  8011  8017       L1    12  0.74

> <Gold.PLP.Chemscore.Internal.Correction>
0.0031

> <Gold.Rescore>
     Score         DG    S(hbond)    S(metal)    S(lipo)     H(rot)  DE(clash)    DE(int)     intcor
     17.87     -19.51       1.60        0.00     103.57       1.34       0.03       1.60       ----

> <Gold.Chemscore.Fitness>
17.8748

> <Gold.Chemscore.DG>
-19.5074

> <Gold.Chemscore.ZeroCoef>
-5.4800

> <Gold.Chemscore.Hbond>
1.5995

> <Gold.Chemscore.Metal>
0.0000

> <Gold.Chemscore.Lipo>
103.5739

> <Gold.Chemscore.Internal_Hbond>
0.0000

> <Gold.Chemscore.DEClash>
0.0308

> <Gold.Chemscore.DEInternal>
1.6018

> <Gold.Chemscore.Rot>
1.3410

> <Gold.Chemscore.Internal.Correction>
   9.000000E+99

> <Gold.Chemscore.Hbonds>
donor molecule, donor type, donor heavy atom, donor atom, acceptor molecule, acceptor atom, score
      P1  H  7997  8008       L1     9  0.99
      P1  H  8011  8017       L1    12  0.57

> <Gold.Chemscore.Hbond.Weighted>
-5.3423

> <Gold.Chemscore.Metal.Weighted>
-0.0000

> <Gold.Chemscore.Lipo.Weighted>
-12.1182

> <Gold.Chemscore.Internal_Hbond.Weighted>
0.0000

> <Gold.Chemscore.DEClash.Weighted>
0.0308

> <Gold.Chemscore.DEInternal.Weighted>
1.6018

> <Gold.Chemscore.Rot.Weighted>
3.4331

> <Gold.Chemscore.Internal.Correction.Weighted>
   9.000000E+99

> <Gold.Protein.RotatedTorsions>
[ 6907 6896 6895 6894 ] final   44.34 input  -60.11 | X-H torsion
[ 7974 7965 7964 7962 ] final  124.39 input  175.53 | X-H torsion
[ 8008 7997 7996 7995 ] final  -51.95 input   59.86 | X-H torsion
[ 10167 10162 10161 10158 ] final   55.55 input  -65.29 | X-H torsion
[ 10718 10713 10712 10709 ] final -108.94 input   66.30 | X-H torsion
[ 10763 10752 10751 10750 ] final -152.66 input  -60.55 | X-H torsion
[ 11005 11000 10999 10996 ] final  -50.94 input  -57.11 | X-H torsion

> <Gold.Protein.ActiveResidues>
 VAL166  LYS551  ARG553  GLY616  TRP617  ASP618  TYR619  PRO620  LYS621  CYS622 
 ASP623  PHE694  ASN695  SER759  ASP760  ASP761  ALA762  ILE779  LEU786  VAL792 
 PHE793  MET794  SER795  GLU796  ALA797  LYS798  CYS799  TRP800  GLU811  SER814 

> <Gold.Protein.RotatedAtoms>
  152.2313  134.8319  160.0472 H   0  0  0  0  0  0  0  0  0  0  0  0  # atno 6907 bound_to 6896
  151.9067  133.3546  159.3857 H   0  0  0  0  0  0  0  0  0  0  0  0  # atno 6908 bound_to 6896
  150.7026  134.4699  159.5464 H   0  0  0  0  0  0  0  0  0  0  0  0  # atno 6909 bound_to 6896
  145.0849  139.3629  143.4890 H   0  0  0  0  0  0  0  0  0  0  0  0  # atno 7974 bound_to 7965
  154.4095  140.1235  156.4912 H   0  0  0  0  0  0  0  0  0  0  0  0  # atno 8008 bound_to 7997
  155.6988  140.3495  155.4905 H   0  0  0  0  0  0  0  0  0  0  0  0  # atno 8009 bound_to 7997
  155.9403  140.1086  157.1051 H   0  0  0  0  0  0  0  0  0  0  0  0  # atno 8010 bound_to 7997
  140.2182  144.3817  150.6461 H   0  0  0  0  0  0  0  0  0  0  0  0  # atno 10167 bound_to 10162
  156.0511  130.5738  150.8031 H   0  0  0  0  0  0  0  0  0  0  0  0  # atno 10718 bound_to 10713
  154.7980  135.3231  154.7621 H   0  0  0  0  0  0  0  0  0  0  0  0  # atno 10763 bound_to 10752
  153.8295  135.6880  153.4821 H   0  0  0  0  0  0  0  0  0  0  0  0  # atno 10764 bound_to 10752
  153.1681  135.4634  154.9807 H   0  0  0  0  0  0  0  0  0  0  0  0  # atno 10765 bound_to 10752
  141.0843  133.6646  156.3804 H   0  0  0  0  0  0  0  0  0  0  0  0  # atno 11005 bound_to 11000
  146.3531  140.0656  142.8626 LP  0  0  0  0  0  0  0  0  0  0  0  0  # atno 17320 bound_to 7965
  145.1134  140.9419  143.4643 LP  0  0  0  0  0  0  0  0  0  0  0  0  # atno 17321 bound_to 7965
  140.6274  143.2183  151.6567 LP  0  0  0  0  0  0  0  0  0  0  0  0  # atno 17342 bound_to 10162
  139.5154  144.3380  152.0766 LP  0  0  0  0  0  0  0  0  0  0  0  0  # atno 17343 bound_to 10162
  157.5438  131.0941  150.9791 LP  0  0  0  0  0  0  0  0  0  0  0  0  # atno 17370 bound_to 10713
  157.0067  130.5621  149.5316 LP  0  0  0  0  0  0  0  0  0  0  0  0  # atno 17371 bound_to 10713
  140.5397  134.6132  157.5376 LP  0  0  0  0  0  0  0  0  0  0  0  0  # atno 17394 bound_to 11000
  139.9660  134.7372  156.0137 LP  0  0  0  0  0  0  0  0  0  0  0  0  # atno 17395 bound_to 11000

$$$$
