AV-unprocessed.smi:618|AV-procd|sdf|3085|dock5
  -GOLD-   22720 0 03D 1   1.00000     0.00000
 Structure written by MMmdl.
 40 42  0  0  0  0  0  0  0  0  1 V2000
  150.9184  134.7050  155.6197 O   0  0  0  0  0  0  0  0  0  0  0  0
  150.2768  135.0954  154.6448 C   0  0  0  0  0  0  0  0  0  0  0  0
  149.4989  134.2958  153.9018 N   0  0  0  0  0  0  0  0  0  0  0  0
  149.2843  132.8722  154.1405 C   0  0  0  0  0  0  0  0  0  0  0  0
  147.8760  132.4314  153.7075 C   0  0  1  0  0  0  0  0  0  0  0  0
  147.4042  133.1836  152.4414 C   0  0  0  0  0  0  0  0  0  0  0  0
  146.1239  132.6608  152.0047 N   0  0  0  0  0  0  0  0  0  0  0  0
  145.5756  133.2066  150.7850 C   0  0  0  0  0  0  0  0  0  0  0  0
  144.4850  132.2006  150.3759 C   0  0  0  0  0  0  0  0  0  0  0  0
  144.8567  130.9024  151.1268 C   0  0  0  0  0  0  0  0  0  0  0  0
  146.2104  131.2485  151.7487 C   0  0  2  0  0  0  0  0  0  0  0  0
  146.6284  130.4917  153.0173 C   0  0  0  0  0  0  0  0  0  0  0  0
  147.8839  131.0211  153.4498 O   0  0  0  0  0  0  0  0  0  0  0  0
  150.2399  136.3609  154.1935 N   0  0  0  0  0  0  0  0  0  0  0  0
  150.9192  137.5029  154.6977 C   0  0  0  0  0  0  0  0  0  0  0  0
  151.8763  137.4681  155.7409 C   0  0  0  0  0  0  0  0  0  0  0  0
  152.4928  138.6705  156.1377 C   0  0  0  0  0  0  0  0  0  0  0  0
  152.1364  139.8605  155.4743 C   0  0  0  0  0  0  0  0  0  0  0  0
  151.2358  139.9066  154.4700 N   0  0  0  0  0  0  0  0  0  0  0  0
  150.6490  138.7499  154.0949 C   0  0  0  0  0  0  0  0  0  0  0  0
  149.0047  134.7041  153.1220 H   0  0  0  0  0  0  0  0  0  0  0  0
  150.0306  132.3286  153.5606 H   0  0  0  0  0  0  0  0  0  0  0  0
  149.4638  132.6173  155.1863 H   0  0  0  0  0  0  0  0  0  0  0  0
  147.1746  132.6313  154.5198 H   0  0  0  0  0  0  0  0  0  0  0  0
  147.3189  134.2511  152.6468 H   0  0  0  0  0  0  0  0  0  0  0  0
  148.1432  133.0710  151.6463 H   0  0  0  0  0  0  0  0  0  0  0  0
  145.1853  134.2136  150.9342 H   0  0  0  0  0  0  0  0  0  0  0  0
  146.3457  133.2520  150.0130 H   0  0  0  0  0  0  0  0  0  0  0  0
  143.4977  132.5470  150.6836 H   0  0  0  0  0  0  0  0  0  0  0  0
  144.4688  132.0582  149.2951 H   0  0  0  0  0  0  0  0  0  0  0  0
  144.1177  130.6917  151.9013 H   0  0  0  0  0  0  0  0  0  0  0  0
  144.9156  130.0361  150.4676 H   0  0  0  0  0  0  0  0  0  0  0  0
  146.9755  131.0750  150.9886 H   0  0  0  0  0  0  0  0  0  0  0  0
  145.8845  130.6021  153.8078 H   0  0  0  0  0  0  0  0  0  0  0  0
  146.7365  129.4262  152.8143 H   0  0  0  0  0  0  0  0  0  0  0  0
  149.6041  136.5394  153.4300 H   0  0  0  0  0  0  0  0  0  0  0  0
  152.1598  136.5506  156.2323 H   0  0  0  0  0  0  0  0  0  0  0  0
  153.2266  138.6791  156.9303 H   0  0  0  0  0  0  0  0  0  0  0  0
  152.5915  140.7993  155.7535 H   0  0  0  0  0  0  0  0  0  0  0  0
  149.9356  138.8246  153.2869 H   0  0  0  0  0  0  0  0  0  0  0  0
  1  2  2  0  0  0  0
  2  3  1  0  0  0  0
  2 14  1  0  0  0  0
  3  4  1  0  0  0  0
  3 21  1  0  0  0  0
  4  5  1  0  0  0  0
  4 22  1  0  0  0  0
  4 23  1  0  0  0  0
  5 13  1  0  0  0  0
  5  6  1  0  0  0  0
  5 24  1  0  0  0  0
  6  7  1  0  0  0  0
  6 25  1  0  0  0  0
  6 26  1  0  0  0  0
  7 11  1  0  0  0  0
  7  8  1  0  0  0  0
  8  9  1  0  0  0  0
  8 27  1  0  0  0  0
  8 28  1  0  0  0  0
  9 10  1  0  0  0  0
  9 29  1  0  0  0  0
  9 30  1  0  0  0  0
 10 11  1  0  0  0  0
 10 31  1  0  0  0  0
 10 32  1  0  0  0  0
 11 12  1  0  0  0  0
 11 33  1  0  0  0  0
 12 13  1  0  0  0  0
 12 34  1  0  0  0  0
 12 35  1  0  0  0  0
 14 15  1  0  0  0  0
 14 36  1  0  0  0  0
 15 20  1  0  0  0  0
 15 16  2  0  0  0  0
 16 17  1  0  0  0  0
 16 37  1  0  0  0  0
 17 18  2  0  0  0  0
 17 38  1  0  0  0  0
 18 19  1  0  0  0  0
 18 39  1  0  0  0  0
 19 20  2  0  0  0  0
 20 40  1  0  0  0  0
M  END
> <s_m_source_file>
AV-unprocessed.smi

> <i_m_source_file_index>
618

> <i_lp_mmshare_version>
43012

> <i_f3d_flags>
0

> <s_epik_input>
W2NIXTFuW2NIXVtjSF1bY0hdYzFbTkhdQyg9TylbTkhdW0NIMl1bQ0BIXShbQ0gyXTIpT1tDSDJdW0NAQEhdKE4yMylbQ0gyXVtDSDJdW0NIMl0z

> <s_epik_cmdline>
J2VwaWtfcHl0aG9uJywgJy1waCcsICc3LjAnLCAnLXRuJywgJzgnLCAnLW1hJywgJzIwMCcsICctbWV0YWxfYmluZGluZycsICctaW1hZScsICc8aW5maWxlLm1hZT4nLCAnLW9tYWUnLCAnPG91dGZpbGUubWFlPic=

> <r_epik_Ionization_Penalty>
1.07277

> <r_epik_Ionization_Penalty_Charging>
0

> <r_epik_Ionization_Penalty_Neutral>
1.07277

> <r_epik_State_Penalty>
1.13623

> <r_epik_Charging_Adjusted_Penalty>
1.13623

> <i_epik_Tot_Q>
0

> <i_epik_Tot_abs_Q>
0

> <r_epik_Metal_State_Penalty>
1.13277

> <b_epik_Metal_Only>
0

> <s_lp_Force_Field>
OPLS_2005

> <r_lp_Energy>
50.6397

> <b_lp_Chiralities_Consistent>
1

> <s_lp_Variant>
AV-unprocessed.smi:618-12

> <Gold.Version>
5.8.1

> <Gold.Id.Protein>
6NUR|6NUR_protein|mol2

> <Gold.PLP.Fitness>
46.8441

> <Gold.PLP.PLP>
-36.5985

> <Gold.PLP.part.hbond>
-4.0413

> <Gold.PLP.part.metal>
0.0000

> <Gold.PLP.part.buried>
-3.4996

> <Gold.PLP.part.nonpolar>
-29.1157

> <Gold.PLP.part.repulsive>
0.4211

> <Gold.PLP.ligand.clash>
0.0000

> <Gold.PLP.ligand.torsion>
0.4422

> <Gold.PLP.Chemscore.Hbond>
2.7168

> <Gold.PLP.Chemscore.CHOScore>
0.9929

> <Gold.PLP.Chemscore.Metal>
0.0000

> <Gold.Chemscore.Hbonds>
donor molecule, donor type, donor heavy atom, donor atom, acceptor molecule, acceptor atom, score
      L1  H     3    21       P1  7948  0.63
      L1  H    14    36       P1  7948  1.00
      P1  H  7989  7998       L1    19  0.73
      P1  H 10752 10763       L1     1  0.07
      L1  C    20    40       P1  7957  1.00

> <Gold.PLP.Chemscore.Internal.Correction>
0.0010

> <Gold.Rescore>
     Score         DG    S(hbond)    S(metal)    S(lipo)     H(rot)  DE(clash)    DE(int)     intcor
     17.73     -19.49       1.90        0.00      92.65       1.25       0.08       1.67       ----

> <Gold.Chemscore.Fitness>
17.7345

> <Gold.Chemscore.DG>
-19.4853

> <Gold.Chemscore.ZeroCoef>
-5.4800

> <Gold.Chemscore.Hbond>
1.9028

> <Gold.Chemscore.Metal>
0.0000

> <Gold.Chemscore.Lipo>
92.6497

> <Gold.Chemscore.Internal_Hbond>
0.0000

> <Gold.Chemscore.DEClash>
0.0794

> <Gold.Chemscore.DEInternal>
1.6714

> <Gold.Chemscore.Rot>
1.2461

> <Gold.Chemscore.Internal.Correction>
   9.000000E+99

> <Gold.Chemscore.Hbonds>
donor molecule, donor type, donor heavy atom, donor atom, acceptor molecule, acceptor atom, score
      L1  H     3    21       P1  7948  0.06
      L1  H    14    36       P1  7948  0.53
      P1  H  7989  7998       L1    19  0.53
      P1  H 10752 10763       L1     1  0.03

> <Gold.Chemscore.Hbond.Weighted>
-6.3554

> <Gold.Chemscore.Metal.Weighted>
-0.0000

> <Gold.Chemscore.Lipo.Weighted>
-10.8400

> <Gold.Chemscore.Internal_Hbond.Weighted>
0.0000

> <Gold.Chemscore.DEClash.Weighted>
0.0794

> <Gold.Chemscore.DEInternal.Weighted>
1.6714

> <Gold.Chemscore.Rot.Weighted>
3.1901

> <Gold.Chemscore.Internal.Correction.Weighted>
   9.000000E+99

> <Gold.Protein.RotatedTorsions>
[ 6907 6896 6895 6894 ] final  145.27 input  -60.11 | X-H torsion
[ 7974 7965 7964 7962 ] final  101.15 input  175.53 | X-H torsion
[ 8008 7997 7996 7995 ] final   59.03 input   59.86 | X-H torsion
[ 10167 10162 10161 10158 ] final  164.07 input  -65.29 | X-H torsion
[ 10718 10713 10712 10709 ] final -127.50 input   66.30 | X-H torsion
[ 10763 10752 10751 10750 ] final   89.12 input  -60.55 | X-H torsion
[ 11005 11000 10999 10996 ] final  101.91 input  -57.11 | X-H torsion

> <Gold.Protein.ActiveResidues>
 VAL166  LYS551  ARG553  GLY616  TRP617  ASP618  TYR619  PRO620  LYS621  CYS622 
 ASP623  PHE694  ASN695  SER759  ASP760  ASP761  ALA762  ILE779  LEU786  VAL792 
 PHE793  MET794  SER795  GLU796  ALA797  LYS798  CYS799  TRP800  GLU811  SER814 

> <Gold.Protein.RotatedAtoms>
  152.1830  133.4720  159.4967 H   0  0  0  0  0  0  0  0  0  0  0  0  # atno 6907 bound_to 6896
  150.6937  134.1809  159.4257 H   0  0  0  0  0  0  0  0  0  0  0  0  # atno 6908 bound_to 6896
  151.9721  135.0071  160.0604 H   0  0  0  0  0  0  0  0  0  0  0  0  # atno 6909 bound_to 6896
  145.3762  139.2388  143.3428 H   0  0  0  0  0  0  0  0  0  0  0  0  # atno 7974 bound_to 7965
  155.5597  140.3488  155.4488 H   0  0  0  0  0  0  0  0  0  0  0  0  # atno 8008 bound_to 7997
  156.0523  140.1320  157.0061 H   0  0  0  0  0  0  0  0  0  0  0  0  # atno 8009 bound_to 7997
  154.4440  140.1002  156.6380 H   0  0  0  0  0  0  0  0  0  0  0  0  # atno 8010 bound_to 7997
  139.4883  144.4272  151.9114 H   0  0  0  0  0  0  0  0  0  0  0  0  # atno 10167 bound_to 10162
  156.1863  130.6766  151.0368 H   0  0  0  0  0  0  0  0  0  0  0  0  # atno 10718 bound_to 10713
  153.1838  135.4482  155.0063 H   0  0  0  0  0  0  0  0  0  0  0  0  # atno 10763 bound_to 10752
  154.8047  135.3270  154.7463 H   0  0  0  0  0  0  0  0  0  0  0  0  # atno 10764 bound_to 10752
  153.7924  135.6969  153.4924 H   0  0  0  0  0  0  0  0  0  0  0  0  # atno 10765 bound_to 10752
  139.8775  134.9202  156.4978 H   0  0  0  0  0  0  0  0  0  0  0  0  # atno 11005 bound_to 11000
  146.2863  140.4421  142.8757 LP  0  0  0  0  0  0  0  0  0  0  0  0  # atno 17320 bound_to 7965
  144.8540  140.7044  143.6149 LP  0  0  0  0  0  0  0  0  0  0  0  0  # atno 17321 bound_to 7965
  140.3719  144.2845  150.5919 LP  0  0  0  0  0  0  0  0  0  0  0  0  # atno 17342 bound_to 10162
  140.5312  143.2243  151.8236 LP  0  0  0  0  0  0  0  0  0  0  0  0  # atno 17343 bound_to 10162
  157.6901  131.0813  150.7132 LP  0  0  0  0  0  0  0  0  0  0  0  0  # atno 17370 bound_to 10713
  156.7189  130.4674  149.5528 LP  0  0  0  0  0  0  0  0  0  0  0  0  # atno 17371 bound_to 10713
  140.8611  133.8059  155.9266 LP  0  0  0  0  0  0  0  0  0  0  0  0  # atno 17394 bound_to 11000
  140.9048  134.2334  157.5021 LP  0  0  0  0  0  0  0  0  0  0  0  0  # atno 17395 bound_to 11000

$$$$
