AV-unprocessed.smi:2310|AV-procd|sdf|9259|dock8
  -GOLD-   2272012483D 1   1.00000     0.00000
 Structure written by MMmdl.
 45 46  0  0  0  0  0  0  0  0  3 V2000
  154.9725  133.2968  165.0580 C   0  0  0  0  0  0  0  0  0  0  0  0
  155.5707  134.3935  164.1547 C   0  0  0  0  0  0  0  0  0  0  0  0
  155.0059  134.4422  162.7168 C   0  0  2  0  0  0  0  0  0  0  0  0
  155.3782  133.1675  161.9384 C   0  0  0  0  0  0  0  0  0  0  0  0
  154.9661  133.1807  160.5233 C   0  0  0  0  0  0  0  0  0  0  0  0
  154.6390  133.1947  159.4119 N   0  0  0  0  0  0  0  0  0  0  0  0
  155.5552  135.6072  162.0122 N   0  5  0  0  0  0  0  0  0  0  0  0
  154.8167  136.5670  161.3934 C   0  0  0  0  0  0  0  0  0  0  0  0
  153.8253  136.4102  160.6714 O   0  0  0  0  0  0  0  0  0  0  0  0
  155.2940  137.8015  161.6277 N   0  0  0  0  0  0  0  0  0  0  0  0
  154.7842  139.0493  161.1773 C   0  0  0  0  0  0  0  0  0  0  0  0
  153.8002  139.1508  160.1634 C   0  0  0  0  0  0  0  0  0  0  0  0
  153.3181  140.4195  159.7853 C   0  0  0  0  0  0  0  0  0  0  0  0
  153.8165  141.5724  160.4338 C   0  0  0  0  0  0  0  0  0  0  0  0
  153.3989  142.8773  160.1363 N   0  0  0  0  0  0  0  0  0  0  0  0
  152.7281  143.5625  161.2282 C   0  0  0  0  0  0  0  0  0  0  0  0
  152.0008  144.7465  160.5863 C   0  0  0  0  0  0  0  0  0  0  0  0
  151.8520  144.3640  159.1089 C   0  0  0  0  0  0  0  0  0  0  0  0
  152.5152  142.9892  158.9876 C   0  0  0  0  0  0  0  0  0  0  0  0
  154.7413  141.4311  161.4077 N   0  3  0  0  0  0  0  0  0  0  0  0
  155.2333  140.2358  161.8039 C   0  0  0  0  0  0  0  0  0  0  0  0
  156.2674  140.2366  162.9144 C   0  0  0  0  0  0  0  0  0  0  0  0
  155.4555  133.3090  166.0351 H   0  0  0  0  0  0  0  0  0  0  0  0
  155.1152  132.2982  164.6413 H   0  0  0  0  0  0  0  0  0  0  0  0
  153.9045  133.4407  165.2299 H   0  0  0  0  0  0  0  0  0  0  0  0
  155.4466  135.3655  164.6343 H   0  0  0  0  0  0  0  0  0  0  0  0
  156.6470  134.2275  164.0996 H   0  0  0  0  0  0  0  0  0  0  0  0
  153.9173  134.4711  162.7872 H   0  0  0  0  0  0  0  0  0  0  0  0
  156.4541  132.9929  161.9751 H   0  0  0  0  0  0  0  0  0  0  0  0
  154.9016  132.2997  162.3948 H   0  0  0  0  0  0  0  0  0  0  0  0
  156.1713  137.8394  162.1256 H   0  0  0  0  0  0  0  0  0  0  0  0
  153.3982  138.2725  159.6812 H   0  0  0  0  0  0  0  0  0  0  0  0
  152.5692  140.4978  159.0111 H   0  0  0  0  0  0  0  0  0  0  0  0
  152.0102  142.9011  161.7150 H   0  0  0  0  0  0  0  0  0  0  0  0
  153.4439  143.8934  161.9813 H   0  0  0  0  0  0  0  0  0  0  0  0
  151.0396  144.9345  161.0657 H   0  0  0  0  0  0  0  0  0  0  0  0
  152.5997  145.6536  160.6764 H   0  0  0  0  0  0  0  0  0  0  0  0
  150.8092  144.3342  158.7913 H   0  0  0  0  0  0  0  0  0  0  0  0
  152.3686  145.0930  158.4833 H   0  0  0  0  0  0  0  0  0  0  0  0
  153.0732  142.8962  158.0553 H   0  0  0  0  0  0  0  0  0  0  0  0
  151.7576  142.2048  159.0047 H   0  0  0  0  0  0  0  0  0  0  0  0
  155.9040  139.6674  163.7708 H   0  0  0  0  0  0  0  0  0  0  0  0
  156.4912  141.2498  163.2502 H   0  0  0  0  0  0  0  0  0  0  0  0
  157.1958  139.7818  162.5674 H   0  0  0  0  0  0  0  0  0  0  0  0
  155.0873  142.2714  161.8708 H   0  0  0  0  0  0  0  0  0  0  0  0
  1  2  1  0  0  0  0
  1 23  1  0  0  0  0
  1 24  1  0  0  0  0
  1 25  1  0  0  0  0
  2  3  1  0  0  0  0
  2 26  1  0  0  0  0
  2 27  1  0  0  0  0
  3  4  1  0  0  0  0
  3  7  1  0  0  0  0
  3 28  1  0  0  0  0
  4  5  1  0  0  0  0
  4 29  1  0  0  0  0
  4 30  1  0  0  0  0
  5  6  3  0  0  0  0
  7  8  1  0  0  0  0
  8  9  2  0  0  0  0
  8 10  1  0  0  0  0
 10 11  1  0  0  0  0
 10 31  1  0  0  0  0
 11 21  1  0  0  0  0
 11 12  2  0  0  0  0
 12 13  1  0  0  0  0
 12 32  1  0  0  0  0
 13 14  2  0  0  0  0
 13 33  1  0  0  0  0
 14 15  1  0  0  0  0
 14 20  1  0  0  0  0
 15 19  1  0  0  0  0
 15 16  1  0  0  0  0
 16 17  1  0  0  0  0
 16 34  1  0  0  0  0
 16 35  1  0  0  0  0
 17 18  1  0  0  0  0
 17 36  1  0  0  0  0
 17 37  1  0  0  0  0
 18 19  1  0  0  0  0
 18 38  1  0  0  0  0
 18 39  1  0  0  0  0
 19 40  1  0  0  0  0
 19 41  1  0  0  0  0
 20 21  2  0  0  0  0
 20 45  1  0  0  0  0
 21 22  1  0  0  0  0
 22 42  1  0  0  0  0
 22 43  1  0  0  0  0
 22 44  1  0  0  0  0
M  CHG  1   7  -1
M  CHG  1  20   1
M  END
> <s_m_source_file>
AV-unprocessed.smi

> <i_m_source_file_index>
2310

> <i_lp_mmshare_version>
43012

> <i_f3d_flags>
0

> <s_epik_input>
TiNDW0NIMl1bQ0BASF0oW0NIMl1bQ0gzXSlbTkhdQyg9TylbTkhdYzFbY0hdW2NIXWMobmMxW0NIM10pTjJbQ0gyXVtDSDJdW0NIMl1bQ0gyXTI=

> <s_epik_cmdline>
J2VwaWtfcHl0aG9uJywgJy1waCcsICc3LjAnLCAnLXRuJywgJzgnLCAnLW1hJywgJzIwMCcsICctbWV0YWxfYmluZGluZycsICctaW1hZScsICc8aW5maWxlLm1hZT4nLCAnLW9tYWUnLCAnPG91dGZpbGUubWFlPic=

> <r_lp_tautomer_probability>
0.999994

> <r_epik_Ionization_Penalty>
7.34515

> <r_epik_Ionization_Penalty_Charging>
7.34514

> <r_epik_Ionization_Penalty_Neutral>
2.56118e-06

> <r_epik_State_Penalty>
6.99243

> <r_epik_Charging_Adjusted_Penalty>
14.3376

> <i_epik_Tot_Q>
0

> <i_epik_Tot_abs_Q>
2

> <r_epik_Metal_State_Penalty>
3.10684

> <b_epik_Metal_Only>
1

> <s_lp_Force_Field>
OPLS_2005

> <r_lp_Energy>
38.8935

> <b_lp_Chiralities_Consistent>
1

> <s_lp_Variant>
AV-unprocessed.smi:2310-5

> <Gold.Version>
5.8.1

> <Gold.Id.Protein>
6NUR|6NUR_protein|mol2

> <Gold.PLP.Fitness>
46.0457

> <Gold.PLP.PLP>
-45.1701

> <Gold.PLP.part.hbond>
-1.5916

> <Gold.PLP.part.metal>
0.0000

> <Gold.PLP.part.buried>
-5.8240

> <Gold.PLP.part.nonpolar>
-37.3362

> <Gold.PLP.part.repulsive>
0.0000

> <Gold.PLP.ligand.clash>
0.0000

> <Gold.PLP.ligand.torsion>
0.5151

> <Gold.PLP.Chemscore.Hbond>
0.6175

> <Gold.PLP.Chemscore.CHOScore>
0.0000

> <Gold.PLP.Chemscore.Metal>
0.0000

> <Gold.Chemscore.Hbonds>
donor molecule, donor type, donor heavy atom, donor atom, acceptor molecule, acceptor atom, score
      P1  H  6896  6909       L1     9  0.42

> <Gold.PLP.Chemscore.Internal.Correction>
0.0533

> <Gold.Rescore>
     Score         DG    S(hbond)    S(metal)    S(lipo)     H(rot)  DE(clash)    DE(int)     intcor
     15.28     -17.15       1.00        0.00     107.37       1.65       0.06       1.81       ----

> <Gold.Chemscore.Fitness>
15.2847

> <Gold.Chemscore.DG>
-17.1524

> <Gold.Chemscore.ZeroCoef>
-5.4800

> <Gold.Chemscore.Hbond>
0.9992

> <Gold.Chemscore.Metal>
0.0000

> <Gold.Chemscore.Lipo>
107.3725

> <Gold.Chemscore.Internal_Hbond>
0.0000

> <Gold.Chemscore.DEClash>
0.0605

> <Gold.Chemscore.DEInternal>
1.8072

> <Gold.Chemscore.Rot>
1.6514

> <Gold.Chemscore.Internal.Correction>
   9.000000E+99

> <Gold.Chemscore.Hbonds>
donor molecule, donor type, donor heavy atom, donor atom, acceptor molecule, acceptor atom, score
      P1  H  6896  6909       L1     9  0.44

> <Gold.Chemscore.Hbond.Weighted>
-3.3374

> <Gold.Chemscore.Metal.Weighted>
-0.0000

> <Gold.Chemscore.Lipo.Weighted>
-12.5626

> <Gold.Chemscore.Internal_Hbond.Weighted>
0.0000

> <Gold.Chemscore.DEClash.Weighted>
0.0605

> <Gold.Chemscore.DEInternal.Weighted>
1.8072

> <Gold.Chemscore.Rot.Weighted>
4.2276

> <Gold.Chemscore.Internal.Correction.Weighted>
   9.000000E+99

> <Gold.Protein.RotatedTorsions>
[ 6907 6896 6895 6894 ] final  162.63 input  -60.11 | X-H torsion
[ 7974 7965 7964 7962 ] final  -69.36 input  175.53 | X-H torsion
[ 8008 7997 7996 7995 ] final  147.11 input   59.86 | X-H torsion
[ 10167 10162 10161 10158 ] final  -23.26 input  -65.29 | X-H torsion
[ 10718 10713 10712 10709 ] final   -4.39 input   66.30 | X-H torsion
[ 10763 10752 10751 10750 ] final   35.33 input  -60.55 | X-H torsion
[ 11005 11000 10999 10996 ] final -154.07 input  -57.11 | X-H torsion

> <Gold.Protein.ActiveResidues>
 VAL166  LYS551  ARG553  GLY616  TRP617  ASP618  TYR619  PRO620  LYS621  CYS622 
 ASP623  PHE694  ASN695  SER759  ASP760  ASP761  ALA762  ILE779  LEU786  VAL792 
 PHE793  MET794  SER795  GLU796  ALA797  LYS798  CYS799  TRP800  GLU811  SER814 

> <Gold.Protein.RotatedAtoms>
  151.9376  133.3628  159.3952 H   0  0  0  0  0  0  0  0  0  0  0  0  # atno 6907 bound_to 6896
  150.7005  134.4473  159.5329 H   0  0  0  0  0  0  0  0  0  0  0  0  # atno 6908 bound_to 6896
  152.2124  134.8489  160.0546 H   0  0  0  0  0  0  0  0  0  0  0  0  # atno 6909 bound_to 6896
  145.7048  140.9102  143.0712 H   0  0  0  0  0  0  0  0  0  0  0  0  # atno 7974 bound_to 7965
  156.2835  140.2164  156.5485 H   0  0  0  0  0  0  0  0  0  0  0  0  # atno 8008 bound_to 7997
  154.7311  140.0495  157.0749 H   0  0  0  0  0  0  0  0  0  0  0  0  # atno 8009 bound_to 7997
  155.0352  140.3139  155.4747 H   0  0  0  0  0  0  0  0  0  0  0  0  # atno 8010 bound_to 7997
  140.7288  143.4459  151.0588 H   0  0  0  0  0  0  0  0  0  0  0  0  # atno 10167 bound_to 10162
  156.7620  130.5272  149.5783 H   0  0  0  0  0  0  0  0  0  0  0  0  # atno 10718 bound_to 10713
  153.0124  135.6336  154.1810 H   0  0  0  0  0  0  0  0  0  0  0  0  # atno 10763 bound_to 10752
  154.1551  135.2826  155.3126 H   0  0  0  0  0  0  0  0  0  0  0  0  # atno 10764 bound_to 10752
  154.6024  135.5583  153.7449 H   0  0  0  0  0  0  0  0  0  0  0  0  # atno 10765 bound_to 10752
  140.7013  134.3934  157.5209 H   0  0  0  0  0  0  0  0  0  0  0  0  # atno 11005 bound_to 11000
  144.6958  139.8996  143.7458 LP  0  0  0  0  0  0  0  0  0  0  0  0  # atno 17320 bound_to 7965
  146.0765  139.3753  143.0490 LP  0  0  0  0  0  0  0  0  0  0  0  0  # atno 17321 bound_to 7965
  139.8130  143.7924  152.3172 LP  0  0  0  0  0  0  0  0  0  0  0  0  # atno 17342 bound_to 10162
  139.7980  144.7385  150.9863 LP  0  0  0  0  0  0  0  0  0  0  0  0  # atno 17343 bound_to 10162
  156.1333  130.6193  151.0364 LP  0  0  0  0  0  0  0  0  0  0  0  0  # atno 17370 bound_to 10713
  157.6730  131.0857  150.7564 LP  0  0  0  0  0  0  0  0  0  0  0  0  # atno 17371 bound_to 10713
  139.8896  134.8826  156.2413 LP  0  0  0  0  0  0  0  0  0  0  0  0  # atno 17394 bound_to 11000
  141.0161  133.7068  156.1191 LP  0  0  0  0  0  0  0  0  0  0  0  0  # atno 17395 bound_to 11000

$$$$
