AV-unprocessed.smi:2244|AV-procd|sdf|9073|dock5
  -GOLD-   2272012273D 1   1.00000     0.00000
 Structure written by MMmdl.
 49 51  0  0  0  0  0  0  0  0  1 V2000
  152.5823  144.5767  158.2174 C   0  0  0  0  0  0  0  0  0  0  0  0
  151.6334  143.9230  159.2471 C   0  0  0  0  0  0  0  0  0  0  0  0
  152.4047  143.8001  160.5777 C   0  0  0  0  0  0  0  0  0  0  0  0
  150.4254  144.8661  159.4262 C   0  0  0  0  0  0  0  0  0  0  0  0
  151.1469  142.5334  158.7985 C   0  0  0  0  0  0  0  0  0  0  0  0
  152.0224  141.4656  158.4992 C   0  0  0  0  0  0  0  0  0  0  0  0
  151.4529  140.2436  158.1030 C   0  0  0  0  0  0  0  0  0  0  0  0
  150.0489  140.1463  158.0240 C   0  0  0  0  0  0  0  0  0  0  0  0
  149.5596  138.8708  157.6153 N   0  0  0  0  0  0  0  0  0  0  0  0
  150.0999  137.9149  156.8293 C   0  0  0  0  0  0  0  0  0  0  0  0
  151.2099  138.0660  156.3213 O   0  0  0  0  0  0  0  0  0  0  0  0
  149.3606  136.8093  156.6418 N   0  0  0  0  0  0  0  0  0  0  0  0
  149.7437  135.6553  155.8357 C   0  0  1  0  0  0  0  0  0  0  0  0
  150.3471  134.5487  156.7162 C   0  0  0  0  0  0  0  0  0  0  0  0
  150.5903  133.2740  155.8931 C   0  0  0  0  0  0  0  0  0  0  0  0
  149.3780  132.8521  155.2776 O   0  0  0  0  0  0  0  0  0  0  0  0
  148.8565  133.8037  154.3547 C   0  0  1  0  0  0  0  0  0  0  0  0
  147.6372  133.1959  153.6900 C   0  0  0  0  0  0  0  0  0  0  0  0
  147.5679  133.0471  152.1882 C   0  0  0  0  0  0  0  0  0  0  0  0
  146.6872  134.0541  152.8875 C   0  0  0  0  0  0  0  0  0  0  0  0
  148.5121  135.1057  155.1013 C   0  0  0  0  0  0  0  0  0  0  0  0
  149.2702  141.2163  158.3273 N   0  0  0  0  0  0  0  0  0  0  0  0
  149.8036  142.3809  158.7060 N   0  0  0  0  0  0  0  0  0  0  0  0
  152.9114  145.5608  158.5529 H   0  0  0  0  0  0  0  0  0  0  0  0
  152.0943  144.7164  157.2520 H   0  0  0  0  0  0  0  0  0  0  0  0
  153.4802  143.9782  158.0590 H   0  0  0  0  0  0  0  0  0  0  0  0
  153.2632  143.1348  160.4772 H   0  0  0  0  0  0  0  0  0  0  0  0
  151.7755  143.4050  161.3758 H   0  0  0  0  0  0  0  0  0  0  0  0
  152.7772  144.7687  160.9127 H   0  0  0  0  0  0  0  0  0  0  0  0
  150.7422  145.8660  159.7249 H   0  0  0  0  0  0  0  0  0  0  0  0
  149.7391  144.5055  160.1932 H   0  0  0  0  0  0  0  0  0  0  0  0
  149.8594  144.9637  158.4992 H   0  0  0  0  0  0  0  0  0  0  0  0
  153.0957  141.5531  158.5646 H   0  0  0  0  0  0  0  0  0  0  0  0
  152.0855  139.4005  157.8658 H   0  0  0  0  0  0  0  0  0  0  0  0
  148.6435  138.6441  157.9738 H   0  0  0  0  0  0  0  0  0  0  0  0
  148.4595  136.7657  157.0970 H   0  0  0  0  0  0  0  0  0  0  0  0
  150.4796  135.9615  155.0896 H   0  0  0  0  0  0  0  0  0  0  0  0
  151.2817  134.8851  157.1659 H   0  0  0  0  0  0  0  0  0  0  0  0
  149.6692  134.3189  157.5396 H   0  0  0  0  0  0  0  0  0  0  0  0
  151.3570  133.4408  155.1351 H   0  0  0  0  0  0  0  0  0  0  0  0
  150.9527  132.4750  156.5400 H   0  0  0  0  0  0  0  0  0  0  0  0
  149.6056  134.0066  153.5868 H   0  0  0  0  0  0  0  0  0  0  0  0
  147.1785  132.3951  154.2667 H   0  0  0  0  0  0  0  0  0  0  0  0
  148.4004  133.4300  151.6015 H   0  0  0  0  0  0  0  0  0  0  0  0
  147.0941  132.1500  151.7951 H   0  0  0  0  0  0  0  0  0  0  0  0
  145.6252  133.8297  152.9603 H   0  0  0  0  0  0  0  0  0  0  0  0
  146.9341  135.1068  152.7662 H   0  0  0  0  0  0  0  0  0  0  0  0
  147.7110  134.9118  155.8168 H   0  0  0  0  0  0  0  0  0  0  0  0
  148.1307  135.8495  154.4004 H   0  0  0  0  0  0  0  0  0  0  0  0
  1  2  1  0  0  0  0
  1 24  1  0  0  0  0
  1 25  1  0  0  0  0
  1 26  1  0  0  0  0
  2  3  1  0  0  0  0
  2  4  1  0  0  0  0
  2  5  1  0  0  0  0
  3 27  1  0  0  0  0
  3 28  1  0  0  0  0
  3 29  1  0  0  0  0
  4 30  1  0  0  0  0
  4 31  1  0  0  0  0
  4 32  1  0  0  0  0
  5 23  1  0  0  0  0
  5  6  2  0  0  0  0
  6  7  1  0  0  0  0
  6 33  1  0  0  0  0
  7  8  2  0  0  0  0
  7 34  1  0  0  0  0
  8  9  1  0  0  0  0
  8 22  1  0  0  0  0
  9 10  1  0  0  0  0
  9 35  1  0  0  0  0
 10 11  2  0  0  0  0
 10 12  1  0  0  0  0
 12 13  1  0  0  0  0
 12 36  1  0  0  0  0
 13 21  1  0  0  0  0
 13 14  1  0  0  0  0
 13 37  1  0  0  0  0
 14 15  1  0  0  0  0
 14 38  1  0  0  0  0
 14 39  1  0  0  0  0
 15 16  1  0  0  0  0
 15 40  1  0  0  0  0
 15 41  1  0  0  0  0
 16 17  1  0  0  0  0
 17 18  1  0  0  0  0
 17 21  1  0  0  0  0
 17 42  1  0  0  0  0
 18 20  1  0  0  0  0
 18 19  1  0  0  0  0
 18 43  1  0  0  0  0
 19 20  1  0  0  0  0
 19 44  1  0  0  0  0
 19 45  1  0  0  0  0
 20 46  1  0  0  0  0
 20 47  1  0  0  0  0
 21 48  1  0  0  0  0
 21 49  1  0  0  0  0
 22 23  2  0  0  0  0
M  END
> <s_m_source_file>
AV-unprocessed.smi

> <i_m_source_file_index>
2244

> <i_lp_mmshare_version>
43012

> <i_f3d_flags>
0

> <s_epik_input>
W0NIM11DKFtDSDNdKShbQ0gzXSljMVtjSF1bY0hdYyhubjEpW05IXUMoPU8pW05IXVtDQEBIXTJbQ0gyXVtDSDJdT1tDQEhdKFtDSDJdMilbQ0hdM1tDSDJdW0NIMl0z

> <s_epik_cmdline>
J2VwaWtfcHl0aG9uJywgJy1waCcsICc3LjAnLCAnLXRuJywgJzgnLCAnLW1hJywgJzIwMCcsICctbWV0YWxfYmluZGluZycsICctaW1hZScsICc8aW5maWxlLm1hZT4nLCAnLW9tYWUnLCAnPG91dGZpbGUubWFlPic=

> <r_lp_tautomer_probability>
1

> <r_epik_Ionization_Penalty>
0.011369

> <r_epik_Ionization_Penalty_Charging>
0

> <r_epik_Ionization_Penalty_Neutral>
0.011369

> <r_epik_State_Penalty>
0.00456331

> <r_epik_Charging_Adjusted_Penalty>
0.00456331

> <i_epik_Tot_Q>
0

> <i_epik_Tot_abs_Q>
0

> <r_epik_Metal_State_Penalty>
-0

> <b_epik_Metal_Only>
0

> <s_lp_Force_Field>
OPLS_2005

> <r_lp_Energy>
27.405

> <b_lp_Chiralities_Consistent>
1

> <s_lp_Variant>
AV-unprocessed.smi:2244-2

> <Gold.Version>
5.8.1

> <Gold.Id.Protein>
6NUR|6NUR_protein|mol2

> <Gold.PLP.Fitness>
34.8021

> <Gold.PLP.PLP>
-36.4337

> <Gold.PLP.part.hbond>
-0.5365

> <Gold.PLP.part.metal>
0.0000

> <Gold.PLP.part.buried>
-5.5137

> <Gold.PLP.part.nonpolar>
-30.4756

> <Gold.PLP.part.repulsive>
0.2107

> <Gold.PLP.ligand.clash>
0.0000

> <Gold.PLP.ligand.torsion>
1.3537

> <Gold.PLP.Chemscore.Hbond>
0.0000

> <Gold.PLP.Chemscore.CHOScore>
0.0000

> <Gold.PLP.Chemscore.Metal>
0.0000

> <Gold.PLP.Chemscore.Internal.Correction>
1.0759

> <Gold.Rescore>
     Score         DG    S(hbond)    S(metal)    S(lipo)     H(rot)  DE(clash)    DE(int)     intcor
     12.58     -15.25       0.00        0.00     111.91       1.30       0.10       2.57       ----

> <Gold.Chemscore.Fitness>
12.5770

> <Gold.Chemscore.DG>
-15.2451

> <Gold.Chemscore.ZeroCoef>
-5.4800

> <Gold.Chemscore.Hbond>
0.0000

> <Gold.Chemscore.Metal>
0.0000

> <Gold.Chemscore.Lipo>
111.9107

> <Gold.Chemscore.Internal_Hbond>
0.0000

> <Gold.Chemscore.DEClash>
0.0975

> <Gold.Chemscore.DEInternal>
2.5707

> <Gold.Chemscore.Rot>
1.3002

> <Gold.Chemscore.Internal.Correction>
   9.000000E+99

> <Gold.Chemscore.Hbond.Weighted>
-0.0000

> <Gold.Chemscore.Metal.Weighted>
-0.0000

> <Gold.Chemscore.Lipo.Weighted>
-13.0935

> <Gold.Chemscore.Internal_Hbond.Weighted>
0.0000

> <Gold.Chemscore.DEClash.Weighted>
0.0975

> <Gold.Chemscore.DEInternal.Weighted>
2.5707

> <Gold.Chemscore.Rot.Weighted>
3.3284

> <Gold.Chemscore.Internal.Correction.Weighted>
   9.000000E+99

> <Gold.Protein.RotatedTorsions>
[ 6907 6896 6895 6894 ] final  -52.73 input  -60.11 | X-H torsion
[ 7974 7965 7964 7962 ] final   -2.56 input  175.53 | X-H torsion
[ 8008 7997 7996 7995 ] final -115.22 input   59.86 | X-H torsion
[ 10167 10162 10161 10158 ] final  136.45 input  -65.29 | X-H torsion
[ 10718 10713 10712 10709 ] final  160.57 input   66.30 | X-H torsion
[ 10763 10752 10751 10750 ] final  139.28 input  -60.55 | X-H torsion
[ 11005 11000 10999 10996 ] final -128.53 input  -57.11 | X-H torsion

> <Gold.Protein.ActiveResidues>
 VAL166  LYS551  ARG553  GLY616  TRP617  ASP618  TYR619  PRO620  LYS621  CYS622 
 ASP623  PHE694  ASN695  SER759  ASP760  ASP761  ALA762  ILE779  LEU786  VAL792 
 PHE793  MET794  SER795  GLU796  ALA797  LYS798  CYS799  TRP800  GLU811  SER814 

> <Gold.Protein.RotatedAtoms>
  150.8491  134.7810  159.6994 H   0  0  0  0  0  0  0  0  0  0  0  0  # atno 6907 bound_to 6896
  152.4561  134.5286  159.9814 H   0  0  0  0  0  0  0  0  0  0  0  0  # atno 6908 bound_to 6896
  151.5410  133.3395  159.2971 H   0  0  0  0  0  0  0  0  0  0  0  0  # atno 6909 bound_to 6896
  146.2402  140.1589  142.8333 H   0  0  0  0  0  0  0  0  0  0  0  0  # atno 7974 bound_to 7965
  155.0487  140.0393  157.2536 H   0  0  0  0  0  0  0  0  0  0  0  0  # atno 8008 bound_to 7997
  154.7156  140.2701  155.6565 H   0  0  0  0  0  0  0  0  0  0  0  0  # atno 8009 bound_to 7997
  156.2802  140.2713  156.1811 H   0  0  0  0  0  0  0  0  0  0  0  0  # atno 8010 bound_to 7997
  139.5179  144.6464  151.5428 H   0  0  0  0  0  0  0  0  0  0  0  0  # atno 10167 bound_to 10162
  157.1485  131.0558  151.2292 H   0  0  0  0  0  0  0  0  0  0  0  0  # atno 10718 bound_to 10713
  153.9035  135.3019  155.3448 H   0  0  0  0  0  0  0  0  0  0  0  0  # atno 10763 bound_to 10752
  154.7658  135.4911  153.9555 H   0  0  0  0  0  0  0  0  0  0  0  0  # atno 10764 bound_to 10752
  153.1232  135.6787  153.9402 H   0  0  0  0  0  0  0  0  0  0  0  0  # atno 10765 bound_to 10752
  140.9508  134.1068  157.4064 H   0  0  0  0  0  0  0  0  0  0  0  0  # atno 11005 bound_to 11000
  145.0105  140.8710  143.5227 LP  0  0  0  0  0  0  0  0  0  0  0  0  # atno 17320 bound_to 7965
  145.1622  139.2452  143.5385 LP  0  0  0  0  0  0  0  0  0  0  0  0  # atno 17321 bound_to 7965
  140.6250  143.9185  150.6557 LP  0  0  0  0  0  0  0  0  0  0  0  0  # atno 17342 bound_to 10162
  140.2471  143.3620  152.1437 LP  0  0  0  0  0  0  0  0  0  0  0  0  # atno 17343 bound_to 10162
  157.4242  130.7454  149.6938 LP  0  0  0  0  0  0  0  0  0  0  0  0  # atno 17370 bound_to 10713
  155.9775  130.4062  150.3709 LP  0  0  0  0  0  0  0  0  0  0  0  0  # atno 17371 bound_to 10713
  139.8847  135.0065  156.6385 LP  0  0  0  0  0  0  0  0  0  0  0  0  # atno 17394 bound_to 11000
  140.7605  133.8821  155.8415 LP  0  0  0  0  0  0  0  0  0  0  0  0  # atno 17395 bound_to 11000

$$$$
