#       Name:                AV-unprocessed.smi:2232
#       Creating user name   scv26
#       Creation time:       Fri Mar 27 12:24:34 2020


#       File generated by GOLD software.
#

@<TRIPOS>MOLECULE
AV-unprocessed.smi:2232
    48    49     1
SMALL
NO_CHARGES


@<TRIPOS>ATOM
      1 ****        -5.4369   3.7170   1.6813 C.3            1 S1                 0.0000
      2 ****        -4.6801   2.4162   1.5132 C.ar           1 S1                 0.0000
      3 ****        -5.3539   1.1802   1.5332 C.ar           1 S1                 0.0000
      4 ****        -4.5937   0.0058   1.3694 C.ar           1 S1                 0.0000
      5 ****        -5.2544  -1.3567   1.3788 C.3            1 S1                 0.0000
      6 ****        -3.2545   0.0130   1.1981 N.ar           1 S1                 0.0000
      7 ****        -2.5946   1.1976   1.1779 C.ar           1 S1                 0.0000
      8 ****        -1.1906   1.3139   0.9976 N.am           1 S1                 0.0000
      9 ****        -0.2861   0.3277   0.8638 C.2            1 S1                 0.0000
     10 ****        -0.5344  -0.8780   0.9035 O.2            1 S1                 0.0000
     11 ****         0.9470   0.8215   0.6795 N.am           1 S1                 0.0000
     12 ****         2.1518   0.0194   0.5029 C.3            1 S1                 0.0000
     13 ****         2.2637  -0.5186  -0.9365 C.3            1 S1                 0.0000
     14 ****         3.4141  -1.3867  -1.1828 N.3            1 S1                 0.0000
     15 ****         4.6860  -0.6694  -1.1149 C.3            1 S1                 0.0000
     16 ****         5.8836  -1.5892  -1.4132 C.3            1 S1                 0.0000
     17 ****         5.7112  -2.2057  -2.6848 O.3            1 S1                 0.0000
     18 ****         4.5055  -2.9580  -2.7690 C.3            1 S1                 0.0000
     19 ****         3.3061  -2.0379  -2.4841 C.3            1 S1                 0.0000
     20 ****        -3.2823   2.4223   1.3327 C.ar           1 S1                 0.0000
     21 ****        -6.5130   3.5464   1.7287 H              1 S1                 0.0000
     22 ****        -5.2348   4.3833   0.8425 H              1 S1                 0.0000
     23 ****        -5.1291   4.2168   2.6001 H              1 S1                 0.0000
     24 ****        -6.4245   1.1333   1.6695 H              1 S1                 0.0000
     25 ****        -6.3407  -1.2687   1.3464 H              1 S1                 0.0000
     26 ****        -4.9827  -1.9020   2.2828 H              1 S1                 0.0000
     27 ****        -4.9364  -1.9416   0.5152 H              1 S1                 0.0000
     28 ****        -0.8351   2.2575   0.9597 H              1 S1                 0.0000
     29 ****         1.0614   1.8243   0.6612 H              1 S1                 0.0000
     30 ****         3.0015   0.6561   0.7464 H              1 S1                 0.0000
     31 ****         2.1612  -0.8031   1.2202 H              1 S1                 0.0000
     32 ****         1.3540  -1.0796  -1.1555 H              1 S1                 0.0000
     33 ****         2.2753   0.3156  -1.6400 H              1 S1                 0.0000
     34 ****         4.6827   0.1584  -1.8257 H              1 S1                 0.0000
     35 ****         4.8232  -0.2326  -0.1264 H              1 S1                 0.0000
     36 ****         6.8106  -1.0155  -1.4179 H              1 S1                 0.0000
     37 ****         5.9850  -2.3542  -0.6419 H              1 S1                 0.0000
     38 ****         4.4231  -3.3917  -3.7656 H              1 S1                 0.0000
     39 ****         4.5344  -3.7867  -2.0597 H              1 S1                 0.0000
     40 ****         2.3869  -2.6231  -2.5297 H              1 S1                 0.0000
     41 ****         3.2353  -1.2851  -3.2707 H              1 S1                 0.0000
     42 ****        -2.7452   3.3598   1.3143 H              1 S1                 0.0000
     43 ****        -2.7546  -0.8460   1.0873 LP             1 S1                 0.0000
     44 ****        -1.4737  -1.1907   1.0451 LP             1 S1                 0.0000
     45 ****         0.2032  -1.5443   0.7941 LP             1 S1                 0.0000
     46 ****         3.4041  -2.0727  -0.4552 LP             1 S1                 0.0000
     47 ****         6.4836  -2.8188  -2.8510 LP             1 S1                 0.0000
     48 ****         5.6940  -1.4935  -3.3865 LP             1 S1                 0.0000
@<TRIPOS>BOND
    1    1    2 1     
    2    1   21 1     
    3    1   22 1     
    4    1   23 1     
    5    2   20 ar    
    6    2    3 ar    
    7    3    4 ar    
    8    3   24 1     
    9    4    5 1     
   10    4    6 ar    
   11    5   25 1     
   12    5   26 1     
   13    5   27 1     
   14    6    7 ar    
   15    7    8 1     
   16    7   20 ar    
   17    8    9 am    
   18    8   28 1     
   19    9   10 2     
   20    9   11 am    
   21   11   12 1     
   22   11   29 1     
   23   12   13 1     
   24   12   30 1     
   25   12   31 1     
   26   13   14 1     
   27   13   32 1     
   28   13   33 1     
   29   14   19 1     
   30   14   15 1     
   31   15   16 1     
   32   15   34 1     
   33   15   35 1     
   34   16   17 1     
   35   16   36 1     
   36   16   37 1     
   37   17   18 1     
   38   18   19 1     
   39   18   38 1     
   40   18   39 1     
   41   19   40 1     
   42   19   41 1     
   43   20   42 1     
   44    6   43 1     
   45   10   44 1     
   46   10   45 1     
   47   14   46 1     
   48   17   47 1     
   49   17   48 1     
@<TRIPOS>SUBSTRUCTURE
      1 S1             1
@<TRIPOS>SET
LONE_PAIRS      STATIC     ATOMS    <user>   **** ""
6 43 44 45 46 47 48
DONOR_HYDROGENS      STATIC     ATOMS    <user>   **** ""
2 28 29
ATOM$BLUE        STATIC     ATOMS    COLORGROUP SYSTEM
6 43 44 45 46 47 48
ATOM$RED        STATIC     ATOMS    COLORGROUP SYSTEM
2 28 29
