AV-unprocessed.smi:2703|AV-procd|sdf|10441|dock4
  -GOLD-   2272014483D 1   1.00000     0.00000
 Structure written by MMmdl.
 43 45  0  0  0  0  0  0  0  0  4 V2000
  153.0167  143.0860  160.6702 C   0  0  0  0  0  0  0  0  0  0  0  0
  152.5581  142.3631  159.4152 C   0  0  0  0  0  0  0  0  0  0  0  0
  151.5345  142.9479  158.6360 C   0  0  0  0  0  0  0  0  0  0  0  0
  151.1369  142.2631  157.4937 C   0  0  0  0  0  0  0  0  0  0  0  0
  150.1737  142.5724  156.5309 N   0  3  0  0  0  0  0  0  0  0  0  0
  150.1404  141.5895  155.5892 C   0  0  0  0  0  0  0  0  0  0  0  0
  151.0670  140.6559  155.9368 N   0  0  0  0  0  0  0  0  0  0  0  0
  151.4273  139.3979  155.2674 C   0  0  0  0  0  0  0  0  0  0  0  0
  150.2032  138.6234  154.7412 C   0  0  1  0  0  0  0  0  0  0  0  0
  150.3905  138.2884  153.3795 O   0  0  0  0  0  0  0  0  0  0  0  0
  149.9559  137.3360  155.5433 C   0  0  0  0  0  0  0  0  0  0  0  0
  151.4014  136.2358  155.5322 S   0  0  0  0  0  0  0  0  0  0  0  0
  150.8255  134.5730  155.2865 C   0  0  0  0  0  0  0  0  0  0  0  0
  149.9230  134.2358  154.2533 C   0  0  0  0  0  0  0  0  0  0  0  0
  149.4990  132.9061  154.1055 C   0  0  0  0  0  0  0  0  0  0  0  0
  149.9862  131.9372  154.9950 C   0  0  0  0  0  0  0  0  0  0  0  0
  150.8831  132.3182  156.0112 C   0  0  0  0  0  0  0  0  0  0  0  0
  151.2957  133.6154  156.1553 N   0  3  0  0  0  0  0  0  0  0  0  0
  152.1173  133.9134  157.1007 O   0  5  0  0  0  0  0  0  0  0  0  0
  151.7170  141.0358  157.1174 C   0  0  0  0  0  0  0  0  0  0  0  0
  152.7287  140.4477  157.8732 C   0  0  0  0  0  0  0  0  0  0  0  0
  153.1494  141.1300  159.0371 C   0  0  0  0  0  0  0  0  0  0  0  0
  154.2542  140.5137  159.8784 C   0  0  0  0  0  0  0  0  0  0  0  0
  152.4567  144.0085  160.8272 H   0  0  0  0  0  0  0  0  0  0  0  0
  154.0730  143.3458  160.5974 H   0  0  0  0  0  0  0  0  0  0  0  0
  152.8738  142.4565  161.5489 H   0  0  0  0  0  0  0  0  0  0  0  0
  151.0816  143.8877  158.9163 H   0  0  0  0  0  0  0  0  0  0  0  0
  149.4936  141.5550  154.7241 H   0  0  0  0  0  0  0  0  0  0  0  0
  152.1393  139.6061  154.4683 H   0  0  0  0  0  0  0  0  0  0  0  0
  151.9614  138.7904  155.9991 H   0  0  0  0  0  0  0  0  0  0  0  0
  149.3228  139.2637  154.8120 H   0  0  0  0  0  0  0  0  0  0  0  0
  149.9320  138.9242  152.8506 H   0  0  0  0  0  0  0  0  0  0  0  0
  149.6938  137.5791  156.5738 H   0  0  0  0  0  0  0  0  0  0  0  0
  149.1145  136.7904  155.1150 H   0  0  0  0  0  0  0  0  0  0  0  0
  149.5473  134.9822  153.5713 H   0  0  0  0  0  0  0  0  0  0  0  0
  148.8088  132.6335  153.3207 H   0  0  0  0  0  0  0  0  0  0  0  0
  149.6756  130.9069  154.9023 H   0  0  0  0  0  0  0  0  0  0  0  0
  151.2990  131.6289  156.7320 H   0  0  0  0  0  0  0  0  0  0  0  0
  153.1833  139.5121  157.5833 H   0  0  0  0  0  0  0  0  0  0  0  0
  154.6135  139.5802  159.4439 H   0  0  0  0  0  0  0  0  0  0  0  0
  153.8942  140.2959  160.8842 H   0  0  0  0  0  0  0  0  0  0  0  0
  155.1033  141.1931  159.9534 H   0  0  0  0  0  0  0  0  0  0  0  0
  149.5818  143.3932  156.5151 H   0  0  0  0  0  0  0  0  0  0  0  0
  1  2  1  0  0  0  0
  1 24  1  0  0  0  0
  1 25  1  0  0  0  0
  1 26  1  0  0  0  0
  2 22  1  0  0  0  0
  2  3  2  0  0  0  0
  3  4  1  0  0  0  0
  3 27  1  0  0  0  0
  4 20  2  0  0  0  0
  4  5  1  0  0  0  0
  5  6  2  0  0  0  0
  5 43  1  0  0  0  0
  6  7  1  0  0  0  0
  6 28  1  0  0  0  0
  7  8  1  0  0  0  0
  7 20  1  0  0  0  0
  8  9  1  0  0  0  0
  8 29  1  0  0  0  0
  8 30  1  0  0  0  0
  9 10  1  0  0  0  0
  9 11  1  0  0  0  0
  9 31  1  0  0  0  0
 10 32  1  0  0  0  0
 11 12  1  0  0  0  0
 11 33  1  0  0  0  0
 11 34  1  0  0  0  0
 12 13  1  0  0  0  0
 13 18  1  0  0  0  0
 13 14  2  0  0  0  0
 14 15  1  0  0  0  0
 14 35  1  0  0  0  0
 15 16  2  0  0  0  0
 15 36  1  0  0  0  0
 16 17  1  0  0  0  0
 16 37  1  0  0  0  0
 17 18  2  0  0  0  0
 17 38  1  0  0  0  0
 18 19  1  0  0  0  0
 20 21  1  0  0  0  0
 21 22  2  0  0  0  0
 21 39  1  0  0  0  0
 22 23  1  0  0  0  0
 23 40  1  0  0  0  0
 23 41  1  0  0  0  0
 23 42  1  0  0  0  0
M  CHG  1   5   1
M  CHG  1  18   1
M  CHG  1  19  -1
M  END
> <s_m_source_file>
AV-unprocessed.smi

> <i_m_source_file_index>
2703

> <i_lp_mmshare_version>
43012

> <i_f3d_flags>
0

> <s_epik_input>
W0NIM11jKFtjSF0xKWMoW0NIM10pW2NIXWMoYzEyKW4oW2NIXW4yKVtDSDJdW0NASF0oW09IXSlbQ0gyXVNjM1tjSF1bY0hdW2NIXVtjSF1bbitdM1tPLV0=

> <s_epik_cmdline>
J2VwaWtfcHl0aG9uJywgJy1waCcsICc3LjAnLCAnLXRuJywgJzgnLCAnLW1hJywgJzIwMCcsICctbWV0YWxfYmluZGluZycsICctaW1hZScsICc8aW5maWxlLm1hZT4nLCAnLW9tYWUnLCAnPG91dGZpbGUubWFlPic=

> <r_epik_Ionization_Penalty>
1.07182

> <r_epik_Ionization_Penalty_Charging>
1.07181

> <r_epik_Ionization_Penalty_Neutral>
2.88913e-06

> <r_epik_State_Penalty>
1.12646

> <r_epik_Charging_Adjusted_Penalty>
2.19828

> <i_epik_Tot_Q>
1

> <i_epik_Tot_abs_Q>
3

> <r_epik_Metal_State_Penalty>
5.12345

> <b_epik_Metal_Only>
0

> <s_lp_Force_Field>
OPLS_2005

> <r_lp_Energy>
21.0295

> <b_lp_Chiralities_Consistent>
1

> <s_lp_Variant>
AV-unprocessed.smi:2703-4

> <Gold.Version>
5.8.1

> <Gold.Id.Protein>
6NUR|6NUR_protein|mol2

> <Gold.PLP.Fitness>
55.7598

> <Gold.PLP.PLP>
-48.1098

> <Gold.PLP.part.hbond>
-4.7889

> <Gold.PLP.part.metal>
0.0000

> <Gold.PLP.part.buried>
-3.2785

> <Gold.PLP.part.nonpolar>
-40.2763

> <Gold.PLP.part.repulsive>
0.0627

> <Gold.PLP.ligand.clash>
0.0000

> <Gold.PLP.ligand.torsion>
1.3769

> <Gold.PLP.Chemscore.Hbond>
3.4480

> <Gold.PLP.Chemscore.CHOScore>
0.0000

> <Gold.PLP.Chemscore.Metal>
0.0000

> <Gold.Chemscore.Hbonds>
donor molecule, donor type, donor heavy atom, donor atom, acceptor molecule, acceptor atom, score
      L1  H     5    43       P1  8028  2.00
      L1  H    10    32       P1  7957  0.99
      P1  H  6896  6907       L1    19  0.10

> <Gold.PLP.Chemscore.Internal.Correction>
0.0597

> <Gold.Rescore>
     Score         DG    S(hbond)    S(metal)    S(lipo)     H(rot)  DE(clash)    DE(int)     intcor
     18.57     -19.84       2.09        0.00     113.85       2.33       0.02       1.25       ----

> <Gold.Chemscore.Fitness>
18.5673

> <Gold.Chemscore.DG>
-19.8377

> <Gold.Chemscore.ZeroCoef>
-5.4800

> <Gold.Chemscore.Hbond>
2.0943

> <Gold.Chemscore.Metal>
0.0000

> <Gold.Chemscore.Lipo>
113.8549

> <Gold.Chemscore.Internal_Hbond>
0.0000

> <Gold.Chemscore.DEClash>
0.0174

> <Gold.Chemscore.DEInternal>
1.2530

> <Gold.Chemscore.Rot>
2.3274

> <Gold.Chemscore.Internal.Correction>
   9.000000E+99

> <Gold.Chemscore.Hbonds>
donor molecule, donor type, donor heavy atom, donor atom, acceptor molecule, acceptor atom, score
      L1  H     5    43       P1  8028  0.95
      L1  H    10    32       P1  7957  0.74
      P1  H  6896  6907       L1    19  0.09

> <Gold.Chemscore.Hbond.Weighted>
-6.9950

> <Gold.Chemscore.Metal.Weighted>
-0.0000

> <Gold.Chemscore.Lipo.Weighted>
-13.3210

> <Gold.Chemscore.Internal_Hbond.Weighted>
0.0000

> <Gold.Chemscore.DEClash.Weighted>
0.0174

> <Gold.Chemscore.DEInternal.Weighted>
1.2530

> <Gold.Chemscore.Rot.Weighted>
5.9583

> <Gold.Chemscore.Internal.Correction.Weighted>
   9.000000E+99

> <Gold.Protein.RotatedTorsions>
[ 6907 6896 6895 6894 ] final -158.98 input  -60.11 | X-H torsion
[ 7974 7965 7964 7962 ] final -177.20 input  175.53 | X-H torsion
[ 8008 7997 7996 7995 ] final  -59.52 input   59.86 | X-H torsion
[ 10167 10162 10161 10158 ] final -115.41 input  -65.29 | X-H torsion
[ 10718 10713 10712 10709 ] final  101.93 input   66.30 | X-H torsion
[ 10763 10752 10751 10750 ] final    1.65 input  -60.55 | X-H torsion
[ 11005 11000 10999 10996 ] final    7.81 input  -57.11 | X-H torsion

> <Gold.Protein.ActiveResidues>
 VAL166  LYS551  ARG553  GLY616  TRP617  ASP618  TYR619  PRO620  LYS621  CYS622 
 ASP623  PHE694  ASN695  SER759  ASP760  ASP761  ALA762  ILE779  LEU786  VAL792 
 PHE793  MET794  SER795  GLU796  ALA797  LYS798  CYS799  TRP800  GLU811  SER814 

> <Gold.Protein.RotatedAtoms>
  151.3266  133.4018  159.2658 H   0  0  0  0  0  0  0  0  0  0  0  0  # atno 6907 bound_to 6896
  150.9990  134.9308  159.7953 H   0  0  0  0  0  0  0  0  0  0  0  0  # atno 6908 bound_to 6896
  152.5270  134.3231  159.9208 H   0  0  0  0  0  0  0  0  0  0  0  0  # atno 6909 bound_to 6896
  144.7127  140.1055  143.6414 H   0  0  0  0  0  0  0  0  0  0  0  0  # atno 7974 bound_to 7965
  154.4356  140.1060  156.6128 H   0  0  0  0  0  0  0  0  0  0  0  0  # atno 8008 bound_to 7997
  155.5791  140.3490  155.4517 H   0  0  0  0  0  0  0  0  0  0  0  0  # atno 8009 bound_to 7997
  156.0332  140.1265  157.0225 H   0  0  0  0  0  0  0  0  0  0  0  0  # atno 8010 bound_to 7997
  140.0904  143.4705  152.1873 H   0  0  0  0  0  0  0  0  0  0  0  0  # atno 10167 bound_to 10162
  157.6816  131.0739  150.5326 H   0  0  0  0  0  0  0  0  0  0  0  0  # atno 10718 bound_to 10713
  153.3054  135.6959  153.7164 H   0  0  0  0  0  0  0  0  0  0  0  0  # atno 10763 bound_to 10752
  153.6062  135.3453  155.2963 H   0  0  0  0  0  0  0  0  0  0  0  0  # atno 10764 bound_to 10752
  154.8561  135.4352  154.2177 H   0  0  0  0  0  0  0  0  0  0  0  0  # atno 10765 bound_to 10752
  140.5441  134.0346  155.7914 H   0  0  0  0  0  0  0  0  0  0  0  0  # atno 11005 bound_to 11000
  145.9500  139.2727  143.1218 LP  0  0  0  0  0  0  0  0  0  0  0  0  # atno 17320 bound_to 7965
  145.9333  140.9033  143.0345 LP  0  0  0  0  0  0  0  0  0  0  0  0  # atno 17321 bound_to 7965
  139.5728  144.7472  151.3845 LP  0  0  0  0  0  0  0  0  0  0  0  0  # atno 17342 bound_to 10162
  140.7032  143.7581  150.7437 LP  0  0  0  0  0  0  0  0  0  0  0  0  # atno 17343 bound_to 10162
  156.5636  130.4262  149.6051 LP  0  0  0  0  0  0  0  0  0  0  0  0  # atno 17370 bound_to 10713
  156.2800  130.7065  151.1887 LP  0  0  0  0  0  0  0  0  0  0  0  0  # atno 17371 bound_to 10713
  141.1210  133.9461  157.2729 LP  0  0  0  0  0  0  0  0  0  0  0  0  # atno 17394 bound_to 11000
  139.9489  135.0179  156.8935 LP  0  0  0  0  0  0  0  0  0  0  0  0  # atno 17395 bound_to 11000

$$$$
