AV-unprocessed.smi:2895|AV-procd|sdf|11135|dock4
  -GOLD-   2272016 13D 1   1.00000     0.00000
 Structure written by MMmdl.
 54 57  0  0  0  0  0  0  0  0  3 V2000
  155.5974  138.9323  158.8255 O   0  0  0  0  0  0  0  0  0  0  0  0
  155.0907  138.9638  159.9475 C   0  0  0  0  0  0  0  0  0  0  0  0
  154.4602  140.0567  160.4110 N   0  0  0  0  0  0  0  0  0  0  0  0
  154.2907  141.3070  159.6787 C   0  0  0  0  0  0  0  0  0  0  0  0
  153.3466  142.2761  160.4106 C   0  0  0  0  0  0  0  0  0  0  0  0
  152.2363  142.7852  159.5112 C   0  0  0  0  0  0  0  0  0  0  0  0
  151.5602  141.9017  158.6409 C   0  0  0  0  0  0  0  0  0  0  0  0
  150.5311  142.4010  157.8164 C   0  0  0  0  0  0  0  0  0  0  0  0
  150.2058  143.7116  157.8657 N   0  3  0  0  0  0  0  0  0  0  0  0
  150.8273  144.5897  158.6831 C   0  0  0  0  0  0  0  0  0  0  0  0
  151.8623  144.1473  159.5322 C   0  0  0  0  0  0  0  0  0  0  0  0
  155.0965  137.9037  160.7961 N   0  0  0  0  0  0  0  0  0  0  0  0
  154.8637  137.9463  162.2489 C   0  0  0  0  0  0  0  0  0  0  0  0
  156.1730  137.5903  162.9806 C   0  0  0  0  0  0  0  0  0  0  0  0
  156.7073  136.2633  162.5591 N   0  3  0  0  0  0  0  0  0  0  0  0
  156.0088  135.0914  163.1701 C   0  0  1  0  0  0  0  0  0  0  0  0
  156.4872  133.7201  162.6317 C   0  0  0  0  0  0  0  0  0  0  0  0
  156.7674  132.9150  163.9144 C   0  0  1  0  0  0  0  0  0  0  0  0
  158.0867  133.4096  164.5315 C   0  0  0  0  0  0  0  0  0  0  0  0
  157.7039  134.8014  165.0653 C   0  0  0  0  0  0  0  0  0  0  0  0
  156.2084  134.9153  164.6972 C   0  0  2  0  0  0  0  0  0  0  0  0
  155.7391  133.4767  164.8882 C   0  0  0  0  0  0  0  0  0  0  0  0
  156.8260  136.1757  161.0751 C   0  0  0  0  0  0  0  0  0  0  0  0
  155.5146  136.5654  160.3619 C   0  0  0  0  0  0  0  0  0  0  0  0
  154.0526  140.0113  161.3336 H   0  0  0  0  0  0  0  0  0  0  0  0
  155.2636  141.7716  159.5090 H   0  0  0  0  0  0  0  0  0  0  0  0
  153.8854  141.0669  158.6953 H   0  0  0  0  0  0  0  0  0  0  0  0
  152.9091  141.7852  161.2808 H   0  0  0  0  0  0  0  0  0  0  0  0
  153.9026  143.1343  160.7904 H   0  0  0  0  0  0  0  0  0  0  0  0
  151.8247  140.8546  158.6060 H   0  0  0  0  0  0  0  0  0  0  0  0
  149.9632  141.7965  157.1243 H   0  0  0  0  0  0  0  0  0  0  0  0
  150.4808  145.6118  158.6337 H   0  0  0  0  0  0  0  0  0  0  0  0
  152.3606  144.8464  160.1883 H   0  0  0  0  0  0  0  0  0  0  0  0
  154.5034  138.9079  162.6136 H   0  0  0  0  0  0  0  0  0  0  0  0
  154.0798  137.2320  162.5037 H   0  0  0  0  0  0  0  0  0  0  0  0
  156.9260  138.3421  162.7407 H   0  0  0  0  0  0  0  0  0  0  0  0
  156.0408  137.6514  164.0594 H   0  0  0  0  0  0  0  0  0  0  0  0
  154.9386  135.1870  162.9811 H   0  0  0  0  0  0  0  0  0  0  0  0
  155.7032  133.2503  162.0365 H   0  0  0  0  0  0  0  0  0  0  0  0
  157.3811  133.7838  162.0101 H   0  0  0  0  0  0  0  0  0  0  0  0
  156.7299  131.8344  163.7720 H   0  0  0  0  0  0  0  0  0  0  0  0
  158.4014  132.7582  165.3483 H   0  0  0  0  0  0  0  0  0  0  0  0
  158.8992  133.4491  163.8048 H   0  0  0  0  0  0  0  0  0  0  0  0
  157.8375  134.8414  166.1471 H   0  0  0  0  0  0  0  0  0  0  0  0
  158.3115  135.5950  164.6306 H   0  0  0  0  0  0  0  0  0  0  0  0
  155.6592  135.6371  165.3023 H   0  0  0  0  0  0  0  0  0  0  0  0
  154.7074  133.3086  164.5741 H   0  0  0  0  0  0  0  0  0  0  0  0
  155.8652  133.1113  165.9092 H   0  0  0  0  0  0  0  0  0  0  0  0
  157.6163  136.8592  160.7618 H   0  0  0  0  0  0  0  0  0  0  0  0
  157.1479  135.1857  160.7552 H   0  0  0  0  0  0  0  0  0  0  0  0
  154.7235  135.8521  160.5945 H   0  0  0  0  0  0  0  0  0  0  0  0
  155.6567  136.4949  159.2828 H   0  0  0  0  0  0  0  0  0  0  0  0
  157.6493  136.2171  162.9214 H   0  0  0  0  0  0  0  0  0  0  0  0
  149.4594  144.0528  157.2591 H   0  0  0  0  0  0  0  0  0  0  0  0
  1  2  2  0  0  0  0
  2  3  1  0  0  0  0
  2 12  1  0  0  0  0
  3  4  1  0  0  0  0
  3 25  1  0  0  0  0
  4  5  1  0  0  0  0
  4 26  1  0  0  0  0
  4 27  1  0  0  0  0
  5  6  1  0  0  0  0
  5 28  1  0  0  0  0
  5 29  1  0  0  0  0
  6 11  1  0  0  0  0
  6  7  2  0  0  0  0
  7  8  1  0  0  0  0
  7 30  1  0  0  0  0
  8  9  2  0  0  0  0
  8 31  1  0  0  0  0
  9 10  1  0  0  0  0
  9 54  1  0  0  0  0
 10 11  2  0  0  0  0
 10 32  1  0  0  0  0
 11 33  1  0  0  0  0
 12 24  1  0  0  0  0
 12 13  1  0  0  0  0
 13 14  1  0  0  0  0
 13 34  1  0  0  0  0
 13 35  1  0  0  0  0
 14 15  1  0  0  0  0
 14 36  1  0  0  0  0
 14 37  1  0  0  0  0
 15 16  1  0  0  0  0
 15 23  1  0  0  0  0
 15 53  1  0  0  0  0
 16 21  1  0  0  0  0
 16 17  1  0  0  0  0
 16 38  1  0  0  0  0
 17 18  1  0  0  0  0
 17 39  1  0  0  0  0
 17 40  1  0  0  0  0
 18 22  1  0  0  0  0
 18 19  1  0  0  0  0
 18 41  1  0  0  0  0
 19 20  1  0  0  0  0
 19 42  1  0  0  0  0
 19 43  1  0  0  0  0
 20 21  1  0  0  0  0
 20 44  1  0  0  0  0
 20 45  1  0  0  0  0
 21 22  1  0  0  0  0
 21 46  1  0  0  0  0
 22 47  1  0  0  0  0
 22 48  1  0  0  0  0
 23 24  1  0  0  0  0
 23 49  1  0  0  0  0
 23 50  1  0  0  0  0
 24 51  1  0  0  0  0
 24 52  1  0  0  0  0
M  CHG  1   9   1
M  CHG  1  15   1
M  END
> <s_m_source_file>
AV-unprocessed.smi

> <i_m_source_file_index>
2895

> <i_lp_mmshare_version>
43012

> <i_f3d_flags>
0

> <s_epik_input>
W0NIMl0xW0NIMl1bQ0BASF0oW0NIMl0yKVtDQEBIXShbQ0gyXVtDQEhdMTIpTihbQ0gyXVtDSDJdMylbQ0gyXVtDSDJdTjNDKD1PKVtOSF1bQ0gyXVtDSDJdYzRbY0hdW2NIXW5bY0hdW2NIXTQ=

> <s_epik_cmdline>
J2VwaWtfcHl0aG9uJywgJy1waCcsICc3LjAnLCAnLXRuJywgJzgnLCAnLW1hJywgJzIwMCcsICctbWV0YWxfYmluZGluZycsICctaW1hZScsICc8aW5maWxlLm1hZT4nLCAnLW9tYWUnLCAnPG91dGZpbGUubWFlPic=

> <r_epik_Ionization_Penalty>
1.44916

> <r_epik_Ionization_Penalty_Charging>
1.44913

> <r_epik_Ionization_Penalty_Neutral>
2.64641e-05

> <r_epik_State_Penalty>
1.53218

> <r_epik_Charging_Adjusted_Penalty>
2.98131

> <i_epik_Tot_Q>
2

> <i_epik_Tot_abs_Q>
2

> <r_epik_Metal_State_Penalty>
1.58241

> <b_epik_Metal_Only>
0

> <s_lp_Force_Field>
OPLS_2005

> <r_lp_Energy>
107.439

> <b_lp_Chiralities_Consistent>
1

> <s_lp_Variant>
AV-unprocessed.smi:2895-8

> <Gold.Version>
5.8.1

> <Gold.Id.Protein>
6NUR|6NUR_protein|mol2

> <Gold.PLP.Fitness>
52.5260

> <Gold.PLP.PLP>
-45.1936

> <Gold.PLP.part.hbond>
-1.9827

> <Gold.PLP.part.metal>
0.0000

> <Gold.PLP.part.buried>
-5.1805

> <Gold.PLP.part.nonpolar>
-37.7663

> <Gold.PLP.part.repulsive>
0.0905

> <Gold.PLP.ligand.clash>
0.0000

> <Gold.PLP.ligand.torsion>
0.8683

> <Gold.PLP.Chemscore.Hbond>
2.9913

> <Gold.PLP.Chemscore.CHOScore>
0.0000

> <Gold.PLP.Chemscore.Metal>
0.0000

> <Gold.Chemscore.Hbonds>
donor molecule, donor type, donor heavy atom, donor atom, acceptor molecule, acceptor atom, score
      L1  H     9    54       P1  8028  2.00
      P1  H  7997  8010       L1     1  1.00

> <Gold.PLP.Chemscore.Internal.Correction>
0.0952

> <Gold.Rescore>
     Score         DG    S(hbond)    S(metal)    S(lipo)     H(rot)  DE(clash)    DE(int)     intcor
     23.57     -24.48       1.86        0.00     141.13       1.46       0.02       0.89       ----

> <Gold.Chemscore.Fitness>
23.5674

> <Gold.Chemscore.DG>
-24.4770

> <Gold.Chemscore.ZeroCoef>
-5.4800

> <Gold.Chemscore.Hbond>
1.8609

> <Gold.Chemscore.Metal>
0.0000

> <Gold.Chemscore.Lipo>
141.1297

> <Gold.Chemscore.Internal_Hbond>
0.0000

> <Gold.Chemscore.DEClash>
0.0203

> <Gold.Chemscore.DEInternal>
0.8893

> <Gold.Chemscore.Rot>
1.4572

> <Gold.Chemscore.Internal.Correction>
   9.000000E+99

> <Gold.Chemscore.Hbonds>
donor molecule, donor type, donor heavy atom, donor atom, acceptor molecule, acceptor atom, score
      L1  H     9    54       P1  8028  0.33
      P1  H  7997  8010       L1     1  1.00

> <Gold.Chemscore.Hbond.Weighted>
-6.2153

> <Gold.Chemscore.Metal.Weighted>
-0.0000

> <Gold.Chemscore.Lipo.Weighted>
-16.5122

> <Gold.Chemscore.Internal_Hbond.Weighted>
0.0000

> <Gold.Chemscore.DEClash.Weighted>
0.0203

> <Gold.Chemscore.DEInternal.Weighted>
0.8893

> <Gold.Chemscore.Rot.Weighted>
3.7305

> <Gold.Chemscore.Internal.Correction.Weighted>
   9.000000E+99

> <Gold.Protein.RotatedTorsions>
[ 6907 6896 6895 6894 ] final   33.22 input  -60.11 | X-H torsion
[ 7974 7965 7964 7962 ] final   59.59 input  175.53 | X-H torsion
[ 8008 7997 7996 7995 ] final  -15.44 input   59.86 | X-H torsion
[ 10167 10162 10161 10158 ] final -143.17 input  -65.29 | X-H torsion
[ 10718 10713 10712 10709 ] final  129.97 input   66.30 | X-H torsion
[ 10763 10752 10751 10750 ] final   48.12 input  -60.55 | X-H torsion
[ 11005 11000 10999 10996 ] final  113.87 input  -57.11 | X-H torsion

> <Gold.Protein.ActiveResidues>
 VAL166  LYS551  ARG553  GLY616  TRP617  ASP618  TYR619  PRO620  LYS621  CYS622 
 ASP623  PHE694  ASN695  SER759  ASP760  ASP761  ALA762  ILE779  LEU786  VAL792 
 PHE793  MET794  SER795  GLU796  ALA797  LYS798  CYS799  TRP800  GLU811  SER814 

> <Gold.Protein.RotatedAtoms>
  152.0854  134.9443  160.0572 H   0  0  0  0  0  0  0  0  0  0  0  0  # atno 6907 bound_to 6896
  152.0715  133.4104  159.4469 H   0  0  0  0  0  0  0  0  0  0  0  0  # atno 6908 bound_to 6896
  150.6836  134.3006  159.4748 H   0  0  0  0  0  0  0  0  0  0  0  0  # atno 6909 bound_to 6896
  145.9055  139.3614  143.0567 H   0  0  0  0  0  0  0  0  0  0  0  0  # atno 7974 bound_to 7965
  154.5130  140.2196  155.9119 H   0  0  0  0  0  0  0  0  0  0  0  0  # atno 8008 bound_to 7997
  156.1575  140.3149  155.8717 H   0  0  0  0  0  0  0  0  0  0  0  0  # atno 8009 bound_to 7997
  155.3817  140.0473  157.3034 H   0  0  0  0  0  0  0  0  0  0  0  0  # atno 8010 bound_to 7997
  139.8018  143.7822  152.2658 H   0  0  0  0  0  0  0  0  0  0  0  0  # atno 10167 bound_to 10162
  157.5105  131.1096  150.9299 H   0  0  0  0  0  0  0  0  0  0  0  0  # atno 10718 bound_to 10713
  152.9794  135.5954  154.3874 H   0  0  0  0  0  0  0  0  0  0  0  0  # atno 10763 bound_to 10752
  154.3533  135.2767  155.2362 H   0  0  0  0  0  0  0  0  0  0  0  0  # atno 10764 bound_to 10752
  154.4392  135.6017  153.6173 H   0  0  0  0  0  0  0  0  0  0  0  0  # atno 10765 bound_to 10752
  139.8965  134.9558  156.6805 H   0  0  0  0  0  0  0  0  0  0  0  0  # atno 11005 bound_to 11000
  145.8737  140.9404  143.0637 LP  0  0  0  0  0  0  0  0  0  0  0  0  # atno 17320 bound_to 7965
  144.6739  140.0689  143.7473 LP  0  0  0  0  0  0  0  0  0  0  0  0  # atno 17321 bound_to 7965
  139.7945  144.7398  150.9909 LP  0  0  0  0  0  0  0  0  0  0  0  0  # atno 17342 bound_to 10162
  140.7820  143.4408  151.0555 LP  0  0  0  0  0  0  0  0  0  0  0  0  # atno 17343 bound_to 10162
  156.9941  130.5574  149.5306 LP  0  0  0  0  0  0  0  0  0  0  0  0  # atno 17370 bound_to 10713
  156.0286  130.5379  150.8474 LP  0  0  0  0  0  0  0  0  0  0  0  0  # atno 17371 bound_to 10713
  140.7303  133.9065  155.8207 LP  0  0  0  0  0  0  0  0  0  0  0  0  # atno 17394 bound_to 11000
  141.0158  134.0957  157.4173 LP  0  0  0  0  0  0  0  0  0  0  0  0  # atno 17395 bound_to 11000

$$$$
