AV-unprocessed.smi:1802|AV-procd|sdf|7273|dock1
  -GOLD-   22720 8533D 1   1.00000     0.00000
 Structure written by MMmdl.
 41 42  0  0  0  0  0  0  0  0  2 V2000
  143.9177  134.7198  151.9333 C   0  0  0  0  0  0  0  0  0  0  0  0
  144.6384  134.1956  150.6789 C   0  0  2  0  0  0  0  0  0  0  0  0
  144.1288  132.8134  150.2301 C   0  0  0  0  0  0  0  0  0  0  0  0
  144.6362  131.7025  151.1604 C   0  0  0  0  0  0  0  0  0  0  0  0
  146.1651  131.7595  151.3066 C   0  0  0  0  0  0  0  0  0  0  0  0
  146.6061  133.0964  151.7816 N   0  3  1  0  0  0  0  0  0  0  0  0
  148.0580  133.1392  152.0880 C   0  0  0  0  0  0  0  0  0  0  0  0
  148.3744  132.5644  153.4791 C   0  0  0  0  0  0  0  0  0  0  0  0
  149.6485  133.1732  154.0884 C   0  0  0  0  0  0  0  0  0  0  0  0
  149.7416  134.6044  153.8225 N   0  0  0  0  0  0  0  0  0  0  0  0
  150.5139  135.4614  154.5067 C   0  0  0  0  0  0  0  0  0  0  0  0
  151.2306  135.1204  155.4482 O   0  0  0  0  0  0  0  0  0  0  0  0
  150.3939  136.7142  154.0330 N   0  0  0  0  0  0  0  0  0  0  0  0
  151.0374  137.8937  154.4939 C   0  0  0  0  0  0  0  0  0  0  0  0
  150.5315  139.1271  154.3375 N   0  0  0  0  0  0  0  0  0  0  0  0
  151.3603  140.1014  154.8788 N   0  0  0  0  0  0  0  0  0  0  0  0
  152.4574  139.5653  155.4207 C   0  0  0  0  0  0  0  0  0  0  0  0
  152.5852  137.8173  155.3236 S   0  0  0  0  0  0  0  0  0  0  0  0
  146.1707  134.1763  150.8546 C   0  0  0  0  0  0  0  0  0  0  0  0
  144.1112  134.0957  152.8058 H   0  0  0  0  0  0  0  0  0  0  0  0
  142.8385  134.7513  151.7809 H   0  0  0  0  0  0  0  0  0  0  0  0
  144.2425  135.7322  152.1753 H   0  0  0  0  0  0  0  0  0  0  0  0
  144.4102  134.9003  149.8778 H   0  0  0  0  0  0  0  0  0  0  0  0
  143.0392  132.8020  150.1839 H   0  0  0  0  0  0  0  0  0  0  0  0
  144.4786  132.6145  149.2160 H   0  0  0  0  0  0  0  0  0  0  0  0
  144.1688  131.7953  152.1413 H   0  0  0  0  0  0  0  0  0  0  0  0
  144.3369  130.7291  150.7712 H   0  0  0  0  0  0  0  0  0  0  0  0
  146.4820  130.9910  152.0127 H   0  0  0  0  0  0  0  0  0  0  0  0
  146.6460  131.5329  150.3535 H   0  0  0  0  0  0  0  0  0  0  0  0
  148.5976  132.5431  151.3506 H   0  0  0  0  0  0  0  0  0  0  0  0
  148.4316  134.1598  151.9911 H   0  0  0  0  0  0  0  0  0  0  0  0
  147.5423  132.7349  154.1617 H   0  0  0  0  0  0  0  0  0  0  0  0
  148.4882  131.4826  153.3969 H   0  0  0  0  0  0  0  0  0  0  0  0
  149.6837  132.9933  155.1643 H   0  0  0  0  0  0  0  0  0  0  0  0
  150.5299  132.6913  153.6645 H   0  0  0  0  0  0  0  0  0  0  0  0
  149.1849  134.9657  153.0615 H   0  0  0  0  0  0  0  0  0  0  0  0
  149.7657  136.8416  153.2534 H   0  0  0  0  0  0  0  0  0  0  0  0
  153.1964  140.2041  155.8810 H   0  0  0  0  0  0  0  0  0  0  0  0
  146.6502  134.0265  149.8859 H   0  0  0  0  0  0  0  0  0  0  0  0
  146.5027  135.1497  151.2140 H   0  0  0  0  0  0  0  0  0  0  0  0
  146.1286  133.2506  152.6583 H   0  0  0  0  0  0  0  0  0  0  0  0
  1  2  1  0  0  0  0
  1 20  1  0  0  0  0
  1 21  1  0  0  0  0
  1 22  1  0  0  0  0
  2 19  1  0  0  0  0
  2  3  1  0  0  0  0
  2 23  1  0  0  0  0
  3  4  1  0  0  0  0
  3 24  1  0  0  0  0
  3 25  1  0  0  0  0
  4  5  1  0  0  0  0
  4 26  1  0  0  0  0
  4 27  1  0  0  0  0
  5  6  1  0  0  0  0
  5 28  1  0  0  0  0
  5 29  1  0  0  0  0
  6  7  1  0  0  0  0
  6 19  1  0  0  0  0
  6 41  1  0  0  0  0
  7  8  1  0  0  0  0
  7 30  1  0  0  0  0
  7 31  1  0  0  0  0
  8  9  1  0  0  0  0
  8 32  1  0  0  0  0
  8 33  1  0  0  0  0
  9 10  1  0  0  0  0
  9 34  1  0  0  0  0
  9 35  1  0  0  0  0
 10 11  1  0  0  0  0
 10 36  1  0  0  0  0
 11 12  2  0  0  0  0
 11 13  1  0  0  0  0
 13 14  1  0  0  0  0
 13 37  1  0  0  0  0
 14 18  1  0  0  0  0
 14 15  2  0  0  0  0
 15 16  1  0  0  0  0
 16 17  2  0  0  0  0
 17 18  1  0  0  0  0
 17 38  1  0  0  0  0
 19 39  1  0  0  0  0
 19 40  1  0  0  0  0
M  CHG  1   6   1
M  END
> <s_m_source_file>
AV-unprocessed.smi

> <i_m_source_file_index>
1802

> <i_lp_mmshare_version>
43012

> <i_f3d_flags>
0

> <s_epik_input>
W0NIM11bQ0BASF0xW0NIMl1bQ0gyXVtDSDJdTihbQ0gyXTEpW0NIMl1bQ0gyXVtDSDJdW05IXUMoPU8pW05IXWMybm5bY0hdczI=

> <s_epik_cmdline>
J2VwaWtfcHl0aG9uJywgJy1waCcsICc3LjAnLCAnLXRuJywgJzgnLCAnLW1hJywgJzIwMCcsICctbWV0YWxfYmluZGluZycsICctaW1hZScsICc8aW5maWxlLm1hZT4nLCAnLW9tYWUnLCAnPG91dGZpbGUubWFlPic=

> <r_lp_tautomer_probability>
1

> <r_epik_Ionization_Penalty>
0.00272894

> <r_epik_Ionization_Penalty_Charging>
0.000288442

> <r_epik_Ionization_Penalty_Neutral>
0.0024405

> <r_epik_State_Penalty>
-0

> <r_epik_Charging_Adjusted_Penalty>
0.000288442

> <i_epik_Tot_Q>
1

> <i_epik_Tot_abs_Q>
1

> <r_epik_Metal_State_Penalty>
0.350525

> <b_epik_Metal_Only>
0

> <s_lp_Force_Field>
OPLS_2005

> <r_lp_Energy>
17.3239

> <b_lp_Chiralities_Consistent>
1

> <s_lp_Variant>
AV-unprocessed.smi:1802-3

> <Gold.Version>
5.8.1

> <Gold.Id.Protein>
6NUR|6NUR_protein|mol2

> <Gold.PLP.Fitness>
43.2789

> <Gold.PLP.PLP>
-36.0588

> <Gold.PLP.part.hbond>
-4.2362

> <Gold.PLP.part.metal>
0.0000

> <Gold.PLP.part.buried>
-5.2741

> <Gold.PLP.part.nonpolar>
-28.3060

> <Gold.PLP.part.repulsive>
0.3734

> <Gold.PLP.ligand.clash>
0.0000

> <Gold.PLP.ligand.torsion>
0.8127

> <Gold.PLP.Chemscore.Hbond>
2.9280

> <Gold.PLP.Chemscore.CHOScore>
0.0000

> <Gold.PLP.Chemscore.Metal>
0.0000

> <Gold.Chemscore.Hbonds>
donor molecule, donor type, donor heavy atom, donor atom, acceptor molecule, acceptor atom, score
      L1  H    10    36       P1  7948  0.57
      L1  H    13    37       P1  7948  0.99
      P1  H  7989  7998       L1    16  0.80
      P1  H 10752 10763       L1    12  0.24

> <Gold.PLP.Chemscore.Internal.Correction>
0.0614

> <Gold.Rescore>
     Score         DG    S(hbond)    S(metal)    S(lipo)     H(rot)  DE(clash)    DE(int)     intcor
     11.82     -13.68       1.47        0.00      71.35       1.98       0.02       1.83       ----

> <Gold.Chemscore.Fitness>
11.8223

> <Gold.Chemscore.DG>
-13.6755

> <Gold.Chemscore.ZeroCoef>
-5.4800

> <Gold.Chemscore.Hbond>
1.4713

> <Gold.Chemscore.Metal>
0.0000

> <Gold.Chemscore.Lipo>
71.3547

> <Gold.Chemscore.Internal_Hbond>
0.0000

> <Gold.Chemscore.DEClash>
0.0234

> <Gold.Chemscore.DEInternal>
1.8298

> <Gold.Chemscore.Rot>
1.9793

> <Gold.Chemscore.Internal.Correction>
   9.000000E+99

> <Gold.Chemscore.Hbonds>
donor molecule, donor type, donor heavy atom, donor atom, acceptor molecule, acceptor atom, score
      L1  H    10    36       P1  7948  0.04
      L1  H    13    37       P1  7948  0.37
      P1  H  7989  7998       L1    16  0.10
      P1  H 10752 10763       L1    12  0.24

> <Gold.Chemscore.Hbond.Weighted>
-4.9140

> <Gold.Chemscore.Metal.Weighted>
-0.0000

> <Gold.Chemscore.Lipo.Weighted>
-8.3485

> <Gold.Chemscore.Internal_Hbond.Weighted>
0.0000

> <Gold.Chemscore.DEClash.Weighted>
0.0234

> <Gold.Chemscore.DEInternal.Weighted>
1.8298

> <Gold.Chemscore.Rot.Weighted>
5.0670

> <Gold.Chemscore.Internal.Correction.Weighted>
   9.000000E+99

> <Gold.Protein.RotatedTorsions>
[ 6907 6896 6895 6894 ] final -100.97 input  -60.11 | X-H torsion
[ 7974 7965 7964 7962 ] final  -36.30 input  175.53 | X-H torsion
[ 8008 7997 7996 7995 ] final   -4.52 input   59.86 | X-H torsion
[ 10167 10162 10161 10158 ] final   61.06 input  -65.29 | X-H torsion
[ 10718 10713 10712 10709 ] final -145.23 input   66.30 | X-H torsion
[ 10763 10752 10751 10750 ] final  110.66 input  -60.55 | X-H torsion
[ 11005 11000 10999 10996 ] final  -23.77 input  -57.11 | X-H torsion

> <Gold.Protein.ActiveResidues>
 VAL166  LYS551  ARG553  GLY616  TRP617  ASP618  TYR619  PRO620  LYS621  CYS622 
 ASP623  PHE694  ASN695  SER759  ASP760  ASP761  ALA762  ILE779  LEU786  VAL792 
 PHE793  MET794  SER795  GLU796  ALA797  LYS798  CYS799  TRP800  GLU811  SER814 

> <Gold.Protein.RotatedAtoms>
  150.7136  134.0805  159.3895 H   0  0  0  0  0  0  0  0  0  0  0  0  # atno 6907 bound_to 6896
  151.8789  135.0459  160.0496 H   0  0  0  0  0  0  0  0  0  0  0  0  # atno 6908 bound_to 6896
  152.2584  133.5240  159.5403 H   0  0  0  0  0  0  0  0  0  0  0  0  # atno 6909 bound_to 6896
  146.0673  140.6262  142.8969 H   0  0  0  0  0  0  0  0  0  0  0  0  # atno 7974 bound_to 7965
  154.6134  140.2482  155.7640 H   0  0  0  0  0  0  0  0  0  0  0  0  # atno 8008 bound_to 7997
  156.2384  140.2941  156.0327 H   0  0  0  0  0  0  0  0  0  0  0  0  # atno 8009 bound_to 7997
  155.2014  140.0394  157.2908 H   0  0  0  0  0  0  0  0  0  0  0  0  # atno 8010 bound_to 7997
  140.1589  144.4390  150.6720 H   0  0  0  0  0  0  0  0  0  0  0  0  # atno 10167 bound_to 10162
  156.3799  130.7831  151.2022 H   0  0  0  0  0  0  0  0  0  0  0  0  # atno 10718 bound_to 10713
  153.4521  135.3741  155.2290 H   0  0  0  0  0  0  0  0  0  0  0  0  # atno 10763 bound_to 10752
  154.8756  135.3888  154.4026 H   0  0  0  0  0  0  0  0  0  0  0  0  # atno 10764 bound_to 10752
  153.4587  135.7086  153.6128 H   0  0  0  0  0  0  0  0  0  0  0  0  # atno 10765 bound_to 10752
  140.8783  133.7672  156.0270 H   0  0  0  0  0  0  0  0  0  0  0  0  # atno 11005 bound_to 11000
  144.7210  140.4373  143.7008 LP  0  0  0  0  0  0  0  0  0  0  0  0  # atno 17320 bound_to 7965
  145.6454  139.1556  143.2892 LP  0  0  0  0  0  0  0  0  0  0  0  0  # atno 17321 bound_to 7965
  140.6655  143.2266  151.5752 LP  0  0  0  0  0  0  0  0  0  0  0  0  # atno 17342 bound_to 10162
  139.5390  144.2699  152.1312 LP  0  0  0  0  0  0  0  0  0  0  0  0  # atno 17343 bound_to 10162
  157.7491  131.0347  150.4330 LP  0  0  0  0  0  0  0  0  0  0  0  0  # atno 17370 bound_to 10713
  156.4572  130.4024  149.6599 LP  0  0  0  0  0  0  0  0  0  0  0  0  # atno 17371 bound_to 10713
  140.8492  134.2974  157.5282 LP  0  0  0  0  0  0  0  0  0  0  0  0  # atno 17394 bound_to 11000
  139.8717  134.9458  156.3921 LP  0  0  0  0  0  0  0  0  0  0  0  0  # atno 17395 bound_to 11000

$$$$
