AV-unprocessed.smi:610|AV-procd|sdf|3056|dock10
  -GOLD-   2262023583D 1   1.00000     0.00000
 Structure written by MMmdl.
 38 39  0  0  0  0  0  0  0  0  2 V2000
  143.8536  136.5878  154.5759 C   0  0  0  0  0  0  0  0  0  0  0  0
  142.8727  136.3563  153.4187 C   0  0  1  0  0  0  0  0  0  0  0  0
  142.1197  137.6527  153.0537 C   0  0  0  0  0  0  0  0  0  0  0  0
  140.7541  137.6637  153.5446 N   0  0  0  0  0  0  0  0  0  0  0  0
  139.7055  138.4515  153.0885 C   0  0  0  0  0  0  0  0  0  0  0  0
  138.6086  138.1273  153.8542 C   0  0  0  0  0  0  0  0  0  0  0  0
  138.9547  137.1416  154.7756 N   0  0  0  0  0  0  0  0  0  0  0  0
  140.2372  136.9126  154.5264 C   0  0  0  0  0  0  0  0  0  0  0  0
  143.6130  135.8433  152.2661 N   0  0  0  0  0  0  0  0  0  0  0  0
  143.5623  134.5872  151.7887 C   0  0  0  0  0  0  0  0  0  0  0  0
  142.8800  133.7079  152.3155 O   0  0  0  0  0  0  0  0  0  0  0  0
  144.4190  134.2409  150.5479 C   0  0  0  0  0  0  0  0  0  0  0  0
  143.9414  135.0903  149.4419 N   0  3  0  0  0  0  0  0  0  0  0  0
  145.9183  134.4698  150.8192 C   0  0  0  0  0  0  0  0  0  0  0  0
  146.4207  133.1789  151.4827 C   0  0  0  0  0  0  0  0  0  0  0  0
  145.4232  132.0780  151.0889 C   0  0  0  0  0  0  0  0  0  0  0  0
  144.4088  132.7489  150.1542 C   0  0  0  0  0  0  0  0  0  0  0  0
  143.3330  136.9462  155.4645 H   0  0  0  0  0  0  0  0  0  0  0  0
  144.6119  137.3267  154.3140 H   0  0  0  0  0  0  0  0  0  0  0  0
  144.3667  135.6643  154.8470 H   0  0  0  0  0  0  0  0  0  0  0  0
  142.1477  135.6144  153.7581 H   0  0  0  0  0  0  0  0  0  0  0  0
  142.6316  138.5163  153.4802 H   0  0  0  0  0  0  0  0  0  0  0  0
  142.1088  137.7995  151.9725 H   0  0  0  0  0  0  0  0  0  0  0  0
  139.8248  139.1627  152.2844 H   0  0  0  0  0  0  0  0  0  0  0  0
  137.6045  138.5230  153.8115 H   0  0  0  0  0  0  0  0  0  0  0  0
  140.8169  136.1879  155.0792 H   0  0  0  0  0  0  0  0  0  0  0  0
  144.1992  136.5065  151.7799 H   0  0  0  0  0  0  0  0  0  0  0  0
  144.1005  136.0618  149.6669 H   0  0  0  0  0  0  0  0  0  0  0  0
  142.9530  134.9319  149.3061 H   0  0  0  0  0  0  0  0  0  0  0  0
  146.4467  134.6105  149.8748 H   0  0  0  0  0  0  0  0  0  0  0  0
  146.1318  135.3490  151.4289 H   0  0  0  0  0  0  0  0  0  0  0  0
  147.4353  132.9411  151.1616 H   0  0  0  0  0  0  0  0  0  0  0  0
  146.4424  133.2924  152.5667 H   0  0  0  0  0  0  0  0  0  0  0  0
  145.9142  131.2315  150.6075 H   0  0  0  0  0  0  0  0  0  0  0  0
  144.9206  131.6994  151.9798 H   0  0  0  0  0  0  0  0  0  0  0  0
  143.4279  132.2739  150.1918 H   0  0  0  0  0  0  0  0  0  0  0  0
  144.7587  132.6427  149.1258 H   0  0  0  0  0  0  0  0  0  0  0  0
  144.4381  134.8517  148.5957 H   0  0  0  0  0  0  0  0  0  0  0  0
  1  2  1  0  0  0  0
  1 18  1  0  0  0  0
  1 19  1  0  0  0  0
  1 20  1  0  0  0  0
  2  3  1  0  0  0  0
  2  9  1  0  0  0  0
  2 21  1  0  0  0  0
  3  4  1  0  0  0  0
  3 22  1  0  0  0  0
  3 23  1  0  0  0  0
  4  8  1  0  0  0  0
  4  5  1  0  0  0  0
  5  6  2  0  0  0  0
  5 24  1  0  0  0  0
  6  7  1  0  0  0  0
  6 25  1  0  0  0  0
  7  8  2  0  0  0  0
  8 26  1  0  0  0  0
  9 10  1  0  0  0  0
  9 27  1  0  0  0  0
 10 11  2  0  0  0  0
 10 12  1  0  0  0  0
 12 17  1  0  0  0  0
 12 13  1  0  0  0  0
 12 14  1  0  0  0  0
 13 28  1  0  0  0  0
 13 29  1  0  0  0  0
 13 38  1  0  0  0  0
 14 15  1  0  0  0  0
 14 30  1  0  0  0  0
 14 31  1  0  0  0  0
 15 16  1  0  0  0  0
 15 32  1  0  0  0  0
 15 33  1  0  0  0  0
 16 17  1  0  0  0  0
 16 34  1  0  0  0  0
 16 35  1  0  0  0  0
 17 36  1  0  0  0  0
 17 37  1  0  0  0  0
M  CHG  1  13   1
M  END
> <s_m_source_file>
AV-unprocessed.smi

> <i_m_source_file_index>
610

> <i_lp_mmshare_version>
43012

> <i_f3d_flags>
0

> <s_epik_input>
W2NIXTFuW2NIXVtjSF1uMVtDSDJdW0NAQEhdKFtDSDNdKVtOSF1DKD1PKUMyKFtOSDJdKVtDSDJdW0NIMl1bQ0gyXVtDSDJdMg==

> <s_epik_cmdline>
J2VwaWtfcHl0aG9uJywgJy1waCcsICc3LjAnLCAnLXRuJywgJzgnLCAnLW1hJywgJzIwMCcsICctbWV0YWxfYmluZGluZycsICctaW1hZScsICc8aW5maWxlLm1hZT4nLCAnLW9tYWUnLCAnPG91dGZpbGUubWFlPic=

> <r_lp_tautomer_probability>
1

> <r_epik_Ionization_Penalty>
0.661147

> <r_epik_Ionization_Penalty_Charging>
0.661145

> <r_epik_Ionization_Penalty_Neutral>
1.19451e-06

> <r_epik_State_Penalty>
0.679243

> <r_epik_Charging_Adjusted_Penalty>
1.34039

> <i_epik_Tot_Q>
1

> <i_epik_Tot_abs_Q>
1

> <r_epik_Metal_State_Penalty>
0.372892

> <b_epik_Metal_Only>
0

> <s_lp_Force_Field>
OPLS_2005

> <r_lp_Energy>
24.5235

> <b_lp_Chiralities_Consistent>
1

> <s_lp_Variant>
AV-unprocessed.smi:610-4

> <Gold.Version>
5.8.1

> <Gold.Id.Protein>
6NUR|6NUR_protein|mol2

> <Gold.PLP.Fitness>
43.3218

> <Gold.PLP.PLP>
-30.3481

> <Gold.PLP.part.hbond>
-2.0000

> <Gold.PLP.part.metal>
0.0000

> <Gold.PLP.part.buried>
-6.1482

> <Gold.PLP.part.nonpolar>
-23.7724

> <Gold.PLP.part.repulsive>
0.4868

> <Gold.PLP.ligand.clash>
0.0000

> <Gold.PLP.ligand.torsion>
1.0422

> <Gold.PLP.Chemscore.Hbond>
3.0000

> <Gold.PLP.Chemscore.CHOScore>
2.0000

> <Gold.PLP.Chemscore.Metal>
0.0000

> <Gold.Chemscore.Hbonds>
donor molecule, donor type, donor heavy atom, donor atom, acceptor molecule, acceptor atom, score
      L1  H    13    29       P1 10186  2.00
      L1  H    13    38       P1  7921  0.98
      L1  C     5    24       P1 10160  1.00
      L1  C     8    26       P1 11000  0.77

> <Gold.PLP.Chemscore.Internal.Correction>
0.0581

> <Gold.Rescore>
     Score         DG    S(hbond)    S(metal)    S(lipo)     H(rot)  DE(clash)    DE(int)     intcor
     13.13     -14.35       2.00        0.00      62.56       2.00       0.09       1.13       ----

> <Gold.Chemscore.Fitness>
13.1265

> <Gold.Chemscore.DG>
-14.3515

> <Gold.Chemscore.ZeroCoef>
-5.4800

> <Gold.Chemscore.Hbond>
1.9954

> <Gold.Chemscore.Metal>
0.0000

> <Gold.Chemscore.Lipo>
62.5609

> <Gold.Chemscore.Internal_Hbond>
0.0000

> <Gold.Chemscore.DEClash>
0.0909

> <Gold.Chemscore.DEInternal>
1.1342

> <Gold.Chemscore.Rot>
1.9972

> <Gold.Chemscore.Internal.Correction>
   9.000000E+99

> <Gold.Chemscore.Hbonds>
donor molecule, donor type, donor heavy atom, donor atom, acceptor molecule, acceptor atom, score
      L1  H    13    28       P1 10171  0.01
      L1  H    13    29       P1 10186  0.81
      L1  H    13    38       P1  7921  0.91

> <Gold.Chemscore.Hbond.Weighted>
-6.6646

> <Gold.Chemscore.Metal.Weighted>
-0.0000

> <Gold.Chemscore.Lipo.Weighted>
-7.3196

> <Gold.Chemscore.Internal_Hbond.Weighted>
0.0000

> <Gold.Chemscore.DEClash.Weighted>
0.0909

> <Gold.Chemscore.DEInternal.Weighted>
1.1342

> <Gold.Chemscore.Rot.Weighted>
5.1127

> <Gold.Chemscore.Internal.Correction.Weighted>
   9.000000E+99

> <Gold.Protein.RotatedTorsions>
[ 6907 6896 6895 6894 ] final   21.64 input  -60.11 | X-H torsion
[ 7974 7965 7964 7962 ] final   -2.59 input  175.53 | X-H torsion
[ 8008 7997 7996 7995 ] final  157.35 input   59.86 | X-H torsion
[ 10167 10162 10161 10158 ] final  162.70 input  -65.29 | X-H torsion
[ 10718 10713 10712 10709 ] final  163.02 input   66.30 | X-H torsion
[ 10763 10752 10751 10750 ] final   20.82 input  -60.55 | X-H torsion
[ 11005 11000 10999 10996 ] final -154.91 input  -57.11 | X-H torsion

> <Gold.Protein.ActiveResidues>
 VAL166  LYS551  ARG553  GLY616  TRP617  ASP618  TYR619  PRO620  LYS621  CYS622 
 ASP623  PHE694  ASN695  SER759  ASP760  ASP761  ALA762  ILE779  LEU786  VAL792 
 PHE793  MET794  SER795  GLU796  ALA797  LYS798  CYS799  TRP800  GLU811  SER814 

> <Gold.Protein.RotatedAtoms>
  151.9149  135.0323  160.0517 H   0  0  0  0  0  0  0  0  0  0  0  0  # atno 6907 bound_to 6896
  152.2248  133.5007  159.5191 H   0  0  0  0  0  0  0  0  0  0  0  0  # atno 6908 bound_to 6896
  150.7009  134.1211  159.4078 H   0  0  0  0  0  0  0  0  0  0  0  0  # atno 6909 bound_to 6896
  146.2402  140.1594  142.8333 H   0  0  0  0  0  0  0  0  0  0  0  0  # atno 7974 bound_to 7965
  156.2369  140.1887  156.7095 H   0  0  0  0  0  0  0  0  0  0  0  0  # atno 8008 bound_to 7997
  154.6123  140.0620  156.9536 H   0  0  0  0  0  0  0  0  0  0  0  0  # atno 8009 bound_to 7997
  155.1996  140.3291  155.4348 H   0  0  0  0  0  0  0  0  0  0  0  0  # atno 8010 bound_to 7997
  139.4864  144.4411  151.8951 H   0  0  0  0  0  0  0  0  0  0  0  0  # atno 10167 bound_to 10162
  157.1144  131.0476  151.2443 H   0  0  0  0  0  0  0  0  0  0  0  0  # atno 10718 bound_to 10713
  153.1045  135.6681  153.9611 H   0  0  0  0  0  0  0  0  0  0  0  0  # atno 10763 bound_to 10752
  153.9172  135.3018  155.3449 H   0  0  0  0  0  0  0  0  0  0  0  0  # atno 10764 bound_to 10752
  154.7466  135.5054  153.9292 H   0  0  0  0  0  0  0  0  0  0  0  0  # atno 10765 bound_to 10752
  140.6922  134.4028  157.5218 H   0  0  0  0  0  0  0  0  0  0  0  0  # atno 11005 bound_to 11000
  145.0102  140.8707  143.5229 LP  0  0  0  0  0  0  0  0  0  0  0  0  # atno 17320 bound_to 7965
  145.1626  139.2450  143.5383 LP  0  0  0  0  0  0  0  0  0  0  0  0  # atno 17321 bound_to 7965
  140.3863  144.2673  150.5903 LP  0  0  0  0  0  0  0  0  0  0  0  0  # atno 17342 bound_to 10162
  140.5187  143.2271  151.8422 LP  0  0  0  0  0  0  0  0  0  0  0  0  # atno 17343 bound_to 10162
  157.4531  130.7610  149.7169 LP  0  0  0  0  0  0  0  0  0  0  0  0  # atno 17370 bound_to 10713
  155.9843  130.3993  150.3319 LP  0  0  0  0  0  0  0  0  0  0  0  0  # atno 17371 bound_to 10713
  139.8920  134.8765  156.2292 LP  0  0  0  0  0  0  0  0  0  0  0  0  # atno 17394 bound_to 11000
  141.0232  133.7030  156.1303 LP  0  0  0  0  0  0  0  0  0  0  0  0  # atno 17395 bound_to 11000

$$$$
