AV-unprocessed.smi:1784|AV-procd|sdf|7196|dock8
  -GOLD-   22720 8433D 1   1.00000     0.00000
 Structure written by MMmdl.
 43 45  0  0  0  0  0  0  0  0  1 V2000
  145.0775  138.0879  152.8961 O   0  0  0  0  0  0  0  0  0  0  0  0
  146.1660  137.6001  152.5915 C   0  0  0  0  0  0  0  0  0  0  0  0
  146.3001  136.4047  152.0043 N   0  0  0  0  0  0  0  0  0  0  0  0
  145.1912  135.5223  151.6709 C   0  0  0  0  0  0  0  0  0  0  0  0
  145.6973  134.2786  150.9282 C   0  0  2  0  0  0  0  0  0  0  0  0
  144.5812  133.3885  150.3865 C   0  0  0  0  0  0  0  0  0  0  0  0
  145.2861  132.0562  150.2737 C   0  0  0  0  0  0  0  0  0  0  0  0
  146.1709  132.0629  151.5174 C   0  0  0  0  0  0  0  0  0  0  0  0
  146.4410  133.4336  151.8035 O   0  0  0  0  0  0  0  0  0  0  0  0
  147.3616  138.1837  152.7782 N   0  0  0  0  0  0  0  0  0  0  0  0
  147.6519  139.4473  153.3679 C   0  0  0  0  0  0  0  0  0  0  0  0
  146.7785  140.5586  153.2764 C   0  0  0  0  0  0  0  0  0  0  0  0
  147.1342  141.7643  153.9081 C   0  0  0  0  0  0  0  0  0  0  0  0
  148.3474  141.8151  154.6172 C   0  0  0  0  0  0  0  0  0  0  0  0
  149.1824  140.7620  154.7276 N   0  0  0  0  0  0  0  0  0  0  0  0
  148.8448  139.5978  154.1211 C   0  0  0  0  0  0  0  0  0  0  0  0
  149.7272  138.5111  154.2589 N   0  0  0  0  0  0  0  0  0  0  0  0
  151.0421  138.8272  154.7913 C   0  0  0  0  0  0  0  0  0  0  0  0
  151.6515  137.4809  155.1887 C   0  0  0  0  0  0  0  0  0  0  0  0
  150.4501  136.5495  155.3911 C   0  0  0  0  0  0  0  0  0  0  0  0
  149.2246  137.4050  155.0564 C   0  0  0  0  0  0  0  0  0  0  0  0
  147.2292  136.0767  151.7842 H   0  0  0  0  0  0  0  0  0  0  0  0
  144.6637  135.2320  152.5811 H   0  0  0  0  0  0  0  0  0  0  0  0
  144.4809  136.0641  151.0443 H   0  0  0  0  0  0  0  0  0  0  0  0
  146.3507  134.5694  150.1038 H   0  0  0  0  0  0  0  0  0  0  0  0
  143.7619  133.3168  151.1035 H   0  0  0  0  0  0  0  0  0  0  0  0
  144.1774  133.7419  149.4374 H   0  0  0  0  0  0  0  0  0  0  0  0
  144.6022  131.2076  150.2405 H   0  0  0  0  0  0  0  0  0  0  0  0
  145.9024  132.0361  149.3739 H   0  0  0  0  0  0  0  0  0  0  0  0
  145.6397  131.6315  152.3664 H   0  0  0  0  0  0  0  0  0  0  0  0
  147.0918  131.4980  151.3721 H   0  0  0  0  0  0  0  0  0  0  0  0
  148.1567  137.6997  152.3876 H   0  0  0  0  0  0  0  0  0  0  0  0
  145.8388  140.5057  152.7488 H   0  0  0  0  0  0  0  0  0  0  0  0
  146.4890  142.6285  153.8541 H   0  0  0  0  0  0  0  0  0  0  0  0
  148.6529  142.7236  155.1146 H   0  0  0  0  0  0  0  0  0  0  0  0
  151.6533  139.3423  154.0495 H   0  0  0  0  0  0  0  0  0  0  0  0
  150.9596  139.4725  155.6669 H   0  0  0  0  0  0  0  0  0  0  0  0
  152.2827  137.1003  154.3848 H   0  0  0  0  0  0  0  0  0  0  0  0
  152.2683  137.5664  156.0838 H   0  0  0  0  0  0  0  0  0  0  0  0
  150.5194  135.6993  154.7115 H   0  0  0  0  0  0  0  0  0  0  0  0
  150.3971  136.1587  156.4077 H   0  0  0  0  0  0  0  0  0  0  0  0
  148.7620  137.7732  155.9733 H   0  0  0  0  0  0  0  0  0  0  0  0
  148.4750  136.8344  154.5071 H   0  0  0  0  0  0  0  0  0  0  0  0
  1  2  2  0  0  0  0
  2  3  1  0  0  0  0
  2 10  1  0  0  0  0
  3  4  1  0  0  0  0
  3 22  1  0  0  0  0
  4  5  1  0  0  0  0
  4 23  1  0  0  0  0
  4 24  1  0  0  0  0
  5  9  1  0  0  0  0
  5  6  1  0  0  0  0
  5 25  1  0  0  0  0
  6  7  1  0  0  0  0
  6 26  1  0  0  0  0
  6 27  1  0  0  0  0
  7  8  1  0  0  0  0
  7 28  1  0  0  0  0
  7 29  1  0  0  0  0
  8  9  1  0  0  0  0
  8 30  1  0  0  0  0
  8 31  1  0  0  0  0
 10 11  1  0  0  0  0
 10 32  1  0  0  0  0
 11 16  1  0  0  0  0
 11 12  2  0  0  0  0
 12 13  1  0  0  0  0
 12 33  1  0  0  0  0
 13 14  2  0  0  0  0
 13 34  1  0  0  0  0
 14 15  1  0  0  0  0
 14 35  1  0  0  0  0
 15 16  2  0  0  0  0
 16 17  1  0  0  0  0
 17 21  1  0  0  0  0
 17 18  1  0  0  0  0
 18 19  1  0  0  0  0
 18 36  1  0  0  0  0
 18 37  1  0  0  0  0
 19 20  1  0  0  0  0
 19 38  1  0  0  0  0
 19 39  1  0  0  0  0
 20 21  1  0  0  0  0
 20 40  1  0  0  0  0
 20 41  1  0  0  0  0
 21 42  1  0  0  0  0
 21 43  1  0  0  0  0
M  END
> <s_m_source_file>
AV-unprocessed.smi

> <i_m_source_file_index>
1784

> <i_lp_mmshare_version>
43012

> <i_f3d_flags>
0

> <s_epik_input>
TzFbQ0gyXVtDSDJdW0NIMl1bQ0BIXTFbQ0gyXVtOSF1DKD1PKVtOSF1jMltjSF1bY0hdW2NIXW5jMk4zW0NIMl1bQ0gyXVtDSDJdW0NIMl0z

> <s_epik_cmdline>
J2VwaWtfcHl0aG9uJywgJy1waCcsICc3LjAnLCAnLXRuJywgJzgnLCAnLW1hJywgJzIwMCcsICctbWV0YWxfYmluZGluZycsICctaW1hZScsICc8aW5maWxlLm1hZT4nLCAnLW9tYWUnLCAnPG91dGZpbGUubWFlPic=

> <r_lp_tautomer_probability>
1

> <r_epik_Ionization_Penalty>
0.0982482

> <r_epik_Ionization_Penalty_Charging>
0

> <r_epik_Ionization_Penalty_Neutral>
0.0982482

> <r_epik_State_Penalty>
0.0877864

> <r_epik_Charging_Adjusted_Penalty>
0.0877864

> <i_epik_Tot_Q>
0

> <i_epik_Tot_abs_Q>
0

> <r_epik_Metal_State_Penalty>
0.0752567

> <b_epik_Metal_Only>
0

> <s_lp_Force_Field>
OPLS_2005

> <r_lp_Energy>
47.4963

> <b_lp_Chiralities_Consistent>
1

> <s_lp_Variant>
AV-unprocessed.smi:1784-1

> <Gold.Version>
5.8.1

> <Gold.Id.Protein>
6NUR|6NUR_protein|mol2

> <Gold.PLP.Fitness>
41.1101

> <Gold.PLP.PLP>
-33.0218

> <Gold.PLP.part.hbond>
-2.2326

> <Gold.PLP.part.metal>
0.0000

> <Gold.PLP.part.buried>
-1.3765

> <Gold.PLP.part.nonpolar>
-32.7241

> <Gold.PLP.part.repulsive>
3.0786

> <Gold.PLP.ligand.clash>
0.0000

> <Gold.PLP.ligand.torsion>
0.4782

> <Gold.PLP.Chemscore.Hbond>
2.0000

> <Gold.PLP.Chemscore.CHOScore>
1.0000

> <Gold.PLP.Chemscore.Metal>
0.0000

> <Gold.Chemscore.Hbonds>
donor molecule, donor type, donor heavy atom, donor atom, acceptor molecule, acceptor atom, score
      L1  H     3    22       P1  7948  1.00
      L1  H    10    32       P1  7948  1.00
      L1  C    14    35       P1  8028  1.00

> <Gold.PLP.Chemscore.Internal.Correction>
0.0448

> <Gold.Rescore>
     Score         DG    S(hbond)    S(metal)    S(lipo)     H(rot)  DE(clash)    DE(int)     intcor
     14.57     -18.59       1.94        0.00      86.76       1.38       1.63       2.39       ----

> <Gold.Chemscore.Fitness>
14.5694

> <Gold.Chemscore.DG>
-18.5880

> <Gold.Chemscore.ZeroCoef>
-5.4800

> <Gold.Chemscore.Hbond>
1.9427

> <Gold.Chemscore.Metal>
0.0000

> <Gold.Chemscore.Lipo>
86.7600

> <Gold.Chemscore.Internal_Hbond>
0.0000

> <Gold.Chemscore.DEClash>
1.6297

> <Gold.Chemscore.DEInternal>
2.3888

> <Gold.Chemscore.Rot>
1.3796

> <Gold.Chemscore.Internal.Correction>
   9.000000E+99

> <Gold.Chemscore.Hbonds>
donor molecule, donor type, donor heavy atom, donor atom, acceptor molecule, acceptor atom, score
      L1  H     3    22       P1  7948  0.97
      L1  H    10    32       P1  7948  0.96

> <Gold.Chemscore.Hbond.Weighted>
-6.4887

> <Gold.Chemscore.Metal.Weighted>
-0.0000

> <Gold.Chemscore.Lipo.Weighted>
-10.1509

> <Gold.Chemscore.Internal_Hbond.Weighted>
0.0000

> <Gold.Chemscore.DEClash.Weighted>
1.6297

> <Gold.Chemscore.DEInternal.Weighted>
2.3888

> <Gold.Chemscore.Rot.Weighted>
3.5317

> <Gold.Chemscore.Internal.Correction.Weighted>
   9.000000E+99

> <Gold.Protein.RotatedTorsions>
[ 6907 6896 6895 6894 ] final  -69.36 input  -60.11 | X-H torsion
[ 7974 7965 7964 7962 ] final  178.29 input  175.53 | X-H torsion
[ 8008 7997 7996 7995 ] final   42.43 input   59.86 | X-H torsion
[ 10167 10162 10161 10158 ] final   57.49 input  -65.29 | X-H torsion
[ 10718 10713 10712 10709 ] final   35.42 input   66.30 | X-H torsion
[ 10763 10752 10751 10750 ] final  161.26 input  -60.55 | X-H torsion
[ 11005 11000 10999 10996 ] final  169.59 input  -57.11 | X-H torsion

> <Gold.Protein.ActiveResidues>
 VAL166  LYS551  ARG553  GLY616  TRP617  ASP618  TYR619  PRO620  LYS621  CYS622 
 ASP623  PHE694  ASN695  SER759  ASP760  ASP761  ALA762  ILE779  LEU786  VAL792 
 PHE793  MET794  SER795  GLU796  ALA797  LYS798  CYS799  TRP800  GLU811  SER814 

> <Gold.Protein.RotatedAtoms>
  150.7309  134.5608  159.5840 H   0  0  0  0  0  0  0  0  0  0  0  0  # atno 6907 bound_to 6896
  152.3072  134.7538  160.0354 H   0  0  0  0  0  0  0  0  0  0  0  0  # atno 6908 bound_to 6896
  151.8099  133.3345  159.3589 H   0  0  0  0  0  0  0  0  0  0  0  0  # atno 6909 bound_to 6896
  144.7158  140.0376  143.6438 H   0  0  0  0  0  0  0  0  0  0  0  0  # atno 7974 bound_to 7965
  155.2860  140.3375  155.4255 H   0  0  0  0  0  0  0  0  0  0  0  0  # atno 8008 bound_to 7997
  156.2068  140.1754  156.7823 H   0  0  0  0  0  0  0  0  0  0  0  0  # atno 8009 bound_to 7997
  154.5631  140.0683  156.8834 H   0  0  0  0  0  0  0  0  0  0  0  0  # atno 8010 bound_to 7997
  140.1974  144.4023  150.6544 H   0  0  0  0  0  0  0  0  0  0  0  0  # atno 10167 bound_to 10162
  157.3224  130.7455  149.6794 H   0  0  0  0  0  0  0  0  0  0  0  0  # atno 10718 bound_to 10713
  154.2602  135.2768  155.2781 H   0  0  0  0  0  0  0  0  0  0  0  0  # atno 10763 bound_to 10752
  154.5390  135.5708  153.6827 H   0  0  0  0  0  0  0  0  0  0  0  0  # atno 10764 bound_to 10752
  152.9964  135.6246  154.2752 H   0  0  0  0  0  0  0  0  0  0  0  0  # atno 10765 bound_to 10752
  140.2994  134.7608  157.3904 H   0  0  0  0  0  0  0  0  0  0  0  0  # atno 11005 bound_to 11000
  146.0051  139.3123  143.0904 LP  0  0  0  0  0  0  0  0  0  0  0  0  # atno 17320 bound_to 7965
  145.8748  140.9398  143.0632 LP  0  0  0  0  0  0  0  0  0  0  0  0  # atno 17321 bound_to 7965
  140.6414  143.2204  151.6282 LP  0  0  0  0  0  0  0  0  0  0  0  0  # atno 17342 bound_to 10162
  139.5231  144.3143  152.0965 LP  0  0  0  0  0  0  0  0  0  0  0  0  # atno 17343 bound_to 10162
  155.9687  130.4219  150.4492 LP  0  0  0  0  0  0  0  0  0  0  0  0  # atno 17370 bound_to 10713
  157.2509  131.0546  151.2379 LP  0  0  0  0  0  0  0  0  0  0  0  0  # atno 17371 bound_to 10713
  140.1123  134.5329  155.8255 LP  0  0  0  0  0  0  0  0  0  0  0  0  # atno 17394 bound_to 11000
  141.2131  133.6728  156.6711 LP  0  0  0  0  0  0  0  0  0  0  0  0  # atno 17395 bound_to 11000

$$$$
