AV-unprocessed.smi:849|AV-procd|sdf|3943|dock8
  -GOLD-   22720 1413D 1   1.00000     0.00000
 Structure written by MMmdl.
 36 38  0  0  0  0  0  0  0  0  1 V2000
  151.9029  136.8823  154.1078 O   0  0  0  0  0  0  0  0  0  0  0  0
  151.6021  137.7835  155.1521 C   0  0  0  0  0  0  0  0  0  0  0  0
  150.4941  138.7358  154.8006 C   0  0  0  0  0  0  0  0  0  0  0  0
  149.4277  138.3209  154.1146 N   0  0  0  0  0  0  0  0  0  0  0  0
  148.6568  139.4612  154.0223 C   0  0  0  0  0  0  0  0  0  0  0  0
  147.3996  139.6712  153.4117 C   0  0  0  0  0  0  0  0  0  0  0  0
  146.7894  140.9419  153.4524 C   0  0  0  0  0  0  0  0  0  0  0  0
  147.4257  142.0174  154.1048 C   0  0  0  0  0  0  0  0  0  0  0  0
  148.6787  141.8284  154.7191 C   0  0  0  0  0  0  0  0  0  0  0  0
  149.2867  140.5589  154.6723 C   0  0  0  0  0  0  0  0  0  0  0  0
  150.4877  140.0483  155.1605 N   0  0  0  0  0  0  0  0  0  0  0  0
  151.4883  140.8025  155.9123 C   0  0  0  0  0  0  0  0  0  0  0  0
  150.9578  141.4096  157.2331 C   0  0  2  0  0  0  0  0  0  0  0  0
  150.4382  142.7037  156.9935 O   0  0  0  0  0  0  0  0  0  0  0  0
  151.9864  141.3786  158.3641 C   0  0  0  0  0  0  0  0  0  0  0  0
  152.4288  140.1392  158.8840 C   0  0  0  0  0  0  0  0  0  0  0  0
  153.3697  140.0929  159.9296 C   0  0  0  0  0  0  0  0  0  0  0  0
  153.8785  141.2868  160.4707 C   0  0  0  0  0  0  0  0  0  0  0  0
  153.4412  142.5256  159.9675 C   0  0  0  0  0  0  0  0  0  0  0  0
  152.4990  142.5781  158.9206 C   0  0  0  0  0  0  0  0  0  0  0  0
  151.9825  144.1292  158.3575 Cl  0  0  0  0  0  0  0  0  0  0  0  0
  151.3321  137.0667  153.3782 H   0  0  0  0  0  0  0  0  0  0  0  0
  151.3035  137.2126  156.0311 H   0  0  0  0  0  0  0  0  0  0  0  0
  152.5182  138.3060  155.4134 H   0  0  0  0  0  0  0  0  0  0  0  0
  146.9035  138.8523  152.9123 H   0  0  0  0  0  0  0  0  0  0  0  0
  145.8282  141.0915  152.9831 H   0  0  0  0  0  0  0  0  0  0  0  0
  146.9521  142.9879  154.1331 H   0  0  0  0  0  0  0  0  0  0  0  0
  149.1688  142.6516  155.2175 H   0  0  0  0  0  0  0  0  0  0  0  0
  152.3138  140.1258  156.1364 H   0  0  0  0  0  0  0  0  0  0  0  0
  151.9239  141.5718  155.2770 H   0  0  0  0  0  0  0  0  0  0  0  0
  150.0943  140.8240  157.5477 H   0  0  0  0  0  0  0  0  0  0  0  0
  150.0762  142.7242  156.1208 H   0  0  0  0  0  0  0  0  0  0  0  0
  152.0409  139.2103  158.4919 H   0  0  0  0  0  0  0  0  0  0  0  0
  153.6968  139.1403  160.3195 H   0  0  0  0  0  0  0  0  0  0  0  0
  154.5991  141.2527  161.2746 H   0  0  0  0  0  0  0  0  0  0  0  0
  153.8289  143.4408  160.3904 H   0  0  0  0  0  0  0  0  0  0  0  0
  1  2  1  0  0  0  0
  1 22  1  0  0  0  0
  2  3  1  0  0  0  0
  2 23  1  0  0  0  0
  2 24  1  0  0  0  0
  3 11  1  0  0  0  0
  3  4  2  0  0  0  0
  4  5  1  0  0  0  0
  5 10  2  0  0  0  0
  5  6  1  0  0  0  0
  6  7  2  0  0  0  0
  6 25  1  0  0  0  0
  7  8  1  0  0  0  0
  7 26  1  0  0  0  0
  8  9  2  0  0  0  0
  8 27  1  0  0  0  0
  9 10  1  0  0  0  0
  9 28  1  0  0  0  0
 10 11  1  0  0  0  0
 11 12  1  0  0  0  0
 12 13  1  0  0  0  0
 12 29  1  0  0  0  0
 12 30  1  0  0  0  0
 13 14  1  0  0  0  0
 13 15  1  0  0  0  0
 13 31  1  0  0  0  0
 14 32  1  0  0  0  0
 15 20  1  0  0  0  0
 15 16  2  0  0  0  0
 16 17  1  0  0  0  0
 16 33  1  0  0  0  0
 17 18  2  0  0  0  0
 17 34  1  0  0  0  0
 18 19  1  0  0  0  0
 18 35  1  0  0  0  0
 19 20  2  0  0  0  0
 19 36  1  0  0  0  0
 20 21  1  0  0  0  0
M  END
> <s_m_source_file>
AV-unprocessed.smi

> <i_m_source_file_index>
849

> <i_lp_mmshare_version>
43012

> <i_f3d_flags>
0

> <s_epik_input>
W2NIXTFbY0hdW2NIXVtjSF1jKGMxMiluKGMobjIpW0NIMl1bT0hdKVtDSDJdW0NASF0oW09IXSljM1tjSF1bY0hdW2NIXVtjSF1jM0Ns

> <s_epik_cmdline>
J2VwaWtfcHl0aG9uJywgJy1waCcsICc3LjAnLCAnLXRuJywgJzgnLCAnLW1hJywgJzIwMCcsICctbWV0YWxfYmluZGluZycsICctaW1hZScsICc8aW5maWxlLm1hZT4nLCAnLW9tYWUnLCAnPG91dGZpbGUubWFlPic=

> <r_epik_Ionization_Penalty>
0.0634742

> <r_epik_Ionization_Penalty_Charging>
0

> <r_epik_Ionization_Penalty_Neutral>
0.0634742

> <r_epik_State_Penalty>
0.0551572

> <r_epik_Charging_Adjusted_Penalty>
0.0551572

> <i_epik_Tot_Q>
0

> <i_epik_Tot_abs_Q>
0

> <r_epik_Metal_State_Penalty>
5.78034e-05

> <b_epik_Metal_Only>
0

> <s_lp_Force_Field>
OPLS_2005

> <r_lp_Energy>
13.6996

> <b_lp_Chiralities_Consistent>
1

> <s_lp_Variant>
AV-unprocessed.smi:849-1

> <Gold.Version>
5.8.1

> <Gold.Id.Protein>
6NUR|6NUR_protein|mol2

> <Gold.PLP.Fitness>
52.6093

> <Gold.PLP.PLP>
-49.9944

> <Gold.PLP.part.hbond>
-3.0000

> <Gold.PLP.part.metal>
0.0000

> <Gold.PLP.part.buried>
-1.7659

> <Gold.PLP.part.nonpolar>
-45.4766

> <Gold.PLP.part.repulsive>
0.6262

> <Gold.PLP.ligand.clash>
0.0000

> <Gold.PLP.ligand.torsion>
0.8591

> <Gold.PLP.Chemscore.Hbond>
1.4189

> <Gold.PLP.Chemscore.CHOScore>
0.0000

> <Gold.PLP.Chemscore.Metal>
0.0000

> <Gold.Chemscore.Hbonds>
donor molecule, donor type, donor heavy atom, donor atom, acceptor molecule, acceptor atom, score
      L1  H     1    22       P1  7949  0.35
      L1  H    14    32       P1  8028  0.04
      P1  H 10752 10763       L1     1  0.99

> <Gold.PLP.Chemscore.Internal.Correction>
0.0766

> <Gold.Rescore>
     Score         DG    S(hbond)    S(metal)    S(lipo)     H(rot)  DE(clash)    DE(int)     intcor
     14.07     -18.49       1.24        0.00     133.20       2.62       0.73       3.69       ----

> <Gold.Chemscore.Fitness>
14.0704

> <Gold.Chemscore.DG>
-18.4908

> <Gold.Chemscore.ZeroCoef>
-5.4800

> <Gold.Chemscore.Hbond>
1.2402

> <Gold.Chemscore.Metal>
0.0000

> <Gold.Chemscore.Lipo>
133.1970

> <Gold.Chemscore.Internal_Hbond>
0.0000

> <Gold.Chemscore.DEClash>
0.7259

> <Gold.Chemscore.DEInternal>
3.6945

> <Gold.Chemscore.Rot>
2.6232

> <Gold.Chemscore.Internal.Correction>
   9.000000E+99

> <Gold.Chemscore.Hbonds>
donor molecule, donor type, donor heavy atom, donor atom, acceptor molecule, acceptor atom, score
      L1  H     1    22       P1  7949  0.25
      L1  H    14    32       P1  8028  0.05
      P1  H 10752 10763       L1     1  0.92

> <Gold.Chemscore.Hbond.Weighted>
-4.1422

> <Gold.Chemscore.Metal.Weighted>
-0.0000

> <Gold.Chemscore.Lipo.Weighted>
-15.5841

> <Gold.Chemscore.Internal_Hbond.Weighted>
0.0000

> <Gold.Chemscore.DEClash.Weighted>
0.7259

> <Gold.Chemscore.DEInternal.Weighted>
3.6945

> <Gold.Chemscore.Rot.Weighted>
6.7154

> <Gold.Chemscore.Internal.Correction.Weighted>
   9.000000E+99

> <Gold.Protein.RotatedTorsions>
[ 6907 6896 6895 6894 ] final -129.22 input  -60.11 | X-H torsion
[ 7974 7965 7964 7962 ] final -133.27 input  175.53 | X-H torsion
[ 8008 7997 7996 7995 ] final  168.62 input   59.86 | X-H torsion
[ 10167 10162 10161 10158 ] final  -19.68 input  -65.29 | X-H torsion
[ 10718 10713 10712 10709 ] final -157.45 input   66.30 | X-H torsion
[ 10763 10752 10751 10750 ] final   20.40 input  -60.55 | X-H torsion
[ 11005 11000 10999 10996 ] final -150.43 input  -57.11 | X-H torsion

> <Gold.Protein.ActiveResidues>
 VAL166  LYS551  ARG553  GLY616  TRP617  ASP618  TYR619  PRO620  LYS621  CYS622 
 ASP623  PHE694  ASN695  SER759  ASP760  ASP761  ALA762  ILE779  LEU786  VAL792 
 PHE793  MET794  SER795  GLU796  ALA797  LYS798  CYS799  TRP800  GLU811  SER814 

> <Gold.Protein.RotatedAtoms>
  150.9263  133.6820  159.2820 H   0  0  0  0  0  0  0  0  0  0  0  0  # atno 6907 bound_to 6896
  151.4257  135.1002  159.9637 H   0  0  0  0  0  0  0  0  0  0  0  0  # atno 6908 bound_to 6896
  152.5004  133.8705  159.7351 H   0  0  0  0  0  0  0  0  0  0  0  0  # atno 6909 bound_to 6896
  144.9209  140.7012  143.4966 H   0  0  0  0  0  0  0  0  0  0  0  0  # atno 7974 bound_to 7965
  156.1530  140.1585  156.8738 H   0  0  0  0  0  0  0  0  0  0  0  0  # atno 8008 bound_to 7997
  154.5089  140.0806  156.7986 H   0  0  0  0  0  0  0  0  0  0  0  0  # atno 8009 bound_to 7997
  155.3858  140.3407  155.4251 H   0  0  0  0  0  0  0  0  0  0  0  0  # atno 8010 bound_to 7997
  140.7270  143.4795  151.0137 H   0  0  0  0  0  0  0  0  0  0  0  0  # atno 10167 bound_to 10162
  156.5405  130.8561  151.2747 H   0  0  0  0  0  0  0  0  0  0  0  0  # atno 10718 bound_to 10713
  153.1081  135.6689  153.9550 H   0  0  0  0  0  0  0  0  0  0  0  0  # atno 10763 bound_to 10752
  153.9102  135.3026  155.3450 H   0  0  0  0  0  0  0  0  0  0  0  0  # atno 10764 bound_to 10752
  154.7501  135.5038  153.9351 H   0  0  0  0  0  0  0  0  0  0  0  0  # atno 10765 bound_to 10752
  140.7402  134.3522  157.5149 H   0  0  0  0  0  0  0  0  0  0  0  0  # atno 11005 bound_to 11000
  145.3298  139.1763  143.4543 LP  0  0  0  0  0  0  0  0  0  0  0  0  # atno 17320 bound_to 7965
  146.3204  140.3326  142.8641 LP  0  0  0  0  0  0  0  0  0  0  0  0  # atno 17321 bound_to 7965
  139.8492  143.7460  152.3178 LP  0  0  0  0  0  0  0  0  0  0  0  0  # atno 17342 bound_to 10162
  139.7636  144.7499  151.0327 LP  0  0  0  0  0  0  0  0  0  0  0  0  # atno 17343 bound_to 10162
  157.7406  130.9853  150.2389 LP  0  0  0  0  0  0  0  0  0  0  0  0  # atno 17370 bound_to 10713
  156.2976  130.3754  149.7781 LP  0  0  0  0  0  0  0  0  0  0  0  0  # atno 17371 bound_to 10713
  139.8807  134.9076  156.2949 LP  0  0  0  0  0  0  0  0  0  0  0  0  # atno 17394 bound_to 11000
  140.9843  133.7248  156.0718 LP  0  0  0  0  0  0  0  0  0  0  0  0  # atno 17395 bound_to 11000

$$$$
