AV-unprocessed.smi:2978|AV-procd|sdf|11369|dock2
  -GOLD-   2272016283D 1   1.00000     0.00000
 Structure written by MMmdl.
 32 33  0  0  0  0  0  0  0  0  1 V2000
  151.9847  141.4904  157.0285 O   0  0  0  0  0  0  0  0  0  0  0  0
  150.9727  142.0920  156.6657 C   0  0  0  0  0  0  0  0  0  0  0  0
  150.0095  141.4664  155.6459 C   0  0  0  0  0  0  0  0  0  0  0  0
  150.0795  139.9983  155.6053 N   0  0  0  0  0  0  0  0  0  0  0  0
  150.5028  139.4866  154.3911 N   0  0  0  0  0  0  0  0  0  0  0  0
  150.6174  138.2116  154.2455 C   0  0  0  0  0  0  0  0  0  0  0  0
  150.3136  137.2838  155.3124 C   0  0  0  0  0  0  0  0  0  0  0  0
  150.4867  135.5829  155.0580 Cl  0  0  0  0  0  0  0  0  0  0  0  0
  149.8931  137.7952  156.4966 C   0  0  0  0  0  0  0  0  0  0  0  0
  149.5088  136.7480  157.8195 Cl  0  0  0  0  0  0  0  0  0  0  0  0
  149.7500  139.2437  156.6990 C   0  0  0  0  0  0  0  0  0  0  0  0
  149.3693  139.7467  157.7569 O   0  0  0  0  0  0  0  0  0  0  0  0
  150.6473  143.3151  157.1097 N   0  0  0  0  0  0  0  0  0  0  0  0
  151.4043  144.0775  158.0953 C   0  0  0  0  0  0  0  0  0  0  0  0
  151.5607  143.2953  159.4098 C   0  0  1  0  0  0  0  0  0  0  0  0
  152.8732  142.5273  159.5197 C   0  0  0  0  0  0  0  0  0  0  0  0
  152.9838  142.3060  161.0148 C   0  0  0  0  0  0  0  0  0  0  0  0
  152.2578  143.5166  161.6096 C   0  0  0  0  0  0  0  0  0  0  0  0
  151.6275  144.1813  160.5181 O   0  0  0  0  0  0  0  0  0  0  0  0
  148.9874  141.7816  155.8649 H   0  0  0  0  0  0  0  0  0  0  0  0
  150.2405  141.8844  154.6645 H   0  0  0  0  0  0  0  0  0  0  0  0
  150.9497  137.7636  153.3089 H   0  0  0  0  0  0  0  0  0  0  0  0
  149.7997  143.7383  156.7602 H   0  0  0  0  0  0  0  0  0  0  0  0
  152.3838  144.3370  157.6905 H   0  0  0  0  0  0  0  0  0  0  0  0
  150.8850  145.0186  158.2774 H   0  0  0  0  0  0  0  0  0  0  0  0
  150.7250  142.6081  159.5558 H   0  0  0  0  0  0  0  0  0  0  0  0
  152.8717  141.5975  158.9499 H   0  0  0  0  0  0  0  0  0  0  0  0
  153.7051  143.1417  159.1714 H   0  0  0  0  0  0  0  0  0  0  0  0
  152.4658  141.3880  161.2951 H   0  0  0  0  0  0  0  0  0  0  0  0
  154.0183  142.2260  161.3505 H   0  0  0  0  0  0  0  0  0  0  0  0
  151.5124  143.2049  162.3420 H   0  0  0  0  0  0  0  0  0  0  0  0
  152.9492  144.2018  162.1006 H   0  0  0  0  0  0  0  0  0  0  0  0
  1  2  2  0  0  0  0
  2  3  1  0  0  0  0
  2 13  1  0  0  0  0
  3  4  1  0  0  0  0
  3 20  1  0  0  0  0
  3 21  1  0  0  0  0
  4 11  1  0  0  0  0
  4  5  1  0  0  0  0
  5  6  2  0  0  0  0
  6  7  1  0  0  0  0
  6 22  1  0  0  0  0
  7  8  1  0  0  0  0
  7  9  2  0  0  0  0
  9 10  1  0  0  0  0
  9 11  1  0  0  0  0
 11 12  2  0  0  0  0
 13 14  1  0  0  0  0
 13 23  1  0  0  0  0
 14 15  1  0  0  0  0
 14 24  1  0  0  0  0
 14 25  1  0  0  0  0
 15 19  1  0  0  0  0
 15 16  1  0  0  0  0
 15 26  1  0  0  0  0
 16 17  1  0  0  0  0
 16 27  1  0  0  0  0
 16 28  1  0  0  0  0
 17 18  1  0  0  0  0
 17 29  1  0  0  0  0
 17 30  1  0  0  0  0
 18 19  1  0  0  0  0
 18 31  1  0  0  0  0
 18 32  1  0  0  0  0
M  END
> <s_m_source_file>
AV-unprocessed.smi

> <i_m_source_file_index>
2978

> <i_lp_mmshare_version>
43012

> <i_f3d_flags>
0

> <s_epik_input>
TzFbQ0gyXVtDSDJdW0NIMl1bQ0BIXTFbQ0gyXVtOSF1DKD1PKVtDSDJdbjJuW2NIXWMoQ2wpYyhDbCljMj1P

> <s_epik_cmdline>
J2VwaWtfcHl0aG9uJywgJy1waCcsICc3LjAnLCAnLXRuJywgJzgnLCAnLW1hJywgJzIwMCcsICctbWV0YWxfYmluZGluZycsICctaW1hZScsICc8aW5maWxlLm1hZT4nLCAnLW9tYWUnLCAnPG91dGZpbGUubWFlPic=

> <r_lp_tautomer_probability>
1

> <r_epik_Ionization_Penalty>
2.68881e-08

> <r_epik_Ionization_Penalty_Charging>
2.90862e-11

> <r_epik_Ionization_Penalty_Neutral>
2.6859e-08

> <r_epik_State_Penalty>
-0

> <r_epik_Charging_Adjusted_Penalty>
2.90862e-11

> <i_epik_Tot_Q>
0

> <i_epik_Tot_abs_Q>
0

> <r_epik_Metal_State_Penalty>
-0

> <b_epik_Metal_Only>
0

> <s_lp_Force_Field>
OPLS_2005

> <r_lp_Energy>
30.853

> <b_lp_Chiralities_Consistent>
1

> <s_lp_Variant>
AV-unprocessed.smi:2978-2

> <Gold.Version>
5.8.1

> <Gold.Id.Protein>
6NUR|6NUR_protein|mol2

> <Gold.PLP.Fitness>
41.0636

> <Gold.PLP.PLP>
-33.4089

> <Gold.PLP.part.hbond>
-2.0000

> <Gold.PLP.part.metal>
0.0000

> <Gold.PLP.part.buried>
-2.6090

> <Gold.PLP.part.nonpolar>
-29.6029

> <Gold.PLP.part.repulsive>
0.2656

> <Gold.PLP.ligand.clash>
0.0000

> <Gold.PLP.ligand.torsion>
0.7842

> <Gold.PLP.Chemscore.Hbond>
2.0000

> <Gold.PLP.Chemscore.CHOScore>
1.0652

> <Gold.PLP.Chemscore.Metal>
0.0000

> <Gold.Chemscore.Hbonds>
donor molecule, donor type, donor heavy atom, donor atom, acceptor molecule, acceptor atom, score
      L1  H    13    23       P1  8028  1.00
      P1  H  7989  7998       L1     5  1.00
      L1  C     6    22       P1  7948  0.06
      L1  C     6    22       P1  7949  0.96

> <Gold.PLP.Chemscore.Internal.Correction>
0.0275

> <Gold.Rescore>
     Score         DG    S(hbond)    S(metal)    S(lipo)     H(rot)  DE(clash)    DE(int)     intcor
     13.58     -17.74       1.92        0.00      90.05       1.83       1.57       2.59       ----

> <Gold.Chemscore.Fitness>
13.5777

> <Gold.Chemscore.DG>
-17.7358

> <Gold.Chemscore.ZeroCoef>
-5.4800

> <Gold.Chemscore.Hbond>
1.9190

> <Gold.Chemscore.Metal>
0.0000

> <Gold.Chemscore.Lipo>
90.0547

> <Gold.Chemscore.Internal_Hbond>
0.0000

> <Gold.Chemscore.DEClash>
1.5654

> <Gold.Chemscore.DEInternal>
2.5927

> <Gold.Chemscore.Rot>
1.8320

> <Gold.Chemscore.Internal.Correction>
   9.000000E+99

> <Gold.Chemscore.Hbonds>
donor molecule, donor type, donor heavy atom, donor atom, acceptor molecule, acceptor atom, score
      L1  H    13    23       P1  8028  0.97
      P1  H  7989  7998       L1     5  0.68

> <Gold.Chemscore.Hbond.Weighted>
-6.4093

> <Gold.Chemscore.Metal.Weighted>
-0.0000

> <Gold.Chemscore.Lipo.Weighted>
-10.5364

> <Gold.Chemscore.Internal_Hbond.Weighted>
0.0000

> <Gold.Chemscore.DEClash.Weighted>
1.5654

> <Gold.Chemscore.DEInternal.Weighted>
2.5927

> <Gold.Chemscore.Rot.Weighted>
4.6900

> <Gold.Chemscore.Internal.Correction.Weighted>
   9.000000E+99

> <Gold.Protein.RotatedTorsions>
[ 6907 6896 6895 6894 ] final -158.71 input  -60.11 | X-H torsion
[ 7974 7965 7964 7962 ] final -123.89 input  175.53 | X-H torsion
[ 8008 7997 7996 7995 ] final   94.30 input   59.86 | X-H torsion
[ 10167 10162 10161 10158 ] final  147.44 input  -65.29 | X-H torsion
[ 10718 10713 10712 10709 ] final  -16.49 input   66.30 | X-H torsion
[ 10763 10752 10751 10750 ] final  -54.33 input  -60.55 | X-H torsion
[ 11005 11000 10999 10996 ] final   64.95 input  -57.11 | X-H torsion

> <Gold.Protein.ActiveResidues>
 VAL166  LYS551  ARG553  GLY616  TRP617  ASP618  TYR619  PRO620  LYS621  CYS622 
 ASP623  PHE694  ASN695  SER759  ASP760  ASP761  ALA762  ILE779  LEU786  VAL792 
 PHE793  MET794  SER795  GLU796  ALA797  LYS798  CYS799  TRP800  GLU811  SER814 

> <Gold.Protein.RotatedAtoms>
  151.3223  133.4034  159.2655 H   0  0  0  0  0  0  0  0  0  0  0  0  # atno 6907 bound_to 6896
  151.0024  134.9333  159.7971 H   0  0  0  0  0  0  0  0  0  0  0  0  # atno 6908 bound_to 6896
  152.5278  134.3188  159.9193 H   0  0  0  0  0  0  0  0  0  0  0  0  # atno 6909 bound_to 6896
  145.0139  140.7930  143.4422 H   0  0  0  0  0  0  0  0  0  0  0  0  # atno 7974 bound_to 7965
  156.0563  140.3302  155.7409 H   0  0  0  0  0  0  0  0  0  0  0  0  # atno 8008 bound_to 7997
  155.5523  140.0611  157.2864 H   0  0  0  0  0  0  0  0  0  0  0  0  # atno 8009 bound_to 7997
  154.4460  140.1892  156.0687 H   0  0  0  0  0  0  0  0  0  0  0  0  # atno 8010 bound_to 7997
  139.4890  144.5755  151.6973 H   0  0  0  0  0  0  0  0  0  0  0  0  # atno 10167 bound_to 10162
  156.5869  130.4789  149.6296 H   0  0  0  0  0  0  0  0  0  0  0  0  # atno 10718 bound_to 10713
  154.1731  135.6456  153.5014 H   0  0  0  0  0  0  0  0  0  0  0  0  # atno 10763 bound_to 10752
  153.0079  135.5388  154.6592 H   0  0  0  0  0  0  0  0  0  0  0  0  # atno 10764 bound_to 10752
  154.5937  135.2936  155.0581 H   0  0  0  0  0  0  0  0  0  0  0  0  # atno 10765 bound_to 10752
  139.9926  134.6568  156.0065 H   0  0  0  0  0  0  0  0  0  0  0  0  # atno 11005 bound_to 11000
  145.1986  139.2264  143.5205 LP  0  0  0  0  0  0  0  0  0  0  0  0  # atno 17320 bound_to 7965
  146.3474  140.1798  142.8589 LP  0  0  0  0  0  0  0  0  0  0  0  0  # atno 17321 bound_to 7965
  140.5350  144.0670  150.6067 LP  0  0  0  0  0  0  0  0  0  0  0  0  # atno 17342 bound_to 10162
  140.3673  143.2874  152.0318 LP  0  0  0  0  0  0  0  0  0  0  0  0  # atno 17343 bound_to 10162
  156.2583  130.6947  151.1708 LP  0  0  0  0  0  0  0  0  0  0  0  0  # atno 17370 bound_to 10713
  157.7313  131.0609  150.5684 LP  0  0  0  0  0  0  0  0  0  0  0  0  # atno 17371 bound_to 10713
  141.1578  133.6541  156.4218 LP  0  0  0  0  0  0  0  0  0  0  0  0  # atno 17394 bound_to 11000
  140.4880  134.6602  157.5199 LP  0  0  0  0  0  0  0  0  0  0  0  0  # atno 17395 bound_to 11000

$$$$
