AV-unprocessed.smi:1709|AV-procd|sdf|6895|dock5
  -GOLD-   22720 8103D 1   1.00000     0.00000
 Structure written by MMmdl.
 43 45  0  0  0  0  0  0  0  0  2 V2000
  147.2999  140.9912  153.0717 C   0  0  0  0  0  0  0  0  0  0  0  0
  148.4310  140.5048  153.9638 C   0  0  0  0  0  0  0  0  0  0  0  0
  149.1629  141.4453  154.7196 C   0  0  0  0  0  0  0  0  0  0  0  0
  150.2100  140.9984  155.5427 C   0  0  0  0  0  0  0  0  0  0  0  0
  150.4840  139.6211  155.5734 C   0  0  0  0  0  0  0  0  0  0  0  0
  149.7901  138.7158  154.8537 N   0  0  0  0  0  0  0  0  0  0  0  0
  148.7700  139.1278  154.0568 C   0  0  0  0  0  0  0  0  0  0  0  0
  147.9931  138.2387  153.2510 N   0  0  0  0  0  0  0  0  0  0  0  0
  146.6591  138.0619  153.1433 C   0  0  0  0  0  0  0  0  0  0  0  0
  145.8730  138.7318  153.8107 O   0  0  0  0  0  0  0  0  0  0  0  0
  146.2540  137.1222  152.2731 N   0  0  0  0  0  0  0  0  0  0  0  0
  144.8675  136.7781  151.9674 C   0  0  2  0  0  0  0  0  0  0  0  0
  143.9742  136.7385  153.2226 C   0  0  0  0  0  0  0  0  0  0  0  0
  143.0990  135.4944  153.0406 C   0  0  0  0  0  0  0  0  0  0  0  0
  143.9787  134.5775  152.3068 N   0  3  1  0  0  0  0  0  0  0  0  0
  143.3935  133.3507  151.7289 C   0  0  0  0  0  0  0  0  0  0  0  0
  144.5393  132.4767  151.1751 C   0  0  0  0  0  0  0  0  0  0  0  0
  145.4587  133.2600  150.2111 C   0  0  0  0  0  0  0  0  0  0  0  0
  145.9333  134.5931  150.8283 C   0  0  0  0  0  0  0  0  0  0  0  0
  144.7057  135.3859  151.3130 C   0  0  2  0  0  0  0  0  0  0  0  0
  147.1603  142.0692  153.1593 H   0  0  0  0  0  0  0  0  0  0  0  0
  146.3610  140.5097  153.3464 H   0  0  0  0  0  0  0  0  0  0  0  0
  147.5138  140.7644  152.0270 H   0  0  0  0  0  0  0  0  0  0  0  0
  148.9270  142.4985  154.6711 H   0  0  0  0  0  0  0  0  0  0  0  0
  150.7882  141.6933  156.1337 H   0  0  0  0  0  0  0  0  0  0  0  0
  151.2809  139.2344  156.1909 H   0  0  0  0  0  0  0  0  0  0  0  0
  148.5427  137.5935  152.7021 H   0  0  0  0  0  0  0  0  0  0  0  0
  146.9710  136.6191  151.7689 H   0  0  0  0  0  0  0  0  0  0  0  0
  144.4569  137.5270  151.2871 H   0  0  0  0  0  0  0  0  0  0  0  0
  144.5852  136.6181  154.1187 H   0  0  0  0  0  0  0  0  0  0  0  0
  143.3842  137.6470  153.3477 H   0  0  0  0  0  0  0  0  0  0  0  0
  142.7664  135.0703  153.9885 H   0  0  0  0  0  0  0  0  0  0  0  0
  142.2208  135.7267  152.4360 H   0  0  0  0  0  0  0  0  0  0  0  0
  142.8433  132.8070  152.4975 H   0  0  0  0  0  0  0  0  0  0  0  0
  142.6833  133.6076  150.9414 H   0  0  0  0  0  0  0  0  0  0  0  0
  145.1361  132.1024  152.0079 H   0  0  0  0  0  0  0  0  0  0  0  0
  144.1316  131.5990  150.6726 H   0  0  0  0  0  0  0  0  0  0  0  0
  146.3180  132.6488  149.9341 H   0  0  0  0  0  0  0  0  0  0  0  0
  144.9173  133.4646  149.2867 H   0  0  0  0  0  0  0  0  0  0  0  0
  146.6140  134.3991  151.6584 H   0  0  0  0  0  0  0  0  0  0  0  0
  146.4908  135.1646  150.0860 H   0  0  0  0  0  0  0  0  0  0  0  0
  144.0412  135.5270  150.4576 H   0  0  0  0  0  0  0  0  0  0  0  0
  144.6703  134.2756  152.9780 H   0  0  0  0  0  0  0  0  0  0  0  0
  1  2  1  0  0  0  0
  1 21  1  0  0  0  0
  1 22  1  0  0  0  0
  1 23  1  0  0  0  0
  2  7  1  0  0  0  0
  2  3  2  0  0  0  0
  3  4  1  0  0  0  0
  3 24  1  0  0  0  0
  4  5  2  0  0  0  0
  4 25  1  0  0  0  0
  5  6  1  0  0  0  0
  5 26  1  0  0  0  0
  6  7  2  0  0  0  0
  7  8  1  0  0  0  0
  8  9  1  0  0  0  0
  8 27  1  0  0  0  0
  9 10  2  0  0  0  0
  9 11  1  0  0  0  0
 11 12  1  0  0  0  0
 11 28  1  0  0  0  0
 12 20  1  0  0  0  0
 12 13  1  0  0  0  0
 12 29  1  0  0  0  0
 13 14  1  0  0  0  0
 13 30  1  0  0  0  0
 13 31  1  0  0  0  0
 14 15  1  0  0  0  0
 14 32  1  0  0  0  0
 14 33  1  0  0  0  0
 15 20  1  0  0  0  0
 15 16  1  0  0  0  0
 15 43  1  0  0  0  0
 16 17  1  0  0  0  0
 16 34  1  0  0  0  0
 16 35  1  0  0  0  0
 17 18  1  0  0  0  0
 17 36  1  0  0  0  0
 17 37  1  0  0  0  0
 18 19  1  0  0  0  0
 18 38  1  0  0  0  0
 18 39  1  0  0  0  0
 19 20  1  0  0  0  0
 19 40  1  0  0  0  0
 19 41  1  0  0  0  0
 20 42  1  0  0  0  0
M  CHG  1  15   1
M  END
> <s_m_source_file>
AV-unprocessed.smi

> <i_m_source_file_index>
1709

> <i_lp_mmshare_version>
43012

> <i_f3d_flags>
0

> <s_epik_input>
W0NIM11jMVtjSF1bY0hdW2NIXW5jMVtOSF1DKD1PKVtOSF1bQ0BIXShbQ0gyXVtDSDJdMilbQ0BASF0oTjIzKVtDSDJdW0NIMl1bQ0gyXVtDSDJdMw==

> <s_epik_cmdline>
J2VwaWtfcHl0aG9uJywgJy1waCcsICc3LjAnLCAnLXRuJywgJzgnLCAnLW1hJywgJzIwMCcsICctbWV0YWxfYmluZGluZycsICctaW1hZScsICc8aW5maWxlLm1hZT4nLCAnLW9tYWUnLCAnPG91dGZpbGUubWFlPic=

> <r_epik_Ionization_Penalty>
0.00101524

> <r_epik_Ionization_Penalty_Charging>
0.000974069

> <r_epik_Ionization_Penalty_Neutral>
4.11757e-05

> <r_epik_State_Penalty>
0.000633842

> <r_epik_Charging_Adjusted_Penalty>
0.00160791

> <i_epik_Tot_Q>
1

> <i_epik_Tot_abs_Q>
1

> <r_epik_Metal_State_Penalty>
-0

> <b_epik_Metal_Only>
0

> <s_lp_Force_Field>
OPLS_2005

> <r_lp_Energy>
46.0593

> <b_lp_Chiralities_Consistent>
1

> <s_lp_Variant>
AV-unprocessed.smi:1709-5

> <Gold.Version>
5.8.1

> <Gold.Id.Protein>
6NUR|6NUR_protein|mol2

> <Gold.PLP.Fitness>
37.3053

> <Gold.PLP.PLP>
-33.3017

> <Gold.PLP.part.hbond>
-2.3693

> <Gold.PLP.part.metal>
0.0000

> <Gold.PLP.part.buried>
-1.0175

> <Gold.PLP.part.nonpolar>
-29.2893

> <Gold.PLP.part.repulsive>
0.3628

> <Gold.PLP.ligand.clash>
0.0170

> <Gold.PLP.ligand.torsion>
0.7380

> <Gold.PLP.Chemscore.Hbond>
1.8320

> <Gold.PLP.Chemscore.CHOScore>
0.0000

> <Gold.PLP.Chemscore.Metal>
0.0000

> <Gold.Chemscore.Hbonds>
donor molecule, donor type, donor heavy atom, donor atom, acceptor molecule, acceptor atom, score
      L1  H     8    27       P1  7948  1.00
      L1  H    11    28       P1  7948  0.83

> <Gold.PLP.Chemscore.Internal.Correction>
0.0006

> <Gold.Rescore>
     Score         DG    S(hbond)    S(metal)    S(lipo)     H(rot)  DE(clash)    DE(int)     intcor
     14.18     -18.69       1.90        0.00      80.66       1.00       0.07       4.43       ----

> <Gold.Chemscore.Fitness>
14.1840

> <Gold.Chemscore.DG>
-18.6920

> <Gold.Chemscore.ZeroCoef>
-5.4800

> <Gold.Chemscore.Hbond>
1.8965

> <Gold.Chemscore.Metal>
0.0000

> <Gold.Chemscore.Lipo>
80.6648

> <Gold.Chemscore.Internal_Hbond>
0.0000

> <Gold.Chemscore.DEClash>
0.0733

> <Gold.Chemscore.DEInternal>
4.4347

> <Gold.Chemscore.Rot>
1.0000

> <Gold.Chemscore.Internal.Correction>
   9.000000E+99

> <Gold.Chemscore.Hbonds>
donor molecule, donor type, donor heavy atom, donor atom, acceptor molecule, acceptor atom, score
      L1  H     8    27       P1  7948  0.99
      L1  H    11    28       P1  7948  0.80

> <Gold.Chemscore.Hbond.Weighted>
-6.3342

> <Gold.Chemscore.Metal.Weighted>
-0.0000

> <Gold.Chemscore.Lipo.Weighted>
-9.4378

> <Gold.Chemscore.Internal_Hbond.Weighted>
0.0000

> <Gold.Chemscore.DEClash.Weighted>
0.0733

> <Gold.Chemscore.DEInternal.Weighted>
4.4347

> <Gold.Chemscore.Rot.Weighted>
2.5600

> <Gold.Chemscore.Internal.Correction.Weighted>
   9.000000E+99

> <Gold.Protein.RotatedTorsions>
[ 6907 6896 6895 6894 ] final  -76.77 input  -60.11 | X-H torsion
[ 7974 7965 7964 7962 ] final   -4.95 input  175.53 | X-H torsion
[ 8008 7997 7996 7995 ] final   57.14 input   59.86 | X-H torsion
[ 10167 10162 10161 10158 ] final  -93.33 input  -65.29 | X-H torsion
[ 10718 10713 10712 10709 ] final   -1.46 input   66.30 | X-H torsion
[ 10763 10752 10751 10750 ] final   68.73 input  -60.55 | X-H torsion
[ 11005 11000 10999 10996 ] final  -76.93 input  -57.11 | X-H torsion

> <Gold.Protein.ActiveResidues>
 VAL166  LYS551  ARG553  GLY616  TRP617  ASP618  TYR619  PRO620  LYS621  CYS622 
 ASP623  PHE694  ASN695  SER759  ASP760  ASP761  ALA762  ILE779  LEU786  VAL792 
 PHE793  MET794  SER795  GLU796  ALA797  LYS798  CYS799  TRP800  GLU811  SER814 

> <Gold.Protein.RotatedAtoms>
  150.7018  134.4522  159.5341 H   0  0  0  0  0  0  0  0  0  0  0  0  # atno 6907 bound_to 6896
  152.2212  134.8408  160.0495 H   0  0  0  0  0  0  0  0  0  0  0  0  # atno 6908 bound_to 6896
  151.9257  133.3562  159.3950 H   0  0  0  0  0  0  0  0  0  0  0  0  # atno 6909 bound_to 6896
  146.2362  140.1949  142.8333 H   0  0  0  0  0  0  0  0  0  0  0  0  # atno 7974 bound_to 7965
  155.5290  140.3481  155.4422 H   0  0  0  0  0  0  0  0  0  0  0  0  # atno 8008 bound_to 7997
  156.0732  140.1368  156.9830 H   0  0  0  0  0  0  0  0  0  0  0  0  # atno 8009 bound_to 7997
  154.4539  140.0961  156.6675 H   0  0  0  0  0  0  0  0  0  0  0  0  # atno 8010 bound_to 7997
  140.3257  143.3023  151.9997 H   0  0  0  0  0  0  0  0  0  0  0  0  # atno 10167 bound_to 10162
  156.8053  130.5406  149.5716 H   0  0  0  0  0  0  0  0  0  0  0  0  # atno 10718 bound_to 10713
  153.0250  135.5236  154.7180 H   0  0  0  0  0  0  0  0  0  0  0  0  # atno 10763 bound_to 10752
  154.6243  135.2892  155.0292 H   0  0  0  0  0  0  0  0  0  0  0  0  # atno 10764 bound_to 10752
  154.1267  135.6599  153.4966 H   0  0  0  0  0  0  0  0  0  0  0  0  # atno 10765 bound_to 10752
  141.1657  133.7002  156.7744 H   0  0  0  0  0  0  0  0  0  0  0  0  # atno 11005 bound_to 11000
  144.9828  140.8475  143.5386 LP  0  0  0  0  0  0  0  0  0  0  0  0  # atno 17320 bound_to 7965
  145.1944  139.2284  143.5226 LP  0  0  0  0  0  0  0  0  0  0  0  0  # atno 17321 bound_to 7965
  139.4866  144.6275  151.7135 LP  0  0  0  0  0  0  0  0  0  0  0  0  # atno 17342 bound_to 10162
  140.5443  144.0529  150.6101 LP  0  0  0  0  0  0  0  0  0  0  0  0  # atno 17343 bound_to 10162
  156.1076  130.6016  150.9996 LP  0  0  0  0  0  0  0  0  0  0  0  0  # atno 17370 bound_to 10713
  157.6533  131.0893  150.8003 LP  0  0  0  0  0  0  0  0  0  0  0  0  # atno 17371 bound_to 10713
  140.2441  134.8591  157.3602 LP  0  0  0  0  0  0  0  0  0  0  0  0  # atno 17394 bound_to 11000
  140.1767  134.4540  155.7797 LP  0  0  0  0  0  0  0  0  0  0  0  0  # atno 17395 bound_to 11000

$$$$
