AV-unprocessed.smi:3335|AV-procd|sdf|12837|dock4
  -GOLD-   2272019223D 1   1.00000     0.00000
 Structure written by MMmdl.
 47 48  0  0  0  0  0  0  0  0  2 V2000
  151.4668  141.0726  156.5495 C   0  0  0  0  0  0  0  0  0  0  0  0
  150.4126  140.4739  155.6639 C   0  0  0  0  0  0  0  0  0  0  0  0
  150.2788  139.1162  155.2582 C   0  0  0  0  0  0  0  0  0  0  0  0
  149.2423  138.9196  154.4602 N   0  0  0  0  0  0  0  0  0  0  0  0
  148.6653  140.1371  154.3409 N   0  0  0  0  0  0  0  0  0  0  0  0
  147.5029  140.3313  153.4802 C   0  0  2  0  0  0  0  0  0  0  0  0
  146.4582  141.2703  154.1205 C   0  0  0  0  0  0  0  0  0  0  0  0
  146.9330  138.9691  153.0108 C   0  0  2  0  0  0  0  0  0  0  0  0
  146.8454  138.8598  151.4781 C   0  0  0  0  0  0  0  0  0  0  0  0
  145.6167  138.6952  153.6400 N   0  3  0  0  0  0  0  0  0  0  0  0
  144.9501  137.4359  153.2326 C   0  0  2  0  0  0  0  0  0  0  0  0
  143.5508  137.3697  153.8637 C   0  0  0  0  0  0  0  0  0  0  0  0
  145.7732  136.2026  153.6574 C   0  0  0  0  0  0  0  0  0  0  0  0
  146.1943  136.1395  154.8133 O   0  0  0  0  0  0  0  0  0  0  0  0
  146.0023  135.2182  152.7623 N   0  0  0  0  0  0  0  0  0  0  0  0
  145.5423  135.1838  151.3741 C   0  0  0  0  0  0  0  0  0  0  0  0
  145.8591  133.7776  150.8653 C   0  0  0  0  0  0  0  0  0  0  0  0
  147.0180  133.3182  151.7381 C   0  0  0  0  0  0  0  0  0  0  0  0
  146.7764  134.0180  153.0752 C   0  0  0  0  0  0  0  0  0  0  0  0
  149.3623  141.0941  155.0489 C   0  0  0  0  0  0  0  0  0  0  0  0
  152.0242  140.3076  157.0903 H   0  0  0  0  0  0  0  0  0  0  0  0
  151.0352  141.7415  157.2942 H   0  0  0  0  0  0  0  0  0  0  0  0
  152.1903  141.6522  155.9759 H   0  0  0  0  0  0  0  0  0  0  0  0
  150.9060  138.2743  155.5114 H   0  0  0  0  0  0  0  0  0  0  0  0
  147.8742  140.8460  152.5928 H   0  0  0  0  0  0  0  0  0  0  0  0
  145.6688  141.5289  153.4153 H   0  0  0  0  0  0  0  0  0  0  0  0
  146.9215  142.2056  154.4367 H   0  0  0  0  0  0  0  0  0  0  0  0
  145.9864  140.8240  154.9964 H   0  0  0  0  0  0  0  0  0  0  0  0
  147.6390  138.2078  153.3466 H   0  0  0  0  0  0  0  0  0  0  0  0
  147.8004  139.1061  151.0132 H   0  0  0  0  0  0  0  0  0  0  0  0
  146.0920  139.5317  151.0671 H   0  0  0  0  0  0  0  0  0  0  0  0
  146.5874  137.8489  151.1633 H   0  0  0  0  0  0  0  0  0  0  0  0
  145.7537  138.6475  154.6406 H   0  0  0  0  0  0  0  0  0  0  0  0
  144.8290  137.4651  152.1509 H   0  0  0  0  0  0  0  0  0  0  0  0
  143.0214  136.4633  153.5678 H   0  0  0  0  0  0  0  0  0  0  0  0
  142.9412  138.2180  153.5515 H   0  0  0  0  0  0  0  0  0  0  0  0
  143.6011  137.3826  154.9534 H   0  0  0  0  0  0  0  0  0  0  0  0
  144.4774  135.4006  151.2825 H   0  0  0  0  0  0  0  0  0  0  0  0
  146.0951  135.9270  150.7975 H   0  0  0  0  0  0  0  0  0  0  0  0
  144.9996  133.1262  151.0289 H   0  0  0  0  0  0  0  0  0  0  0  0
  146.0960  133.7563  149.8011 H   0  0  0  0  0  0  0  0  0  0  0  0
  147.0736  132.2334  151.8326 H   0  0  0  0  0  0  0  0  0  0  0  0
  147.9586  133.6654  151.3083 H   0  0  0  0  0  0  0  0  0  0  0  0
  147.7178  134.2524  153.5747 H   0  0  0  0  0  0  0  0  0  0  0  0
  146.1897  133.3813  153.7392 H   0  0  0  0  0  0  0  0  0  0  0  0
  149.0587  142.1307  155.0539 H   0  0  0  0  0  0  0  0  0  0  0  0
  145.0062  139.4741  153.4397 H   0  0  0  0  0  0  0  0  0  0  0  0
  1  2  1  0  0  0  0
  1 21  1  0  0  0  0
  1 22  1  0  0  0  0
  1 23  1  0  0  0  0
  2 20  2  0  0  0  0
  2  3  1  0  0  0  0
  3  4  2  0  0  0  0
  3 24  1  0  0  0  0
  4  5  1  0  0  0  0
  5  6  1  0  0  0  0
  5 20  1  0  0  0  0
  6  7  1  0  0  0  0
  6  8  1  0  0  0  0
  6 25  1  0  0  0  0
  7 26  1  0  0  0  0
  7 27  1  0  0  0  0
  7 28  1  0  0  0  0
  8  9  1  0  0  0  0
  8 10  1  0  0  0  0
  8 29  1  0  0  0  0
  9 30  1  0  0  0  0
  9 31  1  0  0  0  0
  9 32  1  0  0  0  0
 10 11  1  0  0  0  0
 10 33  1  0  0  0  0
 10 47  1  0  0  0  0
 11 12  1  0  0  0  0
 11 13  1  0  0  0  0
 11 34  1  0  0  0  0
 12 35  1  0  0  0  0
 12 36  1  0  0  0  0
 12 37  1  0  0  0  0
 13 14  2  0  0  0  0
 13 15  1  0  0  0  0
 15 19  1  0  0  0  0
 15 16  1  0  0  0  0
 16 17  1  0  0  0  0
 16 38  1  0  0  0  0
 16 39  1  0  0  0  0
 17 18  1  0  0  0  0
 17 40  1  0  0  0  0
 17 41  1  0  0  0  0
 18 19  1  0  0  0  0
 18 42  1  0  0  0  0
 18 43  1  0  0  0  0
 19 44  1  0  0  0  0
 19 45  1  0  0  0  0
 20 46  1  0  0  0  0
M  CHG  1  10   1
M  END
> <s_m_source_file>
AV-unprocessed.smi

> <i_m_source_file_index>
3335

> <i_lp_mmshare_version>
43012

> <i_f3d_flags>
0

> <s_epik_input>
W0NIM11jMVtjSF1ubihbY0hdMSlbQ0BIXShbQ0gzXSlbQ0BIXShbQ0gzXSlbTkhdW0NASF0oW0NIM10pQyg9TylOMltDSDJdW0NIMl1bQ0gyXVtDSDJdMg==

> <s_epik_cmdline>
J2VwaWtfcHl0aG9uJywgJy1waCcsICc3LjAnLCAnLXRuJywgJzgnLCAnLW1hJywgJzIwMCcsICctbWV0YWxfYmluZGluZycsICctaW1hZScsICc8aW5maWxlLm1hZT4nLCAnLW9tYWUnLCAnPG91dGZpbGUubWFlPic=

> <r_lp_tautomer_probability>
1

> <r_epik_Ionization_Penalty>
0.14175

> <r_epik_Ionization_Penalty_Charging>
0.141731

> <r_epik_Ionization_Penalty_Neutral>
1.91261e-05

> <r_epik_State_Penalty>
0.131043

> <r_epik_Charging_Adjusted_Penalty>
0.272773

> <i_epik_Tot_Q>
1

> <i_epik_Tot_abs_Q>
1

> <r_epik_Metal_State_Penalty>
0.131408

> <b_epik_Metal_Only>
0

> <s_lp_Force_Field>
OPLS_2005

> <r_lp_Energy>
36.483

> <b_lp_Chiralities_Consistent>
1

> <s_lp_Variant>
AV-unprocessed.smi:3335-1

> <Gold.Version>
5.8.1

> <Gold.Id.Protein>
6NUR|6NUR_protein|mol2

> <Gold.PLP.Fitness>
39.0789

> <Gold.PLP.PLP>
-33.8464

> <Gold.PLP.part.hbond>
-1.0000

> <Gold.PLP.part.metal>
0.0000

> <Gold.PLP.part.buried>
1.8369

> <Gold.PLP.part.nonpolar>
-34.0426

> <Gold.PLP.part.repulsive>
0.2030

> <Gold.PLP.ligand.clash>
0.0000

> <Gold.PLP.ligand.torsion>
1.9986

> <Gold.PLP.Chemscore.Hbond>
2.0000

> <Gold.PLP.Chemscore.CHOScore>
1.0000

> <Gold.PLP.Chemscore.Metal>
0.0000

> <Gold.Chemscore.Hbonds>
donor molecule, donor type, donor heavy atom, donor atom, acceptor molecule, acceptor atom, score
      L1  H    10    47       P1 10175  2.00
      L1  C    20    46       P1  8028  0.69

> <Gold.PLP.Chemscore.Internal.Correction>
0.2298

> <Gold.Rescore>
     Score         DG    S(hbond)    S(metal)    S(lipo)     H(rot)  DE(clash)    DE(int)     intcor
     12.64     -14.59       1.00        0.00      86.02       1.68       0.21       1.74       ----

> <Gold.Chemscore.Fitness>
12.6358

> <Gold.Chemscore.DG>
-14.5855

> <Gold.Chemscore.ZeroCoef>
-5.4800

> <Gold.Chemscore.Hbond>
0.9989

> <Gold.Chemscore.Metal>
0.0000

> <Gold.Chemscore.Lipo>
86.0190

> <Gold.Chemscore.Internal_Hbond>
0.0000

> <Gold.Chemscore.DEClash>
0.2082

> <Gold.Chemscore.DEInternal>
1.7415

> <Gold.Chemscore.Rot>
1.6778

> <Gold.Chemscore.Internal.Correction>
   9.000000E+99

> <Gold.Chemscore.Hbonds>
donor molecule, donor type, donor heavy atom, donor atom, acceptor molecule, acceptor atom, score
      L1  H    10    47       P1 10175  0.99

> <Gold.Chemscore.Hbond.Weighted>
-3.3365

> <Gold.Chemscore.Metal.Weighted>
-0.0000

> <Gold.Chemscore.Lipo.Weighted>
-10.0642

> <Gold.Chemscore.Internal_Hbond.Weighted>
0.0000

> <Gold.Chemscore.DEClash.Weighted>
0.2082

> <Gold.Chemscore.DEInternal.Weighted>
1.7415

> <Gold.Chemscore.Rot.Weighted>
4.2952

> <Gold.Chemscore.Internal.Correction.Weighted>
   9.000000E+99

> <Gold.Protein.RotatedTorsions>
[ 6907 6896 6895 6894 ] final  118.58 input  -60.11 | X-H torsion
[ 7974 7965 7964 7962 ] final  104.31 input  175.53 | X-H torsion
[ 8008 7997 7996 7995 ] final -120.38 input   59.86 | X-H torsion
[ 10167 10162 10161 10158 ] final  -70.52 input  -65.29 | X-H torsion
[ 10718 10713 10712 10709 ] final -115.12 input   66.30 | X-H torsion
[ 10763 10752 10751 10750 ] final  -71.95 input  -60.55 | X-H torsion
[ 11005 11000 10999 10996 ] final -146.75 input  -57.11 | X-H torsion

> <Gold.Protein.ActiveResidues>
 VAL166  LYS551  ARG553  GLY616  TRP617  ASP618  TYR619  PRO620  LYS621  CYS622 
 ASP623  PHE694  ASN695  SER759  ASP760  ASP761  ALA762  ILE779  LEU786  VAL792 
 PHE793  MET794  SER795  GLU796  ALA797  LYS798  CYS799  TRP800  GLU811  SER814 

> <Gold.Protein.RotatedAtoms>
  152.4533  133.7673  159.6779 H   0  0  0  0  0  0  0  0  0  0  0  0  # atno 6907 bound_to 6896
  150.8451  133.7863  159.3052 H   0  0  0  0  0  0  0  0  0  0  0  0  # atno 6908 bound_to 6896
  151.5476  135.1070  159.9993 H   0  0  0  0  0  0  0  0  0  0  0  0  # atno 6909 bound_to 6896
  145.3345  139.2478  143.3643 H   0  0  0  0  0  0  0  0  0  0  0  0  # atno 7974 bound_to 7965
  155.1309  140.0400  157.2774 H   0  0  0  0  0  0  0  0  0  0  0  0  # atno 8008 bound_to 7997
  154.6543  140.2576  155.7152 H   0  0  0  0  0  0  0  0  0  0  0  0  # atno 8009 bound_to 7997
  156.2591  140.2830  156.0990 H   0  0  0  0  0  0  0  0  0  0  0  0  # atno 8010 bound_to 7997
  140.5346  143.2319  151.7200 H   0  0  0  0  0  0  0  0  0  0  0  0  # atno 10167 bound_to 10162
  156.0874  130.6063  150.8864 H   0  0  0  0  0  0  0  0  0  0  0  0  # atno 10718 bound_to 10713
  154.4389  135.5945  153.6116 H   0  0  0  0  0  0  0  0  0  0  0  0  # atno 10763 bound_to 10752
  152.9804  135.5993  154.3746 H   0  0  0  0  0  0  0  0  0  0  0  0  # atno 10764 bound_to 10752
  154.3594  135.2841  155.2307 H   0  0  0  0  0  0  0  0  0  0  0  0  # atno 10765 bound_to 10752
  140.7787  134.3104  157.5052 H   0  0  0  0  0  0  0  0  0  0  0  0  # atno 11005 bound_to 11000
  146.3032  140.3929  142.8696 LP  0  0  0  0  0  0  0  0  0  0  0  0  # atno 17320 bound_to 7965
  144.8838  140.7435  143.5969 LP  0  0  0  0  0  0  0  0  0  0  0  0  # atno 17321 bound_to 7965
  139.4966  144.4062  152.0129 LP  0  0  0  0  0  0  0  0  0  0  0  0  # atno 17342 bound_to 10162
  140.3167  144.3475  150.6020 LP  0  0  0  0  0  0  0  0  0  0  0  0  # atno 17343 bound_to 10162
  157.6013  131.0941  150.8954 LP  0  0  0  0  0  0  0  0  0  0  0  0  # atno 17370 bound_to 10713
  156.9111  130.5281  149.5280 LP  0  0  0  0  0  0  0  0  0  0  0  0  # atno 17371 bound_to 10713
  139.8745  134.9305  156.3505 LP  0  0  0  0  0  0  0  0  0  0  0  0  # atno 17394 bound_to 11000
  140.9503  133.7455  156.0263 LP  0  0  0  0  0  0  0  0  0  0  0  0  # atno 17395 bound_to 11000

$$$$
