AV-unprocessed.smi:2567|AV-procd|sdf|10084|dock5
  -GOLD-   2272014113D 1   1.00000     0.00000
 Structure written by MMmdl.
 33 34  0  0  0  0  0  0  0  0  3 V2000
  152.6300  144.6310  158.1949 C   0  0  0  0  0  0  0  0  0  0  0  0
  152.1126  143.5466  159.1574 C   0  0  0  0  0  0  0  0  0  0  0  0
  153.1901  142.4474  159.2707 C   0  0  0  0  0  0  0  0  0  0  0  0
  151.8707  144.1322  160.5607 C   0  0  0  0  0  0  0  0  0  0  0  0
  150.8105  142.9646  158.6148 C   0  0  0  0  0  0  0  0  0  0  0  0
  149.6263  142.9671  159.2567 N   0  5  0  0  0  0  0  0  0  0  0  0
  148.7059  142.3880  158.5144 N   0  0  0  0  0  0  0  0  0  0  0  0
  149.3352  142.0295  157.3865 C   0  0  0  0  0  0  0  0  0  0  0  0
  148.6820  141.2869  156.2398 C   0  0  2  0  0  0  0  0  0  0  0  0
  149.6585  141.1231  155.0588 C   0  0  0  0  0  0  0  0  0  0  0  0
  149.0001  140.4110  153.9466 N   0  3  0  0  0  0  0  0  0  0  0  0
  147.7453  141.0749  153.5441 C   0  0  0  0  0  0  0  0  0  0  0  0
  146.8251  141.2446  154.7642 C   0  0  0  0  0  0  0  0  0  0  0  0
  147.5115  141.9627  155.7829 O   0  0  0  0  0  0  0  0  0  0  0  0
  150.6316  142.3648  157.4394 N   0  0  0  0  0  0  0  0  0  0  0  0
  153.5673  145.0624  158.5478 H   0  0  0  0  0  0  0  0  0  0  0  0
  151.9129  145.4463  158.0932 H   0  0  0  0  0  0  0  0  0  0  0  0
  152.8072  144.2234  157.1991 H   0  0  0  0  0  0  0  0  0  0  0  0
  153.4022  141.9954  158.3009 H   0  0  0  0  0  0  0  0  0  0  0  0
  152.8762  141.6491  159.9442 H   0  0  0  0  0  0  0  0  0  0  0  0
  154.1284  142.8483  159.6554 H   0  0  0  0  0  0  0  0  0  0  0  0
  152.7861  144.5500  160.9803 H   0  0  0  0  0  0  0  0  0  0  0  0
  151.5079  143.3697  161.2510 H   0  0  0  0  0  0  0  0  0  0  0  0
  151.1289  144.9313  160.5353 H   0  0  0  0  0  0  0  0  0  0  0  0
  148.3926  140.3032  156.6146 H   0  0  0  0  0  0  0  0  0  0  0  0
  149.9979  142.0993  154.7087 H   0  0  0  0  0  0  0  0  0  0  0  0
  150.5439  140.5654  155.3657 H   0  0  0  0  0  0  0  0  0  0  0  0
  149.6281  140.3677  153.1569 H   0  0  0  0  0  0  0  0  0  0  0  0
  147.9777  142.0479  153.1093 H   0  0  0  0  0  0  0  0  0  0  0  0
  147.2543  140.4844  152.7703 H   0  0  0  0  0  0  0  0  0  0  0  0
  145.9282  141.7979  154.4849 H   0  0  0  0  0  0  0  0  0  0  0  0
  146.4968  140.2759  155.1442 H   0  0  0  0  0  0  0  0  0  0  0  0
  148.7860  139.4718  154.2504 H   0  0  0  0  0  0  0  0  0  0  0  0
  1  2  1  0  0  0  0
  1 16  1  0  0  0  0
  1 17  1  0  0  0  0
  1 18  1  0  0  0  0
  2  3  1  0  0  0  0
  2  4  1  0  0  0  0
  2  5  1  0  0  0  0
  3 19  1  0  0  0  0
  3 20  1  0  0  0  0
  3 21  1  0  0  0  0
  4 22  1  0  0  0  0
  4 23  1  0  0  0  0
  4 24  1  0  0  0  0
  5 15  2  0  0  0  0
  5  6  1  0  0  0  0
  6  7  1  0  0  0  0
  7  8  2  0  0  0  0
  8  9  1  0  0  0  0
  8 15  1  0  0  0  0
  9 14  1  0  0  0  0
  9 10  1  0  0  0  0
  9 25  1  0  0  0  0
 10 11  1  0  0  0  0
 10 26  1  0  0  0  0
 10 27  1  0  0  0  0
 11 12  1  0  0  0  0
 11 28  1  0  0  0  0
 11 33  1  0  0  0  0
 12 13  1  0  0  0  0
 12 29  1  0  0  0  0
 12 30  1  0  0  0  0
 13 14  1  0  0  0  0
 13 31  1  0  0  0  0
 13 32  1  0  0  0  0
M  CHG  1   6  -1
M  CHG  1  11   1
M  END
> <s_m_source_file>
AV-unprocessed.smi

> <i_m_source_file_index>
2567

> <i_lp_mmshare_version>
43012

> <i_f3d_flags>
0

> <s_epik_input>
W0NIM11DKFtDSDNdKShbQ0gzXSljMW5bbkhdYyhuMSlbQ0BASF0yW0NIMl1bTkhdW0NIMl1bQ0gyXU8y

> <s_epik_cmdline>
J2VwaWtfcHl0aG9uJywgJy1waCcsICc3LjAnLCAnLXRuJywgJzgnLCAnLW1hJywgJzIwMCcsICctbWV0YWxfYmluZGluZycsICctaW1hZScsICc8aW5maWxlLm1hZT4nLCAnLW9tYWUnLCAnPG91dGZpbGUubWFlPic=

> <r_lp_tautomer_probability>
0.948284

> <r_epik_Ionization_Penalty>
5.01189

> <r_epik_Ionization_Penalty_Charging>
5.01189

> <r_epik_Ionization_Penalty_Neutral>
8.99859e-14

> <r_epik_State_Penalty>
2.75157

> <r_epik_Charging_Adjusted_Penalty>
7.76346

> <i_epik_Tot_Q>
0

> <i_epik_Tot_abs_Q>
2

> <r_epik_Metal_State_Penalty>
0.54282

> <b_epik_Metal_Only>
1

> <s_lp_Force_Field>
OPLS_2005

> <r_lp_Energy>
6.85935

> <b_lp_Chiralities_Consistent>
1

> <s_lp_Variant>
AV-unprocessed.smi:2567-9

> <Gold.Version>
5.8.1

> <Gold.Id.Protein>
6NUR|6NUR_protein|mol2

> <Gold.PLP.Fitness>
33.0751

> <Gold.PLP.PLP>
-30.6960

> <Gold.PLP.part.hbond>
-2.1180

> <Gold.PLP.part.metal>
0.0000

> <Gold.PLP.part.buried>
-4.2421

> <Gold.PLP.part.nonpolar>
-24.7695

> <Gold.PLP.part.repulsive>
0.8746

> <Gold.PLP.ligand.clash>
0.0000

> <Gold.PLP.ligand.torsion>
0.0904

> <Gold.PLP.Chemscore.Hbond>
0.8480

> <Gold.PLP.Chemscore.CHOScore>
0.0000

> <Gold.PLP.Chemscore.Metal>
0.0000

> <Gold.Chemscore.Hbonds>
donor molecule, donor type, donor heavy atom, donor atom, acceptor molecule, acceptor atom, score
      L1  H    11    28       P1  7957  0.82

> <Gold.PLP.Chemscore.Internal.Correction>
0.0159

> <Gold.Rescore>
     Score         DG    S(hbond)    S(metal)    S(lipo)     H(rot)  DE(clash)    DE(int)     intcor
     14.07     -14.20       0.98        0.00      73.97       1.25       0.06       0.06       ----

> <Gold.Chemscore.Fitness>
14.0682

> <Gold.Chemscore.DG>
-14.1955

> <Gold.Chemscore.ZeroCoef>
-5.4800

> <Gold.Chemscore.Hbond>
0.9754

> <Gold.Chemscore.Metal>
0.0000

> <Gold.Chemscore.Lipo>
73.9678

> <Gold.Chemscore.Internal_Hbond>
0.0000

> <Gold.Chemscore.DEClash>
0.0632

> <Gold.Chemscore.DEInternal>
0.0640

> <Gold.Chemscore.Rot>
1.2486

> <Gold.Chemscore.Internal.Correction>
   9.000000E+99

> <Gold.Chemscore.Hbonds>
donor molecule, donor type, donor heavy atom, donor atom, acceptor molecule, acceptor atom, score
      L1  H    11    28       P1  7957  0.77

> <Gold.Chemscore.Hbond.Weighted>
-3.2577

> <Gold.Chemscore.Metal.Weighted>
-0.0000

> <Gold.Chemscore.Lipo.Weighted>
-8.6542

> <Gold.Chemscore.Internal_Hbond.Weighted>
0.0000

> <Gold.Chemscore.DEClash.Weighted>
0.0632

> <Gold.Chemscore.DEInternal.Weighted>
0.0640

> <Gold.Chemscore.Rot.Weighted>
3.1964

> <Gold.Chemscore.Internal.Correction.Weighted>
   9.000000E+99

> <Gold.Protein.RotatedTorsions>
[ 6907 6896 6895 6894 ] final  142.82 input  -60.11 | X-H torsion
[ 7974 7965 7964 7962 ] final -151.68 input  175.53 | X-H torsion
[ 8008 7997 7996 7995 ] final  122.34 input   59.86 | X-H torsion
[ 10167 10162 10161 10158 ] final  134.21 input  -65.29 | X-H torsion
[ 10718 10713 10712 10709 ] final  -66.89 input   66.30 | X-H torsion
[ 10763 10752 10751 10750 ] final  178.78 input  -60.55 | X-H torsion
[ 11005 11000 10999 10996 ] final  -53.34 input  -57.11 | X-H torsion

> <Gold.Protein.ActiveResidues>
 VAL166  LYS551  ARG553  GLY616  TRP617  ASP618  TYR619  PRO620  LYS621  CYS622 
 ASP623  PHE694  ASN695  SER759  ASP760  ASP761  ALA762  ILE779  LEU786  VAL792 
 PHE793  MET794  SER795  GLU796  ALA797  LYS798  CYS799  TRP800  GLU811  SER814 

> <Gold.Protein.RotatedAtoms>
  152.2139  133.4932  159.5125 H   0  0  0  0  0  0  0  0  0  0  0  0  # atno 6907 bound_to 6896
  150.6996  134.1430  159.4121 H   0  0  0  0  0  0  0  0  0  0  0  0  # atno 6908 bound_to 6896
  151.9350  135.0239  160.0582 H   0  0  0  0  0  0  0  0  0  0  0  0  # atno 6909 bound_to 6896
  144.7836  140.4765  143.5822 H   0  0  0  0  0  0  0  0  0  0  0  0  # atno 7974 bound_to 7965
  156.2724  140.2788  156.1452 H   0  0  0  0  0  0  0  0  0  0  0  0  # atno 8008 bound_to 7997
  155.0911  140.0388  157.2686 H   0  0  0  0  0  0  0  0  0  0  0  0  # atno 8009 bound_to 7997
  154.6888  140.2624  155.6839 H   0  0  0  0  0  0  0  0  0  0  0  0  # atno 8010 bound_to 7997
  139.5265  144.6578  151.5107 H   0  0  0  0  0  0  0  0  0  0  0  0  # atno 10167 bound_to 10162
  156.0587  130.4269  150.1774 H   0  0  0  0  0  0  0  0  0  0  0  0  # atno 10718 bound_to 10713
  154.5121  135.2789  155.1334 H   0  0  0  0  0  0  0  0  0  0  0  0  # atno 10763 bound_to 10752
  154.2925  135.6264  153.5395 H   0  0  0  0  0  0  0  0  0  0  0  0  # atno 10764 bound_to 10752
  152.9920  135.5677  154.5589 H   0  0  0  0  0  0  0  0  0  0  0  0  # atno 10765 bound_to 10752
  141.0971  133.6623  156.4157 H   0  0  0  0  0  0  0  0  0  0  0  0  # atno 11005 bound_to 11000
  145.5982  139.1501  143.3144 LP  0  0  0  0  0  0  0  0  0  0  0  0  # atno 17320 bound_to 7965
  146.2057  140.6105  142.9082 LP  0  0  0  0  0  0  0  0  0  0  0  0  # atno 17321 bound_to 7965
  140.6412  143.8885  150.6693 LP  0  0  0  0  0  0  0  0  0  0  0  0  # atno 17342 bound_to 10162
  140.2220  143.3801  152.1635 LP  0  0  0  0  0  0  0  0  0  0  0  0  # atno 17343 bound_to 10162
  156.9846  130.9875  151.3429 LP  0  0  0  0  0  0  0  0  0  0  0  0  # atno 17370 bound_to 10713
  157.5579  130.8226  149.8228 LP  0  0  0  0  0  0  0  0  0  0  0  0  # atno 17371 bound_to 10713
  140.5114  134.6392  157.5285 LP  0  0  0  0  0  0  0  0  0  0  0  0  # atno 17394 bound_to 11000
  139.9811  134.7136  155.9859 LP  0  0  0  0  0  0  0  0  0  0  0  0  # atno 17395 bound_to 11000

$$$$
