AV-unprocessed.smi:2194|AV-procd|sdf|8902|dock4
  -GOLD-   2272012113D 1   1.00000     0.00000
 Structure written by MMmdl.
 45 47  0  0  0  0  0  0  0  0  1 V2000
  151.9000  145.5600  159.9269 C   0  0  0  0  0  0  0  0  0  0  0  0
  151.6572  144.1430  159.4497 C   0  0  0  0  0  0  0  0  0  0  0  0
  152.4943  143.0916  159.8734 C   0  0  0  0  0  0  0  0  0  0  0  0
  152.2600  141.7778  159.4237 C   0  0  0  0  0  0  0  0  0  0  0  0
  151.1908  141.4923  158.5500 C   0  0  0  0  0  0  0  0  0  0  0  0
  151.0341  140.1794  158.1615 O   0  0  0  0  0  0  0  0  0  0  0  0
  150.0193  139.8724  157.2133 C   0  0  0  0  0  0  0  0  0  0  0  0
  149.7345  138.3615  157.2198 C   0  0  2  0  0  0  0  0  0  0  0  0
  148.8666  138.0469  156.1486 O   0  0  0  0  0  0  0  0  0  0  0  0
  149.2022  137.8378  158.5696 C   0  0  0  0  0  0  0  0  0  0  0  0
  149.0596  136.3896  158.5863 N   0  0  0  0  0  0  0  0  0  0  0  0
  149.5275  135.5362  157.6528 C   0  0  0  0  0  0  0  0  0  0  0  0
  149.2719  134.2459  157.8718 N   0  0  0  0  0  0  0  0  0  0  0  0
  148.5710  134.2894  159.0717 C   0  0  0  0  0  0  0  0  0  0  0  0
  148.4330  135.5614  159.5171 C   0  0  0  0  0  0  0  0  0  0  0  0
  147.7296  135.8966  160.7586 C   0  0  0  0  0  0  0  0  0  0  0  0
  147.6112  137.0627  161.1377 O   0  0  0  0  0  0  0  0  0  0  0  0
  147.2326  134.8102  161.4281 N   0  0  0  0  0  0  0  0  0  0  0  0
  146.5228  135.1092  162.6867 C   0  0  0  0  0  0  0  0  0  0  0  0
  147.3500  133.4928  161.0137 C   0  0  0  0  0  0  0  0  0  0  0  0
  146.8733  132.5685  161.6766 O   0  0  0  0  0  0  0  0  0  0  0  0
  148.0140  133.2354  159.8379 N   0  0  0  0  0  0  0  0  0  0  0  0
  148.1785  131.8741  159.3184 C   0  0  0  0  0  0  0  0  0  0  0  0
  150.3532  142.5552  158.1271 C   0  0  0  0  0  0  0  0  0  0  0  0
  150.5875  143.8698  158.5751 C   0  0  0  0  0  0  0  0  0  0  0  0
  152.7220  145.6042  160.6421 H   0  0  0  0  0  0  0  0  0  0  0  0
  151.0062  145.9540  160.4114 H   0  0  0  0  0  0  0  0  0  0  0  0
  152.1467  146.2052  159.0833 H   0  0  0  0  0  0  0  0  0  0  0  0
  153.3179  143.2867  160.5443 H   0  0  0  0  0  0  0  0  0  0  0  0
  152.9074  140.9792  159.7553 H   0  0  0  0  0  0  0  0  0  0  0  0
  149.1046  140.4306  157.4215 H   0  0  0  0  0  0  0  0  0  0  0  0
  150.3638  140.1589  156.2182 H   0  0  0  0  0  0  0  0  0  0  0  0
  150.6726  137.8500  157.0010 H   0  0  0  0  0  0  0  0  0  0  0  0
  148.9318  138.7290  155.4980 H   0  0  0  0  0  0  0  0  0  0  0  0
  149.8917  138.1174  159.3673 H   0  0  0  0  0  0  0  0  0  0  0  0
  148.2496  138.2978  158.8277 H   0  0  0  0  0  0  0  0  0  0  0  0
  150.0706  135.8732  156.7819 H   0  0  0  0  0  0  0  0  0  0  0  0
  146.1169  134.2419  163.2074 H   0  0  0  0  0  0  0  0  0  0  0  0
  145.6800  135.7769  162.4994 H   0  0  0  0  0  0  0  0  0  0  0  0
  147.1923  135.6064  163.3906 H   0  0  0  0  0  0  0  0  0  0  0  0
  147.7550  131.0943  159.9518 H   0  0  0  0  0  0  0  0  0  0  0  0
  149.2384  131.6488  159.1951 H   0  0  0  0  0  0  0  0  0  0  0  0
  147.7037  131.7910  158.3403 H   0  0  0  0  0  0  0  0  0  0  0  0
  149.5234  142.3890  157.4574 H   0  0  0  0  0  0  0  0  0  0  0  0
  149.9417  144.6700  158.2445 H   0  0  0  0  0  0  0  0  0  0  0  0
  1  2  1  0  0  0  0
  1 26  1  0  0  0  0
  1 27  1  0  0  0  0
  1 28  1  0  0  0  0
  2 25  1  0  0  0  0
  2  3  2  0  0  0  0
  3  4  1  0  0  0  0
  3 29  1  0  0  0  0
  4  5  2  0  0  0  0
  4 30  1  0  0  0  0
  5  6  1  0  0  0  0
  5 24  1  0  0  0  0
  6  7  1  0  0  0  0
  7  8  1  0  0  0  0
  7 31  1  0  0  0  0
  7 32  1  0  0  0  0
  8  9  1  0  0  0  0
  8 10  1  0  0  0  0
  8 33  1  0  0  0  0
  9 34  1  0  0  0  0
 10 11  1  0  0  0  0
 10 35  1  0  0  0  0
 10 36  1  0  0  0  0
 11 15  1  0  0  0  0
 11 12  1  0  0  0  0
 12 13  2  0  0  0  0
 12 37  1  0  0  0  0
 13 14  1  0  0  0  0
 14 22  1  0  0  0  0
 14 15  2  0  0  0  0
 15 16  1  0  0  0  0
 16 17  2  0  0  0  0
 16 18  1  0  0  0  0
 18 19  1  0  0  0  0
 18 20  1  0  0  0  0
 19 38  1  0  0  0  0
 19 39  1  0  0  0  0
 19 40  1  0  0  0  0
 20 21  2  0  0  0  0
 20 22  1  0  0  0  0
 22 23  1  0  0  0  0
 23 41  1  0  0  0  0
 23 42  1  0  0  0  0
 23 43  1  0  0  0  0
 24 25  2  0  0  0  0
 24 44  1  0  0  0  0
 25 45  1  0  0  0  0
M  END
> <s_m_source_file>
AV-unprocessed.smi

> <i_m_source_file_index>
2194

> <i_lp_mmshare_version>
43012

> <i_f3d_flags>
0

> <s_epik_input>
W0NIM11jMVtjSF1bY0hdYyhbY0hdW2NIXTEpT1tDSDJdW0NASF0oW09IXSlbQ0gyXW4oW2NIXW4yKWMoYzIzKWMoPU8pbihbQ0gzXSljKD1PKW4zW0NIM10=

> <s_epik_cmdline>
J2VwaWtfcHl0aG9uJywgJy1waCcsICc3LjAnLCAnLXRuJywgJzgnLCAnLW1hJywgJzIwMCcsICctbWV0YWxfYmluZGluZycsICctaW1hZScsICc8aW5maWxlLm1hZT4nLCAnLW9tYWUnLCAnPG91dGZpbGUubWFlPic=

> <r_lp_tautomer_probability>
1

> <r_epik_Ionization_Penalty>
1.06124e-06

> <r_epik_Ionization_Penalty_Charging>
3.25921e-09

> <r_epik_Ionization_Penalty_Neutral>
1.05798e-06

> <r_epik_State_Penalty>
-0

> <r_epik_Charging_Adjusted_Penalty>
3.25921e-09

> <i_epik_Tot_Q>
0

> <i_epik_Tot_abs_Q>
0

> <r_epik_Metal_State_Penalty>
-0

> <b_epik_Metal_Only>
0

> <s_lp_Force_Field>
OPLS_2005

> <r_lp_Energy>
41.6396

> <b_lp_Chiralities_Consistent>
1

> <s_lp_Variant>
AV-unprocessed.smi:2194-1

> <Gold.Version>
5.8.1

> <Gold.Id.Protein>
6NUR|6NUR_protein|mol2

> <Gold.PLP.Fitness>
47.9861

> <Gold.PLP.PLP>
-42.9207

> <Gold.PLP.part.hbond>
-2.8755

> <Gold.PLP.part.metal>
0.0000

> <Gold.PLP.part.buried>
-4.9762

> <Gold.PLP.part.nonpolar>
-35.3016

> <Gold.PLP.part.repulsive>
0.0068

> <Gold.PLP.ligand.clash>
0.0000

> <Gold.PLP.ligand.torsion>
0.2135

> <Gold.PLP.Chemscore.Hbond>
1.8240

> <Gold.PLP.Chemscore.CHOScore>
0.0000

> <Gold.PLP.Chemscore.Metal>
0.0000

> <Gold.Chemscore.Hbonds>
donor molecule, donor type, donor heavy atom, donor atom, acceptor molecule, acceptor atom, score
      P1  H  6931  6943       L1    17  0.98
      P1  H  6934  6947       L1    17  0.93

> <Gold.PLP.Chemscore.Internal.Correction>
0.0204

> <Gold.Rescore>
     Score         DG    S(hbond)    S(metal)    S(lipo)     H(rot)  DE(clash)    DE(int)     intcor
     13.95     -15.63       1.77        0.00      95.03       2.69       0.46       1.21       ----

> <Gold.Chemscore.Fitness>
13.9529

> <Gold.Chemscore.DG>
-15.6251

> <Gold.Chemscore.ZeroCoef>
-5.4800

> <Gold.Chemscore.Hbond>
1.7692

> <Gold.Chemscore.Metal>
0.0000

> <Gold.Chemscore.Lipo>
95.0289

> <Gold.Chemscore.Internal_Hbond>
0.0000

> <Gold.Chemscore.DEClash>
0.4645

> <Gold.Chemscore.DEInternal>
1.2078

> <Gold.Chemscore.Rot>
2.6885

> <Gold.Chemscore.Internal.Correction>
   9.000000E+99

> <Gold.Chemscore.Hbonds>
donor molecule, donor type, donor heavy atom, donor atom, acceptor molecule, acceptor atom, score
      P1  H  6931  6943       L1    17  0.89
      P1  H  6934  6947       L1    17  0.85

> <Gold.Chemscore.Hbond.Weighted>
-5.9092

> <Gold.Chemscore.Metal.Weighted>
-0.0000

> <Gold.Chemscore.Lipo.Weighted>
-11.1184

> <Gold.Chemscore.Internal_Hbond.Weighted>
0.0000

> <Gold.Chemscore.DEClash.Weighted>
0.4645

> <Gold.Chemscore.DEInternal.Weighted>
1.2078

> <Gold.Chemscore.Rot.Weighted>
6.8825

> <Gold.Chemscore.Internal.Correction.Weighted>
   9.000000E+99

> <Gold.Protein.RotatedTorsions>
[ 6907 6896 6895 6894 ] final  -97.02 input  -60.11 | X-H torsion
[ 7974 7965 7964 7962 ] final -104.46 input  175.53 | X-H torsion
[ 8008 7997 7996 7995 ] final  155.19 input   59.86 | X-H torsion
[ 10167 10162 10161 10158 ] final  -91.53 input  -65.29 | X-H torsion
[ 10718 10713 10712 10709 ] final -101.02 input   66.30 | X-H torsion
[ 10763 10752 10751 10750 ] final  156.94 input  -60.55 | X-H torsion
[ 11005 11000 10999 10996 ] final -111.40 input  -57.11 | X-H torsion

> <Gold.Protein.ActiveResidues>
 VAL166  LYS551  ARG553  GLY616  TRP617  ASP618  TYR619  PRO620  LYS621  CYS622 
 ASP623  PHE694  ASN695  SER759  ASP760  ASP761  ALA762  ILE779  LEU786  VAL792 
 PHE793  MET794  SER795  GLU796  ALA797  LYS798  CYS799  TRP800  GLU811  SER814 

> <Gold.Protein.RotatedAtoms>
  150.7004  134.1414  159.4105 H   0  0  0  0  0  0  0  0  0  0  0  0  # atno 6907 bound_to 6896
  151.9398  135.0216  160.0544 H   0  0  0  0  0  0  0  0  0  0  0  0  # atno 6908 bound_to 6896
  152.2103  133.4871  159.5143 H   0  0  0  0  0  0  0  0  0  0  0  0  # atno 6909 bound_to 6896
  145.2428  140.9211  143.3140 H   0  0  0  0  0  0  0  0  0  0  0  0  # atno 7974 bound_to 7965
  156.2492  140.1946  156.6762 H   0  0  0  0  0  0  0  0  0  0  0  0  # atno 8008 bound_to 7997
  154.6356  140.0590  156.9810 H   0  0  0  0  0  0  0  0  0  0  0  0  # atno 8009 bound_to 7997
  155.1643  140.3262  155.4408 H   0  0  0  0  0  0  0  0  0  0  0  0  # atno 8010 bound_to 7997
  140.3439  143.2927  151.9803 H   0  0  0  0  0  0  0  0  0  0  0  0  # atno 10167 bound_to 10162
  156.0181  130.5354  150.6902 H   0  0  0  0  0  0  0  0  0  0  0  0  # atno 10718 bound_to 10713
  154.1924  135.2794  155.3018 H   0  0  0  0  0  0  0  0  0  0  0  0  # atno 10763 bound_to 10752
  154.5919  135.5557  153.7290 H   0  0  0  0  0  0  0  0  0  0  0  0  # atno 10764 bound_to 10752
  153.0109  135.6370  154.2062 H   0  0  0  0  0  0  0  0  0  0  0  0  # atno 10765 bound_to 10752
  141.0736  133.9338  157.2434 H   0  0  0  0  0  0  0  0  0  0  0  0  # atno 11005 bound_to 11000
  144.9573  139.4017  143.6373 LP  0  0  0  0  0  0  0  0  0  0  0  0  # atno 17320 bound_to 7965
  146.3324  139.8610  142.8856 LP  0  0  0  0  0  0  0  0  0  0  0  0  # atno 17321 bound_to 7965
  139.4836  144.6133  151.7393 LP  0  0  0  0  0  0  0  0  0  0  0  0  # atno 17342 bound_to 10162
  140.5283  144.0771  150.6045 LP  0  0  0  0  0  0  0  0  0  0  0  0  # atno 17343 bound_to 10162
  157.4585  131.0880  151.0770 LP  0  0  0  0  0  0  0  0  0  0  0  0  # atno 17370 bound_to 10713
  157.1265  130.6084  149.5518 LP  0  0  0  0  0  0  0  0  0  0  0  0  # atno 17371 bound_to 10713
  139.9549  135.0168  156.9099 LP  0  0  0  0  0  0  0  0  0  0  0  0  # atno 17394 bound_to 11000
  140.5620  134.0525  155.7402 LP  0  0  0  0  0  0  0  0  0  0  0  0  # atno 17395 bound_to 11000

$$$$
