AV-unprocessed.smi:1019|AV-procd|sdf|4450|dock6
  -GOLD-   22720 2413D 1   1.00000     0.00000
 Structure written by MMmdl.
 45 47  0  0  0  0  0  0  0  0  3 V2000
  144.9010  138.0650  154.5878 C   0  0  0  0  0  0  0  0  0  0  0  0
  146.3697  138.0827  154.3881 N   0  3  2  0  0  0  0  0  0  0  0  0
  147.0681  138.9776  155.3475 C   0  0  0  0  0  0  0  0  0  0  0  0
  146.6553  140.4289  155.1775 C   0  0  0  0  0  0  0  0  0  0  0  0
  147.1074  141.1749  154.0678 C   0  0  0  0  0  0  0  0  0  0  0  0
  146.7169  142.5191  153.9127 C   0  0  0  0  0  0  0  0  0  0  0  0
  145.8755  143.1232  154.8668 C   0  0  0  0  0  0  0  0  0  0  0  0
  145.4254  142.3831  155.9770 C   0  0  0  0  0  0  0  0  0  0  0  0
  145.8152  141.0387  156.1330 C   0  0  0  0  0  0  0  0  0  0  0  0
  146.7318  138.3510  152.9722 C   0  0  0  0  0  0  0  0  0  0  0  0
  145.9324  137.4808  151.9813 C   0  0  1  0  0  0  0  0  0  0  0  0
  146.3038  137.8318  150.6618 O   0  0  0  0  0  0  0  0  0  0  0  0
  146.1992  135.9783  152.2010 C   0  0  0  0  0  0  0  0  0  0  0  0
  145.1906  135.1163  151.5700 N   0  0  0  0  0  0  0  0  0  0  0  0
  144.0546  135.4465  150.8964 C   0  0  0  0  0  0  0  0  0  0  0  0
  143.4598  134.2873  150.4998 N   0  3  0  0  0  0  0  0  0  0  0  0
  144.2268  133.2003  150.9240 C   0  0  0  0  0  0  0  0  0  0  0  0
  144.0367  131.8316  150.7615 C   0  0  0  0  0  0  0  0  0  0  0  0
  145.0176  130.9860  151.3203 C   0  0  0  0  0  0  0  0  0  0  0  0
  146.1322  131.5080  152.0088 C   0  0  0  0  0  0  0  0  0  0  0  0
  146.3146  132.8976  152.1687 C   0  0  0  0  0  0  0  0  0  0  0  0
  145.3409  133.7262  151.6123 C   0  0  0  0  0  0  0  0  0  0  0  0
  144.4683  139.0459  154.3871 H   0  0  0  0  0  0  0  0  0  0  0  0
  144.6398  137.7780  155.6061 H   0  0  0  0  0  0  0  0  0  0  0  0
  144.4297  137.3415  153.9218 H   0  0  0  0  0  0  0  0  0  0  0  0
  146.8413  138.6921  156.3743 H   0  0  0  0  0  0  0  0  0  0  0  0
  148.1486  138.8741  155.2353 H   0  0  0  0  0  0  0  0  0  0  0  0
  147.7512  140.7186  153.3301 H   0  0  0  0  0  0  0  0  0  0  0  0
  147.0625  143.0872  153.0614 H   0  0  0  0  0  0  0  0  0  0  0  0
  145.5764  144.1542  154.7472 H   0  0  0  0  0  0  0  0  0  0  0  0
  144.7810  142.8474  156.7093 H   0  0  0  0  0  0  0  0  0  0  0  0
  145.4655  140.4765  156.9868 H   0  0  0  0  0  0  0  0  0  0  0  0
  146.5477  139.3996  152.7327 H   0  0  0  0  0  0  0  0  0  0  0  0
  147.8042  138.1969  152.8420 H   0  0  0  0  0  0  0  0  0  0  0  0
  144.8641  137.6663  152.0879 H   0  0  0  0  0  0  0  0  0  0  0  0
  145.6091  138.3438  150.2762 H   0  0  0  0  0  0  0  0  0  0  0  0
  147.1695  135.7005  151.7866 H   0  0  0  0  0  0  0  0  0  0  0  0
  146.2390  135.7397  153.2646 H   0  0  0  0  0  0  0  0  0  0  0  0
  143.6897  136.4463  150.7102 H   0  0  0  0  0  0  0  0  0  0  0  0
  143.1844  131.4288  150.2338 H   0  0  0  0  0  0  0  0  0  0  0  0
  144.9134  129.9154  151.2179 H   0  0  0  0  0  0  0  0  0  0  0  0
  146.8630  130.8278  152.4221 H   0  0  0  0  0  0  0  0  0  0  0  0
  147.1718  133.2871  152.6970 H   0  0  0  0  0  0  0  0  0  0  0  0
  146.6903  137.1441  154.5812 H   0  0  0  0  0  0  0  0  0  0  0  0
  142.5946  134.2442  149.9762 H   0  0  0  0  0  0  0  0  0  0  0  0
  1  2  1  0  0  0  0
  1 23  1  0  0  0  0
  1 24  1  0  0  0  0
  1 25  1  0  0  0  0
  2  3  1  0  0  0  0
  2 10  1  0  0  0  0
  2 44  1  0  0  0  0
  3  4  1  0  0  0  0
  3 26  1  0  0  0  0
  3 27  1  0  0  0  0
  4  9  1  0  0  0  0
  4  5  2  0  0  0  0
  5  6  1  0  0  0  0
  5 28  1  0  0  0  0
  6  7  2  0  0  0  0
  6 29  1  0  0  0  0
  7  8  1  0  0  0  0
  7 30  1  0  0  0  0
  8  9  2  0  0  0  0
  8 31  1  0  0  0  0
  9 32  1  0  0  0  0
 10 11  1  0  0  0  0
 10 33  1  0  0  0  0
 10 34  1  0  0  0  0
 11 12  1  0  0  0  0
 11 13  1  0  0  0  0
 11 35  1  0  0  0  0
 12 36  1  0  0  0  0
 13 14  1  0  0  0  0
 13 37  1  0  0  0  0
 13 38  1  0  0  0  0
 14 22  1  0  0  0  0
 14 15  1  0  0  0  0
 15 16  2  0  0  0  0
 15 39  1  0  0  0  0
 16 17  1  0  0  0  0
 16 45  1  0  0  0  0
 17 22  2  0  0  0  0
 17 18  1  0  0  0  0
 18 19  2  0  0  0  0
 18 40  1  0  0  0  0
 19 20  1  0  0  0  0
 19 41  1  0  0  0  0
 20 21  2  0  0  0  0
 20 42  1  0  0  0  0
 21 22  1  0  0  0  0
 21 43  1  0  0  0  0
M  CHG  1   2   1
M  CHG  1  16   1
M  END
> <s_m_source_file>
AV-unprocessed.smi

> <i_m_source_file_index>
1019

> <i_lp_mmshare_version>
43012

> <i_f3d_flags>
0

> <s_epik_input>
W2NIXTFbY0hdW2NIXVtjSF1bY0hdYzFbQ0gyXU4oW0NIM10pW0NIMl1bQ0BIXShbT0hdKVtDSDJdbihbY0hdbjIpYyhjMjMpW2NIXVtjSF1bY0hdW2NIXTM=

> <s_epik_cmdline>
J2VwaWtfcHl0aG9uJywgJy1waCcsICc3LjAnLCAnLXRuJywgJzgnLCAnLW1hJywgJzIwMCcsICctbWV0YWxfYmluZGluZycsICctaW1hZScsICc8aW5maWxlLm1hZT4nLCAnLW9tYWUnLCAnPG91dGZpbGUubWFlPic=

> <r_epik_Ionization_Penalty>
1.5198

> <r_epik_Ionization_Penalty_Charging>
1.5198

> <r_epik_Ionization_Penalty_Neutral>
3.13312e-06

> <r_epik_State_Penalty>
1.624

> <r_epik_Charging_Adjusted_Penalty>
3.1438

> <i_epik_Tot_Q>
2

> <i_epik_Tot_abs_Q>
2

> <r_epik_Metal_State_Penalty>
5.67392

> <b_epik_Metal_Only>
0

> <s_lp_Force_Field>
OPLS_2005

> <r_lp_Energy>
24.6792

> <b_lp_Chiralities_Consistent>
1

> <s_lp_Variant>
AV-unprocessed.smi:1019-8

> <Gold.Version>
5.8.1

> <Gold.Id.Protein>
6NUR|6NUR_protein|mol2

> <Gold.PLP.Fitness>
53.4453

> <Gold.PLP.PLP>
-39.0331

> <Gold.PLP.part.hbond>
-3.3002

> <Gold.PLP.part.metal>
0.0000

> <Gold.PLP.part.buried>
-4.2526

> <Gold.PLP.part.nonpolar>
-32.3117

> <Gold.PLP.part.repulsive>
0.0226

> <Gold.PLP.ligand.clash>
0.0000

> <Gold.PLP.ligand.torsion>
0.3557

> <Gold.PLP.Chemscore.Hbond>
3.9760

> <Gold.PLP.Chemscore.CHOScore>
1.0000

> <Gold.PLP.Chemscore.Metal>
0.0000

> <Gold.Chemscore.Hbonds>
donor molecule, donor type, donor heavy atom, donor atom, acceptor molecule, acceptor atom, score
      L1  H    12    36       P1 10171  1.00
      L1  H    16    45       P1 10186  2.00
      P1  H  7954  7966       L1    12  0.99
      L1  C    15    39       P1 10171  1.00

> <Gold.PLP.Chemscore.Internal.Correction>
0.1956

> <Gold.Rescore>
     Score         DG    S(hbond)    S(metal)    S(lipo)     H(rot)  DE(clash)    DE(int)     intcor
     17.80     -19.71       2.87        0.00      93.56       2.46       1.47       0.45       ----

> <Gold.Chemscore.Fitness>
17.7958

> <Gold.Chemscore.DG>
-19.7125

> <Gold.Chemscore.ZeroCoef>
-5.4800

> <Gold.Chemscore.Hbond>
2.8657

> <Gold.Chemscore.Metal>
0.0000

> <Gold.Chemscore.Lipo>
93.5606

> <Gold.Chemscore.Internal_Hbond>
0.0000

> <Gold.Chemscore.DEClash>
1.4666

> <Gold.Chemscore.DEInternal>
0.4501

> <Gold.Chemscore.Rot>
2.4552

> <Gold.Chemscore.Internal.Correction>
   9.000000E+99

> <Gold.Chemscore.Hbonds>
donor molecule, donor type, donor heavy atom, donor atom, acceptor molecule, acceptor atom, score
      L1  H    12    36       P1 10171  0.97
      L1  H    16    45       P1 10186  0.96
      P1  H  7954  7966       L1    12  0.87

> <Gold.Chemscore.Hbond.Weighted>
-9.5713

> <Gold.Chemscore.Metal.Weighted>
-0.0000

> <Gold.Chemscore.Lipo.Weighted>
-10.9466

> <Gold.Chemscore.Internal_Hbond.Weighted>
0.0000

> <Gold.Chemscore.DEClash.Weighted>
1.4666

> <Gold.Chemscore.DEInternal.Weighted>
0.4501

> <Gold.Chemscore.Rot.Weighted>
6.2854

> <Gold.Chemscore.Internal.Correction.Weighted>
   9.000000E+99

> <Gold.Protein.RotatedTorsions>
[ 6907 6896 6895 6894 ] final -112.78 input  -60.11 | X-H torsion
[ 7974 7965 7964 7962 ] final  -75.17 input  175.53 | X-H torsion
[ 8008 7997 7996 7995 ] final  162.41 input   59.86 | X-H torsion
[ 10167 10162 10161 10158 ] final  -88.64 input  -65.29 | X-H torsion
[ 10718 10713 10712 10709 ] final   30.30 input   66.30 | X-H torsion
[ 10763 10752 10751 10750 ] final  -36.56 input  -60.55 | X-H torsion
[ 11005 11000 10999 10996 ] final -161.65 input  -57.11 | X-H torsion

> <Gold.Protein.ActiveResidues>
 VAL166  LYS551  ARG553  GLY616  TRP617  ASP618  TYR619  PRO620  LYS621  CYS622 
 ASP623  PHE694  ASN695  SER759  ASP760  ASP761  ALA762  ILE779  LEU786  VAL792 
 PHE793  MET794  SER795  GLU796  ALA797  LYS798  CYS799  TRP800  GLU811  SER814 

> <Gold.Protein.RotatedAtoms>
  150.7782  133.9040  159.3349 H   0  0  0  0  0  0  0  0  0  0  0  0  # atno 6907 bound_to 6896
  151.6909  135.0944  160.0243 H   0  0  0  0  0  0  0  0  0  0  0  0  # atno 6908 bound_to 6896
  152.3825  133.6528  159.6208 H   0  0  0  0  0  0  0  0  0  0  0  0  # atno 6909 bound_to 6896
  145.6296  140.9341  143.1094 H   0  0  0  0  0  0  0  0  0  0  0  0  # atno 7974 bound_to 7965
  156.2033  140.1751  156.7853 H   0  0  0  0  0  0  0  0  0  0  0  0  # atno 8008 bound_to 7997
  154.5621  140.0697  156.8865 H   0  0  0  0  0  0  0  0  0  0  0  0  # atno 8009 bound_to 7997
  155.2829  140.3350  155.4259 H   0  0  0  0  0  0  0  0  0  0  0  0  # atno 8010 bound_to 7997
  140.3727  143.2786  151.9480 H   0  0  0  0  0  0  0  0  0  0  0  0  # atno 10167 bound_to 10162
  157.2578  130.7146  149.6438 H   0  0  0  0  0  0  0  0  0  0  0  0  # atno 10718 bound_to 10713
  153.8817  135.6821  153.4766 H   0  0  0  0  0  0  0  0  0  0  0  0  # atno 10763 bound_to 10752
  153.1230  135.4731  154.9224 H   0  0  0  0  0  0  0  0  0  0  0  0  # atno 10764 bound_to 10752
  154.7665  135.3226  154.8227 H   0  0  0  0  0  0  0  0  0  0  0  0  # atno 10765 bound_to 10752
  140.6180  134.4780  157.5221 H   0  0  0  0  0  0  0  0  0  0  0  0  # atno 11005 bound_to 11000
  144.7199  139.8067  143.7385 LP  0  0  0  0  0  0  0  0  0  0  0  0  # atno 17320 bound_to 7965
  146.1367  139.4414  143.0134 LP  0  0  0  0  0  0  0  0  0  0  0  0  # atno 17321 bound_to 7965
  139.4802  144.5892  151.7802 LP  0  0  0  0  0  0  0  0  0  0  0  0  # atno 17342 bound_to 10162
  140.5017  144.1159  150.5972 LP  0  0  0  0  0  0  0  0  0  0  0  0  # atno 17343 bound_to 10162
  155.9664  130.4407  150.5310 LP  0  0  0  0  0  0  0  0  0  0  0  0  # atno 17370 bound_to 10713
  157.3208  131.0681  151.1933 LP  0  0  0  0  0  0  0  0  0  0  0  0  # atno 17371 bound_to 10713
  139.9165  134.8236  156.1350 LP  0  0  0  0  0  0  0  0  0  0  0  0  # atno 17394 bound_to 11000
  141.0762  133.6774  156.2241 LP  0  0  0  0  0  0  0  0  0  0  0  0  # atno 17395 bound_to 11000

$$$$
