AV-unprocessed.smi:1983|AV-procd|sdf|8029|dock5
  -GOLD-   2272010223D 1   1.00000     0.00000
 Structure written by MMmdl.
 49 50  0  0  0  0  0  0  0  0  1 V2000
  149.0199  133.6413  154.8885 C   0  0  0  0  0  0  0  0  0  0  0  0
  149.0159  134.9883  155.6329 C   0  0  1  0  0  0  0  0  0  0  0  0
  150.1916  135.1138  156.6169 C   0  0  0  0  0  0  0  0  0  0  0  0
  149.9908  134.2806  157.7385 O   0  0  0  0  0  0  0  0  0  0  0  0
  149.0688  136.0955  154.6821 N   0  0  0  0  0  0  0  0  0  0  0  0
  148.8886  137.3883  154.9872 C   0  0  0  0  0  0  0  0  0  0  0  0
  148.6475  137.8041  156.1208 O   0  0  0  0  0  0  0  0  0  0  0  0
  148.9968  138.1740  153.9070 N   0  0  0  0  0  0  0  0  0  0  0  0
  148.8199  139.6213  153.9142 C   0  0  0  0  0  0  0  0  0  0  0  0
  149.6285  140.3064  155.0013 C   0  0  0  0  0  0  0  0  0  0  0  0
  150.9404  139.8907  155.2997 C   0  0  0  0  0  0  0  0  0  0  0  0
  151.6482  140.5516  156.3215 C   0  0  0  0  0  0  0  0  0  0  0  0
  151.0246  141.6140  157.0179 C   0  0  0  0  0  0  0  0  0  0  0  0
  151.7192  142.2889  158.0441 N   0  0  0  0  0  0  0  0  0  0  0  0
  152.2583  141.4374  159.1001 C   0  0  0  0  0  0  0  0  0  0  0  0
  153.2497  142.2282  159.9750 C   0  0  2  0  0  0  0  0  0  0  0  0
  153.7408  141.4070  161.1718 C   0  0  0  0  0  0  0  0  0  0  0  0
  152.6093  143.4014  160.4705 O   0  0  0  0  0  0  0  0  0  0  0  0
  152.1864  144.2741  159.4259 C   0  0  2  0  0  0  0  0  0  0  0  0
  151.6025  145.5401  160.0612 C   0  0  0  0  0  0  0  0  0  0  0  0
  151.1585  143.5420  158.5434 C   0  0  0  0  0  0  0  0  0  0  0  0
  149.7626  142.0136  156.7231 N   0  0  0  0  0  0  0  0  0  0  0  0
  149.0869  141.3733  155.7459 C   0  0  0  0  0  0  0  0  0  0  0  0
  148.9642  132.8059  155.5867 H   0  0  0  0  0  0  0  0  0  0  0  0
  149.9256  133.5176  154.2943 H   0  0  0  0  0  0  0  0  0  0  0  0
  148.1663  133.5569  154.2153 H   0  0  0  0  0  0  0  0  0  0  0  0
  148.0879  135.0744  156.2019 H   0  0  0  0  0  0  0  0  0  0  0  0
  151.1372  134.8611  156.1357 H   0  0  0  0  0  0  0  0  0  0  0  0
  150.2775  136.1394  156.9784 H   0  0  0  0  0  0  0  0  0  0  0  0
  149.0822  134.3325  157.9928 H   0  0  0  0  0  0  0  0  0  0  0  0
  149.2599  135.8574  153.7201 H   0  0  0  0  0  0  0  0  0  0  0  0
  149.1999  137.7416  153.0178 H   0  0  0  0  0  0  0  0  0  0  0  0
  149.0681  140.0368  152.9359 H   0  0  0  0  0  0  0  0  0  0  0  0
  147.7643  139.8369  154.0800 H   0  0  0  0  0  0  0  0  0  0  0  0
  151.3997  139.0773  154.7574 H   0  0  0  0  0  0  0  0  0  0  0  0
  152.6591  140.2482  156.5497 H   0  0  0  0  0  0  0  0  0  0  0  0
  151.4306  141.0698  159.7082 H   0  0  0  0  0  0  0  0  0  0  0  0
  152.7619  140.5627  158.6901 H   0  0  0  0  0  0  0  0  0  0  0  0
  154.1148  142.5194  159.3766 H   0  0  0  0  0  0  0  0  0  0  0  0
  154.2461  140.4986  160.8431 H   0  0  0  0  0  0  0  0  0  0  0  0
  152.9115  141.1143  161.8166 H   0  0  0  0  0  0  0  0  0  0  0  0
  154.4457  141.9800  161.7747 H   0  0  0  0  0  0  0  0  0  0  0  0
  153.0519  144.5572  158.8240 H   0  0  0  0  0  0  0  0  0  0  0  0
  151.2765  146.2474  159.2982 H   0  0  0  0  0  0  0  0  0  0  0  0
  152.3446  146.0413  160.6830 H   0  0  0  0  0  0  0  0  0  0  0  0
  150.7431  145.3065  160.6905 H   0  0  0  0  0  0  0  0  0  0  0  0
  150.8740  144.1837  157.7083 H   0  0  0  0  0  0  0  0  0  0  0  0
  150.2542  143.3294  159.1155 H   0  0  0  0  0  0  0  0  0  0  0  0
  148.0843  141.7249  155.5522 H   0  0  0  0  0  0  0  0  0  0  0  0
  1  2  1  0  0  0  0
  1 24  1  0  0  0  0
  1 25  1  0  0  0  0
  1 26  1  0  0  0  0
  2  3  1  0  0  0  0
  2  5  1  0  0  0  0
  2 27  1  0  0  0  0
  3  4  1  0  0  0  0
  3 28  1  0  0  0  0
  3 29  1  0  0  0  0
  4 30  1  0  0  0  0
  5  6  1  0  0  0  0
  5 31  1  0  0  0  0
  6  7  2  0  0  0  0
  6  8  1  0  0  0  0
  8  9  1  0  0  0  0
  8 32  1  0  0  0  0
  9 10  1  0  0  0  0
  9 33  1  0  0  0  0
  9 34  1  0  0  0  0
 10 23  1  0  0  0  0
 10 11  2  0  0  0  0
 11 12  1  0  0  0  0
 11 35  1  0  0  0  0
 12 13  2  0  0  0  0
 12 36  1  0  0  0  0
 13 14  1  0  0  0  0
 13 22  1  0  0  0  0
 14 21  1  0  0  0  0
 14 15  1  0  0  0  0
 15 16  1  0  0  0  0
 15 37  1  0  0  0  0
 15 38  1  0  0  0  0
 16 17  1  0  0  0  0
 16 18  1  0  0  0  0
 16 39  1  0  0  0  0
 17 40  1  0  0  0  0
 17 41  1  0  0  0  0
 17 42  1  0  0  0  0
 18 19  1  0  0  0  0
 19 20  1  0  0  0  0
 19 21  1  0  0  0  0
 19 43  1  0  0  0  0
 20 44  1  0  0  0  0
 20 45  1  0  0  0  0
 20 46  1  0  0  0  0
 21 47  1  0  0  0  0
 21 48  1  0  0  0  0
 22 23  2  0  0  0  0
 23 49  1  0  0  0  0
M  END
> <s_m_source_file>
AV-unprocessed.smi

> <i_m_source_file_index>
1983

> <i_lp_mmshare_version>
43012

> <i_f3d_flags>
0

> <s_epik_input>
W09IXVtDSDJdW0NAQEhdKFtDSDNdKVtOSF1DKD1PKVtOSF1bQ0gyXWMxW2NIXVtjSF1jKG5bY0hdMSlOMltDSDJdW0NAQEhdKFtDSDNdKU9bQ0BASF0oW0NIM10pW0NIMl0y

> <s_epik_cmdline>
J2VwaWtfcHl0aG9uJywgJy1waCcsICc3LjAnLCAnLXRuJywgJzgnLCAnLW1hJywgJzIwMCcsICctbWV0YWxfYmluZGluZycsICctaW1hZScsICc8aW5maWxlLm1hZT4nLCAnLW9tYWUnLCAnPG91dGZpbGUubWFlPic=

> <r_lp_tautomer_probability>
1

> <r_epik_Ionization_Penalty>
0.00801967

> <r_epik_Ionization_Penalty_Charging>
0

> <r_epik_Ionization_Penalty_Neutral>
0.00801967

> <r_epik_State_Penalty>
0.00598289

> <r_epik_Charging_Adjusted_Penalty>
0.00598289

> <i_epik_Tot_Q>
0

> <i_epik_Tot_abs_Q>
0

> <r_epik_Metal_State_Penalty>
0.00590297

> <b_epik_Metal_Only>
0

> <s_lp_Force_Field>
OPLS_2005

> <r_lp_Energy>
11.3831

> <b_lp_Chiralities_Consistent>
1

> <s_lp_Variant>
AV-unprocessed.smi:1983-2

> <Gold.Version>
5.8.1

> <Gold.Id.Protein>
6NUR|6NUR_protein|mol2

> <Gold.PLP.Fitness>
50.2967

> <Gold.PLP.PLP>
-42.3847

> <Gold.PLP.part.hbond>
-3.0000

> <Gold.PLP.part.metal>
0.0000

> <Gold.PLP.part.buried>
-4.1616

> <Gold.PLP.part.nonpolar>
-36.5987

> <Gold.PLP.part.repulsive>
0.8262

> <Gold.PLP.ligand.clash>
0.0000

> <Gold.PLP.ligand.torsion>
0.6540

> <Gold.PLP.Chemscore.Hbond>
2.9600

> <Gold.PLP.Chemscore.CHOScore>
0.0000

> <Gold.PLP.Chemscore.Metal>
0.0000

> <Gold.Chemscore.Hbonds>
donor molecule, donor type, donor heavy atom, donor atom, acceptor molecule, acceptor atom, score
      L1  H     5    31       P1  7948  0.99
      L1  H     8    32       P1  7948  0.98
      P1  H  6896  6908       L1     4  0.91

> <Gold.PLP.Chemscore.Internal.Correction>
0.3399

> <Gold.Rescore>
     Score         DG    S(hbond)    S(metal)    S(lipo)     H(rot)  DE(clash)    DE(int)     intcor
     18.26     -20.89       2.85        0.00     107.38       2.61       0.82       1.80       ----

> <Gold.Chemscore.Fitness>
18.2635

> <Gold.Chemscore.DG>
-20.8871

> <Gold.Chemscore.ZeroCoef>
-5.4800

> <Gold.Chemscore.Hbond>
2.8518

> <Gold.Chemscore.Metal>
0.0000

> <Gold.Chemscore.Lipo>
107.3760

> <Gold.Chemscore.Internal_Hbond>
0.0000

> <Gold.Chemscore.DEClash>
0.8230

> <Gold.Chemscore.DEInternal>
1.8007

> <Gold.Chemscore.Rot>
2.6097

> <Gold.Chemscore.Internal.Correction>
   9.000000E+99

> <Gold.Chemscore.Hbonds>
donor molecule, donor type, donor heavy atom, donor atom, acceptor molecule, acceptor atom, score
      L1  H     5    31       P1  7948  0.69
      L1  H     8    32       P1  7948  0.92
      P1  H  6896  6908       L1     4  0.20

> <Gold.Chemscore.Hbond.Weighted>
-9.5250

> <Gold.Chemscore.Metal.Weighted>
-0.0000

> <Gold.Chemscore.Lipo.Weighted>
-12.5630

> <Gold.Chemscore.Internal_Hbond.Weighted>
0.0000

> <Gold.Chemscore.DEClash.Weighted>
0.8230

> <Gold.Chemscore.DEInternal.Weighted>
1.8007

> <Gold.Chemscore.Rot.Weighted>
6.6809

> <Gold.Chemscore.Internal.Correction.Weighted>
   9.000000E+99

> <Gold.Protein.RotatedTorsions>
[ 6907 6896 6895 6894 ] final  135.88 input  -60.11 | X-H torsion
[ 7974 7965 7964 7962 ] final -119.23 input  175.53 | X-H torsion
[ 8008 7997 7996 7995 ] final  110.39 input   59.86 | X-H torsion
[ 10167 10162 10161 10158 ] final  144.48 input  -65.29 | X-H torsion
[ 10718 10713 10712 10709 ] final  175.11 input   66.30 | X-H torsion
[ 10763 10752 10751 10750 ] final  -40.47 input  -60.55 | X-H torsion
[ 11005 11000 10999 10996 ] final  128.04 input  -57.11 | X-H torsion

> <Gold.Protein.ActiveResidues>
 VAL166  LYS551  ARG553  GLY616  TRP617  ASP618  TYR619  PRO620  LYS621  CYS622 
 ASP623  PHE694  ASN695  SER759  ASP760  ASP761  ALA762  ILE779  LEU786  VAL792 
 PHE793  MET794  SER795  GLU796  ALA797  LYS798  CYS799  TRP800  GLU811  SER814 

> <Gold.Protein.RotatedAtoms>
  152.2955  133.5604  159.5584 H   0  0  0  0  0  0  0  0  0  0  0  0  # atno 6907 bound_to 6896
  150.7254  134.0366  159.3760 H   0  0  0  0  0  0  0  0  0  0  0  0  # atno 6908 bound_to 6896
  151.8269  135.0634  160.0483 H   0  0  0  0  0  0  0  0  0  0  0  0  # atno 6909 bound_to 6896
  145.0648  140.8317  143.4130 H   0  0  0  0  0  0  0  0  0  0  0  0  # atno 7974 bound_to 7965
  156.2050  140.3039  155.9606 H   0  0  0  0  0  0  0  0  0  0  0  0  # atno 8008 bound_to 7997
  155.2864  140.0440  157.3036 H   0  0  0  0  0  0  0  0  0  0  0  0  # atno 8009 bound_to 7997
  154.5620  140.2323  155.8329 H   0  0  0  0  0  0  0  0  0  0  0  0  # atno 8010 bound_to 7997
  139.4946  144.5969  151.6564 H   0  0  0  0  0  0  0  0  0  0  0  0  # atno 10167 bound_to 10162
  156.9397  130.9997  151.2971 H   0  0  0  0  0  0  0  0  0  0  0  0  # atno 10718 bound_to 10713
  153.9465  135.6755  153.4744 H   0  0  0  0  0  0  0  0  0  0  0  0  # atno 10763 bound_to 10752
  153.0905  135.4877  154.8678 H   0  0  0  0  0  0  0  0  0  0  0  0  # atno 10764 bound_to 10752
  154.7349  135.3147  154.8788 H   0  0  0  0  0  0  0  0  0  0  0  0  # atno 10765 bound_to 10752
  139.9539  134.9617  156.8943 H   0  0  0  0  0  0  0  0  0  0  0  0  # atno 11005 bound_to 11000
  145.1364  139.2599  143.5513 LP  0  0  0  0  0  0  0  0  0  0  0  0  # atno 17320 bound_to 7965
  146.3526  140.1029  142.8607 LP  0  0  0  0  0  0  0  0  0  0  0  0  # atno 17321 bound_to 7965
  140.5609  144.0270  150.6169 LP  0  0  0  0  0  0  0  0  0  0  0  0  # atno 17342 bound_to 10162
  140.3355  143.3051  152.0642 LP  0  0  0  0  0  0  0  0  0  0  0  0  # atno 17343 bound_to 10162
  157.5793  130.8365  149.8500 LP  0  0  0  0  0  0  0  0  0  0  0  0  # atno 17370 bound_to 10713
  156.0410  130.3739  150.1436 LP  0  0  0  0  0  0  0  0  0  0  0  0  # atno 17371 bound_to 10713
  140.5654  134.0494  155.7412 LP  0  0  0  0  0  0  0  0  0  0  0  0  # atno 17394 bound_to 11000
  141.1207  133.9465  157.2734 LP  0  0  0  0  0  0  0  0  0  0  0  0  # atno 17395 bound_to 11000

$$$$
