#       Name:                AV-unprocessed.smi:2747
#       Creating user name   scv26
#       Creation time:       Fri Mar 27 15:03:06 2020


#       File generated by GOLD software.
#

@<TRIPOS>MOLECULE
AV-unprocessed.smi:2747
    28    29     1
SMALL
NO_CHARGES


@<TRIPOS>ATOM
      1 ****        -2.1455  -0.3918  -0.7890 O.3            1 S1                 0.0000
      2 ****        -1.5316  -1.6667  -0.8361 C.3            1 S1                 0.0000
      3 ****         0.0017  -1.5031  -0.8247 C.3            1 S1                 0.0000
      4 ****         0.4771  -0.8122   0.3607 N.pl3          1 S1                 0.0000
      5 ****         0.6417  -1.5101   1.5198 N.2            1 S1                 0.0000
      6 ****         1.0648  -0.6953   2.4395 N.2            1 S1                 0.0000
      7 ****         1.1808   0.5644   1.8759 C.ar           1 S1                 0.0000
      8 ****         1.5904   1.8041   2.4153 C.ar           1 S1                 0.0000
      9 ****         1.6142   2.9619   1.6071 C.ar           1 S1                 0.0000
     10 ****         2.1193   4.4600   2.3040 Cl             1 S1                 0.0000
     11 ****         1.2278   2.8915   0.2467 C.ar           1 S1                 0.0000
     12 ****         1.2481   4.2986  -0.7556 Cl             1 S1                 0.0000
     13 ****         0.8186   1.6611  -0.3052 C.ar           1 S1                 0.0000
     14 ****         0.8027   0.5212   0.5164 C.ar           1 S1                 0.0000
     15 ****        -2.0423  -2.4311  -2.0721 C.3            1 S1                 0.0000
     16 ****        -3.3681  -2.5605  -2.0170 F              1 S1                 0.0000
     17 ****        -1.7007  -1.8035  -3.1981 F              1 S1                 0.0000
     18 ****        -1.5103  -3.6532  -2.0874 F              1 S1                 0.0000
     19 ****        -1.8768   0.0422   0.0063 H              1 S1                 0.0000
     20 ****        -1.8377  -2.2098   0.0591 H              1 S1                 0.0000
     21 ****         0.4883  -2.4782  -0.8732 H              1 S1                 0.0000
     22 ****         0.3325  -0.9487  -1.7037 H              1 S1                 0.0000
     23 ****         1.8856   1.8647   3.4526 H              1 S1                 0.0000
     24 ****         0.5204   1.5942  -1.3411 H              1 S1                 0.0000
     25 ****        -3.1401  -0.4961  -0.7966 LP             1 S1                 0.0000
     26 ****        -1.8610   0.1488  -1.5807 LP             1 S1                 0.0000
     27 ****         0.4660  -2.4869   1.6422 LP             1 S1                 0.0000
     28 ****         1.2705  -0.9358   3.3881 LP             1 S1                 0.0000
@<TRIPOS>BOND
    1    1    2 1     
    2    1   19 1     
    3    2    3 1     
    4    2   15 1     
    5    2   20 1     
    6    3    4 1     
    7    3   21 1     
    8    3   22 1     
    9    4   14 1     
   10    4    5 1     
   11    5    6 2     
   12    6    7 1     
   13    7   14 ar    
   14    7    8 ar    
   15    8    9 ar    
   16    8   23 1     
   17    9   10 1     
   18    9   11 ar    
   19   11   12 1     
   20   11   13 ar    
   21   13   14 ar    
   22   13   24 1     
   23   15   16 1     
   24   15   17 1     
   25   15   18 1     
   26    1   25 1     
   27    1   26 1     
   28    5   27 1     
   29    6   28 1     
@<TRIPOS>SUBSTRUCTURE
      1 S1             1
@<TRIPOS>SET
LONE_PAIRS      STATIC     ATOMS    <user>   **** ""
4 25 26 27 28
DONOR_HYDROGENS      STATIC     ATOMS    <user>   **** ""
1 19
ATOM$BLUE        STATIC     ATOMS    COLORGROUP SYSTEM
4 25 26 27 28
ATOM$RED        STATIC     ATOMS    COLORGROUP SYSTEM
1 19
