AV-unprocessed.smi:3185|AV-procd|sdf|12171|dock6
  -GOLD-   2272018 13D 1   1.00000     0.00000
 Structure written by MMmdl.
 37 38  0  0  0  0  0  0  0  0  1 V2000
  152.3036  137.4851  154.1013 N   0  0  0  0  0  0  0  0  0  0  0  0
  152.2346  138.4296  154.7656 C   0  0  0  0  0  0  0  0  0  0  0  0
  152.1470  139.6302  155.6102 C   0  0  0  0  0  0  0  0  0  0  0  0
  150.7075  140.1255  155.7850 C   0  0  0  0  0  0  0  0  0  0  0  0
  150.6540  141.5706  156.2928 C   0  0  0  0  0  0  0  0  0  0  0  0
  150.9156  141.5906  157.7239 N   0  0  0  0  0  0  0  0  0  0  0  0
  150.8725  142.9389  158.2826 C   0  0  2  0  0  0  0  0  0  0  0  0
  151.7422  143.8565  157.4001 C   0  0  0  0  0  0  0  0  0  0  0  0
  151.7317  145.3009  157.9224 C   0  0  0  0  0  0  0  0  0  0  0  0
  152.2036  145.3752  159.3818 C   0  0  0  0  0  0  0  0  0  0  0  0
  151.3755  144.4467  160.2900 C   0  0  0  0  0  0  0  0  0  0  0  0
  151.2859  142.9866  159.7838 C   0  0  2  0  0  0  0  0  0  0  0  0
  152.4803  142.1995  160.1014 N   0  0  0  0  0  0  0  0  0  0  0  0
  153.0800  142.0529  161.3366 C   0  0  0  0  0  0  0  0  0  0  0  0
  154.1511  141.2208  161.1834 C   0  0  0  0  0  0  0  0  0  0  0  0
  154.1303  140.8992  159.7990 C   0  0  0  0  0  0  0  0  0  0  0  0
  153.1312  141.4815  159.1581 N   0  0  0  0  0  0  0  0  0  0  0  0
  152.5879  139.3903  156.5782 H   0  0  0  0  0  0  0  0  0  0  0  0
  152.7642  140.4048  155.1545 H   0  0  0  0  0  0  0  0  0  0  0  0
  150.1822  140.0501  154.8319 H   0  0  0  0  0  0  0  0  0  0  0  0
  150.1829  139.4703  156.4823 H   0  0  0  0  0  0  0  0  0  0  0  0
  151.3971  142.1777  155.7744 H   0  0  0  0  0  0  0  0  0  0  0  0
  149.6739  141.9960  156.0790 H   0  0  0  0  0  0  0  0  0  0  0  0
  150.2576  140.9986  158.2116 H   0  0  0  0  0  0  0  0  0  0  0  0
  149.8472  143.3028  158.2002 H   0  0  0  0  0  0  0  0  0  0  0  0
  152.7676  143.4903  157.3493 H   0  0  0  0  0  0  0  0  0  0  0  0
  151.3681  143.8443  156.3757 H   0  0  0  0  0  0  0  0  0  0  0  0
  152.3663  145.9272  157.2949 H   0  0  0  0  0  0  0  0  0  0  0  0
  150.7228  145.7080  157.8448 H   0  0  0  0  0  0  0  0  0  0  0  0
  153.2619  145.1241  159.4398 H   0  0  0  0  0  0  0  0  0  0  0  0
  152.1233  146.4019  159.7398 H   0  0  0  0  0  0  0  0  0  0  0  0
  151.7707  144.4695  161.3062 H   0  0  0  0  0  0  0  0  0  0  0  0
  150.3646  144.8508  160.3552 H   0  0  0  0  0  0  0  0  0  0  0  0
  150.4768  142.5308  160.3556 H   0  0  0  0  0  0  0  0  0  0  0  0
  152.6957  142.5466  162.2169 H   0  0  0  0  0  0  0  0  0  0  0  0
  154.8423  140.8909  161.9446 H   0  0  0  0  0  0  0  0  0  0  0  0
  154.8046  140.2632  159.2449 H   0  0  0  0  0  0  0  0  0  0  0  0
  1  2  3  0  0  0  0
  2  3  1  0  0  0  0
  3  4  1  0  0  0  0
  3 18  1  0  0  0  0
  3 19  1  0  0  0  0
  4  5  1  0  0  0  0
  4 20  1  0  0  0  0
  4 21  1  0  0  0  0
  5  6  1  0  0  0  0
  5 22  1  0  0  0  0
  5 23  1  0  0  0  0
  6  7  1  0  0  0  0
  6 24  1  0  0  0  0
  7 12  1  0  0  0  0
  7  8  1  0  0  0  0
  7 25  1  0  0  0  0
  8  9  1  0  0  0  0
  8 26  1  0  0  0  0
  8 27  1  0  0  0  0
  9 10  1  0  0  0  0
  9 28  1  0  0  0  0
  9 29  1  0  0  0  0
 10 11  1  0  0  0  0
 10 30  1  0  0  0  0
 10 31  1  0  0  0  0
 11 12  1  0  0  0  0
 11 32  1  0  0  0  0
 11 33  1  0  0  0  0
 12 13  1  0  0  0  0
 12 34  1  0  0  0  0
 13 17  1  0  0  0  0
 13 14  1  0  0  0  0
 14 15  2  0  0  0  0
 14 35  1  0  0  0  0
 15 16  1  0  0  0  0
 15 36  1  0  0  0  0
 16 17  2  0  0  0  0
 16 37  1  0  0  0  0
M  END
> <s_m_source_file>
AV-unprocessed.smi

> <i_m_source_file_index>
3185

> <i_lp_mmshare_version>
43012

> <i_f3d_flags>
0

> <s_epik_input>
TiNDW0NIMl1bQ0gyXVtDSDJdW05IXVtDQEBIXTFbQ0gyXVtDSDJdW0NIMl1bQ0gyXVtDQEhdMW4yW2NIXVtjSF1bY0hdbjI=

> <s_epik_cmdline>
J2VwaWtfcHl0aG9uJywgJy1waCcsICc3LjAnLCAnLXRuJywgJzgnLCAnLW1hJywgJzIwMCcsICctbWV0YWxfYmluZGluZycsICctaW1hZScsICc8aW5maWxlLm1hZT4nLCAnLW9tYWUnLCAnPG91dGZpbGUubWFlPic=

> <r_lp_tautomer_probability>
1

> <r_epik_Ionization_Penalty>
2.21326

> <r_epik_Ionization_Penalty_Charging>
0

> <r_epik_Ionization_Penalty_Neutral>
2.21326

> <r_epik_State_Penalty>
2.35651

> <r_epik_Charging_Adjusted_Penalty>
2.35651

> <i_epik_Tot_Q>
0

> <i_epik_Tot_abs_Q>
0

> <r_epik_Metal_State_Penalty>
2.3555

> <b_epik_Metal_Only>
0

> <s_lp_Force_Field>
OPLS_2005

> <r_lp_Energy>
17.6064

> <b_lp_Chiralities_Consistent>
1

> <s_lp_Variant>
AV-unprocessed.smi:3185-7

> <Gold.Version>
5.8.1

> <Gold.Id.Protein>
6NUR|6NUR_protein|mol2

> <Gold.PLP.Fitness>
43.6645

> <Gold.PLP.PLP>
-41.6902

> <Gold.PLP.part.hbond>
-1.0000

> <Gold.PLP.part.metal>
0.0000

> <Gold.PLP.part.buried>
-5.5694

> <Gold.PLP.part.nonpolar>
-36.1514

> <Gold.PLP.part.repulsive>
0.1519

> <Gold.PLP.ligand.clash>
0.0000

> <Gold.PLP.ligand.torsion>
0.2622

> <Gold.PLP.Chemscore.Hbond>
0.8000

> <Gold.PLP.Chemscore.CHOScore>
0.0000

> <Gold.PLP.Chemscore.Metal>
0.0000

> <Gold.Chemscore.Hbonds>
donor molecule, donor type, donor heavy atom, donor atom, acceptor molecule, acceptor atom, score
      P1  H 10752 10765       L1     1  0.78

> <Gold.PLP.Chemscore.Internal.Correction>
0.0987

> <Gold.Rescore>
     Score         DG    S(hbond)    S(metal)    S(lipo)     H(rot)  DE(clash)    DE(int)     intcor
     14.65     -17.89       0.97        0.00     117.84       1.81       1.50       1.73       ----

> <Gold.Chemscore.Fitness>
14.6531

> <Gold.Chemscore.DG>
-17.8859

> <Gold.Chemscore.ZeroCoef>
-5.4800

> <Gold.Chemscore.Hbond>
0.9746

> <Gold.Chemscore.Metal>
0.0000

> <Gold.Chemscore.Lipo>
117.8387

> <Gold.Chemscore.Internal_Hbond>
0.0000

> <Gold.Chemscore.DEClash>
1.5034

> <Gold.Chemscore.DEInternal>
1.7294

> <Gold.Chemscore.Rot>
1.8110

> <Gold.Chemscore.Internal.Correction>
   9.000000E+99

> <Gold.Chemscore.Hbonds>
donor molecule, donor type, donor heavy atom, donor atom, acceptor molecule, acceptor atom, score
      P1  H 10752 10765       L1     1  0.79

> <Gold.Chemscore.Hbond.Weighted>
-3.2550

> <Gold.Chemscore.Metal.Weighted>
-0.0000

> <Gold.Chemscore.Lipo.Weighted>
-13.7871

> <Gold.Chemscore.Internal_Hbond.Weighted>
0.0000

> <Gold.Chemscore.DEClash.Weighted>
1.5034

> <Gold.Chemscore.DEInternal.Weighted>
1.7294

> <Gold.Chemscore.Rot.Weighted>
4.6362

> <Gold.Chemscore.Internal.Correction.Weighted>
   9.000000E+99

> <Gold.Protein.RotatedTorsions>
[ 6907 6896 6895 6894 ] final  -49.52 input  -60.11 | X-H torsion
[ 7974 7965 7964 7962 ] final   -7.55 input  175.53 | X-H torsion
[ 8008 7997 7996 7995 ] final   54.73 input   59.86 | X-H torsion
[ 10167 10162 10161 10158 ] final   44.91 input  -65.29 | X-H torsion
[ 10718 10713 10712 10709 ] final  112.50 input   66.30 | X-H torsion
[ 10763 10752 10751 10750 ] final  154.95 input  -60.55 | X-H torsion
[ 11005 11000 10999 10996 ] final    9.49 input  -57.11 | X-H torsion

> <Gold.Protein.ActiveResidues>
 VAL166  LYS551  ARG553  GLY616  TRP617  ASP618  TYR619  PRO620  LYS621  CYS622 
 ASP623  PHE694  ASN695  SER759  ASP760  ASP761  ALA762  ILE779  LEU786  VAL792 
 PHE793  MET794  SER795  GLU796  ALA797  LYS798  CYS799  TRP800  GLU811  SER814 

> <Gold.Protein.RotatedAtoms>
  150.8797  134.8186  159.7215 H   0  0  0  0  0  0  0  0  0  0  0  0  # atno 6907 bound_to 6896
  152.4770  134.4815  159.9677 H   0  0  0  0  0  0  0  0  0  0  0  0  # atno 6908 bound_to 6896
  151.4892  133.3490  159.2886 H   0  0  0  0  0  0  0  0  0  0  0  0  # atno 6909 bound_to 6896
  146.2304  140.2336  142.8341 H   0  0  0  0  0  0  0  0  0  0  0  0  # atno 7974 bound_to 7965
  155.4895  140.3471  155.4352 H   0  0  0  0  0  0  0  0  0  0  0  0  # atno 8008 bound_to 7997
  156.0986  140.1429  156.9526 H   0  0  0  0  0  0  0  0  0  0  0  0  # atno 8009 bound_to 7997
  154.4679  140.0911  156.7046 H   0  0  0  0  0  0  0  0  0  0  0  0  # atno 8010 bound_to 7997
  140.3295  144.2606  150.6170 H   0  0  0  0  0  0  0  0  0  0  0  0  # atno 10167 bound_to 10162
  157.6389  131.0968  150.6904 H   0  0  0  0  0  0  0  0  0  0  0  0  # atno 10718 bound_to 10713
  154.1605  135.2810  155.3110 H   0  0  0  0  0  0  0  0  0  0  0  0  # atno 10763 bound_to 10752
  154.6150  135.5486  153.7517 H   0  0  0  0  0  0  0  0  0  0  0  0  # atno 10764 bound_to 10752
  153.0194  135.6425  154.1747 H   0  0  0  0  0  0  0  0  0  0  0  0  # atno 10765 bound_to 10752
  140.5252  134.0520  155.7856 H   0  0  0  0  0  0  0  0  0  0  0  0  # atno 11005 bound_to 11000
  144.9539  140.8207  143.5555 LP  0  0  0  0  0  0  0  0  0  0  0  0  # atno 17320 bound_to 7965
  145.2299  139.2120  143.5048 LP  0  0  0  0  0  0  0  0  0  0  0  0  # atno 17321 bound_to 7965
  140.5410  143.2223  151.8084 LP  0  0  0  0  0  0  0  0  0  0  0  0  # atno 17342 bound_to 10162
  139.4859  144.4600  151.9552 LP  0  0  0  0  0  0  0  0  0  0  0  0  # atno 17343 bound_to 10162
  156.7231  130.4686  149.5518 LP  0  0  0  0  0  0  0  0  0  0  0  0  # atno 17370 bound_to 10713
  156.1652  130.6401  151.0769 LP  0  0  0  0  0  0  0  0  0  0  0  0  # atno 17371 bound_to 10713
  141.1312  133.9298  157.2531 LP  0  0  0  0  0  0  0  0  0  0  0  0  # atno 17394 bound_to 11000
  139.9584  135.0160  156.9193 LP  0  0  0  0  0  0  0  0  0  0  0  0  # atno 17395 bound_to 11000

$$$$
