AV-unprocessed.smi:1959|AV-procd|sdf|7913|dock5
  -GOLD-   2272010 83D 1   1.00000     0.00000
 Structure written by MMmdl.
 44 45  0  0  0  0  0  0  0  0  1 V2000
  148.4906  144.9938  161.2909 C   0  0  0  0  0  0  0  0  0  0  0  0
  149.5919  144.5559  160.3710 C   0  0  0  0  0  0  0  0  0  0  0  0
  150.7426  145.2866  159.9624 C   0  0  0  0  0  0  0  0  0  0  0  0
  151.4082  144.4303  159.1313 C   0  0  0  0  0  0  0  0  0  0  0  0
  152.6876  144.6130  158.3831 C   0  0  0  0  0  0  0  0  0  0  0  0
  150.6628  143.2659  159.0736 N   0  0  0  0  0  0  0  0  0  0  0  0
  150.9285  142.0404  158.3325 C   0  0  0  0  0  0  0  0  0  0  0  0
  149.6687  141.4285  157.7071 C   0  0  0  0  0  0  0  0  0  0  0  0
  148.6452  141.2518  158.3702 O   0  0  0  0  0  0  0  0  0  0  0  0
  149.7659  141.1065  156.4082 N   0  0  0  0  0  0  0  0  0  0  0  0
  148.7085  140.5081  155.5965 C   0  0  1  0  0  0  0  0  0  0  0  0
  147.4702  141.4176  155.5718 C   0  0  0  0  0  0  0  0  0  0  0  0
  149.2033  140.0989  154.1868 C   0  0  0  0  0  0  0  0  0  0  0  0
  150.2025  139.0279  154.1172 N   0  0  0  0  0  0  0  0  0  0  0  0
  149.7476  137.8502  154.8498 C   0  0  0  0  0  0  0  0  0  0  0  0
  150.7691  136.7019  154.7915 C   0  0  0  0  0  0  0  0  0  0  0  0
  152.0189  137.1526  155.3017 O   0  0  0  0  0  0  0  0  0  0  0  0
  152.5279  138.2743  154.5883 C   0  0  0  0  0  0  0  0  0  0  0  0
  151.5100  139.4279  154.6346 C   0  0  0  0  0  0  0  0  0  0  0  0
  149.5504  143.3468  159.8362 N   0  0  0  0  0  0  0  0  0  0  0  0
  148.6946  145.9793  161.7104 H   0  0  0  0  0  0  0  0  0  0  0  0
  148.3729  144.2984  162.1224 H   0  0  0  0  0  0  0  0  0  0  0  0
  147.5381  145.0490  160.7633 H   0  0  0  0  0  0  0  0  0  0  0  0
  151.0353  146.2891  160.2375 H   0  0  0  0  0  0  0  0  0  0  0  0
  153.1100  145.6005  158.5691 H   0  0  0  0  0  0  0  0  0  0  0  0
  152.5279  144.5143  157.3092 H   0  0  0  0  0  0  0  0  0  0  0  0
  153.4253  143.8705  158.6873 H   0  0  0  0  0  0  0  0  0  0  0  0
  151.6558  142.2564  157.5492 H   0  0  0  0  0  0  0  0  0  0  0  0
  151.3893  141.3101  159.0000 H   0  0  0  0  0  0  0  0  0  0  0  0
  150.6446  141.2845  155.9436 H   0  0  0  0  0  0  0  0  0  0  0  0
  148.4062  139.5897  156.1033 H   0  0  0  0  0  0  0  0  0  0  0  0
  146.6629  140.9615  154.9984 H   0  0  0  0  0  0  0  0  0  0  0  0
  147.6904  142.3873  155.1240 H   0  0  0  0  0  0  0  0  0  0  0  0
  147.0968  141.5975  156.5804 H   0  0  0  0  0  0  0  0  0  0  0  0
  148.3547  139.8580  153.5447 H   0  0  0  0  0  0  0  0  0  0  0  0
  149.6446  140.9951  153.7483 H   0  0  0  0  0  0  0  0  0  0  0  0
  149.5601  138.1124  155.8924 H   0  0  0  0  0  0  0  0  0  0  0  0
  148.7978  137.5036  154.4409 H   0  0  0  0  0  0  0  0  0  0  0  0
  150.4246  135.8568  155.3877 H   0  0  0  0  0  0  0  0  0  0  0  0
  150.8918  136.3440  153.7680 H   0  0  0  0  0  0  0  0  0  0  0  0
  153.4717  138.5838  155.0375 H   0  0  0  0  0  0  0  0  0  0  0  0
  152.7415  137.9897  153.5567 H   0  0  0  0  0  0  0  0  0  0  0  0
  151.9107  140.2562  154.0530 H   0  0  0  0  0  0  0  0  0  0  0  0
  151.4097  139.7822  155.6616 H   0  0  0  0  0  0  0  0  0  0  0  0
  1  2  1  0  0  0  0
  1 21  1  0  0  0  0
  1 22  1  0  0  0  0
  1 23  1  0  0  0  0
  2 20  2  0  0  0  0
  2  3  1  0  0  0  0
  3  4  2  0  0  0  0
  3 24  1  0  0  0  0
  4  5  1  0  0  0  0
  4  6  1  0  0  0  0
  5 25  1  0  0  0  0
  5 26  1  0  0  0  0
  5 27  1  0  0  0  0
  6  7  1  0  0  0  0
  6 20  1  0  0  0  0
  7  8  1  0  0  0  0
  7 28  1  0  0  0  0
  7 29  1  0  0  0  0
  8  9  2  0  0  0  0
  8 10  1  0  0  0  0
 10 11  1  0  0  0  0
 10 30  1  0  0  0  0
 11 12  1  0  0  0  0
 11 13  1  0  0  0  0
 11 31  1  0  0  0  0
 12 32  1  0  0  0  0
 12 33  1  0  0  0  0
 12 34  1  0  0  0  0
 13 14  1  0  0  0  0
 13 35  1  0  0  0  0
 13 36  1  0  0  0  0
 14 19  1  0  0  0  0
 14 15  1  0  0  0  0
 15 16  1  0  0  0  0
 15 37  1  0  0  0  0
 15 38  1  0  0  0  0
 16 17  1  0  0  0  0
 16 39  1  0  0  0  0
 16 40  1  0  0  0  0
 17 18  1  0  0  0  0
 18 19  1  0  0  0  0
 18 41  1  0  0  0  0
 18 42  1  0  0  0  0
 19 43  1  0  0  0  0
 19 44  1  0  0  0  0
M  END
> <s_m_source_file>
AV-unprocessed.smi

> <i_m_source_file_index>
1959

> <i_lp_mmshare_version>
43012

> <i_f3d_flags>
0

> <s_epik_input>
W0NIM11jMVtjSF1jKFtDSDNdKW4objEpW0NIMl1DKD1PKVtOSF1bQ0BIXShbQ0gzXSlbQ0gyXU4yW0NIMl1bQ0gyXU9bQ0gyXVtDSDJdMg==

> <s_epik_cmdline>
J2VwaWtfcHl0aG9uJywgJy1waCcsICc3LjAnLCAnLXRuJywgJzgnLCAnLW1hJywgJzIwMCcsICctbWV0YWxfYmluZGluZycsICctaW1hZScsICc8aW5maWxlLm1hZT4nLCAnLW9tYWUnLCAnPG91dGZpbGUubWFlPic=

> <r_lp_tautomer_probability>
1

> <r_epik_Ionization_Penalty>
0.197284

> <r_epik_Ionization_Penalty_Charging>
0

> <r_epik_Ionization_Penalty_Neutral>
0.197284

> <r_epik_State_Penalty>
0.186684

> <r_epik_Charging_Adjusted_Penalty>
0.186684

> <i_epik_Tot_Q>
0

> <i_epik_Tot_abs_Q>
0

> <r_epik_Metal_State_Penalty>
0.186639

> <b_epik_Metal_Only>
0

> <s_lp_Force_Field>
OPLS_2005

> <r_lp_Energy>
28.5782

> <b_lp_Chiralities_Consistent>
1

> <s_lp_Variant>
AV-unprocessed.smi:1959-2

> <Gold.Version>
5.8.1

> <Gold.Id.Protein>
6NUR|6NUR_protein|mol2

> <Gold.PLP.Fitness>
40.9281

> <Gold.PLP.PLP>
-38.5886

> <Gold.PLP.part.hbond>
-2.4005

> <Gold.PLP.part.metal>
0.0000

> <Gold.PLP.part.buried>
-3.8032

> <Gold.PLP.part.nonpolar>
-33.4975

> <Gold.PLP.part.repulsive>
0.4834

> <Gold.PLP.ligand.clash>
0.0000

> <Gold.PLP.ligand.torsion>
0.4872

> <Gold.PLP.Chemscore.Hbond>
1.0835

> <Gold.PLP.Chemscore.CHOScore>
0.0000

> <Gold.PLP.Chemscore.Metal>
0.0000

> <Gold.Chemscore.Hbonds>
donor molecule, donor type, donor heavy atom, donor atom, acceptor molecule, acceptor atom, score
      P1  H  6933  6944       L1    20  0.13
      P1  H 10752 10765       L1    17  0.73

> <Gold.PLP.Chemscore.Internal.Correction>
0.0633

> <Gold.Rescore>
     Score         DG    S(hbond)    S(metal)    S(lipo)     H(rot)  DE(clash)    DE(int)     intcor
      9.96     -13.26       0.17        0.00      98.79       1.70       0.24       3.06       ----

> <Gold.Chemscore.Fitness>
9.9618

> <Gold.Chemscore.DG>
-13.2636

> <Gold.Chemscore.ZeroCoef>
-5.4800

> <Gold.Chemscore.Hbond>
0.1691

> <Gold.Chemscore.Metal>
0.0000

> <Gold.Chemscore.Lipo>
98.7908

> <Gold.Chemscore.Internal_Hbond>
0.0000

> <Gold.Chemscore.DEClash>
0.2433

> <Gold.Chemscore.DEInternal>
3.0585

> <Gold.Chemscore.Rot>
1.6952

> <Gold.Chemscore.Internal.Correction>
   9.000000E+99

> <Gold.Chemscore.Hbonds>
donor molecule, donor type, donor heavy atom, donor atom, acceptor molecule, acceptor atom, score
      P1  H  6933  6944       L1    20  0.03
      P1  H 10752 10765       L1    17  0.09

> <Gold.Chemscore.Hbond.Weighted>
-0.5649

> <Gold.Chemscore.Metal.Weighted>
-0.0000

> <Gold.Chemscore.Lipo.Weighted>
-11.5585

> <Gold.Chemscore.Internal_Hbond.Weighted>
0.0000

> <Gold.Chemscore.DEClash.Weighted>
0.2433

> <Gold.Chemscore.DEInternal.Weighted>
3.0585

> <Gold.Chemscore.Rot.Weighted>
4.3398

> <Gold.Chemscore.Internal.Correction.Weighted>
   9.000000E+99

> <Gold.Protein.RotatedTorsions>
[ 6907 6896 6895 6894 ] final  169.09 input  -60.11 | X-H torsion
[ 7974 7965 7964 7962 ] final  -83.81 input  175.53 | X-H torsion
[ 8008 7997 7996 7995 ] final   72.69 input   59.86 | X-H torsion
[ 10167 10162 10161 10158 ] final   32.56 input  -65.29 | X-H torsion
[ 10718 10713 10712 10709 ] final   85.52 input   66.30 | X-H torsion
[ 10763 10752 10751 10750 ] final -161.55 input  -60.55 | X-H torsion
[ 11005 11000 10999 10996 ] final -116.55 input  -57.11 | X-H torsion

> <Gold.Protein.ActiveResidues>
 VAL166  LYS551  ARG553  GLY616  TRP617  ASP618  TYR619  PRO620  LYS621  CYS622 
 ASP623  PHE694  ASN695  SER759  ASP760  ASP761  ALA762  ILE779  LEU786  VAL792 
 PHE793  MET794  SER795  GLU796  ALA797  LYS798  CYS799  TRP800  GLU811  SER814 

> <Gold.Protein.RotatedAtoms>
  151.8373  133.3418  159.3631 H   0  0  0  0  0  0  0  0  0  0  0  0  # atno 6907 bound_to 6896
  150.7245  134.5425  159.5763 H   0  0  0  0  0  0  0  0  0  0  0  0  # atno 6908 bound_to 6896
  152.2891  134.7743  160.0432 H   0  0  0  0  0  0  0  0  0  0  0  0  # atno 6909 bound_to 6896
  145.5150  140.9536  143.1686 H   0  0  0  0  0  0  0  0  0  0  0  0  # atno 7974 bound_to 7965
  155.7725  140.3484  155.5254 H   0  0  0  0  0  0  0  0  0  0  0  0  # atno 8008 bound_to 7997
  155.8807  140.1001  157.1508 H   0  0  0  0  0  0  0  0  0  0  0  0  # atno 8009 bound_to 7997
  154.4024  140.1323  156.4181 H   0  0  0  0  0  0  0  0  0  0  0  0  # atno 8010 bound_to 7997
  140.4487  144.1080  150.6187 H   0  0  0  0  0  0  0  0  0  0  0  0  # atno 10167 bound_to 10162
  157.6916  131.0178  150.2835 H   0  0  0  0  0  0  0  0  0  0  0  0  # atno 10718 bound_to 10713
  154.7293  135.3043  154.8918 H   0  0  0  0  0  0  0  0  0  0  0  0  # atno 10763 bound_to 10752
  153.9766  135.6735  153.4753 H   0  0  0  0  0  0  0  0  0  0  0  0  # atno 10764 bound_to 10752
  153.0904  135.4962  154.8598 H   0  0  0  0  0  0  0  0  0  0  0  0  # atno 10765 bound_to 10752
  141.0414  133.9829  157.2988 H   0  0  0  0  0  0  0  0  0  0  0  0  # atno 11005 bound_to 11000
  144.7707  139.6742  143.7196 LP  0  0  0  0  0  0  0  0  0  0  0  0  # atno 17320 bound_to 7965
  146.2142  139.5520  142.9661 LP  0  0  0  0  0  0  0  0  0  0  0  0  # atno 17321 bound_to 7965
  140.4233  143.2602  151.9688 LP  0  0  0  0  0  0  0  0  0  0  0  0  # atno 17342 bound_to 10162
  139.4795  144.5811  151.7930 LP  0  0  0  0  0  0  0  0  0  0  0  0  # atno 17343 bound_to 10162
  156.3378  130.3810  149.7435 LP  0  0  0  0  0  0  0  0  0  0  0  0  # atno 17370 bound_to 10713
  156.4954  130.8104  151.3111 LP  0  0  0  0  0  0  0  0  0  0  0  0  # atno 17371 bound_to 10713
  139.9279  135.0201  156.8298 LP  0  0  0  0  0  0  0  0  0  0  0  0  # atno 17394 bound_to 11000
  140.6227  133.9979  155.7625 LP  0  0  0  0  0  0  0  0  0  0  0  0  # atno 17395 bound_to 11000

$$$$
