#       Name:                AV-unprocessed.smi:1709
#       Creating user name   scv26
#       Creation time:       Fri Mar 27 08:10:14 2020


#       File generated by GOLD software.
#

@<TRIPOS>MOLECULE
AV-unprocessed.smi:1709
    46    48     1
SMALL
NO_CHARGES


@<TRIPOS>ATOM
      1 ****        -1.9200  -4.3096  -0.5712 C.3            1 S1                 0.0000
      2 ****        -0.4942  -4.8320  -0.6497 C.ar           1 S1                 0.0000
      3 ****        -0.2675  -6.1472  -1.1080 C.ar           1 S1                 0.0000
      4 ****         1.0497  -6.6313  -1.1795 C.ar           1 S1                 0.0000
      5 ****         2.0909  -5.7743  -0.7858 C.ar           1 S1                 0.0000
      6 ****         1.8830  -4.5161  -0.3468 N.ar           1 S1                 0.0000
      7 ****         0.6172  -4.0286  -0.2771 C.ar           1 S1                 0.0000
      8 ****         0.3095  -2.7167   0.1983 N.am           1 S1                 0.0000
      9 ****         1.1057  -1.6634   0.4774 C.2            1 S1                 0.0000
     10 ****         2.3260  -1.7311   0.3412 O.2            1 S1                 0.0000
     11 ****         0.4861  -0.5550   0.9144 N.am           1 S1                 0.0000
     12 ****         1.1451   0.7071   1.2323 C.3            1 S1                 0.0000
     13 ****         0.2970   1.6285   2.0991 C.3            1 S1                 0.0000
     14 ****         0.9499   2.9977   1.8856 C.3            1 S1                 0.0000
     15 ****         1.5898   2.9645   0.5470 N.4            1 S1                 1.0000
     16 ****         1.1387   4.0492  -0.3655 C.3            1 S1                 0.0000
     17 ****         1.5200   3.7375  -1.8201 C.3            1 S1                 0.0000
     18 ****         0.8398   2.4481  -2.3177 C.3            1 S1                 0.0000
     19 ****         0.4567   1.5007  -1.1643 C.3            1 S1                 0.0000
     20 ****         1.4687   1.5808   0.0058 C.3            1 S1                 0.0000
     21 ****        -2.6374  -5.0610  -0.9021 H              1 S1                 0.0000
     22 ****        -2.0395  -3.4304  -1.2051 H              1 S1                 0.0000
     23 ****        -2.1711  -4.0352   0.4537 H              1 S1                 0.0000
     24 ****        -1.0918  -6.7807  -1.4010 H              1 S1                 0.0000
     25 ****         1.2556  -7.6336  -1.5251 H              1 S1                 0.0000
     26 ****         3.1179  -6.1061  -0.8224 H              1 S1                 0.0000
     27 ****        -0.6632  -2.5794   0.4316 H              1 S1                 0.0000
     28 ****        -0.5203  -0.5833   1.0009 H              1 S1                 0.0000
     29 ****         2.0711   0.5021   1.7742 H              1 S1                 0.0000
     30 ****        -0.7322   1.6488   1.7371 H              1 S1                 0.0000
     31 ****         0.2792   1.3291   3.1473 H              1 S1                 0.0000
     32 ****         0.2284   3.8079   1.9989 H              1 S1                 0.0000
     33 ****         1.7342   3.1566   2.6263 H              1 S1                 0.0000
     34 ****         0.0563   4.1730  -0.2981 H              1 S1                 0.0000
     35 ****         1.5846   4.9910  -0.0444 H              1 S1                 0.0000
     36 ****         1.2592   4.5716  -2.4724 H              1 S1                 0.0000
     37 ****         2.6034   3.6272  -1.8854 H              1 S1                 0.0000
     38 ****        -0.0574   2.6927  -2.8875 H              1 S1                 0.0000
     39 ****         1.5100   1.9400  -3.0122 H              1 S1                 0.0000
     40 ****        -0.5379   1.7605  -0.7988 H              1 S1                 0.0000
     41 ****         0.3795   0.4847  -1.5522 H              1 S1                 0.0000
     42 ****         2.4440   1.2866  -0.3850 H              1 S1                 0.0000
     43 ****         2.5771   3.1108   0.7021 H              1 S1                 0.0000
     44 ****         2.6571  -3.9448  -0.0740 LP             1 S1                 0.0000
     45 ****         2.7468  -2.5787   0.0179 LP             1 S1                 0.0000
     46 ****         2.8976  -0.9386   0.5538 LP             1 S1                 0.0000
@<TRIPOS>BOND
    1    1    2 1     
    2    1   21 1     
    3    1   22 1     
    4    1   23 1     
    5    2    7 ar    
    6    2    3 ar    
    7    3    4 ar    
    8    3   24 1     
    9    4    5 ar    
   10    4   25 1     
   11    5    6 ar    
   12    5   26 1     
   13    6    7 ar    
   14    7    8 1     
   15    8    9 am    
   16    8   27 1     
   17    9   10 2     
   18    9   11 am    
   19   11   12 1     
   20   11   28 1     
   21   12   20 1     
   22   12   13 1     
   23   12   29 1     
   24   13   14 1     
   25   13   30 1     
   26   13   31 1     
   27   14   15 1     
   28   14   32 1     
   29   14   33 1     
   30   15   20 1     
   31   15   16 1     
   32   15   43 1     
   33   16   17 1     
   34   16   34 1     
   35   16   35 1     
   36   17   18 1     
   37   17   36 1     
   38   17   37 1     
   39   18   19 1     
   40   18   38 1     
   41   18   39 1     
   42   19   20 1     
   43   19   40 1     
   44   19   41 1     
   45   20   42 1     
   46    6   44 1     
   47   10   45 1     
   48   10   46 1     
@<TRIPOS>SUBSTRUCTURE
      1 S1             1
@<TRIPOS>SET
LONE_PAIRS      STATIC     ATOMS    <user>   **** ""
3 44 45 46
DONOR_HYDROGENS      STATIC     ATOMS    <user>   **** ""
3 27 28 43
ATOM$BLUE        STATIC     ATOMS    COLORGROUP SYSTEM
3 44 45 46
ATOM$RED        STATIC     ATOMS    COLORGROUP SYSTEM
3 27 28 43
