#       Name:                AV-unprocessed.smi:712
#       Creating user name   scv26
#       Creation time:       Fri Mar 27 00:46:30 2020


#       File generated by GOLD software.
#

@<TRIPOS>MOLECULE
AV-unprocessed.smi:712
    57    58     1
SMALL
NO_CHARGES


@<TRIPOS>ATOM
      1 ****        -7.0905   3.2766  -1.3858 C.3            1 S1                 0.0000
      2 ****        -5.8079   2.8179  -0.7232 C.2            1 S1                 0.0000
      3 ****        -4.5222   3.0815  -1.3354 C.2            1 S1                 0.0000
      4 ****        -3.4059   2.6663  -0.7164 C.2            1 S1                 0.0000
      5 ****        -3.4482   1.9806   0.5113 N.am           1 S1                 0.0000
      6 ****        -2.1627   1.5770   1.1045 C.3            1 S1                 0.0000
      7 ****        -1.8183   0.1034   0.8480 C.2            1 S1                 0.0000
      8 ****        -2.1551  -0.4455  -0.2016 O.2            1 S1                 0.0000
      9 ****        -1.1176  -0.5132   1.8118 N.am           1 S1                 0.0000
     10 ****        -0.6677  -1.9025   1.7851 C.3            1 S1                 0.0000
     11 ****         0.8355  -2.0246   1.4768 C.3            1 S1                 0.0000
     12 ****         1.2415  -1.4654   0.0968 C.3            1 S1                 0.0000
     13 ****         2.6773  -1.5735  -0.1412 N.3            1 S1                 0.0000
     14 ****         3.0180  -1.0471  -1.4668 C.3            1 S1                 0.0000
     15 ****         4.4500  -1.3049  -1.9977 C.3            1 S1                 0.0000
     16 ****         5.0042  -2.6949  -1.6424 C.3            1 S1                 0.0000
     17 ****         5.4407  -0.1717  -1.6796 C.3            1 S1                 0.0000
     18 ****         3.3848  -0.9026   0.9461 C.3            1 S1                 0.0000
     19 ****         2.9765  -1.4487   2.3252 C.3            1 S1                 0.0000
     20 ****         1.5673  -1.3426   2.4921 O.3            1 S1                 0.0000
     21 ****        -4.6290   1.6942   1.1379 C.2            1 S1                 0.0000
     22 ****        -4.6724   1.0893   2.2096 O.2            1 S1                 0.0000
     23 ****        -5.8425   2.1559   0.4541 C.2            1 S1                 0.0000
     24 ****        -6.8986   3.6797  -2.3805 H              1 S1                 0.0000
     25 ****        -7.5675   4.0538  -0.7884 H              1 S1                 0.0000
     26 ****        -7.7863   2.4431  -1.4857 H              1 S1                 0.0000
     27 ****        -4.4584   3.6032  -2.2791 H              1 S1                 0.0000
     28 ****        -2.4174   2.8259  -1.1218 H              1 S1                 0.0000
     29 ****        -1.3486   2.1862   0.7097 H              1 S1                 0.0000
     30 ****        -2.1710   1.7736   2.1785 H              1 S1                 0.0000
     31 ****        -0.8748   0.0221   2.6328 H              1 S1                 0.0000
     32 ****        -0.8731  -2.3376   2.7635 H              1 S1                 0.0000
     33 ****        -1.2445  -2.4892   1.0685 H              1 S1                 0.0000
     34 ****         1.0990  -3.0831   1.5179 H              1 S1                 0.0000
     35 ****         0.6967  -2.0030  -0.6801 H              1 S1                 0.0000
     36 ****         0.9411  -0.4197   0.0187 H              1 S1                 0.0000
     37 ****         2.3414  -1.5105  -2.1864 H              1 S1                 0.0000
     38 ****         2.7926   0.0194  -1.5133 H              1 S1                 0.0000
     39 ****         4.3557  -1.2909  -3.0844 H              1 S1                 0.0000
     40 ****         5.1913  -2.7951  -0.5734 H              1 S1                 0.0000
     41 ****         5.9459  -2.8823  -2.1586 H              1 S1                 0.0000
     42 ****         4.3075  -3.4809  -1.9346 H              1 S1                 0.0000
     43 ****         5.6855  -0.1092  -0.6216 H              1 S1                 0.0000
     44 ****         5.0413   0.7958  -1.9852 H              1 S1                 0.0000
     45 ****         6.3781  -0.3186  -2.2167 H              1 S1                 0.0000
     46 ****         4.4581  -1.0403   0.8388 H              1 S1                 0.0000
     47 ****         3.1944   0.1711   0.9078 H              1 S1                 0.0000
     48 ****         3.2834  -2.4901   2.4328 H              1 S1                 0.0000
     49 ****         3.4714  -0.8866   3.1170 H              1 S1                 0.0000
     50 ****        -6.7986   1.9566   0.9163 H              1 S1                 0.0000
     51 ****        -2.6577   0.0693  -0.8962 LP             1 S1                 0.0000
     52 ****        -1.9260  -1.4060  -0.3594 LP             1 S1                 0.0000
     53 ****         2.9640  -2.5315  -0.1451 LP             1 S1                 0.0000
     54 ****         1.3209  -1.7323   3.3794 LP             1 S1                 0.0000
     55 ****         1.3155  -0.3750   2.4715 LP             1 S1                 0.0000
     56 ****        -3.8257   0.7905   2.6497 LP             1 S1                 0.0000
     57 ****        -5.5544   0.8969   2.6397 LP             1 S1                 0.0000
@<TRIPOS>BOND
    1    1    2 1     
    2    1   24 1     
    3    1   25 1     
    4    1   26 1     
    5    2   23 2     
    6    2    3 1     
    7    3    4 2     
    8    3   27 1     
    9    4    5 1     
   10    4   28 1     
   11    5    6 1     
   12    5   21 am    
   13    6    7 1     
   14    6   29 1     
   15    6   30 1     
   16    7    8 2     
   17    7    9 am    
   18    9   10 1     
   19    9   31 1     
   20   10   11 1     
   21   10   32 1     
   22   10   33 1     
   23   11   20 1     
   24   11   12 1     
   25   11   34 1     
   26   12   13 1     
   27   12   35 1     
   28   12   36 1     
   29   13   14 1     
   30   13   18 1     
   31   14   15 1     
   32   14   37 1     
   33   14   38 1     
   34   15   16 1     
   35   15   17 1     
   36   15   39 1     
   37   16   40 1     
   38   16   41 1     
   39   16   42 1     
   40   17   43 1     
   41   17   44 1     
   42   17   45 1     
   43   18   19 1     
   44   18   46 1     
   45   18   47 1     
   46   19   20 1     
   47   19   48 1     
   48   19   49 1     
   49   21   22 2     
   50   21   23 1     
   51   23   50 1     
   52    8   51 1     
   53    8   52 1     
   54   13   53 1     
   55   20   54 1     
   56   20   55 1     
   57   22   56 1     
   58   22   57 1     
@<TRIPOS>SUBSTRUCTURE
      1 S1             1
@<TRIPOS>SET
LONE_PAIRS      STATIC     ATOMS    <user>   **** ""
7 51 52 53 54 55 56 57
DONOR_HYDROGENS      STATIC     ATOMS    <user>   **** ""
1 31
ATOM$BLUE        STATIC     ATOMS    COLORGROUP SYSTEM
7 51 52 53 54 55 56 57
ATOM$RED        STATIC     ATOMS    COLORGROUP SYSTEM
1 31
