AV-unprocessed.smi:15|AV-procd|sdf|86|dock3
  -GOLD-   2262015223D 1   1.00000     0.00000
 Structure written by MMmdl.
 53 56  0  0  0  0  0  0  0  0  1 V2000
  150.2118  139.6203  154.7203 C   0  0  0  0  0  0  0  0  0  0  0  0
  150.8846  140.8517  155.3406 C   0  0  0  0  0  0  0  0  0  0  0  0
  149.9395  141.7219  156.0401 N   0  0  0  0  0  0  0  0  0  0  0  0
  150.0101  141.8689  157.4952 C   0  0  0  0  0  0  0  0  0  0  0  0
  151.3468  142.4610  157.9811 C   0  0  1  0  0  0  0  0  0  0  0  0
  151.4540  143.9710  157.7842 C   0  0  0  0  0  0  0  0  0  0  0  0
  152.4745  144.3940  158.8300 C   0  0  0  0  0  0  0  0  0  0  0  0
  152.5381  143.2031  159.7908 C   0  0  0  0  0  0  0  0  0  0  0  0
  151.4772  142.3487  159.3900 O   0  0  0  0  0  0  0  0  0  0  0  0
  148.6854  141.8036  155.5336 C   0  0  0  0  0  0  0  0  0  0  0  0
  148.5516  141.7465  154.1840 N   0  0  0  0  0  0  0  0  0  0  0  0
  147.3432  141.8447  153.6231 C   0  0  0  0  0  0  0  0  0  0  0  0
  146.1591  142.0099  154.2154 N   0  0  0  0  0  0  0  0  0  0  0  0
  146.2883  142.0784  155.5714 C   0  0  0  0  0  0  0  0  0  0  0  0
  147.5026  141.9830  156.3089 C   0  0  0  0  0  0  0  0  0  0  0  0
  147.2388  142.1182  157.6674 N   0  0  0  0  0  0  0  0  0  0  0  0
  145.9450  142.2756  157.7290 C   0  0  0  0  0  0  0  0  0  0  0  0
  145.2938  142.2598  156.5167 N   0  0  0  0  0  0  0  0  0  0  0  0
  143.8646  142.4195  156.2940 C   0  0  0  0  0  0  0  0  0  0  0  0
  143.4630  143.8562  155.8696 C   0  0  2  0  0  0  0  0  0  0  0  0
  144.0225  144.1031  154.5896 O   0  0  0  0  0  0  0  0  0  0  0  0
  143.9682  144.9395  156.8177 C   0  0  0  0  0  0  0  0  0  0  0  0
  142.9500  146.0538  156.6336 C   0  0  0  0  0  0  0  0  0  0  0  0
  141.7288  145.3420  156.5370 O   0  0  0  0  0  0  0  0  0  0  0  0
  141.9387  144.1513  155.7807 C   0  0  2  0  0  0  0  0  0  0  0  0
  140.9933  143.0781  156.3440 C   0  0  0  0  0  0  0  0  0  0  0  0
  150.9573  138.9608  154.2757 H   0  0  0  0  0  0  0  0  0  0  0  0
  149.5116  139.8951  153.9316 H   0  0  0  0  0  0  0  0  0  0  0  0
  149.6687  139.0477  155.4726 H   0  0  0  0  0  0  0  0  0  0  0  0
  151.6461  140.5076  156.0421 H   0  0  0  0  0  0  0  0  0  0  0  0
  151.4060  141.4153  154.5670 H   0  0  0  0  0  0  0  0  0  0  0  0
  149.1942  142.5155  157.8157 H   0  0  0  0  0  0  0  0  0  0  0  0
  149.8283  140.9107  157.9837 H   0  0  0  0  0  0  0  0  0  0  0  0
  152.1943  141.9727  157.4974 H   0  0  0  0  0  0  0  0  0  0  0  0
  151.7462  144.2432  156.7697 H   0  0  0  0  0  0  0  0  0  0  0  0
  150.4957  144.4468  157.9976 H   0  0  0  0  0  0  0  0  0  0  0  0
  153.4522  144.5758  158.3824 H   0  0  0  0  0  0  0  0  0  0  0  0
  152.1607  145.3079  159.3352 H   0  0  0  0  0  0  0  0  0  0  0  0
  153.4855  142.6732  159.6840 H   0  0  0  0  0  0  0  0  0  0  0  0
  152.4289  143.4984  160.8345 H   0  0  0  0  0  0  0  0  0  0  0  0
  147.3226  141.7869  152.5447 H   0  0  0  0  0  0  0  0  0  0  0  0
  145.4257  142.4078  158.6671 H   0  0  0  0  0  0  0  0  0  0  0  0
  143.5569  141.6989  155.5354 H   0  0  0  0  0  0  0  0  0  0  0  0
  143.3541  142.1352  157.2142 H   0  0  0  0  0  0  0  0  0  0  0  0
  143.5196  143.6263  153.9470 H   0  0  0  0  0  0  0  0  0  0  0  0
  143.9186  144.5881  157.8491 H   0  0  0  0  0  0  0  0  0  0  0  0
  144.9942  145.2555  156.6228 H   0  0  0  0  0  0  0  0  0  0  0  0
  142.9404  146.7602  157.4636 H   0  0  0  0  0  0  0  0  0  0  0  0
  143.1310  146.6048  155.7096 H   0  0  0  0  0  0  0  0  0  0  0  0
  141.6490  144.3562  154.7483 H   0  0  0  0  0  0  0  0  0  0  0  0
  141.0921  142.1357  155.8054 H   0  0  0  0  0  0  0  0  0  0  0  0
  139.9544  143.3962  156.2542 H   0  0  0  0  0  0  0  0  0  0  0  0
  141.1856  142.8903  157.4005 H   0  0  0  0  0  0  0  0  0  0  0  0
  1  2  1  0  0  0  0
  1 27  1  0  0  0  0
  1 28  1  0  0  0  0
  1 29  1  0  0  0  0
  2  3  1  0  0  0  0
  2 30  1  0  0  0  0
  2 31  1  0  0  0  0
  3  4  1  0  0  0  0
  3 10  1  0  0  0  0
  4  5  1  0  0  0  0
  4 32  1  0  0  0  0
  4 33  1  0  0  0  0
  5  9  1  0  0  0  0
  5  6  1  0  0  0  0
  5 34  1  0  0  0  0
  6  7  1  0  0  0  0
  6 35  1  0  0  0  0
  6 36  1  0  0  0  0
  7  8  1  0  0  0  0
  7 37  1  0  0  0  0
  7 38  1  0  0  0  0
  8  9  1  0  0  0  0
  8 39  1  0  0  0  0
  8 40  1  0  0  0  0
 10 15  1  0  0  0  0
 10 11  2  0  0  0  0
 11 12  1  0  0  0  0
 12 13  2  0  0  0  0
 12 41  1  0  0  0  0
 13 14  1  0  0  0  0
 14 18  1  0  0  0  0
 14 15  2  0  0  0  0
 15 16  1  0  0  0  0
 16 17  2  0  0  0  0
 17 18  1  0  0  0  0
 17 42  1  0  0  0  0
 18 19  1  0  0  0  0
 19 20  1  0  0  0  0
 19 43  1  0  0  0  0
 19 44  1  0  0  0  0
 20 25  1  0  0  0  0
 20 21  1  0  0  0  0
 20 22  1  0  0  0  0
 21 45  1  0  0  0  0
 22 23  1  0  0  0  0
 22 46  1  0  0  0  0
 22 47  1  0  0  0  0
 23 24  1  0  0  0  0
 23 48  1  0  0  0  0
 23 49  1  0  0  0  0
 24 25  1  0  0  0  0
 25 26  1  0  0  0  0
 25 50  1  0  0  0  0
 26 51  1  0  0  0  0
 26 52  1  0  0  0  0
 26 53  1  0  0  0  0
M  END
> <s_m_source_file>
AV-unprocessed.smi

> <i_m_source_file_index>
15

> <i_lp_mmshare_version>
43012

> <i_f3d_flags>
0

> <s_epik_input>
TzFbQ0gyXVtDSDJdW0NIMl1bQ0BIXTFbQ0gyXU4oW0NIMl1bQ0gzXSljKG5bY0hdbjIpYyhjMjMpbltjSF1uM1tDSDJdW0NAQF00KFtPSF0pW0NIMl1bQ0gyXU9bQ0BIXTRbQ0gzXQ==

> <s_epik_cmdline>
J2VwaWtfcHl0aG9uJywgJy1waCcsICc3LjAnLCAnLXRuJywgJzgnLCAnLW1hJywgJzIwMCcsICctbWV0YWxfYmluZGluZycsICctaW1hZScsICc8aW5maWxlLm1hZT4nLCAnLW9tYWUnLCAnPG91dGZpbGUubWFlPic=

> <r_lp_tautomer_probability>
1

> <r_epik_Ionization_Penalty>
0.00360814

> <r_epik_Ionization_Penalty_Charging>
0

> <r_epik_Ionization_Penalty_Neutral>
0.00360814

> <r_epik_State_Penalty>
0.00237482

> <r_epik_Charging_Adjusted_Penalty>
0.00237482

> <i_epik_Tot_Q>
0

> <i_epik_Tot_abs_Q>
0

> <r_epik_Metal_State_Penalty>
-0

> <b_epik_Metal_Only>
0

> <s_lp_Force_Field>
OPLS_2005

> <r_lp_Energy>
45.3604

> <b_lp_Chiralities_Consistent>
1

> <s_lp_Variant>
AV-unprocessed.smi:15-8

> <Gold.Version>
5.8.1

> <Gold.Id.Protein>
6NUR|6NUR_protein|mol2

> <Gold.PLP.Fitness>
47.5767

> <Gold.PLP.PLP>
-42.6208

> <Gold.PLP.part.hbond>
-2.1309

> <Gold.PLP.part.metal>
0.0000

> <Gold.PLP.part.buried>
-5.4217

> <Gold.PLP.part.nonpolar>
-35.5723

> <Gold.PLP.part.repulsive>
0.5279

> <Gold.PLP.ligand.clash>
0.0000

> <Gold.PLP.ligand.torsion>
1.0614

> <Gold.PLP.Chemscore.Hbond>
1.0673

> <Gold.PLP.Chemscore.CHOScore>
0.9684

> <Gold.PLP.Chemscore.Metal>
0.0000

> <Gold.Chemscore.Hbonds>
donor molecule, donor type, donor heavy atom, donor atom, acceptor molecule, acceptor atom, score
      L1  H    21    45       P1 10174  0.32
      P1  H  8011  8017       L1    11  0.12

> <Gold.PLP.Chemscore.Internal.Correction>
0.9716

> <Gold.Rescore>
     Score         DG    S(hbond)    S(metal)    S(lipo)     H(rot)  DE(clash)    DE(int)     intcor
      9.17     -11.99       0.65        0.00      90.56       2.44       0.03       2.79       ----

> <Gold.Chemscore.Fitness>
9.1737

> <Gold.Chemscore.DG>
-11.9896

> <Gold.Chemscore.ZeroCoef>
-5.4800

> <Gold.Chemscore.Hbond>
0.6492

> <Gold.Chemscore.Metal>
0.0000

> <Gold.Chemscore.Lipo>
90.5610

> <Gold.Chemscore.Internal_Hbond>
0.0000

> <Gold.Chemscore.DEClash>
0.0253

> <Gold.Chemscore.DEInternal>
2.7906

> <Gold.Chemscore.Rot>
2.4431

> <Gold.Chemscore.Internal.Correction>
   9.000000E+99

> <Gold.Chemscore.Hbonds>
donor molecule, donor type, donor heavy atom, donor atom, acceptor molecule, acceptor atom, score
      L1  H    21    45       P1 10174  0.29
      P1  H  8011  8017       L1    11  0.02

> <Gold.Chemscore.Hbond.Weighted>
-2.1684

> <Gold.Chemscore.Metal.Weighted>
-0.0000

> <Gold.Chemscore.Lipo.Weighted>
-10.5956

> <Gold.Chemscore.Internal_Hbond.Weighted>
0.0000

> <Gold.Chemscore.DEClash.Weighted>
0.0253

> <Gold.Chemscore.DEInternal.Weighted>
2.7906

> <Gold.Chemscore.Rot.Weighted>
6.2544

> <Gold.Chemscore.Internal.Correction.Weighted>
   9.000000E+99

> <Gold.Protein.RotatedTorsions>
[ 6907 6896 6895 6894 ] final  -15.05 input  -60.11 | X-H torsion
[ 7974 7965 7964 7962 ] final   61.93 input  175.53 | X-H torsion
[ 8008 7997 7996 7995 ] final  -85.43 input   59.86 | X-H torsion
[ 10167 10162 10161 10158 ] final   43.89 input  -65.29 | X-H torsion
[ 10718 10713 10712 10709 ] final  -61.63 input   66.30 | X-H torsion
[ 10763 10752 10751 10750 ] final  154.90 input  -60.55 | X-H torsion
[ 11005 11000 10999 10996 ] final   60.49 input  -57.11 | X-H torsion

> <Gold.Protein.ActiveResidues>
 VAL166  LYS551  ARG553  GLY616  TRP617  ASP618  TYR619  PRO620  LYS621  CYS622 
 ASP623  PHE694  ASN695  SER759  ASP760  ASP761  ALA762  ILE779  LEU786  VAL792 
 PHE793  MET794  SER795  GLU796  ALA797  LYS798  CYS799  TRP800  GLU811  SER814 

> <Gold.Protein.RotatedAtoms>
  151.3299  135.0839  159.9334 H   0  0  0  0  0  0  0  0  0  0  0  0  # atno 6907 bound_to 6896
  152.5237  133.9554  159.7702 H   0  0  0  0  0  0  0  0  0  0  0  0  # atno 6908 bound_to 6896
  150.9890  133.6116  159.2741 H   0  0  0  0  0  0  0  0  0  0  0  0  # atno 6909 bound_to 6896
  145.8791  139.3431  143.0717 H   0  0  0  0  0  0  0  0  0  0  0  0  # atno 7974 bound_to 7965
  154.6407  140.0591  156.9842 H   0  0  0  0  0  0  0  0  0  0  0  0  # atno 8008 bound_to 7997
  155.1521  140.3275  155.4410 H   0  0  0  0  0  0  0  0  0  0  0  0  # atno 8009 bound_to 7997
  156.2529  140.1945  156.6633 H   0  0  0  0  0  0  0  0  0  0  0  0  # atno 8010 bound_to 7997
  140.3399  144.2484  150.6157 H   0  0  0  0  0  0  0  0  0  0  0  0  # atno 10167 bound_to 10162
  156.0909  130.4200  150.1021 H   0  0  0  0  0  0  0  0  0  0  0  0  # atno 10718 bound_to 10713
  154.1597  135.2810  155.3112 H   0  0  0  0  0  0  0  0  0  0  0  0  # atno 10763 bound_to 10752
  154.6156  135.5484  153.7523 H   0  0  0  0  0  0  0  0  0  0  0  0  # atno 10764 bound_to 10752
  153.0196  135.6426  154.1739 H   0  0  0  0  0  0  0  0  0  0  0  0  # atno 10765 bound_to 10752
  140.0228  134.6127  155.9615 H   0  0  0  0  0  0  0  0  0  0  0  0  # atno 11005 bound_to 11000
  145.9045  140.9221  143.0486 LP  0  0  0  0  0  0  0  0  0  0  0  0  # atno 17320 bound_to 7965
  144.6727  140.1077  143.7457 LP  0  0  0  0  0  0  0  0  0  0  0  0  # atno 17321 bound_to 7965
  140.5319  143.2241  151.8225 LP  0  0  0  0  0  0  0  0  0  0  0  0  # atno 17342 bound_to 10162
  139.4842  144.4710  151.9426 LP  0  0  0  0  0  0  0  0  0  0  0  0  # atno 17343 bound_to 10162
  156.9031  130.9627  151.3573 LP  0  0  0  0  0  0  0  0  0  0  0  0  # atno 17370 bound_to 10713
  157.6058  130.8546  149.8872 LP  0  0  0  0  0  0  0  0  0  0  0  0  # atno 17371 bound_to 10713
  141.1784  133.6543  156.4922 LP  0  0  0  0  0  0  0  0  0  0  0  0  # atno 17394 bound_to 11000
  140.4358  134.7061  157.4966 LP  0  0  0  0  0  0  0  0  0  0  0  0  # atno 17395 bound_to 11000

$$$$
