AV-unprocessed.smi:2186|AV-procd|sdf|8876|dock6
  -GOLD-   2272012 73D 1   1.00000     0.00000
 Structure written by MMmdl.
 43 44  0  0  0  0  0  0  0  0  1 V2000
  151.9658  145.3680  160.0794 C   0  0  0  0  0  0  0  0  0  0  0  0
  151.6493  144.0453  160.7927 C   0  0  0  0  0  0  0  0  0  0  0  0
  152.5999  143.7484  161.9615 C   0  0  0  0  0  0  0  0  0  0  0  0
  151.5586  142.8995  159.8347 C   0  0  0  0  0  0  0  0  0  0  0  0
  150.6111  142.7896  158.8987 N   0  0  0  0  0  0  0  0  0  0  0  0
  150.7326  141.6215  158.1387 C   0  0  0  0  0  0  0  0  0  0  0  0
  149.7415  141.3282  157.0503 C   0  0  0  0  0  0  0  0  0  0  0  0
  148.3173  141.5156  157.5750 C   0  0  0  0  0  0  0  0  0  0  0  0
  147.6736  140.5443  157.9716 O   0  0  0  0  0  0  0  0  0  0  0  0
  147.8410  142.7705  157.5778 N   0  0  0  0  0  0  0  0  0  0  0  0
  146.5323  143.1685  158.0789 C   0  0  0  0  0  0  0  0  0  0  0  0
  146.5104  143.1747  159.6187 C   0  0  0  0  0  0  0  0  0  0  0  0
  145.1895  143.3615  160.2157 N   0  0  0  0  0  0  0  0  0  0  0  0
  145.2953  143.6101  161.6495 C   0  0  0  0  0  0  0  0  0  0  0  0
  143.9166  143.8133  162.3007 C   0  0  0  0  0  0  0  0  0  0  0  0
  143.1011  142.6736  162.0505 O   0  0  0  0  0  0  0  0  0  0  0  0
  142.9331  142.4148  160.6604 C   0  0  0  0  0  0  0  0  0  0  0  0
  144.3080  142.2160  159.9981 C   0  0  0  0  0  0  0  0  0  0  0  0
  151.8045  140.8469  158.5080 C   0  0  0  0  0  0  0  0  0  0  0  0
  152.6912  141.5519  159.8311 S   0  0  0  0  0  0  0  0  0  0  0  0
  151.2226  145.5865  159.3119 H   0  0  0  0  0  0  0  0  0  0  0  0
  152.9432  145.3349  159.5968 H   0  0  0  0  0  0  0  0  0  0  0  0
  151.9710  146.2016  160.7818 H   0  0  0  0  0  0  0  0  0  0  0  0
  150.6557  144.1611  161.2272 H   0  0  0  0  0  0  0  0  0  0  0  0
  152.2940  142.8489  162.4967 H   0  0  0  0  0  0  0  0  0  0  0  0
  152.6114  144.5705  162.6773 H   0  0  0  0  0  0  0  0  0  0  0  0
  153.6222  143.5976  161.6133 H   0  0  0  0  0  0  0  0  0  0  0  0
  149.9006  141.9804  156.1903 H   0  0  0  0  0  0  0  0  0  0  0  0
  149.8609  140.3065  156.6878 H   0  0  0  0  0  0  0  0  0  0  0  0
  148.4434  143.5065  157.2381 H   0  0  0  0  0  0  0  0  0  0  0  0
  146.3144  144.1676  157.7008 H   0  0  0  0  0  0  0  0  0  0  0  0
  145.7693  142.5054  157.6696 H   0  0  0  0  0  0  0  0  0  0  0  0
  146.9574  142.2545  159.9983 H   0  0  0  0  0  0  0  0  0  0  0  0
  147.1626  143.9832  159.9529 H   0  0  0  0  0  0  0  0  0  0  0  0
  145.8016  142.7735  162.1337 H   0  0  0  0  0  0  0  0  0  0  0  0
  145.9105  144.4924  161.8285 H   0  0  0  0  0  0  0  0  0  0  0  0
  144.0213  143.9492  163.3774 H   0  0  0  0  0  0  0  0  0  0  0  0
  143.4324  144.7094  161.9095 H   0  0  0  0  0  0  0  0  0  0  0  0
  142.3194  141.5226  160.5356 H   0  0  0  0  0  0  0  0  0  0  0  0
  142.3959  143.2412  160.1926 H   0  0  0  0  0  0  0  0  0  0  0  0
  144.1580  142.0485  158.9321 H   0  0  0  0  0  0  0  0  0  0  0  0
  144.7716  141.3114  160.3952 H   0  0  0  0  0  0  0  0  0  0  0  0
  152.1209  139.9043  158.0861 H   0  0  0  0  0  0  0  0  0  0  0  0
  1  2  1  0  0  0  0
  1 21  1  0  0  0  0
  1 22  1  0  0  0  0
  1 23  1  0  0  0  0
  2  3  1  0  0  0  0
  2  4  1  0  0  0  0
  2 24  1  0  0  0  0
  3 25  1  0  0  0  0
  3 26  1  0  0  0  0
  3 27  1  0  0  0  0
  4 20  1  0  0  0  0
  4  5  2  0  0  0  0
  5  6  1  0  0  0  0
  6  7  1  0  0  0  0
  6 19  2  0  0  0  0
  7  8  1  0  0  0  0
  7 28  1  0  0  0  0
  7 29  1  0  0  0  0
  8  9  2  0  0  0  0
  8 10  1  0  0  0  0
 10 11  1  0  0  0  0
 10 30  1  0  0  0  0
 11 12  1  0  0  0  0
 11 31  1  0  0  0  0
 11 32  1  0  0  0  0
 12 13  1  0  0  0  0
 12 33  1  0  0  0  0
 12 34  1  0  0  0  0
 13 18  1  0  0  0  0
 13 14  1  0  0  0  0
 14 15  1  0  0  0  0
 14 35  1  0  0  0  0
 14 36  1  0  0  0  0
 15 16  1  0  0  0  0
 15 37  1  0  0  0  0
 15 38  1  0  0  0  0
 16 17  1  0  0  0  0
 17 18  1  0  0  0  0
 17 39  1  0  0  0  0
 17 40  1  0  0  0  0
 18 41  1  0  0  0  0
 18 42  1  0  0  0  0
 19 20  1  0  0  0  0
 19 43  1  0  0  0  0
M  END
> <s_m_source_file>
AV-unprocessed.smi

> <i_m_source_file_index>
2186

> <i_lp_mmshare_version>
43012

> <i_f3d_flags>
0

> <s_epik_input>
W0NIM11bQ0hdKFtDSDNdKWMxbmMoW2NIXXMxKVtDSDJdQyg9TylbTkhdW0NIMl1bQ0gyXU4yW0NIMl1bQ0gyXU9bQ0gyXVtDSDJdMg==

> <s_epik_cmdline>
J2VwaWtfcHl0aG9uJywgJy1waCcsICc3LjAnLCAnLXRuJywgJzgnLCAnLW1hJywgJzIwMCcsICctbWV0YWxfYmluZGluZycsICctaW1hZScsICc8aW5maWxlLm1hZT4nLCAnLW9tYWUnLCAnPG91dGZpbGUubWFlPic=

> <r_epik_Ionization_Penalty>
0.226788

> <r_epik_Ionization_Penalty_Charging>
0

> <r_epik_Ionization_Penalty_Neutral>
0.226788

> <r_epik_State_Penalty>
0.21727

> <r_epik_Charging_Adjusted_Penalty>
0.21727

> <i_epik_Tot_Q>
0

> <i_epik_Tot_abs_Q>
0

> <r_epik_Metal_State_Penalty>
0.217263

> <b_epik_Metal_Only>
0

> <s_lp_Force_Field>
OPLS_2005

> <r_lp_Energy>
12.6153

> <b_lp_Chiralities_Consistent>
1

> <s_lp_Variant>
AV-unprocessed.smi:2186-1

> <Gold.Version>
5.8.1

> <Gold.Id.Protein>
6NUR|6NUR_protein|mol2

> <Gold.PLP.Fitness>
39.0095

> <Gold.PLP.PLP>
-38.4881

> <Gold.PLP.part.hbond>
-3.4319

> <Gold.PLP.part.metal>
0.0000

> <Gold.PLP.part.buried>
-6.1833

> <Gold.PLP.part.nonpolar>
-28.8512

> <Gold.PLP.part.repulsive>
0.1706

> <Gold.PLP.ligand.clash>
0.0000

> <Gold.PLP.ligand.torsion>
0.8176

> <Gold.PLP.Chemscore.Hbond>
0.6832

> <Gold.PLP.Chemscore.CHOScore>
0.0000

> <Gold.PLP.Chemscore.Metal>
0.0000

> <Gold.Chemscore.Hbonds>
donor molecule, donor type, donor heavy atom, donor atom, acceptor molecule, acceptor atom, score
      L1  H    10    30       P1  8028  0.64

> <Gold.PLP.Chemscore.Internal.Correction>
0.1071

> <Gold.Rescore>
     Score         DG    S(hbond)    S(metal)    S(lipo)     H(rot)  DE(clash)    DE(int)     intcor
     13.45     -14.31       0.76        0.00      91.67       1.73       0.09       0.77       ----

> <Gold.Chemscore.Fitness>
13.4473

> <Gold.Chemscore.DG>
-14.3097

> <Gold.Chemscore.ZeroCoef>
-5.4800

> <Gold.Chemscore.Hbond>
0.7553

> <Gold.Chemscore.Metal>
0.0000

> <Gold.Chemscore.Lipo>
91.6695

> <Gold.Chemscore.Internal_Hbond>
0.0000

> <Gold.Chemscore.DEClash>
0.0901

> <Gold.Chemscore.DEInternal>
0.7724

> <Gold.Chemscore.Rot>
1.7259

> <Gold.Chemscore.Internal.Correction>
   9.000000E+99

> <Gold.Chemscore.Hbonds>
donor molecule, donor type, donor heavy atom, donor atom, acceptor molecule, acceptor atom, score
      L1  H    10    30       P1  8028  0.06

> <Gold.Chemscore.Hbond.Weighted>
-2.5226

> <Gold.Chemscore.Metal.Weighted>
-0.0000

> <Gold.Chemscore.Lipo.Weighted>
-10.7253

> <Gold.Chemscore.Internal_Hbond.Weighted>
0.0000

> <Gold.Chemscore.DEClash.Weighted>
0.0901

> <Gold.Chemscore.DEInternal.Weighted>
0.7724

> <Gold.Chemscore.Rot.Weighted>
4.4182

> <Gold.Chemscore.Internal.Correction.Weighted>
   9.000000E+99

> <Gold.Protein.RotatedTorsions>
[ 6907 6896 6895 6894 ] final   91.74 input  -60.11 | X-H torsion
[ 7974 7965 7964 7962 ] final -176.47 input  175.53 | X-H torsion
[ 8008 7997 7996 7995 ] final  -31.51 input   59.86 | X-H torsion
[ 10167 10162 10161 10158 ] final   62.37 input  -65.29 | X-H torsion
[ 10718 10713 10712 10709 ] final    8.64 input   66.30 | X-H torsion
[ 10763 10752 10751 10750 ] final  175.93 input  -60.55 | X-H torsion
[ 11005 11000 10999 10996 ] final  -72.97 input  -57.11 | X-H torsion

> <Gold.Protein.ActiveResidues>
 VAL166  LYS551  ARG553  GLY616  TRP617  ASP618  TYR619  PRO620  LYS621  CYS622 
 ASP623  PHE694  ASN695  SER759  ASP760  ASP761  ALA762  ILE779  LEU786  VAL792 
 PHE793  MET794  SER795  GLU796  ALA797  LYS798  CYS799  TRP800  GLU811  SER814 

> <Gold.Protein.RotatedAtoms>
  152.5451  134.1610  159.8557 H   0  0  0  0  0  0  0  0  0  0  0  0  # atno 6907 bound_to 6896
  151.1628  133.4827  159.2601 H   0  0  0  0  0  0  0  0  0  0  0  0  # atno 6908 bound_to 6896
  151.1355  135.0164  159.8657 H   0  0  0  0  0  0  0  0  0  0  0  0  # atno 6909 bound_to 6896
  144.7127  140.1165  143.6408 H   0  0  0  0  0  0  0  0  0  0  0  0  # atno 7974 bound_to 7965
  154.4211  140.1762  156.1579 H   0  0  0  0  0  0  0  0  0  0  0  0  # atno 8008 bound_to 7997
  155.9862  140.3373  155.6685 H   0  0  0  0  0  0  0  0  0  0  0  0  # atno 8009 bound_to 7997
  155.6434  140.0682  157.2602 H   0  0  0  0  0  0  0  0  0  0  0  0  # atno 8010 bound_to 7997
  140.1446  144.4521  150.6792 H   0  0  0  0  0  0  0  0  0  0  0  0  # atno 10167 bound_to 10162
  156.9546  130.5910  149.5658 H   0  0  0  0  0  0  0  0  0  0  0  0  # atno 10718 bound_to 10713
  154.4743  135.2772  155.1619 H   0  0  0  0  0  0  0  0  0  0  0  0  # atno 10763 bound_to 10752
  154.3355  135.6181  153.5575 H   0  0  0  0  0  0  0  0  0  0  0  0  # atno 10764 bound_to 10752
  152.9868  135.5776  154.5131 H   0  0  0  0  0  0  0  0  0  0  0  0  # atno 10765 bound_to 10752
  141.1616  133.6863  156.7140 H   0  0  0  0  0  0  0  0  0  0  0  0  # atno 11005 bound_to 11000
  145.9409  139.2668  143.1269 LP  0  0  0  0  0  0  0  0  0  0  0  0  # atno 17320 bound_to 7965
  145.9425  140.8969  143.0300 LP  0  0  0  0  0  0  0  0  0  0  0  0  # atno 17321 bound_to 7965
  140.6739  143.2297  151.5555 LP  0  0  0  0  0  0  0  0  0  0  0  0  # atno 17342 bound_to 10162
  139.5455  144.2532  152.1434 LP  0  0  0  0  0  0  0  0  0  0  0  0  # atno 17343 bound_to 10162
  156.0348  130.5436  150.8626 LP  0  0  0  0  0  0  0  0  0  0  0  0  # atno 17370 bound_to 10713
  157.5699  131.0946  150.9434 LP  0  0  0  0  0  0  0  0  0  0  0  0  # atno 17371 bound_to 10713
  140.2866  134.8274  157.3980 LP  0  0  0  0  0  0  0  0  0  0  0  0  # atno 17394 bound_to 11000
  140.1385  134.5003  155.8050 LP  0  0  0  0  0  0  0  0  0  0  0  0  # atno 17395 bound_to 11000

$$$$
