AV-unprocessed.smi:1008|AV-procd|sdf|4412|dock3
  -GOLD-   22720 2353D 1   1.00000     0.00000
 Structure written by MMmdl.
 23 23  0  0  0  0  0  0  0  0  1 V2000
  149.7458  138.0765  154.1997 C   0  0  0  0  0  0  0  0  0  0  0  0
  149.1608  139.4746  154.2818 C   0  0  0  0  0  0  0  0  0  0  0  0
  149.9267  140.3975  154.9049 N   0  0  0  0  0  0  0  0  0  0  0  0
  149.4311  141.6316  154.9948 C   0  0  0  0  0  0  0  0  0  0  0  0
  150.2162  142.5643  155.6269 N   0  0  0  0  0  0  0  0  0  0  0  0
  148.2529  142.0548  154.5357 N   0  0  0  0  0  0  0  0  0  0  0  0
  147.4735  141.1471  153.9089 C   0  0  0  0  0  0  0  0  0  0  0  0
  146.2607  141.5619  153.4397 O   0  0  0  0  0  0  0  0  0  0  0  0
  147.8903  139.8030  153.7442 C   0  0  0  0  0  0  0  0  0  0  0  0
  147.0124  138.7767  153.0396 C   0  0  0  0  0  0  0  0  0  0  0  0
  146.8085  139.1130  151.5561 C   0  0  0  0  0  0  0  0  0  0  0  0
  146.5923  137.9273  150.8229 O   0  0  0  0  0  0  0  0  0  0  0  0
  145.6699  140.8428  153.2766 H   0  0  0  0  0  0  0  0  0  0  0  0
  149.0398  137.3412  154.5854 H   0  0  0  0  0  0  0  0  0  0  0  0
  150.6643  137.9944  154.7821 H   0  0  0  0  0  0  0  0  0  0  0  0
  149.9798  137.8242  153.1654 H   0  0  0  0  0  0  0  0  0  0  0  0
  151.1193  142.3060  155.9969 H   0  0  0  0  0  0  0  0  0  0  0  0
  149.8886  143.5120  155.7443 H   0  0  0  0  0  0  0  0  0  0  0  0
  146.0483  138.7034  153.5427 H   0  0  0  0  0  0  0  0  0  0  0  0
  147.4647  137.7894  153.1377 H   0  0  0  0  0  0  0  0  0  0  0  0
  145.9511  139.7731  151.4225 H   0  0  0  0  0  0  0  0  0  0  0  0
  147.6822  139.6262  151.1529 H   0  0  0  0  0  0  0  0  0  0  0  0
  145.7235  137.9577  150.4520 H   0  0  0  0  0  0  0  0  0  0  0  0
  1 14  1  0  0  0  0
  1 15  1  0  0  0  0
  1 16  1  0  0  0  0
  1  2  1  0  0  0  0
  2  9  2  0  0  0  0
  2  3  1  0  0  0  0
  3  4  2  0  0  0  0
  4  5  1  0  0  0  0
  4  6  1  0  0  0  0
  5 17  1  0  0  0  0
  5 18  1  0  0  0  0
  6  7  2  0  0  0  0
  7  8  1  0  0  0  0
  7  9  1  0  0  0  0
  8 13  1  0  0  0  0
  9 10  1  0  0  0  0
 10 11  1  0  0  0  0
 10 19  1  0  0  0  0
 10 20  1  0  0  0  0
 11 12  1  0  0  0  0
 11 21  1  0  0  0  0
 11 22  1  0  0  0  0
 12 23  1  0  0  0  0
M  END
> <s_m_source_file>
AV-unprocessed.smi

> <i_m_source_file_index>
1008

> <i_lp_mmshare_version>
43012

> <i_f3d_flags>
0

> <s_epik_input>
W0NIM11jMW5jKFtOSDJdKVtuSF1jKD1PKWMxW0NIMl1bQ0gyXVtPSF0=

> <s_epik_cmdline>
J2VwaWtfcHl0aG9uJywgJy1waCcsICc3LjAnLCAnLXRuJywgJzgnLCAnLW1hJywgJzIwMCcsICctbWV0YWxfYmluZGluZycsICctaW1hZScsICc8aW5maWxlLm1hZT4nLCAnLW9tYWUnLCAnPG91dGZpbGUubWFlPic=

> <r_lp_tautomer_probability>
0.0131372

> <r_epik_Ionization_Penalty>
8.55637

> <r_epik_Ionization_Penalty_Charging>
0

> <r_epik_Ionization_Penalty_Neutral>
8.55637

> <r_epik_State_Penalty>
2.72329

> <r_epik_Charging_Adjusted_Penalty>
2.72329

> <i_epik_Tot_Q>
0

> <i_epik_Tot_abs_Q>
0

> <r_epik_Metal_State_Penalty>
2.85363

> <b_epik_Metal_Only>
0

> <s_lp_Force_Field>
OPLS_2005

> <r_lp_Energy>
-5.16374

> <b_lp_Chiralities_Consistent>
1

> <s_lp_Variant>
AV-unprocessed.smi:1008-3

> <Gold.Version>
5.8.1

> <Gold.Id.Protein>
6NUR|6NUR_protein|mol2

> <Gold.PLP.Fitness>
32.2430

> <Gold.PLP.PLP>
-20.9603

> <Gold.PLP.part.hbond>
-5.6400

> <Gold.PLP.part.metal>
0.0000

> <Gold.PLP.part.buried>
2.0913

> <Gold.PLP.part.nonpolar>
-19.2555

> <Gold.PLP.part.repulsive>
1.6696

> <Gold.PLP.ligand.clash>
0.0000

> <Gold.PLP.ligand.torsion>
0.1953

> <Gold.PLP.Chemscore.Hbond>
3.8910

> <Gold.PLP.Chemscore.CHOScore>
0.0000

> <Gold.PLP.Chemscore.Metal>
0.0000

> <Gold.Chemscore.Hbonds>
donor molecule, donor type, donor heavy atom, donor atom, acceptor molecule, acceptor atom, score
      L1  H     5    18       P1  8028  1.00
      L1  H     8    13       P1 10175  0.52
      L1  H    12    23       P1 10171  0.96
      P1  H  7954  7966       L1    12  0.95
      P1  H  7989  7998       L1     3  0.36

> <Gold.PLP.Chemscore.Internal.Correction>
0.0003

> <Gold.Rescore>
     Score         DG    S(hbond)    S(metal)    S(lipo)     H(rot)  DE(clash)    DE(int)     intcor
     12.17     -13.42       3.21        0.00      35.83       2.73       1.02       0.23       ----

> <Gold.Chemscore.Fitness>
12.1726

> <Gold.Chemscore.DG>
-13.4208

> <Gold.Chemscore.ZeroCoef>
-5.4800

> <Gold.Chemscore.Hbond>
3.2130

> <Gold.Chemscore.Metal>
0.0000

> <Gold.Chemscore.Lipo>
35.8301

> <Gold.Chemscore.Internal_Hbond>
0.0000

> <Gold.Chemscore.DEClash>
1.0178

> <Gold.Chemscore.DEInternal>
0.2304

> <Gold.Chemscore.Rot>
2.7277

> <Gold.Chemscore.Internal.Correction>
   9.000000E+99

> <Gold.Chemscore.Hbonds>
donor molecule, donor type, donor heavy atom, donor atom, acceptor molecule, acceptor atom, score
      L1  H     5    18       P1  8028  0.96
      L1  H     8    13       P1 10175  0.34
      L1  H    12    23       P1 10171  0.91
      P1  H  7954  7966       L1    12  0.21
      P1  H  7989  7998       L1     3  0.03

> <Gold.Chemscore.Hbond.Weighted>
-10.7315

> <Gold.Chemscore.Metal.Weighted>
-0.0000

> <Gold.Chemscore.Lipo.Weighted>
-4.1921

> <Gold.Chemscore.Internal_Hbond.Weighted>
0.0000

> <Gold.Chemscore.DEClash.Weighted>
1.0178

> <Gold.Chemscore.DEInternal.Weighted>
0.2304

> <Gold.Chemscore.Rot.Weighted>
6.9829

> <Gold.Chemscore.Internal.Correction.Weighted>
   9.000000E+99

> <Gold.Protein.RotatedTorsions>
[ 6907 6896 6895 6894 ] final  132.17 input  -60.11 | X-H torsion
[ 7974 7965 7964 7962 ] final  -75.27 input  175.53 | X-H torsion
[ 8008 7997 7996 7995 ] final   16.10 input   59.86 | X-H torsion
[ 10167 10162 10161 10158 ] final   11.37 input  -65.29 | X-H torsion
[ 10718 10713 10712 10709 ] final -154.69 input   66.30 | X-H torsion
[ 10763 10752 10751 10750 ] final   38.20 input  -60.55 | X-H torsion
[ 11005 11000 10999 10996 ] final    0.70 input  -57.11 | X-H torsion

> <Gold.Protein.ActiveResidues>
 VAL166  LYS551  ARG553  GLY616  TRP617  ASP618  TYR619  PRO620  LYS621  CYS622 
 ASP623  PHE694  ASN695  SER759  ASP760  ASP761  ALA762  ILE779  LEU786  VAL792 
 PHE793  MET794  SER795  GLU796  ALA797  LYS798  CYS799  TRP800  GLU811  SER814 

> <Gold.Protein.RotatedAtoms>
  152.3351  133.6002  159.5836 H   0  0  0  0  0  0  0  0  0  0  0  0  # atno 6907 bound_to 6896
  150.7445  133.9808  159.3584 H   0  0  0  0  0  0  0  0  0  0  0  0  # atno 6908 bound_to 6896
  151.7679  135.0794  160.0406 H   0  0  0  0  0  0  0  0  0  0  0  0  # atno 6909 bound_to 6896
  145.6283  140.9345  143.1101 H   0  0  0  0  0  0  0  0  0  0  0  0  # atno 7974 bound_to 7965
  154.8721  140.2960  155.5475 H   0  0  0  0  0  0  0  0  0  0  0  0  # atno 8008 bound_to 7997
  156.3021  140.2458  156.3645 H   0  0  0  0  0  0  0  0  0  0  0  0  # atno 8009 bound_to 7997
  154.8806  140.0398  157.1769 H   0  0  0  0  0  0  0  0  0  0  0  0  # atno 8010 bound_to 7997
  140.6136  143.8356  150.7093 H   0  0  0  0  0  0  0  0  0  0  0  0  # atno 10167 bound_to 10162
  156.5027  130.8399  151.2615 H   0  0  0  0  0  0  0  0  0  0  0  0  # atno 10718 bound_to 10713
  153.0009  135.6256  154.2266 H   0  0  0  0  0  0  0  0  0  0  0  0  # atno 10763 bound_to 10752
  154.2009  135.2804  155.2993 H   0  0  0  0  0  0  0  0  0  0  0  0  # atno 10764 bound_to 10752
  154.5684  135.5684  153.7131 H   0  0  0  0  0  0  0  0  0  0  0  0  # atno 10765 bound_to 10752
  140.6237  133.9638  155.8238 H   0  0  0  0  0  0  0  0  0  0  0  0  # atno 11005 bound_to 11000
  144.7204  139.8051  143.7384 LP  0  0  0  0  0  0  0  0  0  0  0  0  # atno 17320 bound_to 7965
  146.1377  139.4426  143.0128 LP  0  0  0  0  0  0  0  0  0  0  0  0  # atno 17321 bound_to 7965
  140.1930  143.4021  152.1849 LP  0  0  0  0  0  0  0  0  0  0  0  0  # atno 17342 bound_to 10162
  139.5380  144.7229  151.4827 LP  0  0  0  0  0  0  0  0  0  0  0  0  # atno 17343 bound_to 10162
  157.7461  130.9976  150.2822 LP  0  0  0  0  0  0  0  0  0  0  0  0  # atno 17370 bound_to 10713
  156.3317  130.3801  149.7485 LP  0  0  0  0  0  0  0  0  0  0  0  0  # atno 17371 bound_to 10713
  141.0724  134.0185  157.3506 LP  0  0  0  0  0  0  0  0  0  0  0  0  # atno 17394 bound_to 11000
  139.9143  135.0195  156.7819 LP  0  0  0  0  0  0  0  0  0  0  0  0  # atno 17395 bound_to 11000

$$$$
