AV-unprocessed.smi:104|AV-procd|sdf|1001|dock9
  -GOLD-   2262017593D 1   1.00000     0.00000
 Structure written by MMmdl.
 47 49  0  0  0  0  0  0  0  0  1 V2000
  150.9509  131.6225  155.4211 C   0  0  0  0  0  0  0  0  0  0  0  0
  150.6745  132.4654  156.6589 C   0  0  0  0  0  0  0  0  0  0  0  0
  151.5840  132.8297  157.4040 O   0  0  0  0  0  0  0  0  0  0  0  0
  149.3658  132.7329  156.8133 O   0  0  0  0  0  0  0  0  0  0  0  0
  148.9053  133.5191  157.9072 C   0  0  0  0  0  0  0  0  0  0  0  0
  148.8442  135.0283  157.5867 C   0  0  2  0  0  0  0  0  0  0  0  0
  150.0815  135.4983  157.0716 O   0  0  0  0  0  0  0  0  0  0  0  0
  150.2112  136.8597  157.3206 C   0  0  1  0  0  0  0  0  0  0  0  0
  149.7701  137.6210  156.0895 N   0  0  0  0  0  0  0  0  0  0  0  0
  150.5709  138.3427  155.2287 C   0  0  0  0  0  0  0  0  0  0  0  0
  152.4503  138.5280  155.4814 Br  0  0  0  0  0  0  0  0  0  0  0  0
  150.0001  138.9132  154.2069 N   0  0  0  0  0  0  0  0  0  0  0  0
  148.6732  138.5397  154.3517 C   0  0  0  0  0  0  0  0  0  0  0  0
  147.4987  138.7976  153.6005 C   0  0  0  0  0  0  0  0  0  0  0  0
  147.4918  139.5444  152.4875 N   0  0  0  0  0  0  0  0  0  0  0  0
  146.3292  138.2660  154.0233 N   0  0  0  0  0  0  0  0  0  0  0  0
  146.3109  137.5160  155.1280 C   0  0  0  0  0  0  0  0  0  0  0  0
  147.3262  137.1889  155.9305 N   0  0  0  0  0  0  0  0  0  0  0  0
  148.5113  137.7246  155.5120 C   0  0  0  0  0  0  0  0  0  0  0  0
  149.4193  137.1614  158.6084 C   0  0  1  0  0  0  0  0  0  0  0  0
  148.7441  138.4139  158.5842 O   0  0  0  0  0  0  0  0  0  0  0  0
  149.3417  139.4960  158.0596 C   0  0  0  0  0  0  0  0  0  0  0  0
  148.3435  140.4636  157.4393 C   0  0  0  0  0  0  0  0  0  0  0  0
  150.5523  139.7185  158.0429 O   0  0  0  0  0  0  0  0  0  0  0  0
  148.4358  135.9946  158.7209 C   0  0  2  0  0  0  0  0  0  0  0  0
  148.5294  135.4105  160.0157 O   0  0  0  0  0  0  0  0  0  0  0  0
  148.0792  136.0695  161.0976 C   0  0  0  0  0  0  0  0  0  0  0  0
  147.9800  135.1706  162.3229 C   0  0  0  0  0  0  0  0  0  0  0  0
  147.7746  137.2612  161.1473 O   0  0  0  0  0  0  0  0  0  0  0  0
  150.3021  131.9241  154.5984 H   0  0  0  0  0  0  0  0  0  0  0  0
  150.7707  130.5693  155.6368 H   0  0  0  0  0  0  0  0  0  0  0  0
  151.9873  131.7387  155.1034 H   0  0  0  0  0  0  0  0  0  0  0  0
  147.9310  133.1658  158.2481 H   0  0  0  0  0  0  0  0  0  0  0  0
  149.5912  133.3609  158.7395 H   0  0  0  0  0  0  0  0  0  0  0  0
  148.1207  135.1385  156.7806 H   0  0  0  0  0  0  0  0  0  0  0  0
  151.2621  137.1177  157.4355 H   0  0  0  0  0  0  0  0  0  0  0  0
  148.3517  139.9525  152.1497 H   0  0  0  0  0  0  0  0  0  0  0  0
  146.6273  139.6990  151.9893 H   0  0  0  0  0  0  0  0  0  0  0  0
  145.3457  137.1216  155.4101 H   0  0  0  0  0  0  0  0  0  0  0  0
  150.1215  137.1150  159.4427 H   0  0  0  0  0  0  0  0  0  0  0  0
  147.5731  140.7305  158.1633 H   0  0  0  0  0  0  0  0  0  0  0  0
  147.8629  140.0051  156.5747 H   0  0  0  0  0  0  0  0  0  0  0  0
  148.8444  141.3758  157.1140 H   0  0  0  0  0  0  0  0  0  0  0  0
  147.4111  136.3237  158.5410 H   0  0  0  0  0  0  0  0  0  0  0  0
  147.5147  134.2200  162.0619 H   0  0  0  0  0  0  0  0  0  0  0  0
  147.3799  135.6467  163.0989 H   0  0  0  0  0  0  0  0  0  0  0  0
  148.9730  134.9718  162.7261 H   0  0  0  0  0  0  0  0  0  0  0  0
  1  2  1  0  0  0  0
  1 30  1  0  0  0  0
  1 31  1  0  0  0  0
  1 32  1  0  0  0  0
  2  3  2  0  0  0  0
  2  4  1  0  0  0  0
  4  5  1  0  0  0  0
  5  6  1  0  0  0  0
  5 33  1  0  0  0  0
  5 34  1  0  0  0  0
  6 25  1  0  0  0  0
  6  7  1  0  0  0  0
  6 35  1  0  0  0  0
  7  8  1  0  0  0  0
  8  9  1  0  0  0  0
  8 20  1  0  0  0  0
  8 36  1  0  0  0  0
  9 19  1  0  0  0  0
  9 10  1  0  0  0  0
 10 11  1  0  0  0  0
 10 12  2  0  0  0  0
 12 13  1  0  0  0  0
 13 19  2  0  0  0  0
 13 14  1  0  0  0  0
 14 15  1  0  0  0  0
 14 16  2  0  0  0  0
 15 37  1  0  0  0  0
 15 38  1  0  0  0  0
 16 17  1  0  0  0  0
 17 18  2  0  0  0  0
 17 39  1  0  0  0  0
 18 19  1  0  0  0  0
 20 21  1  0  0  0  0
 20 25  1  0  0  0  0
 20 40  1  0  0  0  0
 21 22  1  0  0  0  0
 22 23  1  0  0  0  0
 22 24  2  0  0  0  0
 23 41  1  0  0  0  0
 23 42  1  0  0  0  0
 23 43  1  0  0  0  0
 25 26  1  0  0  0  0
 25 44  1  0  0  0  0
 26 27  1  0  0  0  0
 27 28  1  0  0  0  0
 27 29  2  0  0  0  0
 28 45  1  0  0  0  0
 28 46  1  0  0  0  0
 28 47  1  0  0  0  0
M  END
> <s_m_source_file>
AV-unprocessed.smi

> <i_m_source_file_index>
104

> <i_lp_mmshare_version>
43012

> <i_f3d_flags>
0

> <s_epik_input>
W0NIM11DKD1PKU9bQ0gyXVtDQEBIXTFPW0NASF0oW0NAQEhdKE9DKD1PKVtDSDNdKVtDQEhdMU9DKD1PKVtDSDNdKW4oYyhCciluMiljKGMyMyluW2NIXW5jM1tOSDJd

> <s_epik_cmdline>
J2VwaWtfcHl0aG9uJywgJy1waCcsICc3LjAnLCAnLXRuJywgJzgnLCAnLW1hJywgJzIwMCcsICctbWV0YWxfYmluZGluZycsICctaW1hZScsICc8aW5maWxlLm1hZT4nLCAnLW9tYWUnLCAnPG91dGZpbGUubWFlPic=

> <r_lp_tautomer_probability>
1

> <r_epik_Ionization_Penalty>
7.36622e-05

> <r_epik_Ionization_Penalty_Charging>
0

> <r_epik_Ionization_Penalty_Neutral>
7.36622e-05

> <r_epik_State_Penalty>
-0

> <r_epik_Charging_Adjusted_Penalty>
0

> <i_epik_Tot_Q>
0

> <i_epik_Tot_abs_Q>
0

> <r_epik_Metal_State_Penalty>
-0

> <b_epik_Metal_Only>
0

> <s_epik_Chemistry_Notes>
This compound has an ester and may undergo hydrolysis at high or low pH. This compound contains an acetal/aminal-like group ( X-CH(R)-Y where X, Y are N, S, or O) that may be acid/base labile, releasing an aldehyde.

> <s_lp_Force_Field>
OPLS_2005

> <r_lp_Energy>
20.7491

> <b_lp_Chiralities_Consistent>
1

> <s_lp_Variant>
AV-unprocessed.smi:104-9

> <Gold.Version>
5.8.1

> <Gold.Id.Protein>
6NUR|6NUR_protein|mol2

> <Gold.PLP.Fitness>
38.6532

> <Gold.PLP.PLP>
-29.2916

> <Gold.PLP.part.hbond>
-4.4716

> <Gold.PLP.part.metal>
0.0000

> <Gold.PLP.part.buried>
-7.3526

> <Gold.PLP.part.nonpolar>
-18.4334

> <Gold.PLP.part.repulsive>
0.4683

> <Gold.PLP.ligand.clash>
0.0000

> <Gold.PLP.ligand.torsion>
1.0983

> <Gold.PLP.Chemscore.Hbond>
3.8240

> <Gold.PLP.Chemscore.CHOScore>
0.0000

> <Gold.PLP.Chemscore.Metal>
0.0000

> <Gold.Chemscore.Hbonds>
donor molecule, donor type, donor heavy atom, donor atom, acceptor molecule, acceptor atom, score
      L1  H    15    37       P1  7957  1.00
      P1  H  6896  6907       L1     3  0.94
      P1  H  6931  6943       L1    29  0.91
      P1  H  6934  6947       L1    29  0.82

> <Gold.PLP.Chemscore.Internal.Correction>
0.0862

> <Gold.Rescore>
     Score         DG    S(hbond)    S(metal)    S(lipo)     H(rot)  DE(clash)    DE(int)     intcor
      8.16     -11.20       3.69        0.00      37.89       4.31       0.02       3.02       ----

> <Gold.Chemscore.Fitness>
8.1644

> <Gold.Chemscore.DG>
-11.2047

> <Gold.Chemscore.ZeroCoef>
-5.4800

> <Gold.Chemscore.Hbond>
3.6877

> <Gold.Chemscore.Metal>
0.0000

> <Gold.Chemscore.Lipo>
37.8934

> <Gold.Chemscore.Internal_Hbond>
0.0000

> <Gold.Chemscore.DEClash>
0.0208

> <Gold.Chemscore.DEInternal>
3.0195

> <Gold.Chemscore.Rot>
4.3070

> <Gold.Chemscore.Internal.Correction>
   9.000000E+99

> <Gold.Chemscore.Hbonds>
donor molecule, donor type, donor heavy atom, donor atom, acceptor molecule, acceptor atom, score
      L1  H    15    37       P1  7957  0.95
      P1  H  6896  6907       L1     3  0.92
      P1  H  6931  6943       L1    29  0.76
      P1  H  6934  6947       L1    29  0.81

> <Gold.Chemscore.Hbond.Weighted>
-12.3171

> <Gold.Chemscore.Metal.Weighted>
-0.0000

> <Gold.Chemscore.Lipo.Weighted>
-4.4335

> <Gold.Chemscore.Internal_Hbond.Weighted>
0.0000

> <Gold.Chemscore.DEClash.Weighted>
0.0208

> <Gold.Chemscore.DEInternal.Weighted>
3.0195

> <Gold.Chemscore.Rot.Weighted>
11.0259

> <Gold.Chemscore.Internal.Correction.Weighted>
   9.000000E+99

> <Gold.Protein.RotatedTorsions>
[ 6907 6896 6895 6894 ] final -165.38 input  -60.11 | X-H torsion
[ 7974 7965 7964 7962 ] final   10.43 input  175.53 | X-H torsion
[ 8008 7997 7996 7995 ] final  -32.77 input   59.86 | X-H torsion
[ 10167 10162 10161 10158 ] final   25.15 input  -65.29 | X-H torsion
[ 10718 10713 10712 10709 ] final   27.06 input   66.30 | X-H torsion
[ 10763 10752 10751 10750 ] final  -17.21 input  -60.55 | X-H torsion
[ 11005 11000 10999 10996 ] final  128.69 input  -57.11 | X-H torsion

> <Gold.Protein.ActiveResidues>
 VAL166  LYS551  ARG553  GLY616  TRP617  ASP618  TYR619  PRO620  LYS621  CYS622 
 ASP623  PHE694  ASN695  SER759  ASP760  ASP761  ALA762  ILE779  LEU786  VAL792 
 PHE793  MET794  SER795  GLU796  ALA797  LYS798  CYS799  TRP800  GLU811  SER814 

> <Gold.Protein.RotatedAtoms>
  151.4268  133.3682  159.2763 H   0  0  0  0  0  0  0  0  0  0  0  0  # atno 6907 bound_to 6896
  150.9254  134.8672  159.7527 H   0  0  0  0  0  0  0  0  0  0  0  0  # atno 6908 bound_to 6896
  152.5002  134.4209  159.9532 H   0  0  0  0  0  0  0  0  0  0  0  0  # atno 6909 bound_to 6896
  146.2388  139.9636  142.8455 H   0  0  0  0  0  0  0  0  0  0  0  0  # atno 7974 bound_to 7965
  154.4169  140.1728  156.1781 H   0  0  0  0  0  0  0  0  0  0  0  0  # atno 8008 bound_to 7997
  155.9705  140.3386  155.6547 H   0  0  0  0  0  0  0  0  0  0  0  0  # atno 8009 bound_to 7997
  155.6632  140.0703  157.2537 H   0  0  0  0  0  0  0  0  0  0  0  0  # atno 8010 bound_to 7997
  140.5130  144.0129  150.6381 H   0  0  0  0  0  0  0  0  0  0  0  0  # atno 10167 bound_to 10162
  157.2152  130.6953  149.6245 H   0  0  0  0  0  0  0  0  0  0  0  0  # atno 10718 bound_to 10713
  153.5704  135.7007  153.5507 H   0  0  0  0  0  0  0  0  0  0  0  0  # atno 10763 bound_to 10752
  153.3349  135.4037  155.1525 H   0  0  0  0  0  0  0  0  0  0  0  0  # atno 10764 bound_to 10752
  154.8634  135.3728  154.5226 H   0  0  0  0  0  0  0  0  0  0  0  0  # atno 10765 bound_to 10752
  139.9574  134.9610  156.9039 H   0  0  0  0  0  0  0  0  0  0  0  0  # atno 11005 bound_to 11000
  145.1747  140.9738  143.4301 LP  0  0  0  0  0  0  0  0  0  0  0  0  # atno 17320 bound_to 7965
  144.9996  139.3611  143.6174 LP  0  0  0  0  0  0  0  0  0  0  0  0  # atno 17321 bound_to 7965
  140.3457  143.2993  152.0541 LP  0  0  0  0  0  0  0  0  0  0  0  0  # atno 17342 bound_to 10162
  139.4901  144.6410  151.6876 LP  0  0  0  0  0  0  0  0  0  0  0  0  # atno 17343 bound_to 10162
  155.9687  130.4538  150.5826 LP  0  0  0  0  0  0  0  0  0  0  0  0  # atno 17370 bound_to 10713
  157.3632  131.0753  151.1619 LP  0  0  0  0  0  0  0  0  0  0  0  0  # atno 17371 bound_to 10713
  140.5577  134.0565  155.7389 LP  0  0  0  0  0  0  0  0  0  0  0  0  # atno 17394 bound_to 11000
  141.1248  133.9402  157.2658 LP  0  0  0  0  0  0  0  0  0  0  0  0  # atno 17395 bound_to 11000

$$$$
