#       Name:                AV-unprocessed.smi:2632
#       Creating user name   scv26
#       Creation time:       Fri Mar 27 14:26:08 2020


#       File generated by GOLD software.
#

@<TRIPOS>MOLECULE
AV-unprocessed.smi:2632
    44    45     1
SMALL
NO_CHARGES


@<TRIPOS>ATOM
      1 ****        -3.6027   1.1989  -0.4726 C.3            1 S1                 0.0000
      2 ****        -3.0411  -0.0986  -0.3900 O.3            1 S1                 0.0000
      3 ****        -3.2608  -0.8637  -1.5638 C.3            1 S1                 0.0000
      4 ****        -2.5850  -2.2371  -1.4149 C.3            1 S1                 0.0000
      5 ****        -1.1409  -2.1487  -1.3272 N.am           1 S1                 0.0000
      6 ****        -0.4377  -2.0983  -0.1206 C.2            1 S1                 0.0000
      7 ****        -1.1389  -2.1532   1.0722 N.pl3          1 S1                 0.0000
      8 ****         0.9153  -1.9782  -0.1048 C.2            1 S1                 0.0000
      9 ****         1.9219  -1.8743   1.3558 S.3            1 S1                 0.0000
     10 ****         2.1376  -0.1295   1.4901 C.ar           1 S1                 0.0000
     11 ****         1.0747   0.6784   1.9404 C.ar           1 S1                 0.0000
     12 ****         1.2455   2.0729   2.0382 C.ar           1 S1                 0.0000
     13 ****         2.4786   2.6618   1.6885 C.ar           1 S1                 0.0000
     14 ****         2.6568   4.1625   1.7932 C.3            1 S1                 0.0000
     15 ****         3.5402   1.8491   1.2378 C.ar           1 S1                 0.0000
     16 ****         3.3707   0.4542   1.1399 C.ar           1 S1                 0.0000
     17 ****         1.7095  -1.8994  -1.3328 C.2            1 S1                 0.0000
     18 ****         2.9339  -1.8017  -1.4124 O.2            1 S1                 0.0000
     19 ****         0.9452  -1.9403  -2.4984 N.am           1 S1                 0.0000
     20 ****        -0.4430  -2.0518  -2.5577 C.2            1 S1                 0.0000
     21 ****        -1.0013  -2.0571  -3.6554 O.2            1 S1                 0.0000
     22 ****         1.4404  -1.8787  -3.3762 H              1 S1                 0.0000
     23 ****        -3.4015   1.7435   0.4497 H              1 S1                 0.0000
     24 ****        -4.6839   1.1525  -0.6091 H              1 S1                 0.0000
     25 ****        -3.1686   1.7646  -1.2981 H              1 S1                 0.0000
     26 ****        -4.3327  -0.9990  -1.7146 H              1 S1                 0.0000
     27 ****        -2.8755  -0.3385  -2.4390 H              1 S1                 0.0000
     28 ****        -2.9367  -2.7623  -0.5277 H              1 S1                 0.0000
     29 ****        -2.8236  -2.8977  -2.2504 H              1 S1                 0.0000
     30 ****        -2.1457  -2.2287   1.0909 H              1 S1                 0.0000
     31 ****        -0.6667  -2.2546   1.9593 H              1 S1                 0.0000
     32 ****         0.1273   0.2337   2.2075 H              1 S1                 0.0000
     33 ****         0.4274   2.6889   2.3817 H              1 S1                 0.0000
     34 ****         3.7126   4.4321   1.8307 H              1 S1                 0.0000
     35 ****         2.1791   4.5437   2.6963 H              1 S1                 0.0000
     36 ****         2.2070   4.6560   0.9315 H              1 S1                 0.0000
     37 ****         4.4870   2.2917   0.9649 H              1 S1                 0.0000
     38 ****         4.1850  -0.1641   0.7913 H              1 S1                 0.0000
     39 ****        -3.4526  -0.5769   0.3858 LP             1 S1                 0.0000
     40 ****        -2.0556  -0.0123  -0.2437 LP             1 S1                 0.0000
     41 ****         3.4880  -1.7688  -0.5806 LP             1 S1                 0.0000
     42 ****         3.3746  -1.7551  -2.3089 LP             1 S1                 0.0000
     43 ****        -1.9970  -2.1325  -3.7096 LP             1 S1                 0.0000
     44 ****        -0.4589  -1.9859  -4.4926 LP             1 S1                 0.0000
@<TRIPOS>BOND
    1    1    2 1     
    2    1   23 1     
    3    1   24 1     
    4    1   25 1     
    5    2    3 1     
    6    3    4 1     
    7    3   26 1     
    8    3   27 1     
    9    4    5 1     
   10    4   28 1     
   11    4   29 1     
   12    5   20 1     
   13    5    6 1     
   14    6    7 1     
   15    6    8 2     
   16    7   30 1     
   17    7   31 1     
   18    8    9 1     
   19    8   17 1     
   20    9   10 1     
   21   10   16 ar    
   22   10   11 ar    
   23   11   12 ar    
   24   11   32 1     
   25   12   13 ar    
   26   12   33 1     
   27   13   14 1     
   28   13   15 ar    
   29   14   34 1     
   30   14   35 1     
   31   14   36 1     
   32   15   16 ar    
   33   15   37 1     
   34   16   38 1     
   35   17   18 2     
   36   17   19 1     
   37   19   22 1     
   38   19   20 1     
   39   20   21 2     
   40    2   39 1     
   41    2   40 1     
   42   18   41 1     
   43   18   42 1     
   44   21   43 1     
   45   21   44 1     
@<TRIPOS>SUBSTRUCTURE
      1 S1             1
@<TRIPOS>SET
LONE_PAIRS      STATIC     ATOMS    <user>   **** ""
6 39 40 41 42 43 44
DONOR_HYDROGENS      STATIC     ATOMS    <user>   **** ""
3 30 31 22
ATOM$BLUE        STATIC     ATOMS    COLORGROUP SYSTEM
6 39 40 41 42 43 44
ATOM$RED        STATIC     ATOMS    COLORGROUP SYSTEM
3 30 31 22
