AV-unprocessed.smi:2163|AV-procd|sdf|8806|dock8
  -GOLD-   2272011593D 1   1.00000     0.00000
 Structure written by MMmdl.
 44 46  0  0  0  0  0  0  0  0  2 V2000
  149.5956  140.4440  155.3289 C   0  0  0  0  0  0  0  0  0  0  0  0
  150.3525  141.0229  156.4766 C   0  0  0  0  0  0  0  0  0  0  0  0
  150.3565  142.3318  156.8554 N   0  3  0  0  0  0  0  0  0  0  0  0
  151.1770  142.4976  157.9718 C   0  0  0  0  0  0  0  0  0  0  0  0
  151.4915  143.6349  158.7090 C   0  0  0  0  0  0  0  0  0  0  0  0
  152.3645  143.4588  159.8024 C   0  0  0  0  0  0  0  0  0  0  0  0
  152.8894  142.1909  160.1258 C   0  0  0  0  0  0  0  0  0  0  0  0
  152.5649  141.0452  159.3696 C   0  0  0  0  0  0  0  0  0  0  0  0
  151.7006  141.2272  158.2899 C   0  0  0  0  0  0  0  0  0  0  0  0
  151.1644  140.3488  157.3401 N   0  0  0  0  0  0  0  0  0  0  0  0
  151.5096  138.9195  157.3879 C   0  0  0  0  0  0  0  0  0  0  0  0
  151.0791  138.2492  158.7085 C   0  0  2  0  0  0  0  0  0  0  0  0
  151.9364  137.1821  159.0607 O   0  0  0  0  0  0  0  0  0  0  0  0
  149.6252  137.7502  158.7023 C   0  0  0  0  0  0  0  0  0  0  0  0
  149.1265  137.6918  160.0333 O   0  0  0  0  0  0  0  0  0  0  0  0
  148.4516  136.5569  160.4290 C   0  0  0  0  0  0  0  0  0  0  0  0
  148.2016  135.4432  159.5877 C   0  0  0  0  0  0  0  0  0  0  0  0
  147.5024  134.3223  160.0764 C   0  0  0  0  0  0  0  0  0  0  0  0
  147.0440  134.2962  161.4081 C   0  0  0  0  0  0  0  0  0  0  0  0
  146.2939  133.0892  161.9325 C   0  0  0  0  0  0  0  0  0  0  0  0
  144.9014  133.4116  162.2791 C   0  0  0  0  0  0  0  0  0  0  0  0
  143.8060  133.6655  162.5520 N   0  0  0  0  0  0  0  0  0  0  0  0
  147.2893  135.3987  162.2498 C   0  0  0  0  0  0  0  0  0  0  0  0
  147.9879  136.5191  161.7601 C   0  0  0  0  0  0  0  0  0  0  0  0
  149.0214  141.2178  154.8187 H   0  0  0  0  0  0  0  0  0  0  0  0
  148.9061  139.6766  155.6807 H   0  0  0  0  0  0  0  0  0  0  0  0
  150.2835  139.9939  154.6129 H   0  0  0  0  0  0  0  0  0  0  0  0
  151.0894  144.6070  158.4638 H   0  0  0  0  0  0  0  0  0  0  0  0
  152.6359  144.3131  160.4057 H   0  0  0  0  0  0  0  0  0  0  0  0
  153.5541  142.0943  160.9721 H   0  0  0  0  0  0  0  0  0  0  0  0
  152.9710  140.0791  159.6299 H   0  0  0  0  0  0  0  0  0  0  0  0
  151.0064  138.4379  156.5489 H   0  0  0  0  0  0  0  0  0  0  0  0
  152.5778  138.8023  157.2055 H   0  0  0  0  0  0  0  0  0  0  0  0
  151.1710  138.9815  159.5114 H   0  0  0  0  0  0  0  0  0  0  0  0
  152.7437  137.2753  158.5784 H   0  0  0  0  0  0  0  0  0  0  0  0
  149.0052  138.3953  158.0772 H   0  0  0  0  0  0  0  0  0  0  0  0
  149.6024  136.7482  158.2703 H   0  0  0  0  0  0  0  0  0  0  0  0
  148.5354  135.4230  158.5615 H   0  0  0  0  0  0  0  0  0  0  0  0
  147.3199  133.4806  159.4245 H   0  0  0  0  0  0  0  0  0  0  0  0
  146.2888  132.2973  161.1831 H   0  0  0  0  0  0  0  0  0  0  0  0
  146.7880  132.6959  162.8212 H   0  0  0  0  0  0  0  0  0  0  0  0
  146.9435  135.3874  163.2729 H   0  0  0  0  0  0  0  0  0  0  0  0
  148.1712  137.3589  162.4143 H   0  0  0  0  0  0  0  0  0  0  0  0
  149.8326  143.0574  156.3833 H   0  0  0  0  0  0  0  0  0  0  0  0
  1  2  1  0  0  0  0
  1 25  1  0  0  0  0
  1 26  1  0  0  0  0
  1 27  1  0  0  0  0
  2 10  1  0  0  0  0
  2  3  2  0  0  0  0
  3  4  1  0  0  0  0
  3 44  1  0  0  0  0
  4  9  2  0  0  0  0
  4  5  1  0  0  0  0
  5  6  2  0  0  0  0
  5 28  1  0  0  0  0
  6  7  1  0  0  0  0
  6 29  1  0  0  0  0
  7  8  2  0  0  0  0
  7 30  1  0  0  0  0
  8  9  1  0  0  0  0
  8 31  1  0  0  0  0
  9 10  1  0  0  0  0
 10 11  1  0  0  0  0
 11 12  1  0  0  0  0
 11 32  1  0  0  0  0
 11 33  1  0  0  0  0
 12 13  1  0  0  0  0
 12 14  1  0  0  0  0
 12 34  1  0  0  0  0
 13 35  1  0  0  0  0
 14 15  1  0  0  0  0
 14 36  1  0  0  0  0
 14 37  1  0  0  0  0
 15 16  1  0  0  0  0
 16 24  1  0  0  0  0
 16 17  2  0  0  0  0
 17 18  1  0  0  0  0
 17 38  1  0  0  0  0
 18 19  2  0  0  0  0
 18 39  1  0  0  0  0
 19 20  1  0  0  0  0
 19 23  1  0  0  0  0
 20 21  1  0  0  0  0
 20 40  1  0  0  0  0
 20 41  1  0  0  0  0
 21 22  3  0  0  0  0
 23 24  2  0  0  0  0
 23 42  1  0  0  0  0
 24 43  1  0  0  0  0
M  CHG  1   3   1
M  END
> <s_m_source_file>
AV-unprocessed.smi

> <i_m_source_file_index>
2163

> <i_lp_mmshare_version>
43012

> <i_f3d_flags>
0

> <s_epik_input>
W2NIXTFbY0hdW2NIXVtjSF1jKGMxMiluKGMobjIpW0NIM10pW0NIMl1bQ0BIXShbT0hdKVtDSDJdT2MzW2NIXVtjSF1jKFtDSDJdQyNOKVtjSF1bY0hdMw==

> <s_epik_cmdline>
J2VwaWtfcHl0aG9uJywgJy1waCcsICc3LjAnLCAnLXRuJywgJzgnLCAnLW1hJywgJzIwMCcsICctbWV0YWxfYmluZGluZycsICctaW1hZScsICc8aW5maWxlLm1hZT4nLCAnLW9tYWUnLCAnPG91dGZpbGUubWFlPic=

> <r_lp_tautomer_probability>
1

> <r_epik_Ionization_Penalty>
1.03158

> <r_epik_Ionization_Penalty_Charging>
1.03158

> <r_epik_Ionization_Penalty_Neutral>
2.3994e-06

> <r_epik_State_Penalty>
1.08278

> <r_epik_Charging_Adjusted_Penalty>
2.11436

> <i_epik_Tot_Q>
1

> <i_epik_Tot_abs_Q>
1

> <r_epik_Metal_State_Penalty>
5.07177

> <b_epik_Metal_Only>
0

> <s_lp_Force_Field>
OPLS_2005

> <r_lp_Energy>
21.0912

> <b_lp_Chiralities_Consistent>
1

> <s_lp_Variant>
AV-unprocessed.smi:2163-3

> <Gold.Version>
5.8.1

> <Gold.Id.Protein>
6NUR|6NUR_protein|mol2

> <Gold.PLP.Fitness>
52.8024

> <Gold.PLP.PLP>
-46.8397

> <Gold.PLP.part.hbond>
-3.3947

> <Gold.PLP.part.metal>
0.0000

> <Gold.PLP.part.buried>
-3.6627

> <Gold.PLP.part.nonpolar>
-40.4083

> <Gold.PLP.part.repulsive>
0.1282

> <Gold.PLP.ligand.clash>
0.0000

> <Gold.PLP.ligand.torsion>
0.9244

> <Gold.PLP.Chemscore.Hbond>
2.5618

> <Gold.PLP.Chemscore.CHOScore>
0.0000

> <Gold.PLP.Chemscore.Metal>
0.0000

> <Gold.Chemscore.Hbonds>
donor molecule, donor type, donor heavy atom, donor atom, acceptor molecule, acceptor atom, score
      L1  H     3    44       P1  8028  1.92
      P1  H  6896  6909       L1    13  0.47
      P1  H  6931  6943       L1    15  0.09

> <Gold.PLP.Chemscore.Internal.Correction>
0.1264

> <Gold.Rescore>
     Score         DG    S(hbond)    S(metal)    S(lipo)     H(rot)  DE(clash)    DE(int)     intcor
     16.51     -17.46       1.38        0.00     120.11       2.60       0.15       0.81       ----

> <Gold.Chemscore.Fitness>
16.5100

> <Gold.Chemscore.DG>
-17.4640

> <Gold.Chemscore.ZeroCoef>
-5.4800

> <Gold.Chemscore.Hbond>
1.3766

> <Gold.Chemscore.Metal>
0.0000

> <Gold.Chemscore.Lipo>
120.1084

> <Gold.Chemscore.Internal_Hbond>
0.0000

> <Gold.Chemscore.DEClash>
0.1461

> <Gold.Chemscore.DEInternal>
0.8078

> <Gold.Chemscore.Rot>
2.6041

> <Gold.Chemscore.Internal.Correction>
   9.000000E+99

> <Gold.Chemscore.Hbonds>
donor molecule, donor type, donor heavy atom, donor atom, acceptor molecule, acceptor atom, score
      L1  H     3    44       P1  8028  0.91
      P1  H  6896  6909       L1    13  0.42

> <Gold.Chemscore.Hbond.Weighted>
-4.5978

> <Gold.Chemscore.Metal.Weighted>
-0.0000

> <Gold.Chemscore.Lipo.Weighted>
-14.0527

> <Gold.Chemscore.Internal_Hbond.Weighted>
0.0000

> <Gold.Chemscore.DEClash.Weighted>
0.1461

> <Gold.Chemscore.DEInternal.Weighted>
0.8078

> <Gold.Chemscore.Rot.Weighted>
6.6665

> <Gold.Chemscore.Internal.Correction.Weighted>
   9.000000E+99

> <Gold.Protein.RotatedTorsions>
[ 6907 6896 6895 6894 ] final  122.52 input  -60.11 | X-H torsion
[ 7974 7965 7964 7962 ] final  -98.55 input  175.53 | X-H torsion
[ 8008 7997 7996 7995 ] final -151.64 input   59.86 | X-H torsion
[ 10167 10162 10161 10158 ] final  102.04 input  -65.29 | X-H torsion
[ 10718 10713 10712 10709 ] final   95.25 input   66.30 | X-H torsion
[ 10763 10752 10751 10750 ] final -107.35 input  -60.55 | X-H torsion
[ 11005 11000 10999 10996 ] final  -88.18 input  -57.11 | X-H torsion

> <Gold.Protein.ActiveResidues>
 VAL166  LYS551  ARG553  GLY616  TRP617  ASP618  TYR619  PRO620  LYS621  CYS622 
 ASP623  PHE694  ASN695  SER759  ASP760  ASP761  ALA762  ILE779  LEU786  VAL792 
 PHE793  MET794  SER795  GLU796  ALA797  LYS798  CYS799  TRP800  GLU811  SER814 

> <Gold.Protein.RotatedAtoms>
  152.4237  133.7158  159.6504 H   0  0  0  0  0  0  0  0  0  0  0  0  # atno 6907 bound_to 6896
  150.8113  133.8406  159.3187 H   0  0  0  0  0  0  0  0  0  0  0  0  # atno 6908 bound_to 6896
  151.6116  135.1042  160.0134 H   0  0  0  0  0  0  0  0  0  0  0  0  # atno 6909 bound_to 6896
  145.3191  140.9418  143.2726 H   0  0  0  0  0  0  0  0  0  0  0  0  # atno 7974 bound_to 7965
  155.6426  140.0703  157.2613 H   0  0  0  0  0  0  0  0  0  0  0  0  # atno 8008 bound_to 7997
  154.4180  140.1747  156.1639 H   0  0  0  0  0  0  0  0  0  0  0  0  # atno 8009 bound_to 7997
  155.9842  140.3351  155.6695 H   0  0  0  0  0  0  0  0  0  0  0  0  # atno 8010 bound_to 7997
  139.7385  144.7017  151.0612 H   0  0  0  0  0  0  0  0  0  0  0  0  # atno 10167 bound_to 10162
  157.6940  131.0539  150.4310 H   0  0  0  0  0  0  0  0  0  0  0  0  # atno 10718 bound_to 10713
  154.8070  135.4678  154.0417 H   0  0  0  0  0  0  0  0  0  0  0  0  # atno 10763 bound_to 10752
  153.1878  135.6850  153.8399 H   0  0  0  0  0  0  0  0  0  0  0  0  # atno 10764 bound_to 10752
  153.7927  135.3241  155.3358 H   0  0  0  0  0  0  0  0  0  0  0  0  # atno 10765 bound_to 10752
  141.1606  133.7555  156.9414 H   0  0  0  0  0  0  0  0  0  0  0  0  # atno 11005 bound_to 11000
  144.8954  139.4720  143.6658 LP  0  0  0  0  0  0  0  0  0  0  0  0  # atno 17320 bound_to 7965
  146.3089  139.7676  142.9035 LP  0  0  0  0  0  0  0  0  0  0  0  0  # atno 17321 bound_to 7965
  140.7782  143.4954  150.9839 LP  0  0  0  0  0  0  0  0  0  0  0  0  # atno 17342 bound_to 10162
  139.8642  143.7275  152.3171 LP  0  0  0  0  0  0  0  0  0  0  0  0  # atno 17343 bound_to 10162
  156.4676  130.4045  149.6537 LP  0  0  0  0  0  0  0  0  0  0  0  0  # atno 17370 bound_to 10713
  156.3630  130.7491  151.2465 LP  0  0  0  0  0  0  0  0  0  0  0  0  # atno 17371 bound_to 10713
  140.1319  134.9350  157.2348 LP  0  0  0  0  0  0  0  0  0  0  0  0  # atno 17394 bound_to 11000
  140.2943  134.3204  155.7306 LP  0  0  0  0  0  0  0  0  0  0  0  0  # atno 17395 bound_to 11000

$$$$
