#       Name:                AV-unprocessed.smi:1130
#       Creating user name   scv26
#       Creation time:       Fri Mar 27 03:41:42 2020


#       File generated by GOLD software.
#

@<TRIPOS>MOLECULE
AV-unprocessed.smi:1130
    44    45     1
SMALL
NO_CHARGES


@<TRIPOS>ATOM
      1 ****        -2.7858   6.4031   1.9321 C.3            1 S1                 0.0000
      2 ****        -2.2242   5.2653   1.1497 C.2            1 S1                 0.0000
      3 ****        -2.0737   5.3413  -0.1670 N.2            1 S1                 0.0000
      4 ****        -1.5269   4.0942  -0.5024 O.3            1 S1                 0.0000
      5 ****        -1.4336   3.4067   0.6612 C.2            1 S1                 0.0000
      6 ****        -0.8332   2.0410   0.6472 C.3            1 S1                 0.0000
      7 ****         0.7013   2.0781   0.7213 C.3            1 S1                 0.0000
      8 ****         1.2730   0.7372   0.7617 N.am           1 S1                 0.0000
      9 ****         1.4532  -0.0532  -0.3053 C.2            1 S1                 0.0000
     10 ****         1.1438   0.2586  -1.4554 O.2            1 S1                 0.0000
     11 ****         2.0099  -1.2241   0.0323 N.am           1 S1                 0.0000
     12 ****         2.3351  -2.2951  -0.9029 C.3            1 S1                 0.0000
     13 ****         1.0933  -3.1071  -1.3099 C.3            1 S1                 0.0000
     14 ****         0.3609  -3.7877  -0.1499 C.3            1 S1                 0.0000
     15 ****        -0.2160  -5.0547  -0.7673 C.3            1 S1                 0.0000
     16 ****         0.3529  -5.0754  -2.1872 C.3            1 S1                 0.0000
     17 ****         1.4671  -4.1986  -2.1349 O.3            1 S1                 0.0000
     18 ****        -1.8384   4.0941   1.7265 N.2            1 S1                 0.0000
     19 ****        -2.6142   7.3492   1.4174 H              1 S1                 0.0000
     20 ****        -2.3164   6.4580   2.9147 H              1 S1                 0.0000
     21 ****        -3.8595   6.2716   2.0672 H              1 S1                 0.0000
     22 ****        -1.2372   1.4753   1.4877 H              1 S1                 0.0000
     23 ****        -1.1593   1.5299  -0.2594 H              1 S1                 0.0000
     24 ****         1.1119   2.6354  -0.1226 H              1 S1                 0.0000
     25 ****         1.0158   2.6045   1.6229 H              1 S1                 0.0000
     26 ****         1.5597   0.3906   1.6656 H              1 S1                 0.0000
     27 ****         2.2277  -1.3872   1.0045 H              1 S1                 0.0000
     28 ****         2.8235  -1.8835  -1.7875 H              1 S1                 0.0000
     29 ****         3.0653  -2.9490  -0.4252 H              1 S1                 0.0000
     30 ****         0.3960  -2.4798  -1.8688 H              1 S1                 0.0000
     31 ****         1.0604  -4.0541   0.6436 H              1 S1                 0.0000
     32 ****        -0.4053  -3.1440   0.2828 H              1 S1                 0.0000
     33 ****         0.1107  -5.9298  -0.2046 H              1 S1                 0.0000
     34 ****        -1.3064  -5.0505  -0.7778 H              1 S1                 0.0000
     35 ****         0.6453  -6.0750  -2.5098 H              1 S1                 0.0000
     36 ****        -0.3759  -4.6865  -2.9001 H              1 S1                 0.0000
     37 ****        -2.2966   6.1043  -0.7738 LP             1 S1                 0.0000
     38 ****        -0.6220   4.2097  -0.9121 LP             1 S1                 0.0000
     39 ****        -2.1244   3.6133  -1.1440 LP             1 S1                 0.0000
     40 ****         0.7301   1.1507  -1.6375 LP             1 S1                 0.0000
     41 ****         1.3061  -0.3801  -2.2075 LP             1 S1                 0.0000
     42 ****         2.2578  -4.6700  -1.7443 LP             1 S1                 0.0000
     43 ****         1.6928  -3.8740  -3.0534 LP             1 S1                 0.0000
     44 ****        -1.8547   3.8238   2.6891 LP             1 S1                 0.0000
@<TRIPOS>BOND
    1    1    2 1     
    2    1   19 1     
    3    1   20 1     
    4    1   21 1     
    5    2   18 1     
    6    2    3 2     
    7    3    4 1     
    8    4    5 1     
    9    5    6 1     
   10    5   18 2     
   11    6    7 1     
   12    6   22 1     
   13    6   23 1     
   14    7    8 1     
   15    7   24 1     
   16    7   25 1     
   17    8    9 am    
   18    8   26 1     
   19    9   10 2     
   20    9   11 am    
   21   11   12 1     
   22   11   27 1     
   23   12   13 1     
   24   12   28 1     
   25   12   29 1     
   26   13   17 1     
   27   13   14 1     
   28   13   30 1     
   29   14   15 1     
   30   14   31 1     
   31   14   32 1     
   32   15   16 1     
   33   15   33 1     
   34   15   34 1     
   35   16   17 1     
   36   16   35 1     
   37   16   36 1     
   38    3   37 1     
   39    4   38 1     
   40    4   39 1     
   41   10   40 1     
   42   10   41 1     
   43   17   42 1     
   44   17   43 1     
   45   18   44 1     
@<TRIPOS>SUBSTRUCTURE
      1 S1             1
@<TRIPOS>SET
LONE_PAIRS      STATIC     ATOMS    <user>   **** ""
8 37 38 39 40 41 42 43 44
DONOR_HYDROGENS      STATIC     ATOMS    <user>   **** ""
2 26 27
ATOM$BLUE        STATIC     ATOMS    COLORGROUP SYSTEM
8 37 38 39 40 41 42 43 44
ATOM$RED        STATIC     ATOMS    COLORGROUP SYSTEM
2 26 27
