AV-unprocessed.smi:2753|AV-procd|sdf|10611|dock2
  -GOLD-   2272015 63D 1   1.00000     0.00000
 Structure written by MMmdl.
 28 29  0  0  0  0  0  0  0  0  2 V2000
  150.4787  144.0370  158.8387 F   0  0  0  0  0  0  0  0  0  0  0  0
  151.5847  143.5380  158.2880 C   0  0  0  0  0  0  0  0  0  0  0  0
  152.1313  144.4977  157.5426 F   0  0  0  0  0  0  0  0  0  0  0  0
  152.4353  143.2605  159.2752 F   0  0  0  0  0  0  0  0  0  0  0  0
  151.2908  142.3224  157.4721 C   0  0  0  0  0  0  0  0  0  0  0  0
  151.7283  141.0213  157.5813 C   0  0  0  0  0  0  0  0  0  0  0  0
  151.1665  140.2467  156.5647 N   0  0  0  0  0  0  0  0  0  0  0  0
  150.4083  141.0919  155.8713 C   0  0  0  0  0  0  0  0  0  0  0  0
  149.5902  140.7374  154.6681 C   0  0  2  0  0  0  0  0  0  0  0  0
  148.1482  141.2698  154.7730 C   0  0  0  0  0  0  0  0  0  0  0  0
  147.3331  140.8693  153.5335 C   0  0  0  0  0  0  0  0  0  0  0  0
  147.3879  139.3494  153.3077 C   0  0  0  0  0  0  0  0  0  0  0  0
  148.7890  138.8877  153.2017 N   0  3  0  0  0  0  0  0  0  0  0  0
  149.5981  139.2188  154.3955 C   0  0  0  0  0  0  0  0  0  0  0  0
  150.4493  142.3322  156.3725 N   0  0  0  0  0  0  0  0  0  0  0  0
  149.9534  143.1366  156.0157 H   0  0  0  0  0  0  0  0  0  0  0  0
  152.4001  140.5854  158.3062 H   0  0  0  0  0  0  0  0  0  0  0  0
  150.0554  141.2249  153.8092 H   0  0  0  0  0  0  0  0  0  0  0  0
  147.6673  140.8697  155.6668 H   0  0  0  0  0  0  0  0  0  0  0  0
  148.1524  142.3551  154.8813 H   0  0  0  0  0  0  0  0  0  0  0  0
  146.2981  141.1925  153.6481 H   0  0  0  0  0  0  0  0  0  0  0  0
  147.7227  141.3856  152.6552 H   0  0  0  0  0  0  0  0  0  0  0  0
  146.8981  138.8256  154.1295 H   0  0  0  0  0  0  0  0  0  0  0  0
  146.8540  139.0818  152.3955 H   0  0  0  0  0  0  0  0  0  0  0  0
  148.7945  137.8861  153.0706 H   0  0  0  0  0  0  0  0  0  0  0  0
  150.6177  138.8658  154.2377 H   0  0  0  0  0  0  0  0  0  0  0  0
  149.2013  138.6732  155.2529 H   0  0  0  0  0  0  0  0  0  0  0  0
  149.2111  139.3241  152.3944 H   0  0  0  0  0  0  0  0  0  0  0  0
  1  2  1  0  0  0  0
  2  3  1  0  0  0  0
  2  4  1  0  0  0  0
  2  5  1  0  0  0  0
  5  6  2  0  0  0  0
  5 15  1  0  0  0  0
  6 17  1  0  0  0  0
  6  7  1  0  0  0  0
  7  8  2  0  0  0  0
  8 15  1  0  0  0  0
  8  9  1  0  0  0  0
  9 14  1  0  0  0  0
  9 10  1  0  0  0  0
  9 18  1  0  0  0  0
 10 11  1  0  0  0  0
 10 19  1  0  0  0  0
 10 20  1  0  0  0  0
 11 12  1  0  0  0  0
 11 21  1  0  0  0  0
 11 22  1  0  0  0  0
 12 13  1  0  0  0  0
 12 23  1  0  0  0  0
 12 24  1  0  0  0  0
 13 14  1  0  0  0  0
 13 25  1  0  0  0  0
 13 28  1  0  0  0  0
 14 26  1  0  0  0  0
 14 27  1  0  0  0  0
 15 16  1  0  0  0  0
M  CHG  1  13   1
M  END
> <s_m_source_file>
AV-unprocessed.smi

> <i_m_source_file_index>
2753

> <i_lp_mmshare_version>
43012

> <i_f3d_flags>
0

> <s_epik_input>
RkMoRikoRiljMVtjSF1bbkhdYyhuMSlbQ0BASF0yW0NIMl1bQ0gyXVtDSDJdW05IXVtDSDJdMg==

> <s_epik_cmdline>
J2VwaWtfcHl0aG9uJywgJy1waCcsICc3LjAnLCAnLXRuJywgJzgnLCAnLW1hJywgJzIwMCcsICctbWV0YWxfYmluZGluZycsICctaW1hZScsICc8aW5maWxlLm1hZT4nLCAnLW9tYWUnLCAnPG91dGZpbGUubWFlPic=

> <r_lp_tautomer_probability>
0.5

> <r_epik_Ionization_Penalty>
0.0187699

> <r_epik_Ionization_Penalty_Charging>
0.00116734

> <r_epik_Ionization_Penalty_Neutral>
0.0176026

> <r_epik_State_Penalty>
1.08926

> <r_epik_Charging_Adjusted_Penalty>
1.09042

> <i_epik_Tot_Q>
1

> <i_epik_Tot_abs_Q>
1

> <r_epik_Metal_State_Penalty>
1.1514

> <b_epik_Metal_Only>
0

> <s_lp_Force_Field>
OPLS_2005

> <r_lp_Energy>
13.0643

> <b_lp_Chiralities_Consistent>
1

> <s_lp_Variant>
AV-unprocessed.smi:2753-3

> <Gold.Version>
5.8.1

> <Gold.Id.Protein>
6NUR|6NUR_protein|mol2

> <Gold.PLP.Fitness>
47.5249

> <Gold.PLP.PLP>
-36.1893

> <Gold.PLP.part.hbond>
-2.8344

> <Gold.PLP.part.metal>
0.0000

> <Gold.PLP.part.buried>
-4.5313

> <Gold.PLP.part.nonpolar>
-29.6466

> <Gold.PLP.part.repulsive>
0.1734

> <Gold.PLP.ligand.clash>
0.0000

> <Gold.PLP.ligand.torsion>
0.1624

> <Gold.PLP.Chemscore.Hbond>
3.8775

> <Gold.PLP.Chemscore.CHOScore>
0.0000

> <Gold.PLP.Chemscore.Metal>
0.0000

> <Gold.Chemscore.Hbonds>
donor molecule, donor type, donor heavy atom, donor atom, acceptor molecule, acceptor atom, score
      L1  H    13    25       P1  7948  1.97
      L1  H    13    28       P1  7957  0.86
      L1  H    15    16       P1  8028  1.00

> <Gold.PLP.Chemscore.Internal.Correction>
0.0279

> <Gold.Rescore>
     Score         DG    S(hbond)    S(metal)    S(lipo)     H(rot)  DE(clash)    DE(int)     intcor
     19.38     -19.57       2.91        0.00      59.09       1.00       0.04       0.15       ----

> <Gold.Chemscore.Fitness>
19.3805

> <Gold.Chemscore.DG>
-19.5679

> <Gold.Chemscore.ZeroCoef>
-5.4800

> <Gold.Chemscore.Hbond>
2.9144

> <Gold.Chemscore.Metal>
0.0000

> <Gold.Chemscore.Lipo>
59.0933

> <Gold.Chemscore.Internal_Hbond>
0.0000

> <Gold.Chemscore.DEClash>
0.0417

> <Gold.Chemscore.DEInternal>
0.1456

> <Gold.Chemscore.Rot>
1.0000

> <Gold.Chemscore.Internal.Correction>
   9.000000E+99

> <Gold.Chemscore.Hbonds>
donor molecule, donor type, donor heavy atom, donor atom, acceptor molecule, acceptor atom, score
      L1  H    13    25       P1  7948  0.87
      L1  H    13    28       P1  7957  0.84
      L1  H    15    16       P1  8028  0.99

> <Gold.Chemscore.Hbond.Weighted>
-9.7340

> <Gold.Chemscore.Metal.Weighted>
-0.0000

> <Gold.Chemscore.Lipo.Weighted>
-6.9139

> <Gold.Chemscore.Internal_Hbond.Weighted>
0.0000

> <Gold.Chemscore.DEClash.Weighted>
0.0417

> <Gold.Chemscore.DEInternal.Weighted>
0.1456

> <Gold.Chemscore.Rot.Weighted>
2.5600

> <Gold.Chemscore.Internal.Correction.Weighted>
   9.000000E+99

> <Gold.Protein.RotatedTorsions>
[ 6907 6896 6895 6894 ] final  120.66 input  -60.11 | X-H torsion
[ 7974 7965 7964 7962 ] final  178.03 input  175.53 | X-H torsion
[ 8008 7997 7996 7995 ] final  146.95 input   59.86 | X-H torsion
[ 10167 10162 10161 10158 ] final  160.97 input  -65.29 | X-H torsion
[ 10718 10713 10712 10709 ] final   -1.55 input   66.30 | X-H torsion
[ 10763 10752 10751 10750 ] final  -90.21 input  -60.55 | X-H torsion
[ 11005 11000 10999 10996 ] final  121.76 input  -57.11 | X-H torsion

> <Gold.Protein.ActiveResidues>
 VAL166  LYS551  ARG553  GLY616  TRP617  ASP618  TYR619  PRO620  LYS621  CYS622 
 ASP623  PHE694  ASN695  SER759  ASP760  ASP761  ALA762  ILE779  LEU786  VAL792 
 PHE793  MET794  SER795  GLU796  ALA797  LYS798  CYS799  TRP800  GLU811  SER814 

> <Gold.Protein.RotatedAtoms>
  152.4381  133.7398  159.6633 H   0  0  0  0  0  0  0  0  0  0  0  0  # atno 6907 bound_to 6896
  150.8268  133.8148  159.3121 H   0  0  0  0  0  0  0  0  0  0  0  0  # atno 6908 bound_to 6896
  151.5814  135.1060  160.0070 H   0  0  0  0  0  0  0  0  0  0  0  0  # atno 6909 bound_to 6896
  144.7161  140.0336  143.6438 H   0  0  0  0  0  0  0  0  0  0  0  0  # atno 7974 bound_to 7965
  156.2840  140.2168  156.5460 H   0  0  0  0  0  0  0  0  0  0  0  0  # atno 8008 bound_to 7997
  154.7330  140.0494  157.0766 H   0  0  0  0  0  0  0  0  0  0  0  0  # atno 8009 bound_to 7997
  155.0328  140.3137  155.4755 H   0  0  0  0  0  0  0  0  0  0  0  0  # atno 8010 bound_to 7997
  139.4845  144.4582  151.8740 H   0  0  0  0  0  0  0  0  0  0  0  0  # atno 10167 bound_to 10162
  156.8040  130.5402  149.5717 H   0  0  0  0  0  0  0  0  0  0  0  0  # atno 10718 bound_to 10713
  154.6633  135.5313  153.8046 H   0  0  0  0  0  0  0  0  0  0  0  0  # atno 10763 bound_to 10752
  153.0455  135.6511  154.0837 H   0  0  0  0  0  0  0  0  0  0  0  0  # atno 10764 bound_to 10752
  154.0744  135.2952  155.3282 H   0  0  0  0  0  0  0  0  0  0  0  0  # atno 10765 bound_to 10752
  139.9239  134.9640  156.8007 H   0  0  0  0  0  0  0  0  0  0  0  0  # atno 11005 bound_to 11000
  146.0082  139.3147  143.0886 LP  0  0  0  0  0  0  0  0  0  0  0  0  # atno 17320 bound_to 7965
  145.8713  140.9418  143.0649 LP  0  0  0  0  0  0  0  0  0  0  0  0  # atno 17321 bound_to 7965
  140.4043  144.2453  150.5891 LP  0  0  0  0  0  0  0  0  0  0  0  0  # atno 17342 bound_to 10162
  140.5028  143.2313  151.8653 LP  0  0  0  0  0  0  0  0  0  0  0  0  # atno 17343 bound_to 10162
  156.1084  130.6022  151.0008 LP  0  0  0  0  0  0  0  0  0  0  0  0  # atno 17370 bound_to 10713
  157.6539  131.0892  150.7990 LP  0  0  0  0  0  0  0  0  0  0  0  0  # atno 17371 bound_to 10713
  140.6392  133.9834  155.7699 LP  0  0  0  0  0  0  0  0  0  0  0  0  # atno 17394 bound_to 11000
  141.0783  134.0102  157.3425 LP  0  0  0  0  0  0  0  0  0  0  0  0  # atno 17395 bound_to 11000

$$$$
