#       Name:                AV-unprocessed.smi:224
#       Creating user name   scv26
#       Creation time:       Thu Mar 26 20:17:20 2020


#       File generated by GOLD software.
#

@<TRIPOS>MOLECULE
AV-unprocessed.smi:224
    66    69     1
SMALL
NO_CHARGES


@<TRIPOS>ATOM
      1 ****        -4.8133   2.7060   4.5628 C.3            1 S1                 0.0000
      2 ****        -3.3304   2.3558   4.3831 C.3            1 S1                 0.0000
      3 ****        -2.7871   2.0700   5.6562 O.3            1 S1                 0.0000
      4 ****        -3.1273   1.1356   3.4655 C.3            1 S1                 0.0000
      5 ****        -1.6856   0.9069   3.1658 N.4            1 S1                 1.0000
      6 ****        -1.2472   1.7311   2.0040 C.3            1 S1                 0.0000
      7 ****         0.2477   1.5610   1.7047 C.3            1 S1                 0.0000
      8 ****         0.5592   0.1536   1.5007 N.3            1 S1                 0.0000
      9 ****         0.4037  -0.3239   0.2370 C.ar           1 S1                 0.0000
     10 ****        -0.4379  -1.3670   0.0064 N.ar           1 S1                 0.0000
     11 ****        -0.6103  -1.8383  -1.2318 C.ar           1 S1                 0.0000
     12 ****        -0.0450  -1.4248  -2.3667 N.ar           1 S1                 0.0000
     13 ****         0.8126  -0.3887  -2.1437 C.ar           1 S1                 0.0000
     14 ****         1.0915   0.2186  -0.8862 C.ar           1 S1                 0.0000
     15 ****         2.0219   1.2379  -1.0523 N.2            1 S1                 0.0000
     16 ****         2.2724   1.2377  -2.3331 C.2            1 S1                 0.0000
     17 ****         1.5939   0.2888  -3.0637 N.pl3          1 S1                 0.0000
     18 ****         1.6892   0.0641  -4.4982 C.3            1 S1                 0.0000
     19 ****         2.8875  -0.8264  -4.9011 C.3            1 S1                 0.0000
     20 ****         4.0910  -0.1619  -4.5558 O.3            1 S1                 0.0000
     21 ****         2.8894  -2.2048  -4.2462 C.3            1 S1                 0.0000
     22 ****         3.5531  -3.0798  -5.3000 C.3            1 S1                 0.0000
     23 ****         3.0097  -2.5738  -6.5070 O.3            1 S1                 0.0000
     24 ****         2.9285  -1.1554  -6.4070 C.3            1 S1                 0.0000
     25 ****         0.1898  -0.6876   2.6350 C.3            1 S1                 0.0000
     26 ****        -1.2980  -0.5347   3.0401 C.3            1 S1                 0.0000
     27 ****        -1.5132  -1.3221   4.3494 C.3            1 S1                 0.0000
     28 ****        -5.2740   2.9563   3.6069 H              1 S1                 0.0000
     29 ****        -4.9374   3.5664   5.2214 H              1 S1                 0.0000
     30 ****        -5.3716   1.8737   4.9932 H              1 S1                 0.0000
     31 ****        -2.8147   3.2271   3.9796 H              1 S1                 0.0000
     32 ****        -3.2945   1.3794   6.0556 H              1 S1                 0.0000
     33 ****        -3.5955   0.2735   3.9345 H              1 S1                 0.0000
     34 ****        -3.6730   1.2731   2.5305 H              1 S1                 0.0000
     35 ****        -1.8254   1.4500   1.1219 H              1 S1                 0.0000
     36 ****        -1.4552   2.7843   2.1916 H              1 S1                 0.0000
     37 ****         0.5216   2.1695   0.8440 H              1 S1                 0.0000
     38 ****         0.8401   1.9313   2.5421 H              1 S1                 0.0000
     39 ****        -1.2989  -2.6650  -1.3267 H              1 S1                 0.0000
     40 ****         2.9699   1.9291  -2.7836 H              1 S1                 0.0000
     41 ****         0.7558  -0.3881  -4.8360 H              1 S1                 0.0000
     42 ****         1.7551   1.0336  -4.9941 H              1 S1                 0.0000
     43 ****         4.8185  -0.7072  -4.8139 H              1 S1                 0.0000
     44 ****         3.3927  -2.2342  -3.2788 H              1 S1                 0.0000
     45 ****         1.8669  -2.5544  -4.0998 H              1 S1                 0.0000
     46 ****         4.6361  -2.9474  -5.2973 H              1 S1                 0.0000
     47 ****         3.3317  -4.1395  -5.1708 H              1 S1                 0.0000
     48 ****         2.0358  -0.8134  -6.9316 H              1 S1                 0.0000
     49 ****         3.7898  -0.7050  -6.9030 H              1 S1                 0.0000
     50 ****         0.4295  -1.7323   2.4309 H              1 S1                 0.0000
     51 ****         0.8254  -0.3971   3.4726 H              1 S1                 0.0000
     52 ****        -1.9204  -0.9779   2.2618 H              1 S1                 0.0000
     53 ****        -1.1029  -2.3289   4.2646 H              1 S1                 0.0000
     54 ****        -2.5626  -1.4463   4.6098 H              1 S1                 0.0000
     55 ****        -1.0141  -0.8366   5.1887 H              1 S1                 0.0000
     56 ****        -1.1760   1.2498   3.9678 H              1 S1                 0.0000
     57 ****        -2.8242   2.8888   6.2291 LP             1 S1                 0.0000
     58 ****        -1.8367   1.7749   5.5576 LP             1 S1                 0.0000
     59 ****         1.5567   0.0861   1.5215 LP             1 S1                 0.0000
     60 ****        -0.9314  -1.7844   0.7694 LP             1 S1                 0.0000
     61 ****        -0.2267  -1.8235  -3.2656 LP             1 S1                 0.0000
     62 ****         2.4106   1.8350  -0.3506 LP             1 S1                 0.0000
     63 ****         4.1194  -0.0065  -3.5684 LP             1 S1                 0.0000
     64 ****         4.1410   0.7155  -5.0329 LP             1 S1                 0.0000
     65 ****         2.0964  -2.9546  -6.6513 LP             1 S1                 0.0000
     66 ****         3.6004  -2.8246  -7.2740 LP             1 S1                 0.0000
@<TRIPOS>BOND
    1    1    2 1     
    2    1   28 1     
    3    1   29 1     
    4    1   30 1     
    5    2    3 1     
    6    2    4 1     
    7    2   31 1     
    8    3   32 1     
    9    4    5 1     
   10    4   33 1     
   11    4   34 1     
   12    5   26 1     
   13    5    6 1     
   14    5   56 1     
   15    6    7 1     
   16    6   35 1     
   17    6   36 1     
   18    7    8 1     
   19    7   37 1     
   20    7   38 1     
   21    8    9 1     
   22    8   25 1     
   23    9   14 ar    
   24    9   10 ar    
   25   10   11 ar    
   26   11   12 ar    
   27   11   39 1     
   28   12   13 ar    
   29   13   17 1     
   30   13   14 ar    
   31   14   15 1     
   32   15   16 2     
   33   16   17 1     
   34   16   40 1     
   35   17   18 1     
   36   18   19 1     
   37   18   41 1     
   38   18   42 1     
   39   19   24 1     
   40   19   20 1     
   41   19   21 1     
   42   20   43 1     
   43   21   22 1     
   44   21   44 1     
   45   21   45 1     
   46   22   23 1     
   47   22   46 1     
   48   22   47 1     
   49   23   24 1     
   50   24   48 1     
   51   24   49 1     
   52   25   26 1     
   53   25   50 1     
   54   25   51 1     
   55   26   27 1     
   56   26   52 1     
   57   27   53 1     
   58   27   54 1     
   59   27   55 1     
   60    3   57 1     
   61    3   58 1     
   62    8   59 1     
   63   10   60 1     
   64   12   61 1     
   65   15   62 1     
   66   20   63 1     
   67   20   64 1     
   68   23   65 1     
   69   23   66 1     
@<TRIPOS>SUBSTRUCTURE
      1 S1             1
@<TRIPOS>SET
LONE_PAIRS      STATIC     ATOMS    <user>   **** ""
10 57 58 59 60 61 62 63 64 65 66
DONOR_HYDROGENS      STATIC     ATOMS    <user>   **** ""
3 32 56 43
ATOM$BLUE        STATIC     ATOMS    COLORGROUP SYSTEM
10 57 58 59 60 61 62 63 64 65 66
ATOM$RED        STATIC     ATOMS    COLORGROUP SYSTEM
3 32 56 43
