AV-unprocessed.smi:496|AV-procd|sdf|2723|dock7
  -GOLD-   2262023173D 1   1.00000     0.00000
 Structure written by MMmdl.
 42 44  0  0  0  0  0  0  0  0  3 V2000
  149.1861  136.9546  159.1444 C   0  0  0  0  0  0  0  0  0  0  0  0
  150.3055  137.6467  158.6197 O   0  0  0  0  0  0  0  0  0  0  0  0
  150.0054  138.9941  158.3005 C   0  0  0  0  0  0  0  0  0  0  0  0
  151.3141  139.7400  158.0124 C   0  0  0  0  0  0  0  0  0  0  0  0
  151.0668  141.1362  157.6029 N   0  0  0  0  0  0  0  0  0  0  0  0
  150.3478  141.6680  156.5613 C   0  0  0  0  0  0  0  0  0  0  0  0
  149.5587  140.9461  155.5001 C   0  0  1  0  0  0  0  0  0  0  0  0
  150.4336  139.8789  154.8262 C   0  0  0  0  0  0  0  0  0  0  0  0
  148.3649  140.3134  156.0649 N   0  5  0  0  0  0  0  0  0  0  0  0
  147.2750  140.9924  156.5216 C   0  0  0  0  0  0  0  0  0  0  0  0
  146.7344  140.9596  157.6322 O   0  0  0  0  0  0  0  0  0  0  0  0
  146.6969  141.8855  155.4897 C   0  0  0  0  0  0  0  0  0  0  0  0
  147.0911  142.1078  154.1967 C   0  0  0  0  0  0  0  0  0  0  0  0
  146.1918  143.0649  153.6504 C   0  0  0  0  0  0  0  0  0  0  0  0
  145.3072  143.3601  154.6471 C   0  0  0  0  0  0  0  0  0  0  0  0
  145.5989  142.6531  155.7719 O   0  0  0  0  0  0  0  0  0  0  0  0
  150.4592  143.0246  156.6571 N   0  3  0  0  0  0  0  0  0  0  0  0
  151.2634  143.3675  157.7417 C   0  0  0  0  0  0  0  0  0  0  0  0
  151.6653  144.6107  158.2195 C   0  0  0  0  0  0  0  0  0  0  0  0
  152.5016  144.6112  159.3547 C   0  0  0  0  0  0  0  0  0  0  0  0
  152.9066  143.4080  159.9680 C   0  0  0  0  0  0  0  0  0  0  0  0
  152.4914  142.1538  159.4736 C   0  0  0  0  0  0  0  0  0  0  0  0
  151.6617  142.1611  158.3518 C   0  0  0  0  0  0  0  0  0  0  0  0
  149.4620  135.9231  159.3633 H   0  0  0  0  0  0  0  0  0  0  0  0
  148.3612  136.9384  158.4309 H   0  0  0  0  0  0  0  0  0  0  0  0
  148.8389  137.4135  160.0711 H   0  0  0  0  0  0  0  0  0  0  0  0
  149.3474  139.0320  157.4308 H   0  0  0  0  0  0  0  0  0  0  0  0
  149.4812  139.4694  159.1314 H   0  0  0  0  0  0  0  0  0  0  0  0
  151.9501  139.7456  158.8979 H   0  0  0  0  0  0  0  0  0  0  0  0
  151.8905  139.2355  157.2371 H   0  0  0  0  0  0  0  0  0  0  0  0
  149.2970  141.6865  154.7430 H   0  0  0  0  0  0  0  0  0  0  0  0
  151.3230  140.3278  154.3829 H   0  0  0  0  0  0  0  0  0  0  0  0
  149.8917  139.3702  154.0280 H   0  0  0  0  0  0  0  0  0  0  0  0
  150.7645  139.1226  155.5393 H   0  0  0  0  0  0  0  0  0  0  0  0
  147.9290  141.6377  153.7035 H   0  0  0  0  0  0  0  0  0  0  0  0
  146.1924  143.4833  152.6550 H   0  0  0  0  0  0  0  0  0  0  0  0
  144.4536  144.0171  154.7235 H   0  0  0  0  0  0  0  0  0  0  0  0
  151.3577  145.5322  157.7471 H   0  0  0  0  0  0  0  0  0  0  0  0
  152.8408  145.5528  159.7613 H   0  0  0  0  0  0  0  0  0  0  0  0
  153.5497  143.4471  160.8353 H   0  0  0  0  0  0  0  0  0  0  0  0
  152.8111  141.2392  159.9499 H   0  0  0  0  0  0  0  0  0  0  0  0
  150.0233  143.6584  155.9994 H   0  0  0  0  0  0  0  0  0  0  0  0
  1  2  1  0  0  0  0
  1 24  1  0  0  0  0
  1 25  1  0  0  0  0
  1 26  1  0  0  0  0
  2  3  1  0  0  0  0
  3  4  1  0  0  0  0
  3 27  1  0  0  0  0
  3 28  1  0  0  0  0
  4  5  1  0  0  0  0
  4 29  1  0  0  0  0
  4 30  1  0  0  0  0
  5 23  1  0  0  0  0
  5  6  1  0  0  0  0
  6  7  1  0  0  0  0
  6 17  2  0  0  0  0
  7  8  1  0  0  0  0
  7  9  1  0  0  0  0
  7 31  1  0  0  0  0
  8 32  1  0  0  0  0
  8 33  1  0  0  0  0
  8 34  1  0  0  0  0
  9 10  1  0  0  0  0
 10 11  2  0  0  0  0
 10 12  1  0  0  0  0
 12 16  1  0  0  0  0
 12 13  2  0  0  0  0
 13 14  1  0  0  0  0
 13 35  1  0  0  0  0
 14 15  2  0  0  0  0
 14 36  1  0  0  0  0
 15 16  1  0  0  0  0
 15 37  1  0  0  0  0
 17 18  1  0  0  0  0
 17 42  1  0  0  0  0
 18 23  2  0  0  0  0
 18 19  1  0  0  0  0
 19 20  2  0  0  0  0
 19 38  1  0  0  0  0
 20 21  1  0  0  0  0
 20 39  1  0  0  0  0
 21 22  2  0  0  0  0
 21 40  1  0  0  0  0
 22 23  1  0  0  0  0
 22 41  1  0  0  0  0
M  CHG  1   9  -1
M  CHG  1  17   1
M  END
> <s_m_source_file>
AV-unprocessed.smi

> <i_m_source_file_index>
496

> <i_lp_mmshare_version>
43012

> <i_f3d_flags>
0

> <s_epik_input>
W2NIXTFbY0hdW2NIXVtjSF1jKGMxMiluKFtDSDJdW0NIMl1PW0NIM10pYyhuMilbQ0BIXShbQ0gzXSlbTkhdQyg9TyljM1tjSF1bY0hdW2NIXW8z

> <s_epik_cmdline>
J2VwaWtfcHl0aG9uJywgJy1waCcsICc3LjAnLCAnLXRuJywgJzgnLCAnLW1hJywgJzIwMCcsICctbWV0YWxfYmluZGluZycsICctaW1hZScsICc8aW5maWxlLm1hZT4nLCAnLW9tYWUnLCAnPG91dGZpbGUubWFlPic=

> <r_epik_Ionization_Penalty>
6.2189

> <r_epik_Ionization_Penalty_Charging>
6.2189

> <r_epik_Ionization_Penalty_Neutral>
2.56052e-12

> <r_epik_State_Penalty>
7.14475

> <r_epik_Charging_Adjusted_Penalty>
13.3636

> <i_epik_Tot_Q>
0

> <i_epik_Tot_abs_Q>
2

> <r_epik_Metal_State_Penalty>
3.17915

> <b_epik_Metal_Only>
1

> <s_lp_Force_Field>
OPLS_2005

> <r_lp_Energy>
11.4028

> <b_lp_Chiralities_Consistent>
1

> <s_lp_Variant>
AV-unprocessed.smi:496-8

> <Gold.Version>
5.8.1

> <Gold.Id.Protein>
6NUR|6NUR_protein|mol2

> <Gold.PLP.Fitness>
51.8574

> <Gold.PLP.PLP>
-47.3189

> <Gold.PLP.part.hbond>
-0.9432

> <Gold.PLP.part.metal>
0.0000

> <Gold.PLP.part.buried>
-6.6247

> <Gold.PLP.part.nonpolar>
-40.4619

> <Gold.PLP.part.repulsive>
0.2397

> <Gold.PLP.ligand.clash>
0.0000

> <Gold.PLP.ligand.torsion>
0.8151

> <Gold.PLP.Chemscore.Hbond>
2.0000

> <Gold.PLP.Chemscore.CHOScore>
0.0000

> <Gold.PLP.Chemscore.Metal>
0.0000

> <Gold.Chemscore.Hbonds>
donor molecule, donor type, donor heavy atom, donor atom, acceptor molecule, acceptor atom, score
      L1  H    17    42       P1  8028  2.00

> <Gold.PLP.Chemscore.Internal.Correction>
0.1686

> <Gold.Rescore>
     Score         DG    S(hbond)    S(metal)    S(lipo)     H(rot)  DE(clash)    DE(int)     intcor
     16.20     -17.33       0.99        0.00     113.09       1.83       0.01       1.12       ----

> <Gold.Chemscore.Fitness>
16.2007

> <Gold.Chemscore.DG>
-17.3343

> <Gold.Chemscore.ZeroCoef>
-5.4800

> <Gold.Chemscore.Hbond>
0.9937

> <Gold.Chemscore.Metal>
0.0000

> <Gold.Chemscore.Lipo>
113.0860

> <Gold.Chemscore.Internal_Hbond>
0.0000

> <Gold.Chemscore.DEClash>
0.0092

> <Gold.Chemscore.DEInternal>
1.1244

> <Gold.Chemscore.Rot>
1.8343

> <Gold.Chemscore.Internal.Correction>
   9.000000E+99

> <Gold.Chemscore.Hbonds>
donor molecule, donor type, donor heavy atom, donor atom, acceptor molecule, acceptor atom, score
      L1  H    17    42       P1  8028  0.92

> <Gold.Chemscore.Hbond.Weighted>
-3.3190

> <Gold.Chemscore.Metal.Weighted>
-0.0000

> <Gold.Chemscore.Lipo.Weighted>
-13.2311

> <Gold.Chemscore.Internal_Hbond.Weighted>
0.0000

> <Gold.Chemscore.DEClash.Weighted>
0.0092

> <Gold.Chemscore.DEInternal.Weighted>
1.1244

> <Gold.Chemscore.Rot.Weighted>
4.6958

> <Gold.Chemscore.Internal.Correction.Weighted>
   9.000000E+99

> <Gold.Protein.RotatedTorsions>
[ 6907 6896 6895 6894 ] final   33.64 input  -60.11 | X-H torsion
[ 7974 7965 7964 7962 ] final   92.70 input  175.53 | X-H torsion
[ 8008 7997 7996 7995 ] final -130.36 input   59.86 | X-H torsion
[ 10167 10162 10161 10158 ] final -178.05 input  -65.29 | X-H torsion
[ 10718 10713 10712 10709 ] final  130.84 input   66.30 | X-H torsion
[ 10763 10752 10751 10750 ] final -120.10 input  -60.55 | X-H torsion
[ 11005 11000 10999 10996 ] final  145.55 input  -57.11 | X-H torsion

> <Gold.Protein.ActiveResidues>
 VAL166  LYS551  ARG553  GLY616  TRP617  ASP618  TYR619  PRO620  LYS621  CYS622 
 ASP623  PHE694  ASN695  SER759  ASP760  ASP761  ALA762  ILE779  LEU786  VAL792 
 PHE793  MET794  SER795  GLU796  ALA797  LYS798  CYS799  TRP800  GLU811  SER814 

> <Gold.Protein.RotatedAtoms>
  152.0913  134.9405  160.0571 H   0  0  0  0  0  0  0  0  0  0  0  0  # atno 6907 bound_to 6896
  152.0655  133.4077  159.4445 H   0  0  0  0  0  0  0  0  0  0  0  0  # atno 6908 bound_to 6896
  150.6837  134.3071  159.4774 H   0  0  0  0  0  0  0  0  0  0  0  0  # atno 6909 bound_to 6896
  145.4887  139.2277  143.2842 H   0  0  0  0  0  0  0  0  0  0  0  0  # atno 7974 bound_to 7965
  155.2945  140.0450  157.3025 H   0  0  0  0  0  0  0  0  0  0  0  0  # atno 8008 bound_to 7997
  154.5522  140.2321  155.8435 H   0  0  0  0  0  0  0  0  0  0  0  0  # atno 8009 bound_to 7997
  156.1976  140.3034  155.9467 H   0  0  0  0  0  0  0  0  0  0  0  0  # atno 8010 bound_to 7997
  139.5451  144.2258  152.0971 H   0  0  0  0  0  0  0  0  0  0  0  0  # atno 10167 bound_to 10162
  157.5024  131.1094  150.9409 H   0  0  0  0  0  0  0  0  0  0  0  0  # atno 10718 bound_to 10713
  154.8635  135.4215  154.2404 H   0  0  0  0  0  0  0  0  0  0  0  0  # atno 10763 bound_to 10752
  153.3371  135.6991  153.6904 H   0  0  0  0  0  0  0  0  0  0  0  0  # atno 10764 bound_to 10752
  153.5897  135.3557  155.2879 H   0  0  0  0  0  0  0  0  0  0  0  0  # atno 10765 bound_to 10752
  140.0721  134.9146  157.1362 H   0  0  0  0  0  0  0  0  0  0  0  0  # atno 11005 bound_to 11000
  146.2297  140.5679  142.8981 LP  0  0  0  0  0  0  0  0  0  0  0  0  # atno 17320 bound_to 7965
  144.7846  140.5911  143.6582 LP  0  0  0  0  0  0  0  0  0  0  0  0  # atno 17321 bound_to 7965
  140.1743  144.4905  150.6562 LP  0  0  0  0  0  0  0  0  0  0  0  0  # atno 17342 bound_to 10162
  140.6696  143.2280  151.5659 LP  0  0  0  0  0  0  0  0  0  0  0  0  # atno 17343 bound_to 10162
  157.0075  130.5624  149.5317 LP  0  0  0  0  0  0  0  0  0  0  0  0  # atno 17370 bound_to 10713
  156.0237  130.5331  150.8348 LP  0  0  0  0  0  0  0  0  0  0  0  0  # atno 17371 bound_to 10713
  140.3612  134.2492  155.7187 LP  0  0  0  0  0  0  0  0  0  0  0  0  # atno 17394 bound_to 11000
  141.2016  133.7959  157.0434 LP  0  0  0  0  0  0  0  0  0  0  0  0  # atno 17395 bound_to 11000

$$$$
