AV-unprocessed.smi:24|AV-procd|sdf|176|dock8
  -GOLD-   2262015433D 1   1.00000     0.00000
 Structure written by MMmdl.
 61 65  0  0  0  0  0  0  0  0  1 V2000
  151.9133  145.5748  159.9955 C   0  0  0  0  0  0  0  0  0  0  0  0
  151.7148  145.0325  158.6982 O   0  0  0  0  0  0  0  0  0  0  0  0
  151.7122  143.6609  158.5623 C   0  0  0  0  0  0  0  0  0  0  0  0
  151.2321  143.1377  157.3446 C   0  0  0  0  0  0  0  0  0  0  0  0
  151.1948  141.7483  157.1203 C   0  0  0  0  0  0  0  0  0  0  0  0
  151.6344  140.8545  158.1175 C   0  0  0  0  0  0  0  0  0  0  0  0
  151.5964  139.3503  157.8530 C   0  0  1  0  0  0  0  0  0  0  0  0
  150.8275  138.5957  158.9410 C   0  0  0  0  0  0  0  0  0  0  0  0
  149.7565  137.9283  158.1451 C   0  0  0  0  0  0  0  0  0  0  0  0
  148.7204  137.0885  158.7866 C   0  0  0  0  0  0  0  0  0  0  0  0
  147.5301  136.7951  158.0827 C   0  0  0  0  0  0  0  0  0  0  0  0
  146.5431  135.9963  158.6929 C   0  0  0  0  0  0  0  0  0  0  0  0
  146.7436  135.4947  159.9942 C   0  0  0  0  0  0  0  0  0  0  0  0
  147.9322  135.7892  160.6914 C   0  0  0  0  0  0  0  0  0  0  0  0
  148.9266  136.5870  160.0918 C   0  0  0  0  0  0  0  0  0  0  0  0
  149.8280  138.1573  156.8861 N   0  0  0  0  0  0  0  0  0  0  0  0
  150.8895  138.9612  156.6256 N   0  0  0  0  0  0  0  0  0  0  0  0
  151.2939  139.2735  155.3744 C   0  0  0  0  0  0  0  0  0  0  0  0
  152.3241  139.9170  155.1653 O   0  0  0  0  0  0  0  0  0  0  0  0
  150.4302  138.7961  154.1874 C   0  0  0  0  0  0  0  0  0  0  0  0
  149.0219  139.2422  154.2662 N   0  0  0  0  0  0  0  0  0  0  0  0
  148.7332  140.6168  154.0798 C   0  0  0  0  0  0  0  0  0  0  0  0
  149.6295  141.4344  153.8655 O   0  0  0  0  0  0  0  0  0  0  0  0
  147.3222  140.9791  154.1524 C   0  0  0  0  0  0  0  0  0  0  0  0
  146.9568  142.2636  154.0033 F   0  0  0  0  0  0  0  0  0  0  0  0
  146.3741  140.0440  154.3682 C   0  0  0  0  0  0  0  0  0  0  0  0
  146.6690  138.7015  154.5287 N   0  0  0  0  0  0  0  0  0  0  0  0
  145.5929  137.6617  154.7633 C   0  0  2  0  0  0  0  0  0  0  0  0
  144.6641  137.5551  153.5382 C   0  0  0  0  0  0  0  0  0  0  0  0
  143.2846  137.7012  154.1489 C   0  0  0  0  0  0  0  0  0  0  0  0
  143.5690  138.5716  155.3635 C   0  0  0  0  0  0  0  0  0  0  0  0
  144.7942  138.0389  155.8490 O   0  0  0  0  0  0  0  0  0  0  0  0
  148.0138  138.2738  154.4868 C   0  0  0  0  0  0  0  0  0  0  0  0
  148.2975  137.0823  154.6306 O   0  0  0  0  0  0  0  0  0  0  0  0
  152.1220  141.3710  159.3379 C   0  0  0  0  0  0  0  0  0  0  0  0
  152.1596  142.7607  159.5614 C   0  0  0  0  0  0  0  0  0  0  0  0
  151.8937  146.6630  159.9376 H   0  0  0  0  0  0  0  0  0  0  0  0
  152.8819  145.2840  160.4044 H   0  0  0  0  0  0  0  0  0  0  0  0
  151.1236  145.2668  160.6823 H   0  0  0  0  0  0  0  0  0  0  0  0
  150.8890  143.8102  156.5721 H   0  0  0  0  0  0  0  0  0  0  0  0
  150.8248  141.3713  156.1783 H   0  0  0  0  0  0  0  0  0  0  0  0
  152.6181  138.9692  157.7974 H   0  0  0  0  0  0  0  0  0  0  0  0
  151.4610  137.8652  159.4452 H   0  0  0  0  0  0  0  0  0  0  0  0
  150.4002  139.2652  159.6889 H   0  0  0  0  0  0  0  0  0  0  0  0
  147.3576  137.1712  157.0845 H   0  0  0  0  0  0  0  0  0  0  0  0
  145.6308  135.7682  158.1620 H   0  0  0  0  0  0  0  0  0  0  0  0
  145.9843  134.8829  160.4585 H   0  0  0  0  0  0  0  0  0  0  0  0
  148.0816  135.4021  161.6887 H   0  0  0  0  0  0  0  0  0  0  0  0
  149.8285  136.7976  160.6470 H   0  0  0  0  0  0  0  0  0  0  0  0
  150.8914  139.1352  153.2584 H   0  0  0  0  0  0  0  0  0  0  0  0
  150.4850  137.7078  154.1299 H   0  0  0  0  0  0  0  0  0  0  0  0
  145.3494  140.3796  154.4136 H   0  0  0  0  0  0  0  0  0  0  0  0
  146.1232  136.7389  155.0050 H   0  0  0  0  0  0  0  0  0  0  0  0
  144.8604  138.3718  152.8415 H   0  0  0  0  0  0  0  0  0  0  0  0
  144.8065  136.6062  153.0207 H   0  0  0  0  0  0  0  0  0  0  0  0
  142.5587  138.1436  153.4662 H   0  0  0  0  0  0  0  0  0  0  0  0
  142.9094  136.7274  154.4662 H   0  0  0  0  0  0  0  0  0  0  0  0
  143.6998  139.6147  155.0719 H   0  0  0  0  0  0  0  0  0  0  0  0
  142.7814  138.5191  156.1154 H   0  0  0  0  0  0  0  0  0  0  0  0
  152.4734  140.7034  160.1109 H   0  0  0  0  0  0  0  0  0  0  0  0
  152.5382  143.1107  160.5096 H   0  0  0  0  0  0  0  0  0  0  0  0
  1  2  1  0  0  0  0
  1 37  1  0  0  0  0
  1 38  1  0  0  0  0
  1 39  1  0  0  0  0
  2  3  1  0  0  0  0
  3 36  1  0  0  0  0
  3  4  2  0  0  0  0
  4  5  1  0  0  0  0
  4 40  1  0  0  0  0
  5  6  2  0  0  0  0
  5 41  1  0  0  0  0
  6  7  1  0  0  0  0
  6 35  1  0  0  0  0
  7 17  1  0  0  0  0
  7  8  1  0  0  0  0
  7 42  1  0  0  0  0
  8  9  1  0  0  0  0
  8 43  1  0  0  0  0
  8 44  1  0  0  0  0
  9 10  1  0  0  0  0
  9 16  2  0  0  0  0
 10 15  1  0  0  0  0
 10 11  2  0  0  0  0
 11 12  1  0  0  0  0
 11 45  1  0  0  0  0
 12 13  2  0  0  0  0
 12 46  1  0  0  0  0
 13 14  1  0  0  0  0
 13 47  1  0  0  0  0
 14 15  2  0  0  0  0
 14 48  1  0  0  0  0
 15 49  1  0  0  0  0
 16 17  1  0  0  0  0
 17 18  1  0  0  0  0
 18 19  2  0  0  0  0
 18 20  1  0  0  0  0
 20 21  1  0  0  0  0
 20 50  1  0  0  0  0
 20 51  1  0  0  0  0
 21 33  1  0  0  0  0
 21 22  1  0  0  0  0
 22 23  2  0  0  0  0
 22 24  1  0  0  0  0
 24 25  1  0  0  0  0
 24 26  2  0  0  0  0
 26 27  1  0  0  0  0
 26 52  1  0  0  0  0
 27 28  1  0  0  0  0
 27 33  1  0  0  0  0
 28 32  1  0  0  0  0
 28 29  1  0  0  0  0
 28 53  1  0  0  0  0
 29 30  1  0  0  0  0
 29 54  1  0  0  0  0
 29 55  1  0  0  0  0
 30 31  1  0  0  0  0
 30 56  1  0  0  0  0
 30 57  1  0  0  0  0
 31 32  1  0  0  0  0
 31 58  1  0  0  0  0
 31 59  1  0  0  0  0
 33 34  2  0  0  0  0
 35 36  2  0  0  0  0
 35 60  1  0  0  0  0
 36 61  1  0  0  0  0
M  END
> <s_m_source_file>
AV-unprocessed.smi

> <i_m_source_file_index>
24

> <i_lp_mmshare_version>
43012

> <i_f3d_flags>
0

> <s_epik_input>
W0NIM11PYzFbY0hdW2NIXWMoW2NIXVtjSF0xKVtDQEBIXTJbQ0gyXUMoYzNbY0hdW2NIXVtjSF1bY0hdW2NIXTMpPU5OMkMoPU8pW0NIMl1uNGMoPU8pYyhGKVtjSF1uKGM0PU8pW0NAQEhdNVtDSDJdW0NIMl1bQ0gyXU81

> <s_epik_cmdline>
J2VwaWtfcHl0aG9uJywgJy1waCcsICc3LjAnLCAnLXRuJywgJzgnLCAnLW1hJywgJzIwMCcsICctbWV0YWxfYmluZGluZycsICctaW1hZScsICc8aW5maWxlLm1hZT4nLCAnLW9tYWUnLCAnPG91dGZpbGUubWFlPic=

> <r_lp_tautomer_probability>
1

> <r_epik_Ionization_Penalty>
1.46326e-08

> <r_epik_Ionization_Penalty_Charging>
4.53232e-09

> <r_epik_Ionization_Penalty_Neutral>
1.01002e-08

> <r_epik_State_Penalty>
-0

> <r_epik_Charging_Adjusted_Penalty>
4.53232e-09

> <i_epik_Tot_Q>
0

> <i_epik_Tot_abs_Q>
0

> <r_epik_Metal_State_Penalty>
-0

> <b_epik_Metal_Only>
0

> <s_epik_Chemistry_Notes>
This compound has an imine and may undergo hydrolysis. This compound contains an acetal/aminal-like group ( X-CH(R)-Y where X, Y are N, S, or O) that may be acid/base labile, releasing an aldehyde.

> <s_lp_Force_Field>
OPLS_2005

> <r_lp_Energy>
50.3667

> <b_lp_Chiralities_Consistent>
1

> <s_lp_Variant>
AV-unprocessed.smi:24-2

> <Gold.Version>
5.8.1

> <Gold.Id.Protein>
6NUR|6NUR_protein|mol2

> <Gold.PLP.Fitness>
59.1823

> <Gold.PLP.PLP>
-52.8642

> <Gold.PLP.part.hbond>
-3.2781

> <Gold.PLP.part.metal>
0.0000

> <Gold.PLP.part.buried>
-5.7305

> <Gold.PLP.part.nonpolar>
-45.6941

> <Gold.PLP.part.repulsive>
2.0210

> <Gold.PLP.ligand.clash>
0.0000

> <Gold.PLP.ligand.torsion>
0.5626

> <Gold.PLP.Chemscore.Hbond>
1.6076

> <Gold.PLP.Chemscore.CHOScore>
0.8421

> <Gold.PLP.Chemscore.Metal>
0.0000

> <Gold.Chemscore.Hbonds>
donor molecule, donor type, donor heavy atom, donor atom, acceptor molecule, acceptor atom, score
      P1  H  7989  7998       L1    19  0.58
      P1  H  7997  8008       L1    19  0.22
      P1  H  8011  8017       L1    23  0.74
      L1  C    26    52       P1 10175  0.90

> <Gold.PLP.Chemscore.Internal.Correction>
0.0943

> <Gold.Rescore>
     Score         DG    S(hbond)    S(metal)    S(lipo)     H(rot)  DE(clash)    DE(int)     intcor
     14.66     -20.18       1.67        0.00     121.13       1.98       0.83       4.69       ----

> <Gold.Chemscore.Fitness>
14.6622

> <Gold.Chemscore.DG>
-20.1794

> <Gold.Chemscore.ZeroCoef>
-5.4800

> <Gold.Chemscore.Hbond>
1.6717

> <Gold.Chemscore.Metal>
0.0000

> <Gold.Chemscore.Lipo>
121.1284

> <Gold.Chemscore.Internal_Hbond>
0.0000

> <Gold.Chemscore.DEClash>
0.8253

> <Gold.Chemscore.DEInternal>
4.6919

> <Gold.Chemscore.Rot>
1.9750

> <Gold.Chemscore.Internal.Correction>
   9.000000E+99

> <Gold.Chemscore.Hbonds>
donor molecule, donor type, donor heavy atom, donor atom, acceptor molecule, acceptor atom, score
      P1  H  7989  7998       L1    23  0.17
      P1  H  7997  8008       L1    19  0.22
      P1  H  8011  8017       L1    23  0.74

> <Gold.Chemscore.Hbond.Weighted>
-5.5834

> <Gold.Chemscore.Metal.Weighted>
-0.0000

> <Gold.Chemscore.Lipo.Weighted>
-14.1720

> <Gold.Chemscore.Internal_Hbond.Weighted>
0.0000

> <Gold.Chemscore.DEClash.Weighted>
0.8253

> <Gold.Chemscore.DEInternal.Weighted>
4.6919

> <Gold.Chemscore.Rot.Weighted>
5.0561

> <Gold.Chemscore.Internal.Correction.Weighted>
   9.000000E+99

> <Gold.Protein.RotatedTorsions>
[ 6907 6896 6895 6894 ] final  -74.55 input  -60.11 | X-H torsion
[ 7974 7965 7964 7962 ] final -153.31 input  175.53 | X-H torsion
[ 8008 7997 7996 7995 ] final  -44.61 input   59.86 | X-H torsion
[ 10167 10162 10161 10158 ] final   32.69 input  -65.29 | X-H torsion
[ 10718 10713 10712 10709 ] final -164.01 input   66.30 | X-H torsion
[ 10763 10752 10751 10750 ] final   85.02 input  -60.55 | X-H torsion
[ 11005 11000 10999 10996 ] final -161.52 input  -57.11 | X-H torsion

> <Gold.Protein.ActiveResidues>
 VAL166  LYS551  ARG553  GLY616  TRP617  ASP618  TYR619  PRO620  LYS621  CYS622 
 ASP623  PHE694  ASN695  SER759  ASP760  ASP761  ALA762  ILE779  LEU786  VAL792 
 PHE793  MET794  SER795  GLU796  ALA797  LYS798  CYS799  TRP800  GLU811  SER814 

> <Gold.Protein.RotatedAtoms>
  150.7089  134.4852  159.5489 H   0  0  0  0  0  0  0  0  0  0  0  0  # atno 6907 bound_to 6896
  152.2481  134.8157  160.0459 H   0  0  0  0  0  0  0  0  0  0  0  0  # atno 6908 bound_to 6896
  151.8915  133.3482  159.3836 H   0  0  0  0  0  0  0  0  0  0  0  0  # atno 6909 bound_to 6896
  144.7747  140.4543  143.5882 H   0  0  0  0  0  0  0  0  0  0  0  0  # atno 7974 bound_to 7965
  154.3998  140.1418  156.3712 H   0  0  0  0  0  0  0  0  0  0  0  0  # atno 8008 bound_to 7997
  155.8091  140.3473  155.5426 H   0  0  0  0  0  0  0  0  0  0  0  0  # atno 8009 bound_to 7997
  155.8405  140.0926  157.1728 H   0  0  0  0  0  0  0  0  0  0  0  0  # atno 8010 bound_to 7997
  140.4476  144.1096  150.6185 H   0  0  0  0  0  0  0  0  0  0  0  0  # atno 10167 bound_to 10162
  156.6329  130.8937  151.2981 H   0  0  0  0  0  0  0  0  0  0  0  0  # atno 10718 bound_to 10713
  153.1436  135.4632  154.9532 H   0  0  0  0  0  0  0  0  0  0  0  0  # atno 10763 bound_to 10752
  154.7767  135.3175  154.8078 H   0  0  0  0  0  0  0  0  0  0  0  0  # atno 10764 bound_to 10752
  153.8596  135.6914  153.4838 H   0  0  0  0  0  0  0  0  0  0  0  0  # atno 10765 bound_to 10752
  140.6194  134.4766  157.5222 H   0  0  0  0  0  0  0  0  0  0  0  0  # atno 11005 bound_to 11000
  145.6220  139.1525  143.3017 LP  0  0  0  0  0  0  0  0  0  0  0  0  # atno 17320 bound_to 7965
  146.1919  140.6329  142.9142 LP  0  0  0  0  0  0  0  0  0  0  0  0  # atno 17321 bound_to 7965
  140.4246  143.2596  151.9673 LP  0  0  0  0  0  0  0  0  0  0  0  0  # atno 17342 bound_to 10162
  139.4794  144.5800  151.7948 LP  0  0  0  0  0  0  0  0  0  0  0  0  # atno 17343 bound_to 10162
  157.7194  130.9539  150.1381 LP  0  0  0  0  0  0  0  0  0  0  0  0  # atno 17370 bound_to 10713
  156.2220  130.3675  149.8544 LP  0  0  0  0  0  0  0  0  0  0  0  0  # atno 17371 bound_to 10713
  139.9159  134.8247  156.1367 LP  0  0  0  0  0  0  0  0  0  0  0  0  # atno 17394 bound_to 11000
  141.0753  133.6778  156.2223 LP  0  0  0  0  0  0  0  0  0  0  0  0  # atno 17395 bound_to 11000

$$$$
