AV-unprocessed.smi:1412|AV-procd|sdf|5743|dock10
  -GOLD-   22720 5383D 1   1.00000     0.00000
 Structure written by MMmdl.
 42 43  0  0  0  0  0  0  0  0  2 V2000
  149.4357  133.0601  155.1775 C   0  0  0  0  0  0  0  0  0  0  0  0
  149.9919  134.4265  154.7399 C   0  0  0  0  0  0  0  0  0  0  0  0
  149.2423  135.6791  155.2888 C   0  0  2  0  0  0  0  0  0  0  0  0
  149.3857  135.7219  156.8326 C   0  0  0  0  0  0  0  0  0  0  0  0
  147.7205  135.5624  154.9592 C   0  0  0  0  0  0  0  0  0  0  0  0
  147.4379  135.0903  153.6023 N   0  0  0  0  0  0  0  0  0  0  0  0
  146.3218  134.4577  153.2126 C   0  0  0  0  0  0  0  0  0  0  0  0
  145.3759  134.2266  153.9654 O   0  0  0  0  0  0  0  0  0  0  0  0
  146.3825  134.1206  151.9121 N   0  0  0  0  0  0  0  0  0  0  0  0
  145.4078  133.4406  151.1343 C   0  0  0  0  0  0  0  0  0  0  0  0
  144.0858  133.5446  151.3416 N   0  0  0  0  0  0  0  0  0  0  0  0
  143.3570  132.7772  150.4424 N   0  0  0  0  0  0  0  0  0  0  0  0
  144.1564  132.1260  149.5929 C   0  0  0  0  0  0  0  0  0  0  0  0
  145.8786  132.3898  149.8057 S   0  0  0  0  0  0  0  0  0  0  0  0
  149.8065  136.9483  154.6969 N   0  3  0  0  0  0  0  0  0  0  0  0
  149.0291  138.1957  154.9457 C   0  0  0  0  0  0  0  0  0  0  0  0
  149.6053  139.3619  154.1245 C   0  0  0  0  0  0  0  0  0  0  0  0
  150.9777  139.5455  154.4425 O   0  0  0  0  0  0  0  0  0  0  0  0
  151.7493  138.3937  154.1332 C   0  0  0  0  0  0  0  0  0  0  0  0
  151.2499  137.2032  154.9673 C   0  0  0  0  0  0  0  0  0  0  0  0
  150.0302  132.2547  154.7457 H   0  0  0  0  0  0  0  0  0  0  0  0
  148.4088  132.9124  154.8451 H   0  0  0  0  0  0  0  0  0  0  0  0
  149.4649  132.9341  156.2594 H   0  0  0  0  0  0  0  0  0  0  0  0
  151.0399  134.4609  155.0355 H   0  0  0  0  0  0  0  0  0  0  0  0
  149.9905  134.4383  153.6504 H   0  0  0  0  0  0  0  0  0  0  0  0
  148.7734  134.9618  157.3183 H   0  0  0  0  0  0  0  0  0  0  0  0
  149.0757  136.6847  157.2399 H   0  0  0  0  0  0  0  0  0  0  0  0
  150.4111  135.5410  157.1557 H   0  0  0  0  0  0  0  0  0  0  0  0
  147.2382  134.8667  155.6459 H   0  0  0  0  0  0  0  0  0  0  0  0
  147.2114  136.5119  155.1309 H   0  0  0  0  0  0  0  0  0  0  0  0
  148.1670  135.2238  152.9168 H   0  0  0  0  0  0  0  0  0  0  0  0
  147.2292  134.3678  151.4215 H   0  0  0  0  0  0  0  0  0  0  0  0
  143.7287  131.4861  148.8354 H   0  0  0  0  0  0  0  0  0  0  0  0
  147.9833  138.0835  154.6666 H   0  0  0  0  0  0  0  0  0  0  0  0
  149.0542  138.4521  156.0049 H   0  0  0  0  0  0  0  0  0  0  0  0
  149.4876  139.1799  153.0549 H   0  0  0  0  0  0  0  0  0  0  0  0
  149.0659  140.2817  154.3512 H   0  0  0  0  0  0  0  0  0  0  0  0
  151.6932  138.1744  153.0656 H   0  0  0  0  0  0  0  0  0  0  0  0
  152.7953  138.5995  154.3614 H   0  0  0  0  0  0  0  0  0  0  0  0
  151.4048  137.4196  156.0244 H   0  0  0  0  0  0  0  0  0  0  0  0
  151.8637  136.3376  154.7250 H   0  0  0  0  0  0  0  0  0  0  0  0
  149.7465  136.8017  153.6993 H   0  0  0  0  0  0  0  0  0  0  0  0
  1  2  1  0  0  0  0
  1 21  1  0  0  0  0
  1 22  1  0  0  0  0
  1 23  1  0  0  0  0
  2  3  1  0  0  0  0
  2 24  1  0  0  0  0
  2 25  1  0  0  0  0
  3  4  1  0  0  0  0
  3  5  1  0  0  0  0
  3 15  1  0  0  0  0
  4 26  1  0  0  0  0
  4 27  1  0  0  0  0
  4 28  1  0  0  0  0
  5  6  1  0  0  0  0
  5 29  1  0  0  0  0
  5 30  1  0  0  0  0
  6  7  1  0  0  0  0
  6 31  1  0  0  0  0
  7  8  2  0  0  0  0
  7  9  1  0  0  0  0
  9 10  1  0  0  0  0
  9 32  1  0  0  0  0
 10 14  1  0  0  0  0
 10 11  2  0  0  0  0
 11 12  1  0  0  0  0
 12 13  2  0  0  0  0
 13 14  1  0  0  0  0
 13 33  1  0  0  0  0
 15 20  1  0  0  0  0
 15 16  1  0  0  0  0
 15 42  1  0  0  0  0
 16 17  1  0  0  0  0
 16 34  1  0  0  0  0
 16 35  1  0  0  0  0
 17 18  1  0  0  0  0
 17 36  1  0  0  0  0
 17 37  1  0  0  0  0
 18 19  1  0  0  0  0
 19 20  1  0  0  0  0
 19 38  1  0  0  0  0
 19 39  1  0  0  0  0
 20 40  1  0  0  0  0
 20 41  1  0  0  0  0
M  CHG  1  15   1
M  END
> <s_m_source_file>
AV-unprocessed.smi

> <i_m_source_file_index>
1412

> <i_lp_mmshare_version>
43012

> <i_f3d_flags>
0

> <s_epik_input>
W0NIMl0xW0NIMl1PW0NIMl1bQ0gyXU4xW0NAQF0oW0NIM10pKFtDSDJdW0NIM10pW0NIMl1bTkhdQyg9TylbTkhdYzJubltjSF1zMg==

> <s_epik_cmdline>
J2VwaWtfcHl0aG9uJywgJy1waCcsICc3LjAnLCAnLXRuJywgJzgnLCAnLW1hJywgJzIwMCcsICctbWV0YWxfYmluZGluZycsICctaW1hZScsICc8aW5maWxlLm1hZT4nLCAnLW9tYWUnLCAnPG91dGZpbGUubWFlPic=

> <r_lp_tautomer_probability>
1

> <r_epik_Ionization_Penalty>
0.554649

> <r_epik_Ionization_Penalty_Charging>
0.553838

> <r_epik_Ionization_Penalty_Neutral>
0.000811527

> <r_epik_State_Penalty>
0.564424

> <r_epik_Charging_Adjusted_Penalty>
1.11826

> <i_epik_Tot_Q>
1

> <i_epik_Tot_abs_Q>
1

> <r_epik_Metal_State_Penalty>
0.786249

> <b_epik_Metal_Only>
0

> <s_lp_Force_Field>
OPLS_2005

> <r_lp_Energy>
32.8849

> <b_lp_Chiralities_Consistent>
1

> <s_lp_Variant>
AV-unprocessed.smi:1412-4

> <Gold.Version>
5.8.1

> <Gold.Id.Protein>
6NUR|6NUR_protein|mol2

> <Gold.PLP.Fitness>
38.3525

> <Gold.PLP.PLP>
-27.7128

> <Gold.PLP.part.hbond>
-3.1734

> <Gold.PLP.part.metal>
0.0000

> <Gold.PLP.part.buried>
-3.6564

> <Gold.PLP.part.nonpolar>
-20.9162

> <Gold.PLP.part.repulsive>
0.9986

> <Gold.PLP.ligand.clash>
0.0000

> <Gold.PLP.ligand.torsion>
0.7303

> <Gold.PLP.Chemscore.Hbond>
3.9825

> <Gold.PLP.Chemscore.CHOScore>
0.0000

> <Gold.PLP.Chemscore.Metal>
0.0000

> <Gold.Chemscore.Hbonds>
donor molecule, donor type, donor heavy atom, donor atom, acceptor molecule, acceptor atom, score
      L1  H     6    31       P1  7948  1.00
      L1  H    15    42       P1  7948  1.92
      P1  H  7989  7998       L1    18  1.00

> <Gold.PLP.Chemscore.Internal.Correction>
0.1528

> <Gold.Rescore>
     Score         DG    S(hbond)    S(metal)    S(lipo)     H(rot)  DE(clash)    DE(int)     intcor
     12.64     -14.81       1.85        0.00      68.65       1.91       0.48       1.70       ----

> <Gold.Chemscore.Fitness>
12.6350

> <Gold.Chemscore.DG>
-14.8080

> <Gold.Chemscore.ZeroCoef>
-5.4800

> <Gold.Chemscore.Hbond>
1.8549

> <Gold.Chemscore.Metal>
0.0000

> <Gold.Chemscore.Lipo>
68.6524

> <Gold.Chemscore.Internal_Hbond>
0.0000

> <Gold.Chemscore.DEClash>
0.4755

> <Gold.Chemscore.DEInternal>
1.6974

> <Gold.Chemscore.Rot>
1.9140

> <Gold.Chemscore.Internal.Correction>
   9.000000E+99

> <Gold.Chemscore.Hbonds>
donor molecule, donor type, donor heavy atom, donor atom, acceptor molecule, acceptor atom, score
      L1  H     6    31       P1  7948  0.93
      L1  H    15    42       P1  7948  0.55
      P1  H  7989  7998       L1    18  0.41

> <Gold.Chemscore.Hbond.Weighted>
-6.1955

> <Gold.Chemscore.Metal.Weighted>
-0.0000

> <Gold.Chemscore.Lipo.Weighted>
-8.0323

> <Gold.Chemscore.Internal_Hbond.Weighted>
0.0000

> <Gold.Chemscore.DEClash.Weighted>
0.4755

> <Gold.Chemscore.DEInternal.Weighted>
1.6974

> <Gold.Chemscore.Rot.Weighted>
4.8998

> <Gold.Chemscore.Internal.Correction.Weighted>
   9.000000E+99

> <Gold.Protein.RotatedTorsions>
[ 6907 6896 6895 6894 ] final   -9.29 input  -60.11 | X-H torsion
[ 7974 7965 7964 7962 ] final  -87.36 input  175.53 | X-H torsion
[ 8008 7997 7996 7995 ] final  -32.21 input   59.86 | X-H torsion
[ 10167 10162 10161 10158 ] final  -75.33 input  -65.29 | X-H torsion
[ 10718 10713 10712 10709 ] final   78.08 input   66.30 | X-H torsion
[ 10763 10752 10751 10750 ] final -113.52 input  -60.55 | X-H torsion
[ 11005 11000 10999 10996 ] final   62.50 input  -57.11 | X-H torsion

> <Gold.Protein.ActiveResidues>
 VAL166  LYS551  ARG553  GLY616  TRP617  ASP618  TYR619  PRO620  LYS621  CYS622 
 ASP623  PHE694  ASN695  SER759  ASP760  ASP761  ALA762  ILE779  LEU786  VAL792 
 PHE793  MET794  SER795  GLU796  ALA797  LYS798  CYS799  TRP800  GLU811  SER814 

> <Gold.Protein.RotatedAtoms>
  151.4202  135.0997  159.9611 H   0  0  0  0  0  0  0  0  0  0  0  0  # atno 6907 bound_to 6896
  152.4991  133.8714  159.7311 H   0  0  0  0  0  0  0  0  0  0  0  0  # atno 6908 bound_to 6896
  150.9229  133.6801  159.2856 H   0  0  0  0  0  0  0  0  0  0  0  0  # atno 6909 bound_to 6896
  145.4676  140.9560  143.1935 H   0  0  0  0  0  0  0  0  0  0  0  0  # atno 7974 bound_to 7965
  154.4187  140.1743  156.1691 H   0  0  0  0  0  0  0  0  0  0  0  0  # atno 8008 bound_to 7997
  155.9775  140.3380  155.6608 H   0  0  0  0  0  0  0  0  0  0  0  0  # atno 8009 bound_to 7997
  155.6544  140.0694  157.2566 H   0  0  0  0  0  0  0  0  0  0  0  0  # atno 8010 bound_to 7997
  140.4952  143.2372  151.7843 H   0  0  0  0  0  0  0  0  0  0  0  0  # atno 10167 bound_to 10162
  157.6733  130.9852  150.1735 H   0  0  0  0  0  0  0  0  0  0  0  0  # atno 10718 bound_to 10713
  154.8400  135.4451  154.1362 H   0  0  0  0  0  0  0  0  0  0  0  0  # atno 10763 bound_to 10752
  153.2559  135.6931  153.7635 H   0  0  0  0  0  0  0  0  0  0  0  0  # atno 10764 bound_to 10752
  153.6930  135.3384  155.3182 H   0  0  0  0  0  0  0  0  0  0  0  0  # atno 10765 bound_to 10752
  140.0088  134.6328  155.9813 H   0  0  0  0  0  0  0  0  0  0  0  0  # atno 11005 bound_to 11000
  144.7965  139.6225  143.7090 LP  0  0  0  0  0  0  0  0  0  0  0  0  # atno 17320 bound_to 7965
  146.2415  139.6011  142.9488 LP  0  0  0  0  0  0  0  0  0  0  0  0  # atno 17321 bound_to 7965
  139.4859  144.4596  151.9556 LP  0  0  0  0  0  0  0  0  0  0  0  0  # atno 17342 bound_to 10162
  140.3684  144.2886  150.5923 LP  0  0  0  0  0  0  0  0  0  0  0  0  # atno 17343 bound_to 10162
  156.2483  130.3698  149.8260 LP  0  0  0  0  0  0  0  0  0  0  0  0  # atno 17370 bound_to 10713
  156.6040  130.8558  151.3438 LP  0  0  0  0  0  0  0  0  0  0  0  0  # atno 17371 bound_to 10713
  141.1696  133.6537  156.4603 LP  0  0  0  0  0  0  0  0  0  0  0  0  # atno 17394 bound_to 11000
  140.4593  134.6856  157.5077 LP  0  0  0  0  0  0  0  0  0  0  0  0  # atno 17395 bound_to 11000

$$$$
