#       Name:                AV-unprocessed.smi:116
#       Creating user name   scv26
#       Creation time:       Thu Mar 26 18:25:30 2020


#       File generated by GOLD software.
#

@<TRIPOS>MOLECULE
AV-unprocessed.smi:116
    45    48     1
SMALL
NO_CHARGES


@<TRIPOS>ATOM
      1 ****        -0.1997   3.4520   1.4992 O.2            1 S1                 0.0000
      2 ****        -0.5516   2.2801   1.6440 C.2            1 S1                 0.0000
      3 ****        -1.9497   1.8703   1.7235 C.2            1 S1                 0.0000
      4 ****        -2.9189   2.7984   1.6520 F              1 S1                 0.0000
      5 ****        -2.2902   0.5705   1.8583 C.2            1 S1                 0.0000
      6 ****        -1.3578  -0.4509   1.9356 N.am           1 S1                 0.0000
      7 ****        -1.7764  -1.9006   2.0546 C.3            1 S1                 0.0000
      8 ****        -1.7861  -2.5628   0.6723 C.3            1 S1                 0.0000
      9 ****        -3.2146  -2.3317   0.2313 C.3            1 S1                 0.0000
     10 ****        -3.9682  -2.4615   1.5507 C.3            1 S1                 0.0000
     11 ****        -3.0821  -1.9655   2.5529 O.3            1 S1                 0.0000
     12 ****         0.0191  -0.1469   1.8704 C.2            1 S1                 0.0000
     13 ****         0.8661  -1.0424   1.9170 O.2            1 S1                 0.0000
     14 ****         0.3792   1.2145   1.7319 N.am           1 S1                 0.0000
     15 ****         1.7948   1.5225   1.5988 C.3            1 S1                 0.0000
     16 ****         2.2595   1.2889   0.1926 C.2            1 S1                 0.0000
     17 ****         1.8318   2.0312  -0.8378 N.2            1 S1                 0.0000
     18 ****         2.3988   1.5766  -2.0248 C.ar           1 S1                 0.0000
     19 ****         2.1801   2.0923  -3.3236 C.ar           1 S1                 0.0000
     20 ****         2.8194   1.5317  -4.4474 C.ar           1 S1                 0.0000
     21 ****         3.6952   0.4404  -4.2934 C.ar           1 S1                 0.0000
     22 ****         3.9326  -0.0922  -3.0131 C.ar           1 S1                 0.0000
     23 ****         3.2898   0.4706  -1.8949 C.ar           1 S1                 0.0000
     24 ****         3.4045  -0.0000  -0.2028 S.3            1 S1                 0.0000
     25 ****        -3.3426   0.3336   1.9002 H              1 S1                 0.0000
     26 ****        -1.0838  -2.3562   2.7643 H              1 S1                 0.0000
     27 ****        -1.0380  -2.1416  -0.0005 H              1 S1                 0.0000
     28 ****        -1.5911  -3.6287   0.7957 H              1 S1                 0.0000
     29 ****        -3.3265  -1.3245  -0.1723 H              1 S1                 0.0000
     30 ****        -3.5512  -3.0417  -0.5245 H              1 S1                 0.0000
     31 ****        -4.9132  -1.9181   1.5481 H              1 S1                 0.0000
     32 ****        -4.1803  -3.5099   1.7633 H              1 S1                 0.0000
     33 ****         1.9754   2.5540   1.9026 H              1 S1                 0.0000
     34 ****         2.3406   0.8951   2.3058 H              1 S1                 0.0000
     35 ****         1.5104   2.9292  -3.4560 H              1 S1                 0.0000
     36 ****         2.6366   1.9405  -5.4303 H              1 S1                 0.0000
     37 ****         4.1837   0.0126  -5.1568 H              1 S1                 0.0000
     38 ****         4.6036  -0.9294  -2.8887 H              1 S1                 0.0000
     39 ****         0.7725   3.6784   1.4396 LP             1 S1                 0.0000
     40 ****        -0.8863   4.1767   1.4413 LP             1 S1                 0.0000
     41 ****        -3.3757  -1.0506   2.8300 LP             1 S1                 0.0000
     42 ****        -3.1035  -2.5763   3.3444 LP             1 S1                 0.0000
     43 ****         0.5804  -1.9970   2.0020 LP             1 S1                 0.0000
     44 ****         1.8385  -0.8139   1.8699 LP             1 S1                 0.0000
     45 ****         1.1971   2.8005  -0.7645 LP             1 S1                 0.0000
@<TRIPOS>BOND
    1    1    2 2     
    2    2   14 am    
    3    2    3 1     
    4    3    4 1     
    5    3    5 2     
    6    5    6 1     
    7    5   25 1     
    8    6    7 1     
    9    6   12 am    
   10    7   11 1     
   11    7    8 1     
   12    7   26 1     
   13    8    9 1     
   14    8   27 1     
   15    8   28 1     
   16    9   10 1     
   17    9   29 1     
   18    9   30 1     
   19   10   11 1     
   20   10   31 1     
   21   10   32 1     
   22   12   13 2     
   23   12   14 am    
   24   14   15 1     
   25   15   16 1     
   26   15   33 1     
   27   15   34 1     
   28   16   24 1     
   29   16   17 2     
   30   17   18 1     
   31   18   23 ar    
   32   18   19 ar    
   33   19   20 ar    
   34   19   35 1     
   35   20   21 ar    
   36   20   36 1     
   37   21   22 ar    
   38   21   37 1     
   39   22   23 ar    
   40   22   38 1     
   41   23   24 1     
   42    1   39 1     
   43    1   40 1     
   44   11   41 1     
   45   11   42 1     
   46   13   43 1     
   47   13   44 1     
   48   17   45 1     
@<TRIPOS>SUBSTRUCTURE
      1 S1             1
@<TRIPOS>SET
LONE_PAIRS      STATIC     ATOMS    <user>   **** ""
7 39 40 41 42 43 44 45
ATOM$BLUE        STATIC     ATOMS    COLORGROUP SYSTEM
7 39 40 41 42 43 44 45
