#       Name:                AV-unprocessed.smi:1404
#       Creating user name   scv26
#       Creation time:       Fri Mar 27 05:33:54 2020


#       File generated by GOLD software.
#

@<TRIPOS>MOLECULE
AV-unprocessed.smi:1404
    56    57     1
SMALL
NO_CHARGES


@<TRIPOS>ATOM
      1 ****        -4.5166   2.8773  -0.6159 C.3            1 S1                 0.0000
      2 ****        -4.3175   2.1856   0.6408 N.am           1 S1                 0.0000
      3 ****        -4.8188   2.7622   1.8331 C.2            1 S1                 0.0000
      4 ****        -5.4276   3.8324   1.8495 O.2            1 S1                 0.0000
      5 ****        -4.5486   1.9863   3.0378 C.2            1 S1                 0.0000
      6 ****        -3.8673   0.8214   2.9759 C.2            1 S1                 0.0000
      7 ****        -3.3822   0.2839   1.7976 N.am           1 S1                 0.0000
      8 ****        -2.6379  -0.9811   1.8235 C.3            1 S1                 0.0000
      9 ****        -1.1244  -0.7675   1.7035 C.2            1 S1                 0.0000
     10 ****        -0.5736   0.1483   2.3154 O.2            1 S1                 0.0000
     11 ****        -0.4659  -1.6255   0.9097 N.am           1 S1                 0.0000
     12 ****         0.9640  -1.5816   0.6058 C.3            1 S1                 0.0000
     13 ****         1.3082  -0.8573  -0.7337 C.3            1 S1                 0.0000
     14 ****         0.5368  -1.5795  -1.8702 C.3            1 S1                 0.0000
     15 ****         0.8314   0.6165  -0.7070 C.3            1 S1                 0.0000
     16 ****         2.8007  -0.9397  -0.9499 N.4            1 S1                 1.0000
     17 ****         3.2783  -0.7529  -2.3505 C.3            1 S1                 0.0000
     18 ****         4.7933  -1.0049  -2.4535 C.3            1 S1                 0.0000
     19 ****         5.4944  -0.1594  -1.5537 O.3            1 S1                 0.0000
     20 ****         5.1197  -0.4065  -0.2068 C.3            1 S1                 0.0000
     21 ****         3.6245  -0.0993  -0.0332 C.3            1 S1                 0.0000
     22 ****        -3.6000   0.9707   0.5836 C.2            1 S1                 0.0000
     23 ****        -3.1703   0.5194  -0.4816 O.2            1 S1                 0.0000
     24 ****        -5.1925   3.7236  -0.4987 H              1 S1                 0.0000
     25 ****        -4.9551   2.1665  -1.3188 H              1 S1                 0.0000
     26 ****        -3.5354   3.2168  -0.9519 H              1 S1                 0.0000
     27 ****        -4.8968   2.3510   3.9931 H              1 S1                 0.0000
     28 ****        -3.6898   0.2869   3.8980 H              1 S1                 0.0000
     29 ****        -2.8339  -1.5156   2.7540 H              1 S1                 0.0000
     30 ****        -2.9932  -1.6360   1.0252 H              1 S1                 0.0000
     31 ****        -1.0039  -2.3494   0.4550 H              1 S1                 0.0000
     32 ****         1.4830  -1.1375   1.4536 H              1 S1                 0.0000
     33 ****         1.3139  -2.6136   0.5597 H              1 S1                 0.0000
     34 ****        -0.5361  -1.6133  -1.6801 H              1 S1                 0.0000
     35 ****         0.8755  -2.6087  -1.9932 H              1 S1                 0.0000
     36 ****         0.6416  -1.0700  -2.8282 H              1 S1                 0.0000
     37 ****        -0.2566   0.6846  -0.6932 H              1 S1                 0.0000
     38 ****         1.1665   1.1660  -1.5866 H              1 S1                 0.0000
     39 ****         1.1894   1.1478   0.1749 H              1 S1                 0.0000
     40 ****         2.7988  -1.4502  -3.0350 H              1 S1                 0.0000
     41 ****         3.0434   0.2552  -2.6938 H              1 S1                 0.0000
     42 ****         5.0273  -2.0499  -2.2437 H              1 S1                 0.0000
     43 ****         5.1386  -0.8015  -3.4674 H              1 S1                 0.0000
     44 ****         5.3446  -1.4378   0.0695 H              1 S1                 0.0000
     45 ****         5.7126   0.2351   0.4454 H              1 S1                 0.0000
     46 ****         3.4589   0.9583  -0.2416 H              1 S1                 0.0000
     47 ****         3.3620  -0.2615   1.0096 H              1 S1                 0.0000
     48 ****         3.0370  -1.8958  -0.7261 H              1 S1                 0.0000
     49 ****        -5.5853   4.3310   0.9972 LP             1 S1                 0.0000
     50 ****        -5.7643   4.2029   2.7152 LP             1 S1                 0.0000
     51 ****        -1.1139   0.7583   2.8951 LP             1 S1                 0.0000
     52 ****         0.4140   0.2820   2.2326 LP             1 S1                 0.0000
     53 ****         5.2905   0.7936  -1.7779 LP             1 S1                 0.0000
     54 ****         6.4760  -0.3225  -1.6528 LP             1 S1                 0.0000
     55 ****        -3.3270   1.0168  -1.3348 LP             1 S1                 0.0000
     56 ****        -2.6654  -0.3437  -0.4915 LP             1 S1                 0.0000
@<TRIPOS>BOND
    1    1    2 1     
    2    1   24 1     
    3    1   25 1     
    4    1   26 1     
    5    2   22 am    
    6    2    3 am    
    7    3    4 2     
    8    3    5 1     
    9    5    6 2     
   10    5   27 1     
   11    6    7 1     
   12    6   28 1     
   13    7    8 1     
   14    7   22 am    
   15    8    9 1     
   16    8   29 1     
   17    8   30 1     
   18    9   10 2     
   19    9   11 am    
   20   11   12 1     
   21   11   31 1     
   22   12   13 1     
   23   12   32 1     
   24   12   33 1     
   25   13   14 1     
   26   13   15 1     
   27   13   16 1     
   28   14   34 1     
   29   14   35 1     
   30   14   36 1     
   31   15   37 1     
   32   15   38 1     
   33   15   39 1     
   34   16   21 1     
   35   16   17 1     
   36   16   48 1     
   37   17   18 1     
   38   17   40 1     
   39   17   41 1     
   40   18   19 1     
   41   18   42 1     
   42   18   43 1     
   43   19   20 1     
   44   20   21 1     
   45   20   44 1     
   46   20   45 1     
   47   21   46 1     
   48   21   47 1     
   49   22   23 2     
   50    4   49 1     
   51    4   50 1     
   52   10   51 1     
   53   10   52 1     
   54   19   53 1     
   55   19   54 1     
   56   23   55 1     
   57   23   56 1     
@<TRIPOS>SUBSTRUCTURE
      1 S1             1
@<TRIPOS>SET
LONE_PAIRS      STATIC     ATOMS    <user>   **** ""
8 49 50 51 52 53 54 55 56
DONOR_HYDROGENS      STATIC     ATOMS    <user>   **** ""
2 31 48
ATOM$BLUE        STATIC     ATOMS    COLORGROUP SYSTEM
8 49 50 51 52 53 54 55 56
ATOM$RED        STATIC     ATOMS    COLORGROUP SYSTEM
2 31 48
