AV-unprocessed.smi:1433|AV-procd|sdf|5847|dock7
  -GOLD-   22720 5513D 1   1.00000     0.00000
 Structure written by MMmdl.
 45 46  0  0  0  0  0  0  0  0  2 V2000
  151.7950  145.1889  158.9984 C   0  0  0  0  0  0  0  0  0  0  0  0
  152.0217  143.6992  158.7177 C   0  0  2  0  0  0  0  0  0  0  0  0
  150.6984  142.9352  158.5306 C   0  0  0  0  0  0  0  0  0  0  0  0
  150.9397  141.4817  158.3197 N   0  3  2  0  0  0  0  0  0  0  0  0
  149.6755  140.7240  158.0397 C   0  0  1  0  0  0  0  0  0  0  0  0
  148.9414  141.3391  156.8251 C   0  0  0  0  0  0  0  0  0  0  0  0
  149.8933  139.1988  157.8231 C   0  0  0  0  0  0  0  0  0  0  0  0
  148.7007  138.4109  158.1158 N   0  0  0  0  0  0  0  0  0  0  0  0
  148.6783  137.2895  158.8526 C   0  0  0  0  0  0  0  0  0  0  0  0
  149.6885  136.7654  159.3213 O   0  0  0  0  0  0  0  0  0  0  0  0
  147.3025  136.6790  159.1182 C   0  0  0  0  0  0  0  0  0  0  0  0
  147.1532  136.3349  160.5213 N   0  0  0  0  0  0  0  0  0  0  0  0
  146.9449  135.0913  161.0804 C   0  0  0  0  0  0  0  0  0  0  0  0
  146.8838  135.2592  162.4341 C   0  0  0  0  0  0  0  0  0  0  0  0
  147.0682  136.6590  162.6101 C   0  0  0  0  0  0  0  0  0  0  0  0
  147.2319  137.3002  161.4641 N   0  0  0  0  0  0  0  0  0  0  0  0
  151.7735  140.9528  159.4341 C   0  0  0  0  0  0  0  0  0  0  0  0
  153.0610  141.7805  159.6116 C   0  0  2  0  0  0  0  0  0  0  0  0
  153.8905  141.3056  160.8101 C   0  0  0  0  0  0  0  0  0  0  0  0
  152.7201  143.1435  159.8230 O   0  0  0  0  0  0  0  0  0  0  0  0
  151.2665  145.6685  158.1740 H   0  0  0  0  0  0  0  0  0  0  0  0
  152.7440  145.7091  159.1309 H   0  0  0  0  0  0  0  0  0  0  0  0
  151.2060  145.3358  159.9043 H   0  0  0  0  0  0  0  0  0  0  0  0
  152.6326  143.6062  157.8180 H   0  0  0  0  0  0  0  0  0  0  0  0
  150.0627  143.0727  159.4069 H   0  0  0  0  0  0  0  0  0  0  0  0
  150.1675  143.3693  157.6856 H   0  0  0  0  0  0  0  0  0  0  0  0
  149.0337  140.8332  158.9155 H   0  0  0  0  0  0  0  0  0  0  0  0
  148.0010  140.8291  156.6160 H   0  0  0  0  0  0  0  0  0  0  0  0
  149.5537  141.2789  155.9248 H   0  0  0  0  0  0  0  0  0  0  0  0
  148.6805  142.3848  156.9775 H   0  0  0  0  0  0  0  0  0  0  0  0
  150.1794  139.0023  156.7893 H   0  0  0  0  0  0  0  0  0  0  0  0
  150.6970  138.8146  158.4526 H   0  0  0  0  0  0  0  0  0  0  0  0
  147.8197  138.7679  157.7738 H   0  0  0  0  0  0  0  0  0  0  0  0
  146.5160  137.3771  158.8266 H   0  0  0  0  0  0  0  0  0  0  0  0
  147.1717  135.7774  158.5182 H   0  0  0  0  0  0  0  0  0  0  0  0
  146.8603  134.2006  160.4750 H   0  0  0  0  0  0  0  0  0  0  0  0
  146.7304  134.4981  163.1848 H   0  0  0  0  0  0  0  0  0  0  0  0
  147.0894  137.2240  163.5304 H   0  0  0  0  0  0  0  0  0  0  0  0
  151.1903  140.9533  160.3566 H   0  0  0  0  0  0  0  0  0  0  0  0
  152.0755  139.9253  159.2345 H   0  0  0  0  0  0  0  0  0  0  0  0
  153.6758  141.6995  158.7133 H   0  0  0  0  0  0  0  0  0  0  0  0
  154.1887  140.2633  160.6937 H   0  0  0  0  0  0  0  0  0  0  0  0
  153.3269  141.3907  161.7397 H   0  0  0  0  0  0  0  0  0  0  0  0
  154.7985  141.8997  160.9158 H   0  0  0  0  0  0  0  0  0  0  0  0
  151.5081  141.3964  157.4892 H   0  0  0  0  0  0  0  0  0  0  0  0
  1  2  1  0  0  0  0
  1 21  1  0  0  0  0
  1 22  1  0  0  0  0
  1 23  1  0  0  0  0
  2 20  1  0  0  0  0
  2  3  1  0  0  0  0
  2 24  1  0  0  0  0
  3  4  1  0  0  0  0
  3 25  1  0  0  0  0
  3 26  1  0  0  0  0
  4  5  1  0  0  0  0
  4 17  1  0  0  0  0
  4 45  1  0  0  0  0
  5  6  1  0  0  0  0
  5  7  1  0  0  0  0
  5 27  1  0  0  0  0
  6 28  1  0  0  0  0
  6 29  1  0  0  0  0
  6 30  1  0  0  0  0
  7  8  1  0  0  0  0
  7 31  1  0  0  0  0
  7 32  1  0  0  0  0
  8  9  1  0  0  0  0
  8 33  1  0  0  0  0
  9 10  2  0  0  0  0
  9 11  1  0  0  0  0
 11 12  1  0  0  0  0
 11 34  1  0  0  0  0
 11 35  1  0  0  0  0
 12 16  1  0  0  0  0
 12 13  1  0  0  0  0
 13 14  2  0  0  0  0
 13 36  1  0  0  0  0
 14 15  1  0  0  0  0
 14 37  1  0  0  0  0
 15 16  2  0  0  0  0
 15 38  1  0  0  0  0
 17 18  1  0  0  0  0
 17 39  1  0  0  0  0
 17 40  1  0  0  0  0
 18 19  1  0  0  0  0
 18 20  1  0  0  0  0
 18 41  1  0  0  0  0
 19 42  1  0  0  0  0
 19 43  1  0  0  0  0
 19 44  1  0  0  0  0
M  CHG  1   4   1
M  END
> <s_m_source_file>
AV-unprocessed.smi

> <i_m_source_file_index>
1433

> <i_lp_mmshare_version>
43012

> <i_f3d_flags>
0

> <s_epik_input>
W0NIM11bQ0BASF0xW0NIMl1OKFtDSDJdW0NASF0oTzEpW0NIM10pW0NASF0oW0NIM10pW0NIMl1bTkhdQyg9TylbQ0gyXW4yW2NIXVtjSF1bY0hdbjI=

> <s_epik_cmdline>
J2VwaWtfcHl0aG9uJywgJy1waCcsICc3LjAnLCAnLXRuJywgJzgnLCAnLW1hJywgJzIwMCcsICctbWV0YWxfYmluZGluZycsICctaW1hZScsICc8aW5maWxlLm1hZT4nLCAnLW9tYWUnLCAnPG91dGZpbGUubWFlPic=

> <r_lp_tautomer_probability>
1

> <r_epik_Ionization_Penalty>
0.748405

> <r_epik_Ionization_Penalty_Charging>
0.748396

> <r_epik_Ionization_Penalty_Neutral>
8.54426e-06

> <r_epik_State_Penalty>
0.775162

> <r_epik_Charging_Adjusted_Penalty>
1.52356

> <i_epik_Tot_Q>
1

> <i_epik_Tot_abs_Q>
1

> <r_epik_Metal_State_Penalty>
0.775167

> <b_epik_Metal_Only>
0

> <s_lp_Force_Field>
OPLS_2005

> <r_lp_Energy>
17.7412

> <b_lp_Chiralities_Consistent>
1

> <s_lp_Variant>
AV-unprocessed.smi:1433-13

> <Gold.Version>
5.8.1

> <Gold.Id.Protein>
6NUR|6NUR_protein|mol2

> <Gold.PLP.Fitness>
51.7715

> <Gold.PLP.PLP>
-44.3873

> <Gold.PLP.part.hbond>
-3.0000

> <Gold.PLP.part.metal>
0.0000

> <Gold.PLP.part.buried>
-6.6361

> <Gold.PLP.part.nonpolar>
-34.6298

> <Gold.PLP.part.repulsive>
0.2544

> <Gold.PLP.ligand.clash>
0.0000

> <Gold.PLP.ligand.torsion>
0.4892

> <Gold.PLP.Chemscore.Hbond>
2.7600

> <Gold.PLP.Chemscore.CHOScore>
0.0000

> <Gold.PLP.Chemscore.Metal>
0.0000

> <Gold.Chemscore.Hbonds>
donor molecule, donor type, donor heavy atom, donor atom, acceptor molecule, acceptor atom, score
      P1  H  6896  6908       L1    10  0.49
      P1  H  6931  6943       L1    16  0.64
      P1  H  6934  6947       L1    16  0.96

> <Gold.PLP.Chemscore.Internal.Correction>
0.0826

> <Gold.Rescore>
     Score         DG    S(hbond)    S(metal)    S(lipo)     H(rot)  DE(clash)    DE(int)     intcor
     19.83     -20.24       2.23        0.00     103.47       1.87       0.02       0.39       ----

> <Gold.Chemscore.Fitness>
19.8263

> <Gold.Chemscore.DG>
-20.2433

> <Gold.Chemscore.ZeroCoef>
-5.4800

> <Gold.Chemscore.Hbond>
2.2256

> <Gold.Chemscore.Metal>
0.0000

> <Gold.Chemscore.Lipo>
103.4682

> <Gold.Chemscore.Internal_Hbond>
0.0000

> <Gold.Chemscore.DEClash>
0.0222

> <Gold.Chemscore.DEInternal>
0.3948

> <Gold.Chemscore.Rot>
1.8657

> <Gold.Chemscore.Internal.Correction>
   9.000000E+99

> <Gold.Chemscore.Hbonds>
donor molecule, donor type, donor heavy atom, donor atom, acceptor molecule, acceptor atom, score
      P1  H  6896  6908       L1    10  0.50
      P1  H  6931  6943       L1    16  0.12
      P1  H  6934  6947       L1    16  0.89

> <Gold.Chemscore.Hbond.Weighted>
-7.4336

> <Gold.Chemscore.Metal.Weighted>
-0.0000

> <Gold.Chemscore.Lipo.Weighted>
-12.1058

> <Gold.Chemscore.Internal_Hbond.Weighted>
0.0000

> <Gold.Chemscore.DEClash.Weighted>
0.0222

> <Gold.Chemscore.DEInternal.Weighted>
0.3948

> <Gold.Chemscore.Rot.Weighted>
4.7761

> <Gold.Chemscore.Internal.Correction.Weighted>
   9.000000E+99

> <Gold.Protein.RotatedTorsions>
[ 6907 6896 6895 6894 ] final -161.52 input  -60.11 | X-H torsion
[ 7974 7965 7964 7962 ] final  -71.29 input  175.53 | X-H torsion
[ 8008 7997 7996 7995 ] final -102.19 input   59.86 | X-H torsion
[ 10167 10162 10161 10158 ] final  160.36 input  -65.29 | X-H torsion
[ 10718 10713 10712 10709 ] final  150.23 input   66.30 | X-H torsion
[ 10763 10752 10751 10750 ] final  -10.68 input  -60.55 | X-H torsion
[ 11005 11000 10999 10996 ] final  -24.87 input  -57.11 | X-H torsion

> <Gold.Protein.ActiveResidues>
 VAL166  LYS551  ARG553  GLY616  TRP617  ASP618  TYR619  PRO620  LYS621  CYS622 
 ASP623  PHE694  ASN695  SER759  ASP760  ASP761  ALA762  ILE779  LEU786  VAL792 
 PHE793  MET794  SER795  GLU796  ALA797  LYS798  CYS799  TRP800  GLU811  SER814 

> <Gold.Protein.RotatedAtoms>
  151.3659  133.3872  159.2694 H   0  0  0  0  0  0  0  0  0  0  0  0  # atno 6907 bound_to 6896
  150.9689  134.9066  159.7786 H   0  0  0  0  0  0  0  0  0  0  0  0  # atno 6908 bound_to 6896
  152.5177  134.3621  159.9340 H   0  0  0  0  0  0  0  0  0  0  0  0  # atno 6909 bound_to 6896
  145.6799  140.9191  143.0837 H   0  0  0  0  0  0  0  0  0  0  0  0  # atno 7974 bound_to 7965
  154.8532  140.0430  157.1617 H   0  0  0  0  0  0  0  0  0  0  0  0  # atno 8008 bound_to 7997
  154.8920  140.2988  155.5345 H   0  0  0  0  0  0  0  0  0  0  0  0  # atno 8009 bound_to 7997
  156.2996  140.2392  156.3937 H   0  0  0  0  0  0  0  0  0  0  0  0  # atno 8010 bound_to 7997
  139.4839  144.4641  151.8665 H   0  0  0  0  0  0  0  0  0  0  0  0  # atno 10167 bound_to 10162
  157.2861  131.0844  151.1496 H   0  0  0  0  0  0  0  0  0  0  0  0  # atno 10718 bound_to 10713
  153.4727  135.7017  153.5984 H   0  0  0  0  0  0  0  0  0  0  0  0  # atno 10763 bound_to 10752
  153.4231  135.3820  155.2124 H   0  0  0  0  0  0  0  0  0  0  0  0  # atno 10764 bound_to 10752
  154.8724  135.3932  154.4166 H   0  0  0  0  0  0  0  0  0  0  0  0  # atno 10765 bound_to 10752
  140.8886  133.7604  156.0392 H   0  0  0  0  0  0  0  0  0  0  0  0  # atno 11005 bound_to 11000
  144.7029  139.8683  143.7439 LP  0  0  0  0  0  0  0  0  0  0  0  0  # atno 17320 bound_to 7965
  146.0973  139.3966  143.0369 LP  0  0  0  0  0  0  0  0  0  0  0  0  # atno 17321 bound_to 7965
  140.4106  144.2374  150.5889 LP  0  0  0  0  0  0  0  0  0  0  0  0  # atno 17342 bound_to 10162
  140.4970  143.2329  151.8734 LP  0  0  0  0  0  0  0  0  0  0  0  0  # atno 17343 bound_to 10162
  157.2911  130.6797  149.6115 LP  0  0  0  0  0  0  0  0  0  0  0  0  # atno 17370 bound_to 10713
  155.9665  130.4420  150.5365 LP  0  0  0  0  0  0  0  0  0  0  0  0  # atno 17371 bound_to 10713
  140.8375  134.3106  157.5326 LP  0  0  0  0  0  0  0  0  0  0  0  0  # atno 17394 bound_to 11000
  139.8727  134.9397  156.3750 LP  0  0  0  0  0  0  0  0  0  0  0  0  # atno 17395 bound_to 11000

$$$$
