AV-unprocessed.smi:713|AV-procd|sdf|3474|dock2
  -GOLD-   22720 0463D 1   1.00000     0.00000
 Structure written by MMmdl.
 41 42  0  0  0  0  0  0  0  0  1 V2000
  151.7453  144.6536  158.0021 C   0  0  0  0  0  0  0  0  0  0  0  0
  152.3253  143.2481  158.2608 C   0  0  2  0  0  0  0  0  0  0  0  0
  151.4253  142.1161  157.7340 C   0  0  0  0  0  0  0  0  0  0  0  0
  151.6758  140.9380  157.9923 O   0  0  0  0  0  0  0  0  0  0  0  0
  150.3640  142.4929  157.0019 N   0  0  0  0  0  0  0  0  0  0  0  0
  149.3898  141.5888  156.4005 C   0  0  2  0  0  0  0  0  0  0  0  0
  149.4916  141.6700  154.8669 C   0  0  0  0  0  0  0  0  0  0  0  0
  148.4542  140.7674  154.1809 C   0  0  0  0  0  0  0  0  0  0  0  0
  147.0260  141.0687  154.6712 C   0  0  0  0  0  0  0  0  0  0  0  0
  146.8828  141.0637  156.2107 C   0  0  1  0  0  0  0  0  0  0  0  0
  146.8709  139.3571  156.9526 S   0  0  0  0  0  0  0  0  0  0  0  0
  148.5342  138.7141  156.4961 C   0  0  0  0  0  0  0  0  0  0  0  0
  146.8168  139.4457  158.4192 O   0  0  0  0  0  0  0  0  0  0  0  0
  145.8610  138.5585  156.2421 O   0  0  0  0  0  0  0  0  0  0  0  0
  147.9632  141.9470  156.8657 C   0  0  0  0  0  0  0  0  0  0  0  0
  152.6431  143.0458  159.6705 N   0  0  0  0  0  0  0  0  0  0  0  0
  153.2371  141.9466  160.2572 C   0  0  0  0  0  0  0  0  0  0  0  0
  153.3063  142.1848  161.5999 C   0  0  0  0  0  0  0  0  0  0  0  0
  152.7151  143.4705  161.7458 C   0  0  0  0  0  0  0  0  0  0  0  0
  152.3144  143.9804  160.5931 N   0  0  0  0  0  0  0  0  0  0  0  0
  151.5890  144.8257  156.9367 H   0  0  0  0  0  0  0  0  0  0  0  0
  152.4263  145.4263  158.3595 H   0  0  0  0  0  0  0  0  0  0  0  0
  150.7883  144.7992  158.5050 H   0  0  0  0  0  0  0  0  0  0  0  0
  153.2637  143.1808  157.7081 H   0  0  0  0  0  0  0  0  0  0  0  0
  150.2294  143.4800  156.8380 H   0  0  0  0  0  0  0  0  0  0  0  0
  149.6295  140.5694  156.7054 H   0  0  0  0  0  0  0  0  0  0  0  0
  149.3419  142.7007  154.5415 H   0  0  0  0  0  0  0  0  0  0  0  0
  150.4937  141.3867  154.5427 H   0  0  0  0  0  0  0  0  0  0  0  0
  148.5055  140.9096  153.1010 H   0  0  0  0  0  0  0  0  0  0  0  0
  148.7062  139.7222  154.3504 H   0  0  0  0  0  0  0  0  0  0  0  0
  146.7437  142.0569  154.3056 H   0  0  0  0  0  0  0  0  0  0  0  0
  146.3213  140.3759  154.2138 H   0  0  0  0  0  0  0  0  0  0  0  0
  145.9113  141.4897  156.4622 H   0  0  0  0  0  0  0  0  0  0  0  0
  148.6044  137.6658  156.7860 H   0  0  0  0  0  0  0  0  0  0  0  0
  149.3086  139.2771  157.0155 H   0  0  0  0  0  0  0  0  0  0  0  0
  148.6767  138.7992  155.4192 H   0  0  0  0  0  0  0  0  0  0  0  0
  147.8896  141.8774  157.9515 H   0  0  0  0  0  0  0  0  0  0  0  0
  147.7596  142.9901  156.6192 H   0  0  0  0  0  0  0  0  0  0  0  0
  153.5575  141.0945  159.6761 H   0  0  0  0  0  0  0  0  0  0  0  0
  153.7146  141.5380  162.3621 H   0  0  0  0  0  0  0  0  0  0  0  0
  152.5636  144.0433  162.6488 H   0  0  0  0  0  0  0  0  0  0  0  0
  1  2  1  0  0  0  0
  1 21  1  0  0  0  0
  1 22  1  0  0  0  0
  1 23  1  0  0  0  0
  2  3  1  0  0  0  0
  2 16  1  0  0  0  0
  2 24  1  0  0  0  0
  3  4  2  0  0  0  0
  3  5  1  0  0  0  0
  5  6  1  0  0  0  0
  5 25  1  0  0  0  0
  6 15  1  0  0  0  0
  6  7  1  0  0  0  0
  6 26  1  0  0  0  0
  7  8  1  0  0  0  0
  7 27  1  0  0  0  0
  7 28  1  0  0  0  0
  8  9  1  0  0  0  0
  8 29  1  0  0  0  0
  8 30  1  0  0  0  0
  9 10  1  0  0  0  0
  9 31  1  0  0  0  0
  9 32  1  0  0  0  0
 10 11  1  0  0  0  0
 10 15  1  0  0  0  0
 10 33  1  0  0  0  0
 11 12  1  0  0  0  0
 11 13  2  0  0  0  0
 11 14  2  0  0  0  0
 12 34  1  0  0  0  0
 12 35  1  0  0  0  0
 12 36  1  0  0  0  0
 15 37  1  0  0  0  0
 15 38  1  0  0  0  0
 16 20  1  0  0  0  0
 16 17  1  0  0  0  0
 17 18  2  0  0  0  0
 17 39  1  0  0  0  0
 18 19  1  0  0  0  0
 18 40  1  0  0  0  0
 19 20  2  0  0  0  0
 19 41  1  0  0  0  0
M  END
> <s_m_source_file>
AV-unprocessed.smi

> <i_m_source_file_index>
713

> <i_lp_mmshare_version>
43012

> <i_f3d_flags>
0

> <s_epik_input>
bjFbY0hdW2NIXVtjSF1uMVtDQEhdKFtDSDNdKUMoPU8pW05IXVtDQEBIXTJbQ0gyXVtDSDJdW0NIMl1bQ0BIXShbQ0gyXTIpUyg9TykoPU8pW0NIM10=

> <s_epik_cmdline>
J2VwaWtfcHl0aG9uJywgJy1waCcsICc3LjAnLCAnLXRuJywgJzgnLCAnLW1hJywgJzIwMCcsICctbWV0YWxfYmluZGluZycsICctaW1hZScsICc8aW5maWxlLm1hZT4nLCAnLW9tYWUnLCAnPG91dGZpbGUubWFlPic=

> <r_lp_tautomer_probability>
1

> <r_epik_Ionization_Penalty>
4.07816e-05

> <r_epik_Ionization_Penalty_Charging>
0

> <r_epik_Ionization_Penalty_Neutral>
4.07816e-05

> <r_epik_State_Penalty>
-0

> <r_epik_Charging_Adjusted_Penalty>
0

> <i_epik_Tot_Q>
0

> <i_epik_Tot_abs_Q>
0

> <r_epik_Metal_State_Penalty>
-0

> <b_epik_Metal_Only>
0

> <s_lp_Force_Field>
OPLS_2005

> <r_lp_Energy>
4.10812

> <b_lp_Chiralities_Consistent>
1

> <s_lp_Variant>
AV-unprocessed.smi:713-1

> <Gold.Version>
5.8.1

> <Gold.Id.Protein>
6NUR|6NUR_protein|mol2

> <Gold.PLP.Fitness>
41.1131

> <Gold.PLP.PLP>
-39.7023

> <Gold.PLP.part.hbond>
-2.0000

> <Gold.PLP.part.metal>
0.0000

> <Gold.PLP.part.buried>
-3.5869

> <Gold.PLP.part.nonpolar>
-32.6080

> <Gold.PLP.part.repulsive>
0.1240

> <Gold.PLP.ligand.clash>
0.0000

> <Gold.PLP.ligand.torsion>
0.3816

> <Gold.PLP.Chemscore.Hbond>
0.6240

> <Gold.PLP.Chemscore.CHOScore>
0.0000

> <Gold.PLP.Chemscore.Metal>
0.0000

> <Gold.Chemscore.Hbonds>
donor molecule, donor type, donor heavy atom, donor atom, acceptor molecule, acceptor atom, score
      L1  H     5    25       P1  8028  0.50

> <Gold.PLP.Chemscore.Internal.Correction>
0.3019

> <Gold.Rescore>
     Score         DG    S(hbond)    S(metal)    S(lipo)     H(rot)  DE(clash)    DE(int)     intcor
     12.22     -14.77       0.94        0.00      90.27       1.72       0.04       2.51       ----

> <Gold.Chemscore.Fitness>
12.2167

> <Gold.Chemscore.DG>
-14.7672

> <Gold.Chemscore.ZeroCoef>
-5.4800

> <Gold.Chemscore.Hbond>
0.9406

> <Gold.Chemscore.Metal>
0.0000

> <Gold.Chemscore.Lipo>
90.2667

> <Gold.Chemscore.Internal_Hbond>
0.0000

> <Gold.Chemscore.DEClash>
0.0372

> <Gold.Chemscore.DEInternal>
2.5133

> <Gold.Chemscore.Rot>
1.7249

> <Gold.Chemscore.Internal.Correction>
   9.000000E+99

> <Gold.Chemscore.Hbonds>
donor molecule, donor type, donor heavy atom, donor atom, acceptor molecule, acceptor atom, score
      L1  H     5    25       P1  8028  0.51

> <Gold.Chemscore.Hbond.Weighted>
-3.1417

> <Gold.Chemscore.Metal.Weighted>
-0.0000

> <Gold.Chemscore.Lipo.Weighted>
-10.5612

> <Gold.Chemscore.Internal_Hbond.Weighted>
0.0000

> <Gold.Chemscore.DEClash.Weighted>
0.0372

> <Gold.Chemscore.DEInternal.Weighted>
2.5133

> <Gold.Chemscore.Rot.Weighted>
4.4157

> <Gold.Chemscore.Internal.Correction.Weighted>
   9.000000E+99

> <Gold.Protein.RotatedTorsions>
[ 6907 6896 6895 6894 ] final -123.53 input  -60.11 | X-H torsion
[ 7974 7965 7964 7962 ] final -153.55 input  175.53 | X-H torsion
[ 8008 7997 7996 7995 ] final  -31.27 input   59.86 | X-H torsion
[ 10167 10162 10161 10158 ] final  -28.99 input  -65.29 | X-H torsion
[ 10718 10713 10712 10709 ] final  156.02 input   66.30 | X-H torsion
[ 10763 10752 10751 10750 ] final   95.65 input  -60.55 | X-H torsion
[ 11005 11000 10999 10996 ] final   -5.37 input  -57.11 | X-H torsion

> <Gold.Protein.ActiveResidues>
 VAL166  LYS551  ARG553  GLY616  TRP617  ASP618  TYR619  PRO620  LYS621  CYS622 
 ASP623  PHE694  ASN695  SER759  ASP760  ASP761  ALA762  ILE779  LEU786  VAL792 
 PHE793  MET794  SER795  GLU796  ALA797  LYS798  CYS799  TRP800  GLU811  SER814 

> <Gold.Protein.RotatedAtoms>
  150.8680  133.7547  159.2970 H   0  0  0  0  0  0  0  0  0  0  0  0  # atno 6907 bound_to 6896
  151.5168  135.1065  159.9878 H   0  0  0  0  0  0  0  0  0  0  0  0  # atno 6908 bound_to 6896
  152.4675  133.7910  159.6957 H   0  0  0  0  0  0  0  0  0  0  0  0  # atno 6909 bound_to 6896
  144.7735  140.4510  143.5890 H   0  0  0  0  0  0  0  0  0  0  0  0  # atno 7974 bound_to 7965
  154.4220  140.1769  156.1540 H   0  0  0  0  0  0  0  0  0  0  0  0  # atno 8008 bound_to 7997
  155.9892  140.3370  155.6712 H   0  0  0  0  0  0  0  0  0  0  0  0  # atno 8009 bound_to 7997
  155.6396  140.0678  157.2613 H   0  0  0  0  0  0  0  0  0  0  0  0  # atno 8010 bound_to 7997
  140.7265  143.3965  151.1339 H   0  0  0  0  0  0  0  0  0  0  0  0  # atno 10167 bound_to 10162
  157.2106  131.0696  151.1972 H   0  0  0  0  0  0  0  0  0  0  0  0  # atno 10718 bound_to 10713
  153.2557  135.4246  155.0843 H   0  0  0  0  0  0  0  0  0  0  0  0  # atno 10763 bound_to 10752
  154.8400  135.3437  154.6449 H   0  0  0  0  0  0  0  0  0  0  0  0  # atno 10764 bound_to 10752
  153.6870  135.7036  153.5158 H   0  0  0  0  0  0  0  0  0  0  0  0  # atno 10765 bound_to 10752
  140.6904  133.9076  155.8614 H   0  0  0  0  0  0  0  0  0  0  0  0  # atno 11005 bound_to 11000
  145.6254  139.1529  143.2999 LP  0  0  0  0  0  0  0  0  0  0  0  0  # atno 17320 bound_to 7965
  146.1898  140.6361  142.9150 LP  0  0  0  0  0  0  0  0  0  0  0  0  # atno 17321 bound_to 7965
  139.7578  143.8681  152.3093 LP  0  0  0  0  0  0  0  0  0  0  0  0  # atno 17342 bound_to 10162
  139.8556  144.7142  150.9161 LP  0  0  0  0  0  0  0  0  0  0  0  0  # atno 17343 bound_to 10162
  157.3676  130.7164  149.6543 LP  0  0  0  0  0  0  0  0  0  0  0  0  # atno 17370 bound_to 10713
  155.9691  130.4208  150.4438 LP  0  0  0  0  0  0  0  0  0  0  0  0  # atno 17371 bound_to 10713
  141.0246  134.0842  157.4083 LP  0  0  0  0  0  0  0  0  0  0  0  0  # atno 17394 bound_to 11000
  139.8925  135.0125  156.6849 LP  0  0  0  0  0  0  0  0  0  0  0  0  # atno 17395 bound_to 11000

$$$$
