AV-unprocessed.smi:2356|AV-procd|sdf|9398|dock2
  -GOLD-   2272013 33D 1   1.00000     0.00000
 Structure written by MMmdl.
 54 57  0  0  0  0  0  0  0  0  2 V2000
  151.3102  137.9910  154.3842 C   0  0  0  0  0  0  0  0  0  0  0  0
  150.4941  139.1729  154.8821 C   0  0  0  0  0  0  0  0  0  0  0  0
  151.1349  140.0398  155.6979 N   0  3  0  0  0  0  0  0  0  0  0  0
  150.5592  141.1410  156.2250 C   0  0  0  0  0  0  0  0  0  0  0  0
  151.3564  141.9419  157.0545 N   0  0  0  0  0  0  0  0  0  0  0  0
  150.9870  141.9278  158.4601 C   0  0  0  0  0  0  0  0  0  0  0  0
  151.6754  143.1476  159.0786 C   0  0  0  0  0  0  0  0  0  0  0  0
  151.9678  144.0783  157.8956 C   0  0  0  0  0  0  0  0  0  0  0  0
  151.4173  143.3424  156.6714 C   0  0  0  0  0  0  0  0  0  0  0  0
  149.2123  141.4278  155.9112 C   0  0  0  0  0  0  0  0  0  0  0  0
  148.4991  140.5555  155.0654 C   0  0  0  0  0  0  0  0  0  0  0  0
  149.1337  139.3974  154.5484 C   0  0  0  0  0  0  0  0  0  0  0  0
  148.4766  138.4832  153.6786 N   0  0  0  0  0  0  0  0  0  0  0  0
  147.1676  138.4005  153.3689 C   0  0  0  0  0  0  0  0  0  0  0  0
  146.2931  139.1306  153.8297 O   0  0  0  0  0  0  0  0  0  0  0  0
  146.8671  137.4200  152.4980 N   0  0  0  0  0  0  0  0  0  0  0  0
  145.5573  137.0548  151.9532 C   0  0  1  0  0  0  0  0  0  0  0  0
  145.7107  135.8599  151.0002 C   0  0  0  0  0  0  0  0  0  0  0  0
  144.3370  135.3636  150.5216 C   0  0  0  0  0  0  0  0  0  0  0  0
  143.5210  135.0358  151.6412 O   0  0  0  0  0  0  0  0  0  0  0  0
  143.2501  136.1523  152.4829 C   0  0  1  0  0  0  0  0  0  0  0  0
  142.2872  135.7072  153.5655 C   0  0  0  0  0  0  0  0  0  0  0  0
  141.1628  134.7475  153.2541 C   0  0  0  0  0  0  0  0  0  0  0  0
  140.8558  136.1916  153.5697 C   0  0  0  0  0  0  0  0  0  0  0  0
  144.5702  136.6806  153.0735 C   0  0  0  0  0  0  0  0  0  0  0  0
  150.7604  137.3477  153.6980 H   0  0  0  0  0  0  0  0  0  0  0  0
  151.6335  137.3801  155.2274 H   0  0  0  0  0  0  0  0  0  0  0  0
  152.2003  138.3451  153.8635 H   0  0  0  0  0  0  0  0  0  0  0  0
  149.9056  142.0099  158.5758 H   0  0  0  0  0  0  0  0  0  0  0  0
  151.3061  141.0020  158.9398 H   0  0  0  0  0  0  0  0  0  0  0  0
  151.0471  143.6212  159.8338 H   0  0  0  0  0  0  0  0  0  0  0  0
  152.6090  142.8541  159.5602 H   0  0  0  0  0  0  0  0  0  0  0  0
  151.5080  145.0596  158.0146 H   0  0  0  0  0  0  0  0  0  0  0  0
  153.0440  144.2252  157.7971 H   0  0  0  0  0  0  0  0  0  0  0  0
  152.0556  143.4829  155.7985 H   0  0  0  0  0  0  0  0  0  0  0  0
  150.4228  143.7165  156.4250 H   0  0  0  0  0  0  0  0  0  0  0  0
  148.7255  142.3077  156.3057 H   0  0  0  0  0  0  0  0  0  0  0  0
  147.4788  140.8037  154.8184 H   0  0  0  0  0  0  0  0  0  0  0  0
  149.0641  137.7610  153.2879 H   0  0  0  0  0  0  0  0  0  0  0  0
  147.6453  136.8733  152.1585 H   0  0  0  0  0  0  0  0  0  0  0  0
  145.1533  137.8914  151.3801 H   0  0  0  0  0  0  0  0  0  0  0  0
  146.3274  136.1343  150.1436 H   0  0  0  0  0  0  0  0  0  0  0  0
  146.2266  135.0435  151.5081 H   0  0  0  0  0  0  0  0  0  0  0  0
  143.8435  136.1169  149.9056 H   0  0  0  0  0  0  0  0  0  0  0  0
  144.4558  134.4750  149.9011 H   0  0  0  0  0  0  0  0  0  0  0  0
  142.7708  136.9371  151.8944 H   0  0  0  0  0  0  0  0  0  0  0  0
  142.7503  135.5933  154.5440 H   0  0  0  0  0  0  0  0  0  0  0  0
  141.0447  134.4224  152.2224 H   0  0  0  0  0  0  0  0  0  0  0  0
  140.9167  134.0031  154.0086 H   0  0  0  0  0  0  0  0  0  0  0  0
  140.4032  136.4113  154.5345 H   0  0  0  0  0  0  0  0  0  0  0  0
  140.5330  136.8273  152.7474 H   0  0  0  0  0  0  0  0  0  0  0  0
  145.0128  135.9168  153.7150 H   0  0  0  0  0  0  0  0  0  0  0  0
  144.3690  137.5424  153.7104 H   0  0  0  0  0  0  0  0  0  0  0  0
  152.1107  139.8513  155.9286 H   0  0  0  0  0  0  0  0  0  0  0  0
  1  2  1  0  0  0  0
  1 26  1  0  0  0  0
  1 27  1  0  0  0  0
  1 28  1  0  0  0  0
  2 12  1  0  0  0  0
  2  3  2  0  0  0  0
  3  4  1  0  0  0  0
  3 54  1  0  0  0  0
  4  5  1  0  0  0  0
  4 10  2  0  0  0  0
  5  9  1  0  0  0  0
  5  6  1  0  0  0  0
  6  7  1  0  0  0  0
  6 29  1  0  0  0  0
  6 30  1  0  0  0  0
  7  8  1  0  0  0  0
  7 31  1  0  0  0  0
  7 32  1  0  0  0  0
  8  9  1  0  0  0  0
  8 33  1  0  0  0  0
  8 34  1  0  0  0  0
  9 35  1  0  0  0  0
  9 36  1  0  0  0  0
 10 11  1  0  0  0  0
 10 37  1  0  0  0  0
 11 12  2  0  0  0  0
 11 38  1  0  0  0  0
 12 13  1  0  0  0  0
 13 14  1  0  0  0  0
 13 39  1  0  0  0  0
 14 15  2  0  0  0  0
 14 16  1  0  0  0  0
 16 17  1  0  0  0  0
 16 40  1  0  0  0  0
 17 25  1  0  0  0  0
 17 18  1  0  0  0  0
 17 41  1  0  0  0  0
 18 19  1  0  0  0  0
 18 42  1  0  0  0  0
 18 43  1  0  0  0  0
 19 20  1  0  0  0  0
 19 44  1  0  0  0  0
 19 45  1  0  0  0  0
 20 21  1  0  0  0  0
 21 22  1  0  0  0  0
 21 25  1  0  0  0  0
 21 46  1  0  0  0  0
 22 24  1  0  0  0  0
 22 23  1  0  0  0  0
 22 47  1  0  0  0  0
 23 24  1  0  0  0  0
 23 48  1  0  0  0  0
 23 49  1  0  0  0  0
 24 50  1  0  0  0  0
 24 51  1  0  0  0  0
 25 52  1  0  0  0  0
 25 53  1  0  0  0  0
M  CHG  1   3   1
M  END
> <s_m_source_file>
AV-unprocessed.smi

> <i_m_source_file_index>
2356

> <i_lp_mmshare_version>
43012

> <i_f3d_flags>
0

> <s_epik_input>
W0NIMl0xW0NIMl1bQ0gyXVtDSDJdTjFjKG5jMltDSDNdKVtjSF1bY0hdYzJbTkhdQyg9TylbTkhdW0NAQEhdM1tDSDJdW0NIMl1PW0NASF0oW0NIMl0zKVtDSF00W0NIMl1bQ0gyXTQ=

> <s_epik_cmdline>
J2VwaWtfcHl0aG9uJywgJy1waCcsICc3LjAnLCAnLXRuJywgJzgnLCAnLW1hJywgJzIwMCcsICctbWV0YWxfYmluZGluZycsICctaW1hZScsICc8aW5maWxlLm1hZT4nLCAnLW9tYWUnLCAnPG91dGZpbGUubWFlPic=

> <r_lp_tautomer_probability>
0.999994

> <r_epik_Ionization_Penalty>
0.534681

> <r_epik_Ionization_Penalty_Charging>
0.534661

> <r_epik_Ionization_Penalty_Neutral>
1.99132e-05

> <r_epik_State_Penalty>
0.543738

> <r_epik_Charging_Adjusted_Penalty>
1.0784

> <i_epik_Tot_Q>
1

> <i_epik_Tot_abs_Q>
1

> <r_epik_Metal_State_Penalty>
0.74699

> <b_epik_Metal_Only>
0

> <s_lp_Force_Field>
OPLS_2005

> <r_lp_Energy>
63.5996

> <b_lp_Chiralities_Consistent>
1

> <s_lp_Variant>
AV-unprocessed.smi:2356-6

> <Gold.Version>
5.8.1

> <Gold.Id.Protein>
6NUR|6NUR_protein|mol2

> <Gold.PLP.Fitness>
49.0443

> <Gold.PLP.PLP>
-44.9479

> <Gold.PLP.part.hbond>
-2.7883

> <Gold.PLP.part.metal>
0.0000

> <Gold.PLP.part.buried>
-3.6974

> <Gold.PLP.part.nonpolar>
-39.8756

> <Gold.PLP.part.repulsive>
0.6734

> <Gold.PLP.ligand.clash>
0.0000

> <Gold.PLP.ligand.torsion>
1.0545

> <Gold.PLP.Chemscore.Hbond>
1.7026

> <Gold.PLP.Chemscore.CHOScore>
0.0000

> <Gold.PLP.Chemscore.Metal>
0.0000

> <Gold.Chemscore.Hbonds>
donor molecule, donor type, donor heavy atom, donor atom, acceptor molecule, acceptor atom, score
      L1  H    13    39       P1  7948  0.72
      L1  H    16    40       P1  7948  0.86

> <Gold.PLP.Chemscore.Internal.Correction>
1.0976

> <Gold.Rescore>
     Score         DG    S(hbond)    S(metal)    S(lipo)     H(rot)  DE(clash)    DE(int)     intcor
     18.35     -21.46       1.56        0.00     120.54       1.31       0.85       2.26       ----

> <Gold.Chemscore.Fitness>
18.3514

> <Gold.Chemscore.DG>
-21.4638

> <Gold.Chemscore.ZeroCoef>
-5.4800

> <Gold.Chemscore.Hbond>
1.5641

> <Gold.Chemscore.Metal>
0.0000

> <Gold.Chemscore.Lipo>
120.5382

> <Gold.Chemscore.Internal_Hbond>
0.0000

> <Gold.Chemscore.DEClash>
0.8507

> <Gold.Chemscore.DEInternal>
2.2617

> <Gold.Chemscore.Rot>
1.3060

> <Gold.Chemscore.Internal.Correction>
   9.000000E+99

> <Gold.Chemscore.Hbonds>
donor molecule, donor type, donor heavy atom, donor atom, acceptor molecule, acceptor atom, score
      L1  H    13    39       P1  7948  0.69
      L1  H    16    40       P1  7948  0.84

> <Gold.Chemscore.Hbond.Weighted>
-5.2241

> <Gold.Chemscore.Metal.Weighted>
-0.0000

> <Gold.Chemscore.Lipo.Weighted>
-14.1030

> <Gold.Chemscore.Internal_Hbond.Weighted>
0.0000

> <Gold.Chemscore.DEClash.Weighted>
0.8507

> <Gold.Chemscore.DEInternal.Weighted>
2.2617

> <Gold.Chemscore.Rot.Weighted>
3.3433

> <Gold.Chemscore.Internal.Correction.Weighted>
   9.000000E+99

> <Gold.Protein.RotatedTorsions>
[ 6907 6896 6895 6894 ] final  175.50 input  -60.11 | X-H torsion
[ 7974 7965 7964 7962 ] final   19.20 input  175.53 | X-H torsion
[ 8008 7997 7996 7995 ] final  162.78 input   59.86 | X-H torsion
[ 10167 10162 10161 10158 ] final  -25.07 input  -65.29 | X-H torsion
[ 10718 10713 10712 10709 ] final -150.24 input   66.30 | X-H torsion
[ 10763 10752 10751 10750 ] final  -13.50 input  -60.55 | X-H torsion
[ 11005 11000 10999 10996 ] final  132.89 input  -57.11 | X-H torsion

> <Gold.Protein.ActiveResidues>
 VAL166  LYS551  ARG553  GLY616  TRP617  ASP618  TYR619  PRO620  LYS621  CYS622 
 ASP623  PHE694  ASN695  SER759  ASP760  ASP761  ALA762  ILE779  LEU786  VAL792 
 PHE793  MET794  SER795  GLU796  ALA797  LYS798  CYS799  TRP800  GLU811  SER814 

> <Gold.Protein.RotatedAtoms>
  151.7352  133.3319  159.3350 H   0  0  0  0  0  0  0  0  0  0  0  0  # atno 6907 bound_to 6896
  150.7596  134.6328  159.6204 H   0  0  0  0  0  0  0  0  0  0  0  0  # atno 6908 bound_to 6896
  152.3566  134.6933  160.0272 H   0  0  0  0  0  0  0  0  0  0  0  0  # atno 6909 bound_to 6896
  146.2158  139.8347  142.8653 H   0  0  0  0  0  0  0  0  0  0  0  0  # atno 7974 bound_to 7965
  156.2006  140.1741  156.7907 H   0  0  0  0  0  0  0  0  0  0  0  0  # atno 8008 bound_to 7997
  154.5586  140.0704  156.8814 H   0  0  0  0  0  0  0  0  0  0  0  0  # atno 8009 bound_to 7997
  155.2890  140.3354  155.4256 H   0  0  0  0  0  0  0  0  0  0  0  0  # atno 8010 bound_to 7997
  140.7287  143.4297  151.0820 H   0  0  0  0  0  0  0  0  0  0  0  0  # atno 10167 bound_to 10162
  156.4436  130.8133  151.2364 H   0  0  0  0  0  0  0  0  0  0  0  0  # atno 10718 bound_to 10713
  153.5143  135.7016  153.5765 H   0  0  0  0  0  0  0  0  0  0  0  0  # atno 10763 bound_to 10752
  153.3841  135.3912  155.1878 H   0  0  0  0  0  0  0  0  0  0  0  0  # atno 10764 bound_to 10752
  154.8700  135.3842  154.4625 H   0  0  0  0  0  0  0  0  0  0  0  0  # atno 10765 bound_to 10752
  139.9818  134.9546  156.9646 H   0  0  0  0  0  0  0  0  0  0  0  0  # atno 11005 bound_to 11000
  145.2960  141.0181  143.3636 LP  0  0  0  0  0  0  0  0  0  0  0  0  # atno 17320 bound_to 7965
  144.9041  139.4611  143.6618 LP  0  0  0  0  0  0  0  0  0  0  0  0  # atno 17321 bound_to 7965
  139.7953  143.8160  152.3157 LP  0  0  0  0  0  0  0  0  0  0  0  0  # atno 17342 bound_to 10162
  139.8158  144.7316  150.9637 LP  0  0  0  0  0  0  0  0  0  0  0  0  # atno 17343 bound_to 10162
  157.7505  131.0160  150.3528 LP  0  0  0  0  0  0  0  0  0  0  0  0  # atno 17370 bound_to 10713
  156.3891  130.3894  149.7043 LP  0  0  0  0  0  0  0  0  0  0  0  0  # atno 17371 bound_to 10713
  140.5082  134.1029  155.7264 LP  0  0  0  0  0  0  0  0  0  0  0  0  # atno 17394 bound_to 11000
  141.1489  133.9005  157.2148 LP  0  0  0  0  0  0  0  0  0  0  0  0  # atno 17395 bound_to 11000

$$$$
