#       Name:                AV-unprocessed.smi:1632
#       Creating user name   scv26
#       Creation time:       Fri Mar 27 07:21:13 2020


#       File generated by GOLD software.
#

@<TRIPOS>MOLECULE
AV-unprocessed.smi:1632
    47    49     1
SMALL
NO_CHARGES


@<TRIPOS>ATOM
      1 ****        -3.7699   3.0008   0.4713 O.3            1 S1                 0.0000
      2 ****        -3.4400   1.6667   0.7908 C.3            1 S1                 0.0000
      3 ****        -1.9279   1.5482   1.0180 C.3            1 S1                 0.0000
      4 ****        -1.4990   0.1159   1.3715 C.3            1 S1                 0.0000
      5 ****        -0.0103  -0.0229   1.4554 C.2            1 S1                 0.0000
      6 ****         0.8307   0.8167   2.1248 N.pl3          1 S1                 1.0000
      7 ****         2.1475   0.3764   1.9925 C.ar           1 S1                 0.0000
      8 ****         3.3388   0.9030   2.4826 C.ar           1 S1                 0.0000
      9 ****         4.5195   0.2009   2.1626 C.ar           1 S1                 0.0000
     10 ****         4.4867  -0.9751   1.3854 C.ar           1 S1                 0.0000
     11 ****         3.2725  -1.4989   0.8945 C.ar           1 S1                 0.0000
     12 ****         2.1100  -0.7982   1.2151 C.ar           1 S1                 0.0000
     13 ****         0.7606  -1.0107   0.9107 N.pl3          1 S1                 0.0000
     14 ****         0.3936  -2.1801   0.0953 C.3            1 S1                 0.0000
     15 ****         0.6016  -1.9419  -1.4141 C.3            1 S1                 0.0000
     16 ****         0.3899  -3.1685  -2.0821 O.3            1 S1                 0.0000
     17 ****        -0.2867  -0.8266  -1.9543 C.ar           1 S1                 0.0000
     18 ****        -1.6525  -1.0702  -2.2230 C.ar           1 S1                 0.0000
     19 ****        -2.4797  -0.0370  -2.7034 C.ar           1 S1                 0.0000
     20 ****        -1.9472   1.2474  -2.9212 C.ar           1 S1                 0.0000
     21 ****        -0.5876   1.4980  -2.6559 C.ar           1 S1                 0.0000
     22 ****         0.2406   0.4673  -2.1702 C.ar           1 S1                 0.0000
     23 ****         1.5421   0.7326  -1.9019 F              1 S1                 0.0000
     24 ****        -4.7043   3.0573   0.3394 H              1 S1                 0.0000
     25 ****        -3.9895   1.3668   1.6834 H              1 S1                 0.0000
     26 ****        -3.7592   1.0180  -0.0255 H              1 S1                 0.0000
     27 ****        -1.4074   1.8691   0.1153 H              1 S1                 0.0000
     28 ****        -1.6222   2.2321   1.8111 H              1 S1                 0.0000
     29 ****        -1.9338  -0.1835   2.3255 H              1 S1                 0.0000
     30 ****        -1.8879  -0.5723   0.6224 H              1 S1                 0.0000
     31 ****         3.3663   1.8037   3.0781 H              1 S1                 0.0000
     32 ****         5.4691   0.5717   2.5206 H              1 S1                 0.0000
     33 ****         5.4115  -1.4864   1.1602 H              1 S1                 0.0000
     34 ****         3.2579  -2.3992   0.2983 H              1 S1                 0.0000
     35 ****         0.9876  -3.0284   0.4380 H              1 S1                 0.0000
     36 ****        -0.6436  -2.4378   0.3090 H              1 S1                 0.0000
     37 ****         1.6448  -1.6822  -1.5949 H              1 S1                 0.0000
     38 ****         0.6154  -3.0567  -2.9933 H              1 S1                 0.0000
     39 ****        -2.0738  -2.0502  -2.0534 H              1 S1                 0.0000
     40 ****        -3.5236  -0.2298  -2.9027 H              1 S1                 0.0000
     41 ****        -2.5815   2.0409  -3.2880 H              1 S1                 0.0000
     42 ****        -0.1808   2.4853  -2.8180 H              1 S1                 0.0000
     43 ****         0.5220   1.6376   2.6297 H              1 S1                 0.0000
     44 ****        -3.2945   3.2744  -0.3649 LP             1 S1                 0.0000
     45 ****        -3.4985   3.6038   1.2215 LP             1 S1                 0.0000
     46 ****        -0.5708  -3.4345  -2.0025 LP             1 S1                 0.0000
     47 ****         0.9667  -3.8775  -1.6764 LP             1 S1                 0.0000
@<TRIPOS>BOND
    1    1    2 1     
    2    1   24 1     
    3    2    3 1     
    4    2   25 1     
    5    2   26 1     
    6    3    4 1     
    7    3   27 1     
    8    3   28 1     
    9    4    5 1     
   10    4   29 1     
   11    4   30 1     
   12    5   13 1     
   13    5    6 2     
   14    6    7 1     
   15    6   43 1     
   16    7   12 ar    
   17    7    8 ar    
   18    8    9 ar    
   19    8   31 1     
   20    9   10 ar    
   21    9   32 1     
   22   10   11 ar    
   23   10   33 1     
   24   11   12 ar    
   25   11   34 1     
   26   12   13 1     
   27   13   14 1     
   28   14   15 1     
   29   14   35 1     
   30   14   36 1     
   31   15   16 1     
   32   15   17 1     
   33   15   37 1     
   34   16   38 1     
   35   17   22 ar    
   36   17   18 ar    
   37   18   19 ar    
   38   18   39 1     
   39   19   20 ar    
   40   19   40 1     
   41   20   21 ar    
   42   20   41 1     
   43   21   22 ar    
   44   21   42 1     
   45   22   23 1     
   46    1   44 1     
   47    1   45 1     
   48   16   46 1     
   49   16   47 1     
@<TRIPOS>SUBSTRUCTURE
      1 S1             1
@<TRIPOS>SET
LONE_PAIRS      STATIC     ATOMS    <user>   **** ""
4 44 45 46 47
DONOR_HYDROGENS      STATIC     ATOMS    <user>   **** ""
3 24 43 38
ATOM$BLUE        STATIC     ATOMS    COLORGROUP SYSTEM
4 44 45 46 47
ATOM$RED        STATIC     ATOMS    COLORGROUP SYSTEM
3 24 43 38
