AV-unprocessed.smi:806|AV-procd|sdf|3801|dock3
  -GOLD-   22720 1233D 1   1.00000     0.00000
 Structure written by MMmdl.
 44 45  0  0  0  0  0  0  0  0  1 V2000
  147.6881  141.3875  153.9007 C   0  0  0  0  0  0  0  0  0  0  0  0
  148.3367  140.1418  154.3489 N   0  0  0  0  0  0  0  0  0  0  0  0
  147.9046  138.9227  153.9159 C   0  0  0  0  0  0  0  0  0  0  0  0
  148.3031  137.8694  154.4163 O   0  0  0  0  0  0  0  0  0  0  0  0
  146.8766  138.8320  152.7660 C   0  0  0  0  0  0  0  0  0  0  0  0
  147.0248  137.6628  151.8816 N   0  0  0  0  0  0  0  0  0  0  0  0
  145.9288  136.7097  152.0167 C   0  0  0  0  0  0  0  0  0  0  0  0
  145.8942  135.7957  150.7831 C   0  0  0  0  0  0  0  0  0  0  0  0
  145.1819  134.5612  151.0510 N   0  0  0  0  0  0  0  0  0  0  0  0
  145.1283  133.4187  150.2807 C   0  0  0  0  0  0  0  0  0  0  0  0
  144.3383  132.5209  150.9399 C   0  0  0  0  0  0  0  0  0  0  0  0
  143.9492  133.2156  152.1193 C   0  0  0  0  0  0  0  0  0  0  0  0
  144.4556  134.4365  152.1829 N   0  0  0  0  0  0  0  0  0  0  0  0
  149.4556  140.2707  155.3357 C   0  0  0  0  0  0  0  0  0  0  0  0
  150.6892  139.6402  154.8112 C   0  0  0  0  0  0  0  0  0  0  0  0
  151.6553  139.1492  154.4030 N   0  0  0  0  0  0  0  0  0  0  0  0
  149.8369  141.7500  155.6552 C   0  0  0  0  0  0  0  0  0  0  0  0
  150.9489  141.8584  156.7145 C   0  0  0  0  0  0  0  0  0  0  0  0
  150.5319  141.1547  158.0137 C   0  0  0  0  0  0  0  0  0  0  0  0
  150.1290  139.6962  157.7544 C   0  0  0  0  0  0  0  0  0  0  0  0
  149.0387  139.5969  156.6714 C   0  0  0  0  0  0  0  0  0  0  0  0
  146.7384  141.2570  153.3857 H   0  0  0  0  0  0  0  0  0  0  0  0
  148.3457  141.9467  153.2347 H   0  0  0  0  0  0  0  0  0  0  0  0
  147.4356  142.0147  154.7546 H   0  0  0  0  0  0  0  0  0  0  0  0
  145.8822  138.7937  153.2116 H   0  0  0  0  0  0  0  0  0  0  0  0
  146.9167  139.7290  152.1468 H   0  0  0  0  0  0  0  0  0  0  0  0
  147.8966  137.1829  152.0530 H   0  0  0  0  0  0  0  0  0  0  0  0
  146.0772  136.1110  152.9166 H   0  0  0  0  0  0  0  0  0  0  0  0
  144.9719  137.2216  152.1221 H   0  0  0  0  0  0  0  0  0  0  0  0
  145.4130  136.3006  149.9437 H   0  0  0  0  0  0  0  0  0  0  0  0
  146.9072  135.5457  150.4641 H   0  0  0  0  0  0  0  0  0  0  0  0
  145.6516  133.3400  149.3392 H   0  0  0  0  0  0  0  0  0  0  0  0
  144.0779  131.5205  150.6273 H   0  0  0  0  0  0  0  0  0  0  0  0
  143.3185  132.8710  152.9255 H   0  0  0  0  0  0  0  0  0  0  0  0
  150.1583  142.2590  154.7457 H   0  0  0  0  0  0  0  0  0  0  0  0
  148.9886  142.3109  156.0445 H   0  0  0  0  0  0  0  0  0  0  0  0
  151.8777  141.4273  156.3401 H   0  0  0  0  0  0  0  0  0  0  0  0
  151.1631  142.9079  156.9183 H   0  0  0  0  0  0  0  0  0  0  0  0
  151.3469  141.1932  158.7369 H   0  0  0  0  0  0  0  0  0  0  0  0
  149.6942  141.6887  158.4638 H   0  0  0  0  0  0  0  0  0  0  0  0
  151.0054  139.1214  157.4531 H   0  0  0  0  0  0  0  0  0  0  0  0
  149.7717  139.2433  158.6798 H   0  0  0  0  0  0  0  0  0  0  0  0
  148.1229  140.0590  157.0426 H   0  0  0  0  0  0  0  0  0  0  0  0
  148.8020  138.5442  156.5183 H   0  0  0  0  0  0  0  0  0  0  0  0
  1  2  1  0  0  0  0
  1 22  1  0  0  0  0
  1 23  1  0  0  0  0
  1 24  1  0  0  0  0
  2  3  1  0  0  0  0
  2 14  1  0  0  0  0
  3  4  2  0  0  0  0
  3  5  1  0  0  0  0
  5  6  1  0  0  0  0
  5 25  1  0  0  0  0
  5 26  1  0  0  0  0
  6  7  1  0  0  0  0
  6 27  1  0  0  0  0
  7  8  1  0  0  0  0
  7 28  1  0  0  0  0
  7 29  1  0  0  0  0
  8  9  1  0  0  0  0
  8 30  1  0  0  0  0
  8 31  1  0  0  0  0
  9 13  1  0  0  0  0
  9 10  1  0  0  0  0
 10 11  2  0  0  0  0
 10 32  1  0  0  0  0
 11 12  1  0  0  0  0
 11 33  1  0  0  0  0
 12 13  2  0  0  0  0
 12 34  1  0  0  0  0
 14 21  1  0  0  0  0
 14 15  1  0  0  0  0
 14 17  1  0  0  0  0
 15 16  3  0  0  0  0
 17 18  1  0  0  0  0
 17 35  1  0  0  0  0
 17 36  1  0  0  0  0
 18 19  1  0  0  0  0
 18 37  1  0  0  0  0
 18 38  1  0  0  0  0
 19 20  1  0  0  0  0
 19 39  1  0  0  0  0
 19 40  1  0  0  0  0
 20 21  1  0  0  0  0
 20 41  1  0  0  0  0
 20 42  1  0  0  0  0
 21 43  1  0  0  0  0
 21 44  1  0  0  0  0
M  END
> <s_m_source_file>
AV-unprocessed.smi

> <i_m_source_file_index>
806

> <i_lp_mmshare_version>
43012

> <i_f3d_flags>
0

> <s_epik_input>
W0NIMl0xW0NIMl1bQ0gyXVtDSDJdW0NIMl1DMShDI04pTihbQ0gzXSlDKD1PKVtDSDJdW05IXVtDSDJdW0NIMl1uMltjSF1bY0hdW2NIXW4y

> <s_epik_cmdline>
J2VwaWtfcHl0aG9uJywgJy1waCcsICc3LjAnLCAnLXRuJywgJzgnLCAnLW1hJywgJzIwMCcsICctbWV0YWxfYmluZGluZycsICctaW1hZScsICc8aW5maWxlLm1hZT4nLCAnLW9tYWUnLCAnPG91dGZpbGUubWFlPic=

> <r_lp_tautomer_probability>
1

> <r_epik_Ionization_Penalty>
0.481166

> <r_epik_Ionization_Penalty_Charging>
0

> <r_epik_Ionization_Penalty_Neutral>
0.481166

> <r_epik_State_Penalty>
0.484368

> <r_epik_Charging_Adjusted_Penalty>
0.484368

> <i_epik_Tot_Q>
0

> <i_epik_Tot_abs_Q>
0

> <r_epik_Metal_State_Penalty>
0.483438

> <b_epik_Metal_Only>
0

> <s_lp_Force_Field>
OPLS_2005

> <r_lp_Energy>
29.6392

> <b_lp_Chiralities_Consistent>
1

> <s_lp_Variant>
AV-unprocessed.smi:806-2

> <Gold.Version>
5.8.1

> <Gold.Id.Protein>
6NUR|6NUR_protein|mol2

> <Gold.PLP.Fitness>
45.5605

> <Gold.PLP.PLP>
-38.4924

> <Gold.PLP.part.hbond>
-1.8691

> <Gold.PLP.part.metal>
0.0000

> <Gold.PLP.part.buried>
-3.6033

> <Gold.PLP.part.nonpolar>
-34.0049

> <Gold.PLP.part.repulsive>
0.4109

> <Gold.PLP.ligand.clash>
0.0000

> <Gold.PLP.ligand.torsion>
1.0961

> <Gold.PLP.Chemscore.Hbond>
1.0000

> <Gold.PLP.Chemscore.CHOScore>
1.9992

> <Gold.PLP.Chemscore.Metal>
0.0000

> <Gold.Chemscore.Hbonds>
donor molecule, donor type, donor heavy atom, donor atom, acceptor molecule, acceptor atom, score
      L1  H     6    27       P1  7948  0.71
      L1  C    10    32       P1  7921  0.85
      L1  C    12    34       P1 10957  1.00

> <Gold.PLP.Chemscore.Internal.Correction>
0.2628

> <Gold.Rescore>
     Score         DG    S(hbond)    S(metal)    S(lipo)     H(rot)  DE(clash)    DE(int)     intcor
      9.76     -13.08       0.98        0.00      81.06       2.01       0.06       3.27       ----

> <Gold.Chemscore.Fitness>
9.7615

> <Gold.Chemscore.DG>
-13.0834

> <Gold.Chemscore.ZeroCoef>
-5.4800

> <Gold.Chemscore.Hbond>
0.9806

> <Gold.Chemscore.Metal>
0.0000

> <Gold.Chemscore.Lipo>
81.0638

> <Gold.Chemscore.Internal_Hbond>
0.0000

> <Gold.Chemscore.DEClash>
0.0550

> <Gold.Chemscore.DEInternal>
3.2668

> <Gold.Chemscore.Rot>
2.0142

> <Gold.Chemscore.Internal.Correction>
   9.000000E+99

> <Gold.Chemscore.Hbonds>
donor molecule, donor type, donor heavy atom, donor atom, acceptor molecule, acceptor atom, score
      L1  H     6    27       P1  7948  0.70

> <Gold.Chemscore.Hbond.Weighted>
-3.2752

> <Gold.Chemscore.Metal.Weighted>
-0.0000

> <Gold.Chemscore.Lipo.Weighted>
-9.4845

> <Gold.Chemscore.Internal_Hbond.Weighted>
0.0000

> <Gold.Chemscore.DEClash.Weighted>
0.0550

> <Gold.Chemscore.DEInternal.Weighted>
3.2668

> <Gold.Chemscore.Rot.Weighted>
5.1563

> <Gold.Chemscore.Internal.Correction.Weighted>
   9.000000E+99

> <Gold.Protein.RotatedTorsions>
[ 6907 6896 6895 6894 ] final   45.36 input  -60.11 | X-H torsion
[ 7974 7965 7964 7962 ] final -170.18 input  175.53 | X-H torsion
[ 8008 7997 7996 7995 ] final  102.07 input   59.86 | X-H torsion
[ 10167 10162 10161 10158 ] final  121.77 input  -65.29 | X-H torsion
[ 10718 10713 10712 10709 ] final  151.71 input   66.30 | X-H torsion
[ 10763 10752 10751 10750 ] final   27.92 input  -60.55 | X-H torsion
[ 11005 11000 10999 10996 ] final  141.42 input  -57.11 | X-H torsion

> <Gold.Protein.ActiveResidues>
 VAL166  LYS551  ARG553  GLY616  TRP617  ASP618  TYR619  PRO620  LYS621  CYS622 
 ASP623  PHE694  ASN695  SER759  ASP760  ASP761  ALA762  ILE779  LEU786  VAL792 
 PHE793  MET794  SER795  GLU796  ALA797  LYS798  CYS799  TRP800  GLU811  SER814 

> <Gold.Protein.RotatedAtoms>
  152.2436  134.8204  160.0456 H   0  0  0  0  0  0  0  0  0  0  0  0  # atno 6907 bound_to 6896
  151.8909  133.3511  159.3806 H   0  0  0  0  0  0  0  0  0  0  0  0  # atno 6908 bound_to 6896
  150.7061  134.4851  159.5533 H   0  0  0  0  0  0  0  0  0  0  0  0  # atno 6909 bound_to 6896
  144.7174  140.2110  143.6327 H   0  0  0  0  0  0  0  0  0  0  0  0  # atno 7974 bound_to 7965
  156.1359  140.3187  155.8419 H   0  0  0  0  0  0  0  0  0  0  0  0  # atno 8008 bound_to 7997
  155.4246  140.0514  157.3040 H   0  0  0  0  0  0  0  0  0  0  0  0  # atno 8009 bound_to 7997
  154.4936  140.2102  155.9507 H   0  0  0  0  0  0  0  0  0  0  0  0  # atno 8010 bound_to 7997
  139.5899  144.7021  151.3316 H   0  0  0  0  0  0  0  0  0  0  0  0  # atno 10167 bound_to 10162
  157.2671  131.0810  151.1625 H   0  0  0  0  0  0  0  0  0  0  0  0  # atno 10718 bound_to 10713
  153.0525  135.6525  154.0659 H   0  0  0  0  0  0  0  0  0  0  0  0  # atno 10763 bound_to 10752
  154.0344  135.2909  155.3365 H   0  0  0  0  0  0  0  0  0  0  0  0  # atno 10764 bound_to 10752
  154.6821  135.5316  153.8344 H   0  0  0  0  0  0  0  0  0  0  0  0  # atno 10765 bound_to 10752
  140.0400  134.9309  157.0825 H   0  0  0  0  0  0  0  0  0  0  0  0  # atno 11005 bound_to 11000
  145.8591  139.2214  143.1727 LP  0  0  0  0  0  0  0  0  0  0  0  0  # atno 17320 bound_to 7965
  146.0190  140.8365  142.9933 LP  0  0  0  0  0  0  0  0  0  0  0  0  # atno 17321 bound_to 7965
  140.7164  143.7255  150.7663 LP  0  0  0  0  0  0  0  0  0  0  0  0  # atno 17342 bound_to 10162
  140.0808  143.4970  152.2531 LP  0  0  0  0  0  0  0  0  0  0  0  0  # atno 17343 bound_to 10162
  157.3112  130.6890  149.6216 LP  0  0  0  0  0  0  0  0  0  0  0  0  # atno 17370 bound_to 10713
  155.9663  130.4363  150.5128 LP  0  0  0  0  0  0  0  0  0  0  0  0  # atno 17371 bound_to 10713
  140.4085  134.2007  155.7163 LP  0  0  0  0  0  0  0  0  0  0  0  0  # atno 17394 bound_to 11000
  141.1878  133.8274  157.1019 LP  0  0  0  0  0  0  0  0  0  0  0  0  # atno 17395 bound_to 11000

$$$$
