AV-unprocessed.smi:1389|AV-procd|sdf|5654|dock6
  -GOLD-   22720 5273D 1   1.00000     0.00000
 Structure written by MMmdl.
 52 54  0  0  0  0  0  0  0  0  4 V2000
  149.9352  136.3008  157.5483 C   0  0  0  0  0  0  0  0  0  0  0  0
  149.8214  137.3898  158.6405 C   0  0  2  0  0  0  0  0  0  0  0  0
  151.1319  137.5592  159.4794 C   0  0  0  0  0  0  0  0  0  0  0  0
  152.2294  138.0420  158.6392 N   0  5  0  0  0  0  0  0  0  0  0  0
  152.6472  139.3347  158.5793 C   0  0  0  0  0  0  0  0  0  0  0  0
  153.8065  139.7587  158.6555 O   0  0  0  0  0  0  0  0  0  0  0  0
  151.6245  140.1887  158.4059 N   0  0  0  0  0  0  0  0  0  0  0  0
  151.6756  141.5956  158.2038 C   0  0  0  0  0  0  0  0  0  0  0  0
  152.6253  142.3951  158.8884 C   0  0  0  0  0  0  0  0  0  0  0  0
  152.6108  143.7935  158.7293 C   0  0  0  0  0  0  0  0  0  0  0  0
  151.6333  144.3730  157.9021 C   0  0  0  0  0  0  0  0  0  0  0  0
  150.7334  143.5859  157.2769 N   0  3  0  0  0  0  0  0  0  0  0  0
  150.7057  142.2330  157.3778 C   0  0  0  0  0  0  0  0  0  0  0  0
  149.7093  141.5368  156.6560 N   0  0  0  0  0  0  0  0  0  0  0  0
  148.3015  141.6888  157.0032 C   0  0  0  0  0  0  0  0  0  0  0  0
  147.5369  141.0927  155.8243 C   0  0  0  0  0  0  0  0  0  0  0  0
  148.4212  141.4648  154.6378 C   0  0  0  0  0  0  0  0  0  0  0  0
  149.8417  141.3997  155.2085 C   0  0  0  0  0  0  0  0  0  0  0  0
  148.5585  137.1913  159.4306 N   0  3  0  0  0  0  0  0  0  0  0  0
  147.2739  137.1063  158.6806 C   0  0  0  0  0  0  0  0  0  0  0  0
  146.0913  137.1739  159.6605 C   0  0  0  0  0  0  0  0  0  0  0  0
  146.2061  136.1329  160.6239 O   0  0  0  0  0  0  0  0  0  0  0  0
  147.3903  136.2521  161.4039 C   0  0  0  0  0  0  0  0  0  0  0  0
  148.6244  136.1521  160.4927 C   0  0  0  0  0  0  0  0  0  0  0  0
  150.7236  136.5240  156.8269 H   0  0  0  0  0  0  0  0  0  0  0  0
  149.0070  136.2283  156.9808 H   0  0  0  0  0  0  0  0  0  0  0  0
  150.1409  135.3112  157.9591 H   0  0  0  0  0  0  0  0  0  0  0  0
  149.6630  138.3245  158.1002 H   0  0  0  0  0  0  0  0  0  0  0  0
  150.9416  138.2385  160.3108 H   0  0  0  0  0  0  0  0  0  0  0  0
  151.3790  136.6059  159.9468 H   0  0  0  0  0  0  0  0  0  0  0  0
  150.7228  139.7576  158.2623 H   0  0  0  0  0  0  0  0  0  0  0  0
  153.3534  141.9532  159.5520 H   0  0  0  0  0  0  0  0  0  0  0  0
  153.3310  144.4113  159.2452 H   0  0  0  0  0  0  0  0  0  0  0  0
  151.5404  145.4348  157.7263 H   0  0  0  0  0  0  0  0  0  0  0  0
  148.0644  141.1803  157.9384 H   0  0  0  0  0  0  0  0  0  0  0  0
  148.0471  142.7443  157.1097 H   0  0  0  0  0  0  0  0  0  0  0  0
  147.4847  140.0074  155.9230 H   0  0  0  0  0  0  0  0  0  0  0  0
  146.5200  141.4765  155.7380 H   0  0  0  0  0  0  0  0  0  0  0  0
  148.2799  140.8096  153.7779 H   0  0  0  0  0  0  0  0  0  0  0  0
  148.1991  142.4853  154.3225 H   0  0  0  0  0  0  0  0  0  0  0  0
  150.4786  142.1733  154.7768 H   0  0  0  0  0  0  0  0  0  0  0  0
  150.2887  140.4298  154.9867 H   0  0  0  0  0  0  0  0  0  0  0  0
  147.1938  137.9206  157.9613 H   0  0  0  0  0  0  0  0  0  0  0  0
  147.2187  136.1729  158.1187 H   0  0  0  0  0  0  0  0  0  0  0  0
  146.0523  138.1442  160.1583 H   0  0  0  0  0  0  0  0  0  0  0  0
  145.1508  137.0544  159.1224 H   0  0  0  0  0  0  0  0  0  0  0  0
  147.3855  137.1960  161.9514 H   0  0  0  0  0  0  0  0  0  0  0  0
  147.4069  135.4541  162.1464 H   0  0  0  0  0  0  0  0  0  0  0  0
  148.6700  135.1568  160.0492 H   0  0  0  0  0  0  0  0  0  0  0  0
  149.5289  136.2800  161.0883 H   0  0  0  0  0  0  0  0  0  0  0  0
  148.4822  138.0540  159.9497 H   0  0  0  0  0  0  0  0  0  0  0  0
  150.0350  144.0360  156.6853 H   0  0  0  0  0  0  0  0  0  0  0  0
  1  2  1  0  0  0  0
  1 25  1  0  0  0  0
  1 26  1  0  0  0  0
  1 27  1  0  0  0  0
  2  3  1  0  0  0  0
  2 19  1  0  0  0  0
  2 28  1  0  0  0  0
  3  4  1  0  0  0  0
  3 29  1  0  0  0  0
  3 30  1  0  0  0  0
  4  5  1  0  0  0  0
  5  6  2  0  0  0  0
  5  7  1  0  0  0  0
  7  8  1  0  0  0  0
  7 31  1  0  0  0  0
  8 13  1  0  0  0  0
  8  9  2  0  0  0  0
  9 10  1  0  0  0  0
  9 32  1  0  0  0  0
 10 11  2  0  0  0  0
 10 33  1  0  0  0  0
 11 12  1  0  0  0  0
 11 34  1  0  0  0  0
 12 13  2  0  0  0  0
 12 52  1  0  0  0  0
 13 14  1  0  0  0  0
 14 18  1  0  0  0  0
 14 15  1  0  0  0  0
 15 16  1  0  0  0  0
 15 35  1  0  0  0  0
 15 36  1  0  0  0  0
 16 17  1  0  0  0  0
 16 37  1  0  0  0  0
 16 38  1  0  0  0  0
 17 18  1  0  0  0  0
 17 39  1  0  0  0  0
 17 40  1  0  0  0  0
 18 41  1  0  0  0  0
 18 42  1  0  0  0  0
 19 24  1  0  0  0  0
 19 20  1  0  0  0  0
 19 51  1  0  0  0  0
 20 21  1  0  0  0  0
 20 43  1  0  0  0  0
 20 44  1  0  0  0  0
 21 22  1  0  0  0  0
 21 45  1  0  0  0  0
 21 46  1  0  0  0  0
 22 23  1  0  0  0  0
 23 24  1  0  0  0  0
 23 47  1  0  0  0  0
 23 48  1  0  0  0  0
 24 49  1  0  0  0  0
 24 50  1  0  0  0  0
M  CHG  1   4  -1
M  CHG  1  12   1
M  CHG  1  19   1
M  END
> <s_m_source_file>
AV-unprocessed.smi

> <i_m_source_file_index>
1389

> <i_lp_mmshare_version>
43012

> <i_f3d_flags>
0

> <s_epik_input>
W0NIMl0xW0NIMl1PW0NIMl1bQ0gyXU4xW0NASF0oW0NIM10pW0NIMl1bTkhdQyg9TylbTkhdYzJbY0hdW2NIXVtjSF1uYzJOM1tDSDJdW0NIMl1bQ0gyXVtDSDJdMw==

> <s_epik_cmdline>
J2VwaWtfcHl0aG9uJywgJy1waCcsICc3LjAnLCAnLXRuJywgJzgnLCAnLW1hJywgJzIwMCcsICctbWV0YWxfYmluZGluZycsICctaW1hZScsICc8aW5maWxlLm1hZT4nLCAnLW9tYWUnLCAnPG91dGZpbGUubWFlPic=

> <r_lp_tautomer_probability>
0.999994

> <r_epik_Ionization_Penalty>
8.58362

> <r_epik_Ionization_Penalty_Charging>
8.58361

> <r_epik_Ionization_Penalty_Neutral>
3.55275e-06

> <r_epik_State_Penalty>
8.57766

> <r_epik_Charging_Adjusted_Penalty>
17.1613

> <i_epik_Tot_Q>
1

> <i_epik_Tot_abs_Q>
3

> <r_epik_Metal_State_Penalty>
4.57399

> <b_epik_Metal_Only>
1

> <s_lp_Force_Field>
OPLS_2005

> <r_lp_Energy>
52.6414

> <b_lp_Chiralities_Consistent>
1

> <s_lp_Variant>
AV-unprocessed.smi:1389-9

> <Gold.Version>
5.8.1

> <Gold.Id.Protein>
6NUR|6NUR_protein|mol2

> <Gold.PLP.Fitness>
45.4592

> <Gold.PLP.PLP>
-38.1057

> <Gold.PLP.part.hbond>
-2.0000

> <Gold.PLP.part.metal>
0.0000

> <Gold.PLP.part.buried>
-6.0607

> <Gold.PLP.part.nonpolar>
-31.5601

> <Gold.PLP.part.repulsive>
0.4237

> <Gold.PLP.ligand.clash>
0.0000

> <Gold.PLP.ligand.torsion>
1.2161

> <Gold.PLP.Chemscore.Hbond>
3.0000

> <Gold.PLP.Chemscore.CHOScore>
0.0000

> <Gold.PLP.Chemscore.Metal>
0.0000

> <Gold.Chemscore.Hbonds>
donor molecule, donor type, donor heavy atom, donor atom, acceptor molecule, acceptor atom, score
      L1  H    12    52       P1  8028  2.00
      P1  H  7997  8009       L1     6  1.00

> <Gold.PLP.Chemscore.Internal.Correction>
0.7858

> <Gold.Rescore>
     Score         DG    S(hbond)    S(metal)    S(lipo)     H(rot)  DE(clash)    DE(int)     intcor
     16.96     -19.39       2.00        0.00      97.50       1.63       0.00       2.43       ----

> <Gold.Chemscore.Fitness>
16.9566

> <Gold.Chemscore.DG>
-19.3863

> <Gold.Chemscore.ZeroCoef>
-5.4800

> <Gold.Chemscore.Hbond>
1.9981

> <Gold.Chemscore.Metal>
0.0000

> <Gold.Chemscore.Lipo>
97.4974

> <Gold.Chemscore.Internal_Hbond>
0.0000

> <Gold.Chemscore.DEClash>
0.0009

> <Gold.Chemscore.DEInternal>
2.4288

> <Gold.Chemscore.Rot>
1.6307

> <Gold.Chemscore.Internal.Correction>
   9.000000E+99

> <Gold.Chemscore.Hbonds>
donor molecule, donor type, donor heavy atom, donor atom, acceptor molecule, acceptor atom, score
      L1  H    12    52       P1  8028  0.99
      P1  H  7997  8009       L1     6  0.98

> <Gold.Chemscore.Hbond.Weighted>
-6.6737

> <Gold.Chemscore.Metal.Weighted>
-0.0000

> <Gold.Chemscore.Lipo.Weighted>
-11.4072

> <Gold.Chemscore.Internal_Hbond.Weighted>
0.0000

> <Gold.Chemscore.DEClash.Weighted>
0.0009

> <Gold.Chemscore.DEInternal.Weighted>
2.4288

> <Gold.Chemscore.Rot.Weighted>
4.1746

> <Gold.Chemscore.Internal.Correction.Weighted>
   9.000000E+99

> <Gold.Protein.RotatedTorsions>
[ 6907 6896 6895 6894 ] final  -91.11 input  -60.11 | X-H torsion
[ 7974 7965 7964 7962 ] final  150.93 input  175.53 | X-H torsion
[ 8008 7997 7996 7995 ] final  137.95 input   59.86 | X-H torsion
[ 10167 10162 10161 10158 ] final  -86.04 input  -65.29 | X-H torsion
[ 10718 10713 10712 10709 ] final -120.27 input   66.30 | X-H torsion
[ 10763 10752 10751 10750 ] final -175.64 input  -60.55 | X-H torsion
[ 11005 11000 10999 10996 ] final  -41.59 input  -57.11 | X-H torsion

> <Gold.Protein.ActiveResidues>
 VAL166  LYS551  ARG553  GLY616  TRP617  ASP618  TYR619  PRO620  LYS621  CYS622 
 ASP623  PHE694  ASN695  SER759  ASP760  ASP761  ALA762  ILE779  LEU786  VAL792 
 PHE793  MET794  SER795  GLU796  ALA797  LYS798  CYS799  TRP800  GLU811  SER814 

> <Gold.Protein.RotatedAtoms>
  150.6889  134.2327  159.4440 H   0  0  0  0  0  0  0  0  0  0  0  0  # atno 6907 bound_to 6896
  152.0277  134.9783  160.0581 H   0  0  0  0  0  0  0  0  0  0  0  0  # atno 6908 bound_to 6896
  152.1335  133.4387  159.4769 H   0  0  0  0  0  0  0  0  0  0  0  0  # atno 6909 bound_to 6896
  144.8328  139.6472  143.6051 H   0  0  0  0  0  0  0  0  0  0  0  0  # atno 7974 bound_to 7965
  156.3000  140.2406  156.3994 H   0  0  0  0  0  0  0  0  0  0  0  0  # atno 8008 bound_to 7997
  154.8541  140.0423  157.1643 H   0  0  0  0  0  0  0  0  0  0  0  0  # atno 8009 bound_to 7997
  154.8967  140.2971  155.5344 H   0  0  0  0  0  0  0  0  0  0  0  0  # atno 8010 bound_to 7997
  140.3980  143.2675  151.9179 H   0  0  0  0  0  0  0  0  0  0  0  0  # atno 10167 bound_to 10162
  156.1245  130.6349  150.9520 H   0  0  0  0  0  0  0  0  0  0  0  0  # atno 10718 bound_to 10713
  154.5819  135.2837  155.0723 H   0  0  0  0  0  0  0  0  0  0  0  0  # atno 10763 bound_to 10752
  154.2056  135.6417  153.5104 H   0  0  0  0  0  0  0  0  0  0  0  0  # atno 10764 bound_to 10752
  153.0091  135.5479  154.6476 H   0  0  0  0  0  0  0  0  0  0  0  0  # atno 10765 bound_to 10752
  141.0256  133.6843  156.2478 H   0  0  0  0  0  0  0  0  0  0  0  0  # atno 11005 bound_to 11000
  146.2630  139.6454  142.9349 LP  0  0  0  0  0  0  0  0  0  0  0  0  # atno 17320 bound_to 7965
  145.4858  141.0438  143.2620 LP  0  0  0  0  0  0  0  0  0  0  0  0  # atno 17321 bound_to 7965
  139.4786  144.5662  151.8161 LP  0  0  0  0  0  0  0  0  0  0  0  0  # atno 17342 bound_to 10162
  140.4770  144.1505  150.5926 LP  0  0  0  0  0  0  0  0  0  0  0  0  # atno 17343 bound_to 10162
  157.6427  131.0908  150.8217 LP  0  0  0  0  0  0  0  0  0  0  0  0  # atno 17370 bound_to 10713
  156.8309  130.5015  149.5331 LP  0  0  0  0  0  0  0  0  0  0  0  0  # atno 17371 bound_to 10713
  140.6497  134.5080  157.5576 LP  0  0  0  0  0  0  0  0  0  0  0  0  # atno 17394 bound_to 11000
  139.9174  134.8218  156.1322 LP  0  0  0  0  0  0  0  0  0  0  0  0  # atno 17395 bound_to 11000

$$$$
