AV-unprocessed.smi:645|AV-procd|sdf|3164|dock7
  -GOLD-   22720 0 83D 1   1.00000     0.00000
 Structure written by MMmdl.
 22 23  0  0  0  0  0  0  0  0  2 V2000
  150.9273  141.4109  155.9419 C   0  0  0  0  0  0  0  0  0  0  0  0
  151.4046  141.0387  157.3628 C   0  0  2  0  0  0  0  0  0  0  0  0
  151.7215  142.2903  158.2052 C   0  0  0  0  0  0  0  0  0  0  0  0
  151.5437  143.6060  157.7083 C   0  0  0  0  0  0  0  0  0  0  0  0
  151.8538  144.7007  158.5391 C   0  0  0  0  0  0  0  0  0  0  0  0
  152.3172  144.5709  159.7994 N   0  0  0  0  0  0  0  0  0  0  0  0
  152.4884  143.3206  160.2757 C   0  0  0  0  0  0  0  0  0  0  0  0
  152.2084  142.1605  159.5279 C   0  0  0  0  0  0  0  0  0  0  0  0
  152.5153  140.0999  157.2504 N   0  5  0  0  0  0  0  0  0  0  0  0
  152.1721  138.9357  157.8494 C   0  0  0  0  0  0  0  0  0  0  0  0
  152.8554  137.9215  157.9700 O   0  0  0  0  0  0  0  0  0  0  0  0
  150.9265  139.0018  158.3269 N   0  0  0  0  0  0  0  0  0  0  0  0
  150.3667  140.1821  158.0805 C   0  0  0  0  0  0  0  0  0  0  0  0
  149.2207  140.5305  158.3647 O   0  0  0  0  0  0  0  0  0  0  0  0
  150.0159  142.0083  155.9562 H   0  0  0  0  0  0  0  0  0  0  0  0
  150.7150  140.5233  155.3435 H   0  0  0  0  0  0  0  0  0  0  0  0
  151.6878  141.9861  155.4125 H   0  0  0  0  0  0  0  0  0  0  0  0
  151.1779  143.7927  156.7098 H   0  0  0  0  0  0  0  0  0  0  0  0
  151.7258  145.7110  158.1795 H   0  0  0  0  0  0  0  0  0  0  0  0
  152.8625  143.2409  161.2856 H   0  0  0  0  0  0  0  0  0  0  0  0
  152.3752  141.1886  159.9676 H   0  0  0  0  0  0  0  0  0  0  0  0
  150.4619  138.2422  158.8013 H   0  0  0  0  0  0  0  0  0  0  0  0
  1  2  1  0  0  0  0
  1 15  1  0  0  0  0
  1 16  1  0  0  0  0
  1 17  1  0  0  0  0
  2 13  1  0  0  0  0
  2  3  1  0  0  0  0
  2  9  1  0  0  0  0
  3  8  1  0  0  0  0
  3  4  2  0  0  0  0
  4  5  1  0  0  0  0
  4 18  1  0  0  0  0
  5  6  2  0  0  0  0
  5 19  1  0  0  0  0
  6  7  1  0  0  0  0
  7  8  2  0  0  0  0
  7 20  1  0  0  0  0
  8 21  1  0  0  0  0
  9 10  1  0  0  0  0
 10 11  2  0  0  0  0
 10 12  1  0  0  0  0
 12 13  1  0  0  0  0
 12 22  1  0  0  0  0
 13 14  2  0  0  0  0
M  CHG  1   9  -1
M  END
> <s_m_source_file>
AV-unprocessed.smi

> <i_m_source_file_index>
645

> <i_lp_mmshare_version>
43012

> <i_f3d_flags>
0

> <s_epik_input>
Tz1DMVtOSF1DKD1PKVtOSF1bQ0BAXTEoW0NIM10pYzJbY0hdW2NIXW5bY0hdW2NIXTI=

> <s_epik_cmdline>
J2VwaWtfcHl0aG9uJywgJy1waCcsICc3LjAnLCAnLXRuJywgJzgnLCAnLW1hJywgJzIwMCcsICctbWV0YWxfYmluZGluZycsICctaW1hZScsICc8aW5maWxlLm1hZT4nLCAnLW9tYWUnLCAnPG91dGZpbGUubWFlPic=

> <r_lp_tautomer_probability>
1

> <r_epik_Ionization_Penalty>
4.86801

> <r_epik_Ionization_Penalty_Charging>
4.8337

> <r_epik_Ionization_Penalty_Neutral>
0.0343087

> <r_epik_State_Penalty>
4.85653

> <r_epik_Charging_Adjusted_Penalty>
9.69023

> <i_epik_Tot_Q>
-1

> <i_epik_Tot_abs_Q>
1

> <r_epik_Metal_State_Penalty>
1.32058

> <b_epik_Metal_Only>
1

> <s_lp_Force_Field>
OPLS_2005

> <r_lp_Energy>
14.3198

> <b_lp_Chiralities_Consistent>
1

> <s_lp_Variant>
AV-unprocessed.smi:645-6

> <Gold.Version>
5.8.1

> <Gold.Id.Protein>
6NUR|6NUR_protein|mol2

> <Gold.PLP.Fitness>
31.8770

> <Gold.PLP.PLP>
-25.8936

> <Gold.PLP.part.hbond>
-1.3874

> <Gold.PLP.part.metal>
0.0000

> <Gold.PLP.part.buried>
-3.1256

> <Gold.PLP.part.nonpolar>
-20.6772

> <Gold.PLP.part.repulsive>
0.1382

> <Gold.PLP.ligand.clash>
0.0000

> <Gold.PLP.ligand.torsion>
0.0355

> <Gold.PLP.Chemscore.Hbond>
2.0000

> <Gold.PLP.Chemscore.CHOScore>
0.0000

> <Gold.PLP.Chemscore.Metal>
0.0000

> <Gold.Chemscore.Hbonds>
donor molecule, donor type, donor heavy atom, donor atom, acceptor molecule, acceptor atom, score
      P1  H  7997  8010       L1     9  2.00

> <Gold.PLP.Chemscore.Internal.Correction>
0.0543

> <Gold.Rescore>
     Score         DG    S(hbond)    S(metal)    S(lipo)     H(rot)  DE(clash)    DE(int)     intcor
     14.32     -14.39       0.96        0.00      70.70       1.00       0.02       0.04       ----

> <Gold.Chemscore.Fitness>
14.3215

> <Gold.Chemscore.DG>
-14.3855

> <Gold.Chemscore.ZeroCoef>
-5.4800

> <Gold.Chemscore.Hbond>
0.9562

> <Gold.Chemscore.Metal>
0.0000

> <Gold.Chemscore.Lipo>
70.6991

> <Gold.Chemscore.Internal_Hbond>
0.0000

> <Gold.Chemscore.DEClash>
0.0241

> <Gold.Chemscore.DEInternal>
0.0399

> <Gold.Chemscore.Rot>
1.0000

> <Gold.Chemscore.Internal.Correction>
   9.000000E+99

> <Gold.Chemscore.Hbonds>
donor molecule, donor type, donor heavy atom, donor atom, acceptor molecule, acceptor atom, score
      P1  H  7997  8010       L1     9  0.80

> <Gold.Chemscore.Hbond.Weighted>
-3.1937

> <Gold.Chemscore.Metal.Weighted>
-0.0000

> <Gold.Chemscore.Lipo.Weighted>
-8.2718

> <Gold.Chemscore.Internal_Hbond.Weighted>
0.0000

> <Gold.Chemscore.DEClash.Weighted>
0.0241

> <Gold.Chemscore.DEInternal.Weighted>
0.0399

> <Gold.Chemscore.Rot.Weighted>
2.5600

> <Gold.Chemscore.Internal.Correction.Weighted>
   9.000000E+99

> <Gold.Protein.RotatedTorsions>
[ 6907 6896 6895 6894 ] final  -37.40 input  -60.11 | X-H torsion
[ 7974 7965 7964 7962 ] final   27.47 input  175.53 | X-H torsion
[ 8008 7997 7996 7995 ] final   60.29 input   59.86 | X-H torsion
[ 10167 10162 10161 10158 ] final  -78.30 input  -65.29 | X-H torsion
[ 10718 10713 10712 10709 ] final   12.02 input   66.30 | X-H torsion
[ 10763 10752 10751 10750 ] final -112.46 input  -60.55 | X-H torsion
[ 11005 11000 10999 10996 ] final   40.50 input  -57.11 | X-H torsion

> <Gold.Protein.ActiveResidues>
 VAL166  LYS551  ARG553  GLY616  TRP617  ASP618  TYR619  PRO620  LYS621  CYS622 
 ASP623  PHE694  ASN695  SER759  ASP760  ASP761  ALA762  ILE779  LEU786  VAL792 
 PHE793  MET794  SER795  GLU796  ALA797  LYS798  CYS799  TRP800  GLU811  SER814 

> <Gold.Protein.RotatedAtoms>
  151.0152  134.9427  159.8028 H   0  0  0  0  0  0  0  0  0  0  0  0  # atno 6907 bound_to 6896
  152.5312  134.2975  159.9076 H   0  0  0  0  0  0  0  0  0  0  0  0  # atno 6908 bound_to 6896
  151.2982  133.4092  159.2672 H   0  0  0  0  0  0  0  0  0  0  0  0  # atno 6909 bound_to 6896
  146.1782  139.7187  142.8919 H   0  0  0  0  0  0  0  0  0  0  0  0  # atno 7974 bound_to 7965
  155.5799  140.3491  155.4537 H   0  0  0  0  0  0  0  0  0  0  0  0  # atno 8008 bound_to 7997
  156.0381  140.1289  157.0211 H   0  0  0  0  0  0  0  0  0  0  0  0  # atno 8009 bound_to 7997
  154.4380  140.1029  156.6182 H   0  0  0  0  0  0  0  0  0  0  0  0  # atno 8010 bound_to 7997
  140.4694  143.2431  151.8227 H   0  0  0  0  0  0  0  0  0  0  0  0  # atno 10167 bound_to 10162
  157.0041  130.6091  149.5700 H   0  0  0  0  0  0  0  0  0  0  0  0  # atno 10718 bound_to 10713
  154.8350  135.4490  154.1197 H   0  0  0  0  0  0  0  0  0  0  0  0  # atno 10763 bound_to 10752
  153.2437  135.6919  153.7761 H   0  0  0  0  0  0  0  0  0  0  0  0  # atno 10764 bound_to 10752
  153.7100  135.3358  155.3220 H   0  0  0  0  0  0  0  0  0  0  0  0  # atno 10765 bound_to 10752
  140.1925  134.3969  155.8139 H   0  0  0  0  0  0  0  0  0  0  0  0  # atno 11005 bound_to 11000
  145.4151  141.0400  143.2995 LP  0  0  0  0  0  0  0  0  0  0  0  0  # atno 17320 bound_to 7965
  144.8271  139.5691  143.6960 LP  0  0  0  0  0  0  0  0  0  0  0  0  # atno 17321 bound_to 7965
  139.4816  144.4910  151.9185 LP  0  0  0  0  0  0  0  0  0  0  0  0  # atno 17342 bound_to 10162
  140.3995  144.2511  150.5894 LP  0  0  0  0  0  0  0  0  0  0  0  0  # atno 17343 bound_to 10162
  156.0160  130.5254  150.8136 LP  0  0  0  0  0  0  0  0  0  0  0  0  # atno 17370 bound_to 10713
  157.5369  131.0939  150.9880 LP  0  0  0  0  0  0  0  0  0  0  0  0  # atno 17371 bound_to 10713
  141.2226  133.7053  156.8120 LP  0  0  0  0  0  0  0  0  0  0  0  0  # atno 17394 bound_to 11000
  140.2144  134.8804  157.3309 LP  0  0  0  0  0  0  0  0  0  0  0  0  # atno 17395 bound_to 11000

$$$$
