AV-unprocessed.smi:203|AV-procd|sdf|1596|dock3
  -GOLD-   2262019503D 1   1.00000     0.00000
 Structure written by MMmdl.
 57 61  0  0  0  0  0  0  0  0  1 V2000
  146.7110  136.9926  162.1513 O   0  0  0  0  0  0  0  0  0  0  0  0
  146.3683  136.0859  161.3964 C   0  0  0  0  0  0  0  0  0  0  0  0
  146.5138  136.1523  159.8857 C   0  0  0  0  0  0  0  0  0  0  0  0
  146.1878  134.7176  159.4253 C   0  0  1  0  0  0  0  0  0  0  0  0
  147.4172  133.9395  158.8572 C   0  0  1  0  0  0  0  0  0  0  0  0
  147.2335  132.3996  158.9192 C   0  0  0  0  0  0  0  0  0  0  0  0
  148.4516  131.6569  158.3545 C   0  0  0  0  0  0  0  0  0  0  0  0
  148.7365  132.1327  156.9265 C   0  0  0  0  0  0  0  0  0  0  0  0
  148.9232  133.6551  156.8991 C   0  0  0  0  0  0  0  0  0  0  0  0
  147.7728  134.3432  157.4845 N   0  0  0  0  0  0  0  0  0  0  0  0
  147.8489  135.6707  157.2409 C   0  0  0  0  0  0  0  0  0  0  0  0
  146.9300  136.1967  156.3946 N   0  0  0  0  0  0  0  0  0  0  0  0
  146.9527  137.5031  156.1138 C   0  0  0  0  0  0  0  0  0  0  0  0
  147.7935  138.4391  156.5599 N   0  0  0  0  0  0  0  0  0  0  0  0
  148.7225  137.9094  157.4065 C   0  0  0  0  0  0  0  0  0  0  0  0
  148.8245  136.5452  157.7977 C   0  0  0  0  0  0  0  0  0  0  0  0
  149.8966  136.3793  158.6661 N   0  0  0  0  0  0  0  0  0  0  0  0
  150.3982  137.5785  158.7845 C   0  0  0  0  0  0  0  0  0  0  0  0
  149.7565  138.5566  158.0593 N   0  0  0  0  0  0  0  0  0  0  0  0
  150.1057  139.9661  158.0062 C   0  0  0  0  0  0  0  0  0  0  0  0
  151.3702  140.2932  158.8296 C   0  0  1  0  0  0  0  0  0  0  0  0
  152.4985  140.1186  157.9941 O   0  0  0  0  0  0  0  0  0  0  0  0
  151.3954  141.7436  159.3537 C   0  0  1  0  0  0  0  0  0  0  0  0
  152.6538  142.1255  160.1344 C   0  0  0  0  0  0  0  0  0  0  0  0
  152.6845  143.6392  160.0225 C   0  0  0  0  0  0  0  0  0  0  0  0
  151.8558  143.9270  158.7680 C   0  0  0  0  0  0  0  0  0  0  0  0
  151.4735  142.6526  158.2651 O   0  0  0  0  0  0  0  0  0  0  0  0
  145.5336  134.0458  160.6536 C   0  0  0  0  0  0  0  0  0  0  0  0
  145.8238  134.9288  161.7665 N   0  0  0  0  0  0  0  0  0  0  0  0
  145.7875  136.8646  159.4924 H   0  0  0  0  0  0  0  0  0  0  0  0
  147.5074  136.4889  159.5891 H   0  0  0  0  0  0  0  0  0  0  0  0
  145.4341  134.8080  158.6426 H   0  0  0  0  0  0  0  0  0  0  0  0
  148.2722  134.1801  159.4895 H   0  0  0  0  0  0  0  0  0  0  0  0
  147.0670  132.0682  159.9436 H   0  0  0  0  0  0  0  0  0  0  0  0
  146.3495  132.1002  158.3555 H   0  0  0  0  0  0  0  0  0  0  0  0
  149.3215  131.8389  158.9867 H   0  0  0  0  0  0  0  0  0  0  0  0
  148.2748  130.5810  158.3651 H   0  0  0  0  0  0  0  0  0  0  0  0
  149.6270  131.6396  156.5359 H   0  0  0  0  0  0  0  0  0  0  0  0
  147.9106  131.8515  156.2717 H   0  0  0  0  0  0  0  0  0  0  0  0
  149.8248  133.9249  157.4510 H   0  0  0  0  0  0  0  0  0  0  0  0
  149.0711  133.9836  155.8691 H   0  0  0  0  0  0  0  0  0  0  0  0
  146.1879  137.8481  155.4334 H   0  0  0  0  0  0  0  0  0  0  0  0
  151.2581  137.7843  159.4053 H   0  0  0  0  0  0  0  0  0  0  0  0
  150.2438  140.2568  156.9640 H   0  0  0  0  0  0  0  0  0  0  0  0
  149.2497  140.5313  158.3752 H   0  0  0  0  0  0  0  0  0  0  0  0
  151.4425  139.5989  159.6677 H   0  0  0  0  0  0  0  0  0  0  0  0
  152.2542  140.3420  157.1090 H   0  0  0  0  0  0  0  0  0  0  0  0
  150.5103  141.9603  159.9555 H   0  0  0  0  0  0  0  0  0  0  0  0
  152.6350  141.7803  161.1685 H   0  0  0  0  0  0  0  0  0  0  0  0
  153.5375  141.7054  159.6519 H   0  0  0  0  0  0  0  0  0  0  0  0
  152.2196  144.1012  160.8943 H   0  0  0  0  0  0  0  0  0  0  0  0
  153.7042  144.0172  159.9431 H   0  0  0  0  0  0  0  0  0  0  0  0
  150.9644  144.5041  159.0182 H   0  0  0  0  0  0  0  0  0  0  0  0
  152.4192  144.4799  158.0156 H   0  0  0  0  0  0  0  0  0  0  0  0
  144.4522  133.9784  160.5278 H   0  0  0  0  0  0  0  0  0  0  0  0
  145.9059  133.0391  160.8452 H   0  0  0  0  0  0  0  0  0  0  0  0
  145.6362  134.6736  162.7255 H   0  0  0  0  0  0  0  0  0  0  0  0
  1  2  2  0  0  0  0
  2 29  1  0  0  0  0
  2  3  1  0  0  0  0
  3  4  1  0  0  0  0
  3 30  1  0  0  0  0
  3 31  1  0  0  0  0
  4  5  1  0  0  0  0
  4 28  1  0  0  0  0
  4 32  1  0  0  0  0
  5 10  1  0  0  0  0
  5  6  1  0  0  0  0
  5 33  1  0  0  0  0
  6  7  1  0  0  0  0
  6 34  1  0  0  0  0
  6 35  1  0  0  0  0
  7  8  1  0  0  0  0
  7 36  1  0  0  0  0
  7 37  1  0  0  0  0
  8  9  1  0  0  0  0
  8 38  1  0  0  0  0
  8 39  1  0  0  0  0
  9 10  1  0  0  0  0
  9 40  1  0  0  0  0
  9 41  1  0  0  0  0
 10 11  1  0  0  0  0
 11 16  1  0  0  0  0
 11 12  2  0  0  0  0
 12 13  1  0  0  0  0
 13 14  2  0  0  0  0
 13 42  1  0  0  0  0
 14 15  1  0  0  0  0
 15 19  1  0  0  0  0
 15 16  2  0  0  0  0
 16 17  1  0  0  0  0
 17 18  2  0  0  0  0
 18 19  1  0  0  0  0
 18 43  1  0  0  0  0
 19 20  1  0  0  0  0
 20 21  1  0  0  0  0
 20 44  1  0  0  0  0
 20 45  1  0  0  0  0
 21 22  1  0  0  0  0
 21 23  1  0  0  0  0
 21 46  1  0  0  0  0
 22 47  1  0  0  0  0
 23 27  1  0  0  0  0
 23 24  1  0  0  0  0
 23 48  1  0  0  0  0
 24 25  1  0  0  0  0
 24 49  1  0  0  0  0
 24 50  1  0  0  0  0
 25 26  1  0  0  0  0
 25 51  1  0  0  0  0
 25 52  1  0  0  0  0
 26 27  1  0  0  0  0
 26 53  1  0  0  0  0
 26 54  1  0  0  0  0
 28 29  1  0  0  0  0
 28 55  1  0  0  0  0
 28 56  1  0  0  0  0
 29 57  1  0  0  0  0
M  END
> <s_m_source_file>
AV-unprocessed.smi

> <i_m_source_file_index>
203

> <i_lp_mmshare_version>
43012

> <i_f3d_flags>
0

> <s_epik_input>
Tz1DMVtDSDJdW0NASF0oW0NIMl1bTkhdMSlbQ0BASF0yW0NIMl1bQ0gyXVtDSDJdW0NIMl1OMmMobltjSF1uMyljKGMzNCluW2NIXW40W0NIMl1bQ0BIXShbT0hdKVtDQEBIXTVbQ0gyXVtDSDJdW0NIMl1PNQ==

> <s_epik_cmdline>
J2VwaWtfcHl0aG9uJywgJy1waCcsICc3LjAnLCAnLXRuJywgJzgnLCAnLW1hJywgJzIwMCcsICctbWV0YWxfYmluZGluZycsICctaW1hZScsICc8aW5maWxlLm1hZT4nLCAnLW9tYWUnLCAnPG91dGZpbGUubWFlPic=

> <r_lp_tautomer_probability>
1

> <r_epik_Ionization_Penalty>
0.00175146

> <r_epik_Ionization_Penalty_Charging>
0

> <r_epik_Ionization_Penalty_Neutral>
0.00175146

> <r_epik_State_Penalty>
0.00109045

> <r_epik_Charging_Adjusted_Penalty>
0.00109045

> <i_epik_Tot_Q>
0

> <i_epik_Tot_abs_Q>
0

> <r_epik_Metal_State_Penalty>
-0

> <b_epik_Metal_Only>
0

> <s_lp_Force_Field>
OPLS_2005

> <r_lp_Energy>
57.4119

> <b_lp_Chiralities_Consistent>
1

> <s_lp_Variant>
AV-unprocessed.smi:203-15

> <Gold.Version>
5.8.1

> <Gold.Id.Protein>
6NUR|6NUR_protein|mol2

> <Gold.PLP.Fitness>
50.4148

> <Gold.PLP.PLP>
-43.7676

> <Gold.PLP.part.hbond>
-3.0000

> <Gold.PLP.part.metal>
0.0000

> <Gold.PLP.part.buried>
-7.8207

> <Gold.PLP.part.nonpolar>
-32.9143

> <Gold.PLP.part.repulsive>
0.2564

> <Gold.PLP.ligand.clash>
0.0000

> <Gold.PLP.ligand.torsion>
0.8372

> <Gold.PLP.Chemscore.Hbond>
2.6400

> <Gold.PLP.Chemscore.CHOScore>
0.0000

> <Gold.PLP.Chemscore.Metal>
0.0000

> <Gold.Chemscore.Hbonds>
donor molecule, donor type, donor heavy atom, donor atom, acceptor molecule, acceptor atom, score
      P1  H  6896  6909       L1    17  0.93
      P1  H  6934  6947       L1     1  0.06

> <Gold.PLP.Chemscore.Internal.Correction>
0.4017

> <Gold.Rescore>
     Score         DG    S(hbond)    S(metal)    S(lipo)     H(rot)  DE(clash)    DE(int)     intcor
     15.29     -17.31       2.36        0.00      93.31       2.72       0.01       2.01       ----

> <Gold.Chemscore.Fitness>
15.2940

> <Gold.Chemscore.DG>
-17.3133

> <Gold.Chemscore.ZeroCoef>
-5.4800

> <Gold.Chemscore.Hbond>
2.3568

> <Gold.Chemscore.Metal>
0.0000

> <Gold.Chemscore.Lipo>
93.3098

> <Gold.Chemscore.Internal_Hbond>
0.0000

> <Gold.Chemscore.DEClash>
0.0089

> <Gold.Chemscore.DEInternal>
2.0104

> <Gold.Chemscore.Rot>
2.7171

> <Gold.Chemscore.Internal.Correction>
   9.000000E+99

> <Gold.Chemscore.Hbonds>
donor molecule, donor type, donor heavy atom, donor atom, acceptor molecule, acceptor atom, score
      P1  H  6896  6909       L1    17  0.84
      P1  H  6934  6947       L1     1  0.08

> <Gold.Chemscore.Hbond.Weighted>
-7.8718

> <Gold.Chemscore.Metal.Weighted>
-0.0000

> <Gold.Chemscore.Lipo.Weighted>
-10.9172

> <Gold.Chemscore.Internal_Hbond.Weighted>
0.0000

> <Gold.Chemscore.DEClash.Weighted>
0.0089

> <Gold.Chemscore.DEInternal.Weighted>
2.0104

> <Gold.Chemscore.Rot.Weighted>
6.9557

> <Gold.Chemscore.Internal.Correction.Weighted>
   9.000000E+99

> <Gold.Protein.RotatedTorsions>
[ 6907 6896 6895 6894 ] final   66.76 input  -60.11 | X-H torsion
[ 7974 7965 7964 7962 ] final  142.46 input  175.53 | X-H torsion
[ 8008 7997 7996 7995 ] final -179.21 input   59.86 | X-H torsion
[ 10167 10162 10161 10158 ] final  -18.19 input  -65.29 | X-H torsion
[ 10718 10713 10712 10709 ] final  -54.62 input   66.30 | X-H torsion
[ 10763 10752 10751 10750 ] final -146.28 input  -60.55 | X-H torsion
[ 11005 11000 10999 10996 ] final -127.97 input  -57.11 | X-H torsion

> <Gold.Protein.ActiveResidues>
 VAL166  LYS551  ARG553  GLY616  TRP617  ASP618  TYR619  PRO620  LYS621  CYS622 
 ASP623  PHE694  ASN695  SER759  ASP760  ASP761  ALA762  ILE779  LEU786  VAL792 
 PHE793  MET794  SER795  GLU796  ALA797  LYS798  CYS799  TRP800  GLU811  SER814 

> <Gold.Protein.RotatedAtoms>
  152.4504  134.5406  159.9837 H   0  0  0  0  0  0  0  0  0  0  0  0  # atno 6907 bound_to 6896
  151.5480  133.3416  159.2955 H   0  0  0  0  0  0  0  0  0  0  0  0  # atno 6908 bound_to 6896
  150.8431  134.7762  159.7012 H   0  0  0  0  0  0  0  0  0  0  0  0  # atno 6909 bound_to 6896
  144.9005  139.5429  143.5756 H   0  0  0  0  0  0  0  0  0  0  0  0  # atno 7974 bound_to 7965
  156.0278  140.1275  157.0290 H   0  0  0  0  0  0  0  0  0  0  0  0  # atno 8008 bound_to 7997
  154.4337  140.1055  156.6126 H   0  0  0  0  0  0  0  0  0  0  0  0  # atno 8009 bound_to 7997
  155.5851  140.3468  155.4553 H   0  0  0  0  0  0  0  0  0  0  0  0  # atno 8010 bound_to 7997
  140.7256  143.4941  150.9953 H   0  0  0  0  0  0  0  0  0  0  0  0  # atno 10167 bound_to 10162
  156.1435  130.4153  150.0063 H   0  0  0  0  0  0  0  0  0  0  0  0  # atno 10718 bound_to 10713
  154.8344  135.3391  154.6636 H   0  0  0  0  0  0  0  0  0  0  0  0  # atno 10763 bound_to 10752
  153.7253  135.6955  153.5007 H   0  0  0  0  0  0  0  0  0  0  0  0  # atno 10764 bound_to 10752
  153.2352  135.4403  155.0591 H   0  0  0  0  0  0  0  0  0  0  0  0  # atno 10765 bound_to 10752
  140.9555  134.1007  157.4020 H   0  0  0  0  0  0  0  0  0  0  0  0  # atno 11005 bound_to 11000
  146.3106  139.7732  142.9023 LP  0  0  0  0  0  0  0  0  0  0  0  0  # atno 17320 bound_to 7965
  145.3624  141.0328  143.3277 LP  0  0  0  0  0  0  0  0  0  0  0  0  # atno 17321 bound_to 7965
  139.8647  143.7269  152.3171 LP  0  0  0  0  0  0  0  0  0  0  0  0  # atno 17342 bound_to 10162
  139.7497  144.7537  151.0526 LP  0  0  0  0  0  0  0  0  0  0  0  0  # atno 17343 bound_to 10162
  156.7941  130.9267  151.3646 LP  0  0  0  0  0  0  0  0  0  0  0  0  # atno 17370 bound_to 10713
  157.6596  130.8955  149.9803 LP  0  0  0  0  0  0  0  0  0  0  0  0  # atno 17371 bound_to 10713
  139.8861  135.0078  156.6476 LP  0  0  0  0  0  0  0  0  0  0  0  0  # atno 17394 bound_to 11000
  140.7542  133.8872  155.8369 LP  0  0  0  0  0  0  0  0  0  0  0  0  # atno 17395 bound_to 11000

$$$$
