#       Name:                AV-unprocessed.smi:199
#       Creating user name   scv26
#       Creation time:       Thu Mar 26 19:44:36 2020


#       File generated by GOLD software.
#

@<TRIPOS>MOLECULE
AV-unprocessed.smi:199
    61    65     1
SMALL
NO_CHARGES


@<TRIPOS>ATOM
      1 ****        -6.2783   0.5710   0.5610 C.3            1 S1                 0.0000
      2 ****        -5.4218   1.8386   0.7066 C.3            1 S1                 0.0000
      3 ****        -5.6547   2.6566  -0.4369 O.3            1 S1                 0.0000
      4 ****        -4.4884   3.4172  -0.6970 C.3            1 S1                 0.0000
      5 ****        -3.3801   2.4064  -0.4461 C.3            1 S1                 0.0000
      6 ****        -3.8803   1.6418   0.7773 C.3            1 S1                 0.0000
      7 ****        -3.4156   2.3207   1.9327 O.3            1 S1                 0.0000
      8 ****        -3.3719   0.1771   0.8443 C.3            1 S1                 0.0000
      9 ****        -1.9203   0.0680   0.8441 N.pl3          1 S1                 0.0000
     10 ****        -1.0881   0.1509   1.9367 C.2            1 S1                 0.0000
     11 ****         0.1842   0.0310   1.6760 N.2            1 S1                 0.0000
     12 ****         0.2389  -0.1637   0.3006 C.ar           1 S1                 0.0000
     13 ****         1.2922  -0.3583  -0.6406 C.ar           1 S1                 0.0000
     14 ****         2.6129  -0.3908  -0.3102 N.3            1 S1                 0.0000
     15 ****         3.0659  -1.1019   0.8767 C.3            1 S1                 0.0000
     16 ****         2.9668  -2.5874   0.4795 C.3            1 S1                 0.0000
     17 ****         3.3364  -2.5232  -1.0100 C.3            1 S1                 0.0000
     18 ****         3.5901  -1.0087  -1.1968 C.3            1 S1                 0.0000
     19 ****         4.9141  -0.5696  -0.5349 C.3            1 S1                 0.0000
     20 ****         6.1847  -1.3163  -0.9814 C.3            1 S1                 0.0000
     21 ****         7.3287  -0.6674  -0.4684 O.3            1 S1                 0.0000
     22 ****         4.5525  -0.7083   0.9560 C.3            1 S1                 0.0000
     23 ****         0.9402  -0.4841  -1.9482 N.ar           1 S1                 0.0000
     24 ****        -0.3440  -0.4526  -2.3129 C.ar           1 S1                 0.0000
     25 ****        -1.4237  -0.2941  -1.5471 N.ar           1 S1                 0.0000
     26 ****        -1.0812  -0.1432  -0.2361 C.ar           1 S1                 0.0000
     27 ****        -6.1491  -0.0974   1.4123 H              1 S1                 0.0000
     28 ****        -6.0306   0.0218  -0.3476 H              1 S1                 0.0000
     29 ****        -7.3364   0.8283   0.5073 H              1 S1                 0.0000
     30 ****        -5.7747   2.3908   1.5799 H              1 S1                 0.0000
     31 ****        -4.4811   3.8099  -1.7139 H              1 S1                 0.0000
     32 ****        -4.4262   4.2536   0.0008 H              1 S1                 0.0000
     33 ****        -3.3210   1.7398  -1.3071 H              1 S1                 0.0000
     34 ****        -2.3989   2.8645  -0.3130 H              1 S1                 0.0000
     35 ****        -3.8107   1.9230   2.6933 H              1 S1                 0.0000
     36 ****        -3.7479  -0.3164   1.7415 H              1 S1                 0.0000
     37 ****        -3.7471  -0.3968  -0.0034 H              1 S1                 0.0000
     38 ****        -1.4566   0.3137   2.9390 H              1 S1                 0.0000
     39 ****         2.5383  -0.8705   1.8000 H              1 S1                 0.0000
     40 ****         3.6379  -3.2244   1.0568 H              1 S1                 0.0000
     41 ****         1.9501  -2.9608   0.6085 H              1 S1                 0.0000
     42 ****         4.1889  -3.1489  -1.2692 H              1 S1                 0.0000
     43 ****         2.4959  -2.8541  -1.6213 H              1 S1                 0.0000
     44 ****         3.5255  -0.6865  -2.2368 H              1 S1                 0.0000
     45 ****         5.0488   0.4904  -0.7604 H              1 S1                 0.0000
     46 ****         6.1884  -2.3505  -0.6378 H              1 S1                 0.0000
     47 ****         6.2525  -1.3302  -2.0695 H              1 S1                 0.0000
     48 ****         8.0966  -1.1306  -0.7665 H              1 S1                 0.0000
     49 ****         4.6796   0.2459   1.4687 H              1 S1                 0.0000
     50 ****         5.1518  -1.4530   1.4813 H              1 S1                 0.0000
     51 ****        -0.5327  -0.5689  -3.3698 H              1 S1                 0.0000
     52 ****        -6.4242   3.2703  -0.2603 LP             1 S1                 0.0000
     53 ****        -5.8630   2.0795  -1.2265 LP             1 S1                 0.0000
     54 ****        -3.6741   3.2854   1.8839 LP             1 S1                 0.0000
     55 ****        -2.4202   2.2448   1.9911 LP             1 S1                 0.0000
     56 ****         0.9481   0.0702   2.3202 LP             1 S1                 0.0000
     57 ****         2.5994   0.6082  -0.2698 LP             1 S1                 0.0000
     58 ****         7.2991  -0.6722   0.5312 LP             1 S1                 0.0000
     59 ****         7.3561   0.2768  -0.7965 LP             1 S1                 0.0000
     60 ****         1.6497  -0.6013  -2.6430 LP             1 S1                 0.0000
     61 ****        -2.3631  -0.2869  -1.8898 LP             1 S1                 0.0000
@<TRIPOS>BOND
    1    1    2 1     
    2    1   27 1     
    3    1   28 1     
    4    1   29 1     
    5    2    6 1     
    6    2    3 1     
    7    2   30 1     
    8    3    4 1     
    9    4    5 1     
   10    4   31 1     
   11    4   32 1     
   12    5    6 1     
   13    5   33 1     
   14    5   34 1     
   15    6    7 1     
   16    6    8 1     
   17    7   35 1     
   18    8    9 1     
   19    8   36 1     
   20    8   37 1     
   21    9   26 1     
   22    9   10 1     
   23   10   11 2     
   24   10   38 1     
   25   11   12 1     
   26   12   26 ar    
   27   12   13 ar    
   28   13   14 1     
   29   13   23 ar    
   30   14   18 1     
   31   14   15 1     
   32   15   22 1     
   33   15   16 1     
   34   15   39 1     
   35   16   17 1     
   36   16   40 1     
   37   16   41 1     
   38   17   18 1     
   39   17   42 1     
   40   17   43 1     
   41   18   19 1     
   42   18   44 1     
   43   19   20 1     
   44   19   22 1     
   45   19   45 1     
   46   20   21 1     
   47   20   46 1     
   48   20   47 1     
   49   21   48 1     
   50   22   49 1     
   51   22   50 1     
   52   23   24 ar    
   53   24   25 ar    
   54   24   51 1     
   55   25   26 ar    
   56    3   52 1     
   57    3   53 1     
   58    7   54 1     
   59    7   55 1     
   60   11   56 1     
   61   14   57 1     
   62   21   58 1     
   63   21   59 1     
   64   23   60 1     
   65   25   61 1     
@<TRIPOS>SUBSTRUCTURE
      1 S1             1
@<TRIPOS>SET
LONE_PAIRS      STATIC     ATOMS    <user>   **** ""
10 52 53 54 55 56 57 58 59 60 61
DONOR_HYDROGENS      STATIC     ATOMS    <user>   **** ""
2 35 48
ATOM$BLUE        STATIC     ATOMS    COLORGROUP SYSTEM
10 52 53 54 55 56 57 58 59 60 61
ATOM$RED        STATIC     ATOMS    COLORGROUP SYSTEM
2 35 48
