AV-unprocessed.smi:1602|AV-procd|sdf|6441|dock1
  -GOLD-   22720 7 93D 1   1.00000     0.00000
 Structure written by MMmdl.
 35 36  0  0  0  0  0  0  0  0  2 V2000
  153.1141  140.4672  160.3179 C   0  0  0  0  0  0  0  0  0  0  0  0
  153.0973  141.0125  158.8814 C   0  0  2  0  0  0  0  0  0  0  0  0
  151.9041  141.9714  158.6088 C   0  0  0  0  0  0  0  0  0  0  0  0
  151.9546  143.2535  159.3097 N   0  0  0  0  0  0  0  0  0  0  0  0
  152.0096  144.5284  158.7787 C   0  0  0  0  0  0  0  0  0  0  0  0
  152.0198  145.4090  159.8222 C   0  0  0  0  0  0  0  0  0  0  0  0
  151.9498  144.5722  160.9703 C   0  0  0  0  0  0  0  0  0  0  0  0
  151.8974  143.2873  160.6624 N   0  0  0  0  0  0  0  0  0  0  0  0
  153.0787  139.8890  157.9552 N   0  5  0  0  0  0  0  0  0  0  0  0
  152.0317  138.6697  158.1721 S   0  0  0  0  0  0  0  0  0  0  0  0
  152.6411  137.3304  158.1239 O   0  0  0  0  0  0  0  0  0  0  0  0
  151.0618  138.9428  159.2452 O   0  0  0  0  0  0  0  0  0  0  0  0
  151.1751  138.8481  156.6719 N   0  0  0  0  0  0  0  0  0  0  0  0
  151.8421  138.3353  155.4631 C   0  0  0  0  0  0  0  0  0  0  0  0
  150.8925  138.3471  154.2541 C   0  0  0  0  0  0  0  0  0  0  0  0
  150.3500  139.6448  154.0669 O   0  0  0  0  0  0  0  0  0  0  0  0
  149.5757  140.0439  155.1869 C   0  0  0  0  0  0  0  0  0  0  0  0
  150.4593  140.1202  156.4417 C   0  0  0  0  0  0  0  0  0  0  0  0
  153.1033  141.2807  161.0434 H   0  0  0  0  0  0  0  0  0  0  0  0
  154.0125  139.8770  160.5020 H   0  0  0  0  0  0  0  0  0  0  0  0
  152.2545  139.8276  160.5208 H   0  0  0  0  0  0  0  0  0  0  0  0
  154.0116  141.5945  158.7585 H   0  0  0  0  0  0  0  0  0  0  0  0
  151.8583  142.1853  157.5405 H   0  0  0  0  0  0  0  0  0  0  0  0
  150.9588  141.4822  158.8458 H   0  0  0  0  0  0  0  0  0  0  0  0
  152.0436  144.6982  157.7127 H   0  0  0  0  0  0  0  0  0  0  0  0
  152.0667  146.4863  159.7730 H   0  0  0  0  0  0  0  0  0  0  0  0
  151.9299  144.8577  162.0116 H   0  0  0  0  0  0  0  0  0  0  0  0
  152.7199  138.9496  155.2592 H   0  0  0  0  0  0  0  0  0  0  0  0
  152.1952  137.3190  155.6372 H   0  0  0  0  0  0  0  0  0  0  0  0
  151.4337  138.0586  153.3530 H   0  0  0  0  0  0  0  0  0  0  0  0
  150.0897  137.6200  154.3861 H   0  0  0  0  0  0  0  0  0  0  0  0
  149.1358  141.0199  154.9818 H   0  0  0  0  0  0  0  0  0  0  0  0
  148.7471  139.3502  155.3391 H   0  0  0  0  0  0  0  0  0  0  0  0
  149.8410  140.3734  157.3019 H   0  0  0  0  0  0  0  0  0  0  0  0
  151.1916  140.9209  156.3335 H   0  0  0  0  0  0  0  0  0  0  0  0
  1  2  1  0  0  0  0
  1 19  1  0  0  0  0
  1 20  1  0  0  0  0
  1 21  1  0  0  0  0
  2  3  1  0  0  0  0
  2  9  1  0  0  0  0
  2 22  1  0  0  0  0
  3  4  1  0  0  0  0
  3 23  1  0  0  0  0
  3 24  1  0  0  0  0
  4  8  1  0  0  0  0
  4  5  1  0  0  0  0
  5  6  2  0  0  0  0
  5 25  1  0  0  0  0
  6  7  1  0  0  0  0
  6 26  1  0  0  0  0
  7  8  2  0  0  0  0
  7 27  1  0  0  0  0
  9 10  1  0  0  0  0
 10 11  2  0  0  0  0
 10 12  2  0  0  0  0
 10 13  1  0  0  0  0
 13 18  1  0  0  0  0
 13 14  1  0  0  0  0
 14 15  1  0  0  0  0
 14 28  1  0  0  0  0
 14 29  1  0  0  0  0
 15 16  1  0  0  0  0
 15 30  1  0  0  0  0
 15 31  1  0  0  0  0
 16 17  1  0  0  0  0
 17 18  1  0  0  0  0
 17 32  1  0  0  0  0
 17 33  1  0  0  0  0
 18 34  1  0  0  0  0
 18 35  1  0  0  0  0
M  CHG  1   9  -1
M  END
> <s_m_source_file>
AV-unprocessed.smi

> <i_m_source_file_index>
1602

> <i_lp_mmshare_version>
43012

> <i_f3d_flags>
0

> <s_epik_input>
bjFbY0hdW2NIXVtjSF1uMVtDSDJdW0NAQEhdKFtDSDNdKVtOSF1TKD1PKSg9TylOMltDSDJdW0NIMl1PW0NIMl1bQ0gyXTI=

> <s_epik_cmdline>
J2VwaWtfcHl0aG9uJywgJy1waCcsICc3LjAnLCAnLXRuJywgJzgnLCAnLW1hJywgJzIwMCcsICctbWV0YWxfYmluZGluZycsICctaW1hZScsICc8aW5maWxlLm1hZT4nLCAnLW9tYWUnLCAnPG91dGZpbGUubWFlPic=

> <r_lp_tautomer_probability>
1

> <r_epik_Ionization_Penalty>
1.03144

> <r_epik_Ionization_Penalty_Charging>
1.03142

> <r_epik_Ionization_Penalty_Neutral>
2.21579e-05

> <r_epik_State_Penalty>
1.0826

> <r_epik_Charging_Adjusted_Penalty>
2.11402

> <i_epik_Tot_Q>
-1

> <i_epik_Tot_abs_Q>
1

> <r_epik_Metal_State_Penalty>
0.386234

> <b_epik_Metal_Only>
0

> <s_lp_Force_Field>
OPLS_2005

> <r_lp_Energy>
6.71123

> <b_lp_Chiralities_Consistent>
1

> <s_lp_Variant>
AV-unprocessed.smi:1602-3

> <Gold.Version>
5.8.1

> <Gold.Id.Protein>
6NUR|6NUR_protein|mol2

> <Gold.PLP.Fitness>
42.3096

> <Gold.PLP.PLP>
-33.8774

> <Gold.PLP.part.hbond>
-2.2696

> <Gold.PLP.part.metal>
0.0000

> <Gold.PLP.part.buried>
-4.1580

> <Gold.PLP.part.nonpolar>
-26.9564

> <Gold.PLP.part.repulsive>
0.8170

> <Gold.PLP.ligand.clash>
0.0000

> <Gold.PLP.ligand.torsion>
1.0865

> <Gold.PLP.Chemscore.Hbond>
3.0000

> <Gold.PLP.Chemscore.CHOScore>
0.0000

> <Gold.PLP.Chemscore.Metal>
0.0000

> <Gold.Chemscore.Hbonds>
donor molecule, donor type, donor heavy atom, donor atom, acceptor molecule, acceptor atom, score
      P1  H  7989  7998       L1    16  1.00
      P1  H  7997  8008       L1     9  2.00

> <Gold.PLP.Chemscore.Internal.Correction>
1.6054

> <Gold.Rescore>
     Score         DG    S(hbond)    S(metal)    S(lipo)     H(rot)  DE(clash)    DE(int)     intcor
     14.97     -17.72       1.84        0.00      88.68       1.67       0.09       2.66       ----

> <Gold.Chemscore.Fitness>
14.9655

> <Gold.Chemscore.DG>
-17.7161

> <Gold.Chemscore.ZeroCoef>
-5.4800

> <Gold.Chemscore.Hbond>
1.8361

> <Gold.Chemscore.Metal>
0.0000

> <Gold.Chemscore.Lipo>
88.6813

> <Gold.Chemscore.Internal_Hbond>
0.0000

> <Gold.Chemscore.DEClash>
0.0871

> <Gold.Chemscore.DEInternal>
2.6635

> <Gold.Chemscore.Rot>
1.6688

> <Gold.Chemscore.Internal.Correction>
   9.000000E+99

> <Gold.Chemscore.Hbonds>
donor molecule, donor type, donor heavy atom, donor atom, acceptor molecule, acceptor atom, score
      P1  H  7989  7998       L1    16  0.75
      P1  H  7997  8008       L1     9  0.60

> <Gold.Chemscore.Hbond.Weighted>
-6.1326

> <Gold.Chemscore.Metal.Weighted>
-0.0000

> <Gold.Chemscore.Lipo.Weighted>
-10.3757

> <Gold.Chemscore.Internal_Hbond.Weighted>
0.0000

> <Gold.Chemscore.DEClash.Weighted>
0.0871

> <Gold.Chemscore.DEInternal.Weighted>
2.6635

> <Gold.Chemscore.Rot.Weighted>
4.2722

> <Gold.Chemscore.Internal.Correction.Weighted>
   9.000000E+99

> <Gold.Protein.RotatedTorsions>
[ 6907 6896 6895 6894 ] final  127.88 input  -60.11 | X-H torsion
[ 7974 7965 7964 7962 ] final -117.22 input  175.53 | X-H torsion
[ 8008 7997 7996 7995 ] final  -74.80 input   59.86 | X-H torsion
[ 10167 10162 10161 10158 ] final   28.98 input  -65.29 | X-H torsion
[ 10718 10713 10712 10709 ] final   19.48 input   66.30 | X-H torsion
[ 10763 10752 10751 10750 ] final   72.48 input  -60.55 | X-H torsion
[ 11005 11000 10999 10996 ] final  -87.78 input  -57.11 | X-H torsion

> <Gold.Protein.ActiveResidues>
 VAL166  LYS551  ARG553  GLY616  TRP617  ASP618  TYR619  PRO620  LYS621  CYS622 
 ASP623  PHE694  ASN695  SER759  ASP760  ASP761  ALA762  ILE779  LEU786  VAL792 
 PHE793  MET794  SER795  GLU796  ALA797  LYS798  CYS799  TRP800  GLU811  SER814 

> <Gold.Protein.RotatedAtoms>
  152.3771  133.6496  159.6132 H   0  0  0  0  0  0  0  0  0  0  0  0  # atno 6907 bound_to 6896
  150.7712  133.9175  159.3396 H   0  0  0  0  0  0  0  0  0  0  0  0  # atno 6908 bound_to 6896
  151.6987  135.0935  160.0298 H   0  0  0  0  0  0  0  0  0  0  0  0  # atno 6909 bound_to 6896
  145.0878  140.8469  143.4001 H   0  0  0  0  0  0  0  0  0  0  0  0  # atno 7974 bound_to 7965
  154.5361  140.0755  156.8430 H   0  0  0  0  0  0  0  0  0  0  0  0  # atno 8008 bound_to 7997
  155.3274  140.3400  155.4222 H   0  0  0  0  0  0  0  0  0  0  0  0  # atno 8009 bound_to 7997
  156.1830  140.1659  156.8225 H   0  0  0  0  0  0  0  0  0  0  0  0  # atno 8010 bound_to 7997
  140.4805  144.0623  150.6264 H   0  0  0  0  0  0  0  0  0  0  0  0  # atno 10167 bound_to 10162
  157.1111  130.6509  149.5897 H   0  0  0  0  0  0  0  0  0  0  0  0  # atno 10718 bound_to 10713
  153.0461  135.5098  154.7750 H   0  0  0  0  0  0  0  0  0  0  0  0  # atno 10763 bound_to 10752
  154.6648  135.2944  154.9821 H   0  0  0  0  0  0  0  0  0  0  0  0  # atno 10764 bound_to 10752
  154.0660  135.6684  153.4870 H   0  0  0  0  0  0  0  0  0  0  0  0  # atno 10765 bound_to 10752
  141.1612  133.7531  156.9356 H   0  0  0  0  0  0  0  0  0  0  0  0  # atno 11005 bound_to 11000
  145.1102  139.2762  143.5641 LP  0  0  0  0  0  0  0  0  0  0  0  0  # atno 17320 bound_to 7965
  146.3531  140.0695  142.8624 LP  0  0  0  0  0  0  0  0  0  0  0  0  # atno 17321 bound_to 7965
  140.3864  143.2775  152.0111 LP  0  0  0  0  0  0  0  0  0  0  0  0  # atno 17342 bound_to 10162
  139.4833  144.6113  151.7428 LP  0  0  0  0  0  0  0  0  0  0  0  0  # atno 17343 bound_to 10162
  155.9850  130.4878  150.7012 LP  0  0  0  0  0  0  0  0  0  0  0  0  # atno 17370 bound_to 10713
  157.4559  131.0878  151.0797 LP  0  0  0  0  0  0  0  0  0  0  0  0  # atno 17371 bound_to 10713
  140.1357  134.9327  157.2398 LP  0  0  0  0  0  0  0  0  0  0  0  0  # atno 17394 bound_to 11000
  140.2898  134.3253  155.7318 LP  0  0  0  0  0  0  0  0  0  0  0  0  # atno 17395 bound_to 11000

$$$$
