#       Name:                AV-unprocessed.smi:501
#       Creating user name   scv26
#       Creation time:       Thu Mar 26 23:20:32 2020


#       File generated by GOLD software.
#

@<TRIPOS>MOLECULE
AV-unprocessed.smi:501
    50    52     1
SMALL
NO_CHARGES


@<TRIPOS>ATOM
      1 ****        -5.1346   0.5338   0.1380 C.3            1 S1                 0.0000
      2 ****        -4.1689   1.6957   0.2511 C.ar           1 S1                 0.0000
      3 ****        -4.6499   3.0183   0.3234 C.ar           1 S1                 0.0000
      4 ****        -3.7445   4.0901   0.4264 C.ar           1 S1                 0.0000
      5 ****        -2.3591   3.8419   0.4580 C.ar           1 S1                 0.0000
      6 ****        -1.8603   2.5250   0.3880 C.ar           1 S1                 0.0000
      7 ****        -0.4907   2.3718   0.4252 O.3            1 S1                 0.0000
      8 ****         0.0352   1.0558   0.3429 C.3            1 S1                 0.0000
      9 ****         1.5653   1.1285   0.3247 C.3            1 S1                 0.0000
     10 ****         2.1656  -0.2080   0.2112 N.pl3          1 S1                 0.0000
     11 ****         2.5113  -0.9354  -0.8916 C.2            1 S1                 0.0000
     12 ****         2.3687  -0.5273  -2.3272 C.3            1 S1                 0.0000
     13 ****         1.6710  -1.5924  -3.1978 C.3            1 S1                 0.0000
     14 ****         0.3713  -2.0023  -2.6716 N.am           1 S1                 0.0000
     15 ****        -0.7562  -1.2831  -2.7658 C.2            1 S1                 0.0000
     16 ****        -0.8290  -0.1708  -3.2853 O.2            1 S1                 0.0000
     17 ****         3.0425  -2.1099  -0.4456 N.pl3          1 S1                 1.0000
     18 ****         3.0059  -2.1485   0.9484 C.ar           1 S1                 0.0000
     19 ****         3.4141  -3.1322   1.8439 C.ar           1 S1                 0.0000
     20 ****         3.2303  -2.8558   3.2147 C.ar           1 S1                 0.0000
     21 ****         2.6600  -1.6413   3.6486 C.ar           1 S1                 0.0000
     22 ****         2.2512  -0.6511   2.7311 C.ar           1 S1                 0.0000
     23 ****         2.4392  -0.9313   1.3777 C.ar           1 S1                 0.0000
     24 ****        -2.7808   1.4507   0.2840 C.ar           1 S1                 0.0000
     25 ****        -6.1697   0.8758   0.1123 H              1 S1                 0.0000
     26 ****        -5.0191  -0.1371   0.9895 H              1 S1                 0.0000
     27 ****        -4.9405  -0.0313  -0.7739 H              1 S1                 0.0000
     28 ****        -5.7116   3.2158   0.2995 H              1 S1                 0.0000
     29 ****        -4.1123   5.1041   0.4807 H              1 S1                 0.0000
     30 ****        -1.6718   4.6715   0.5360 H              1 S1                 0.0000
     31 ****        -0.3006   0.4625   1.1950 H              1 S1                 0.0000
     32 ****        -0.3119   0.5703  -0.5687 H              1 S1                 0.0000
     33 ****         1.9073   1.7257  -0.5206 H              1 S1                 0.0000
     34 ****         1.9481   1.6211   1.2188 H              1 S1                 0.0000
     35 ****         1.8116   0.4073  -2.3870 H              1 S1                 0.0000
     36 ****         3.3603  -0.3165  -2.7278 H              1 S1                 0.0000
     37 ****         1.5593  -1.2265  -4.2197 H              1 S1                 0.0000
     38 ****         2.2976  -2.4825  -3.2612 H              1 S1                 0.0000
     39 ****         0.3199  -2.9081  -2.2280 H              1 S1                 0.0000
     40 ****        -1.6044  -1.8200  -2.3138 H              1 S1                 0.0000
     41 ****         3.8491  -4.0641   1.5133 H              1 S1                 0.0000
     42 ****         3.5310  -3.5899   3.9483 H              1 S1                 0.0000
     43 ****         2.5330  -1.4650   4.7071 H              1 S1                 0.0000
     44 ****         1.8130   0.2741   3.0752 H              1 S1                 0.0000
     45 ****        -2.4451   0.4265   0.2273 H              1 S1                 0.0000
     46 ****         3.3976  -2.8352  -1.0552 H              1 S1                 0.0000
     47 ****        -0.1706   2.7666   1.2864 LP             1 S1                 0.0000
     48 ****        -0.1124   2.8916  -0.3407 LP             1 S1                 0.0000
     49 ****        -0.0112   0.2544  -3.6731 LP             1 S1                 0.0000
     50 ****        -1.7060   0.3084  -3.3199 LP             1 S1                 0.0000
@<TRIPOS>BOND
    1    1    2 1     
    2    1   25 1     
    3    1   26 1     
    4    1   27 1     
    5    2   24 ar    
    6    2    3 ar    
    7    3    4 ar    
    8    3   28 1     
    9    4    5 ar    
   10    4   29 1     
   11    5    6 ar    
   12    5   30 1     
   13    6    7 1     
   14    6   24 ar    
   15    7    8 1     
   16    8    9 1     
   17    8   31 1     
   18    8   32 1     
   19    9   10 1     
   20    9   33 1     
   21    9   34 1     
   22   10   23 1     
   23   10   11 1     
   24   11   12 1     
   25   11   17 2     
   26   12   13 1     
   27   12   35 1     
   28   12   36 1     
   29   13   14 1     
   30   13   37 1     
   31   13   38 1     
   32   14   15 am    
   33   14   39 1     
   34   15   16 2     
   35   15   40 1     
   36   17   18 1     
   37   17   46 1     
   38   18   23 ar    
   39   18   19 ar    
   40   19   20 ar    
   41   19   41 1     
   42   20   21 ar    
   43   20   42 1     
   44   21   22 ar    
   45   21   43 1     
   46   22   23 ar    
   47   22   44 1     
   48   24   45 1     
   49    7   47 1     
   50    7   48 1     
   51   16   49 1     
   52   16   50 1     
@<TRIPOS>SUBSTRUCTURE
      1 S1             1
@<TRIPOS>SET
LONE_PAIRS      STATIC     ATOMS    <user>   **** ""
4 47 48 49 50
DONOR_HYDROGENS      STATIC     ATOMS    <user>   **** ""
2 39 46
ATOM$BLUE        STATIC     ATOMS    COLORGROUP SYSTEM
4 47 48 49 50
ATOM$RED        STATIC     ATOMS    COLORGROUP SYSTEM
2 39 46
