AV-unprocessed.smi:1554|AV-procd|sdf|6257|dock6
  -GOLD-   22720 6443D 1   1.00000     0.00000
 Structure written by MMmdl.
 49 51  0  0  0  0  0  0  0  0  3 V2000
  152.3889  143.7269  160.0717 C   0  0  0  0  0  0  0  0  0  0  0  0
  152.0053  142.6977  159.0221 C   0  0  0  0  0  0  0  0  0  0  0  0
  151.1041  143.0776  158.0024 C   0  0  0  0  0  0  0  0  0  0  0  0
  150.7750  142.1149  157.0555 C   0  0  0  0  0  0  0  0  0  0  0  0
  149.9309  142.1773  155.9451 N   0  3  0  0  0  0  0  0  0  0  0  0
  149.9275  140.9737  155.3085 C   0  0  0  0  0  0  0  0  0  0  0  0
  150.7573  140.1421  155.9958 N   0  0  0  0  0  0  0  0  0  0  0  0
  151.1057  138.7380  155.7314 C   0  0  0  0  0  0  0  0  0  0  0  0
  149.9735  137.9606  155.0305 C   0  0  1  0  0  0  0  0  0  0  0  0
  149.8619  138.3886  153.6864 O   0  0  0  0  0  0  0  0  0  0  0  0
  150.2292  136.4401  155.0460 C   0  0  0  0  0  0  0  0  0  0  0  0
  149.0617  135.6573  154.5648 N   0  3  1  0  0  0  0  0  0  0  0  0
  149.2896  134.1948  154.6407 C   0  0  0  0  0  0  0  0  0  0  0  0
  148.0806  133.4323  154.0747 C   0  0  0  0  0  0  0  0  0  0  0  0
  146.9057  133.8123  154.7802 O   0  0  0  0  0  0  0  0  0  0  0  0
  146.6189  135.1997  154.6433 C   0  0  1  0  0  0  0  0  0  0  0  0
  145.2937  135.4879  155.3572 C   0  0  0  0  0  0  0  0  0  0  0  0
  147.7859  136.0159  155.2329 C   0  0  0  0  0  0  0  0  0  0  0  0
  151.3073  140.8113  157.0966 C   0  0  0  0  0  0  0  0  0  0  0  0
  152.1955  140.4207  158.0964 C   0  0  0  0  0  0  0  0  0  0  0  0
  152.5432  141.3854  159.0689 C   0  0  0  0  0  0  0  0  0  0  0  0
  153.5111  140.9873  160.1703 C   0  0  0  0  0  0  0  0  0  0  0  0
  151.9054  144.6864  159.8853 H   0  0  0  0  0  0  0  0  0  0  0  0
  153.4667  143.8921  160.0707 H   0  0  0  0  0  0  0  0  0  0  0  0
  152.0901  143.3906  161.0646 H   0  0  0  0  0  0  0  0  0  0  0  0
  150.6901  144.0747  157.9607 H   0  0  0  0  0  0  0  0  0  0  0  0
  149.3667  140.7249  154.4191 H   0  0  0  0  0  0  0  0  0  0  0  0
  152.0328  138.6962  155.1593 H   0  0  0  0  0  0  0  0  0  0  0  0
  151.3246  138.2792  156.6965 H   0  0  0  0  0  0  0  0  0  0  0  0
  149.0366  138.1926  155.5361 H   0  0  0  0  0  0  0  0  0  0  0  0
  149.3101  137.7801  153.2190 H   0  0  0  0  0  0  0  0  0  0  0  0
  151.0967  136.2292  154.4183 H   0  0  0  0  0  0  0  0  0  0  0  0
  150.4948  136.1056  156.0501 H   0  0  0  0  0  0  0  0  0  0  0  0
  150.1849  133.9279  154.0778 H   0  0  0  0  0  0  0  0  0  0  0  0
  149.4630  133.9047  155.6782 H   0  0  0  0  0  0  0  0  0  0  0  0
  147.9598  133.6277  153.0080 H   0  0  0  0  0  0  0  0  0  0  0  0
  148.2281  132.3580  154.1864 H   0  0  0  0  0  0  0  0  0  0  0  0
  146.5011  135.4385  153.5848 H   0  0  0  0  0  0  0  0  0  0  0  0
  145.0199  136.5396  155.2684 H   0  0  0  0  0  0  0  0  0  0  0  0
  145.3552  135.2463  156.4188 H   0  0  0  0  0  0  0  0  0  0  0  0
  144.4837  134.8975  154.9283 H   0  0  0  0  0  0  0  0  0  0  0  0
  147.8706  135.8286  156.3047 H   0  0  0  0  0  0  0  0  0  0  0  0
  147.5791  137.0786  155.1110 H   0  0  0  0  0  0  0  0  0  0  0  0
  152.6095  139.4245  158.1336 H   0  0  0  0  0  0  0  0  0  0  0  0
  153.8037  139.9403  160.0855 H   0  0  0  0  0  0  0  0  0  0  0  0
  153.0554  141.1258  161.1510 H   0  0  0  0  0  0  0  0  0  0  0  0
  154.4169  141.5919  160.1198 H   0  0  0  0  0  0  0  0  0  0  0  0
  148.9553  135.8762  153.5842 H   0  0  0  0  0  0  0  0  0  0  0  0
  149.3952  142.9810  155.6423 H   0  0  0  0  0  0  0  0  0  0  0  0
  1  2  1  0  0  0  0
  1 23  1  0  0  0  0
  1 24  1  0  0  0  0
  1 25  1  0  0  0  0
  2 21  1  0  0  0  0
  2  3  2  0  0  0  0
  3  4  1  0  0  0  0
  3 26  1  0  0  0  0
  4 19  2  0  0  0  0
  4  5  1  0  0  0  0
  5  6  2  0  0  0  0
  5 49  1  0  0  0  0
  6  7  1  0  0  0  0
  6 27  1  0  0  0  0
  7  8  1  0  0  0  0
  7 19  1  0  0  0  0
  8  9  1  0  0  0  0
  8 28  1  0  0  0  0
  8 29  1  0  0  0  0
  9 10  1  0  0  0  0
  9 11  1  0  0  0  0
  9 30  1  0  0  0  0
 10 31  1  0  0  0  0
 11 12  1  0  0  0  0
 11 32  1  0  0  0  0
 11 33  1  0  0  0  0
 12 18  1  0  0  0  0
 12 13  1  0  0  0  0
 12 48  1  0  0  0  0
 13 14  1  0  0  0  0
 13 34  1  0  0  0  0
 13 35  1  0  0  0  0
 14 15  1  0  0  0  0
 14 36  1  0  0  0  0
 14 37  1  0  0  0  0
 15 16  1  0  0  0  0
 16 17  1  0  0  0  0
 16 18  1  0  0  0  0
 16 38  1  0  0  0  0
 17 39  1  0  0  0  0
 17 40  1  0  0  0  0
 17 41  1  0  0  0  0
 18 42  1  0  0  0  0
 18 43  1  0  0  0  0
 19 20  1  0  0  0  0
 20 21  2  0  0  0  0
 20 44  1  0  0  0  0
 21 22  1  0  0  0  0
 22 45  1  0  0  0  0
 22 46  1  0  0  0  0
 22 47  1  0  0  0  0
M  CHG  1   5   1
M  CHG  1  12   1
M  END
> <s_m_source_file>
AV-unprocessed.smi

> <i_m_source_file_index>
1554

> <i_lp_mmshare_version>
43012

> <i_f3d_flags>
0

> <s_epik_input>
W0NIM11jKFtjSF0xKWMoW0NIM10pW2NIXWMoYzEyKW4oW2NIXW4yKVtDSDJdW0NASF0oW09IXSlbQ0gyXU4zW0NIMl1bQ0gyXU9bQ0BASF0oW0NIM10pW0NIMl0z

> <s_epik_cmdline>
J2VwaWtfcHl0aG9uJywgJy1waCcsICc3LjAnLCAnLXRuJywgJzgnLCAnLW1hJywgJzIwMCcsICctbWV0YWxfYmluZGluZycsICctaW1hZScsICc8aW5maWxlLm1hZT4nLCAnLW9tYWUnLCAnPG91dGZpbGUubWFlPic=

> <r_epik_Ionization_Penalty>
1.8848

> <r_epik_Ionization_Penalty_Charging>
1.88479

> <r_epik_Ionization_Penalty_Neutral>
1.42224e-05

> <r_epik_State_Penalty>
1.94551

> <r_epik_Charging_Adjusted_Penalty>
3.8303

> <i_epik_Tot_Q>
2

> <i_epik_Tot_abs_Q>
2

> <r_epik_Metal_State_Penalty>
5.95849

> <b_epik_Metal_Only>
0

> <s_lp_Force_Field>
OPLS_2005

> <r_lp_Energy>
30.3036

> <b_lp_Chiralities_Consistent>
1

> <s_lp_Variant>
AV-unprocessed.smi:1554-18

> <Gold.Version>
5.8.1

> <Gold.Id.Protein>
6NUR|6NUR_protein|mol2

> <Gold.PLP.Fitness>
55.9315

> <Gold.PLP.PLP>
-41.8998

> <Gold.PLP.part.hbond>
-4.0376

> <Gold.PLP.part.metal>
0.0000

> <Gold.PLP.part.buried>
-2.8262

> <Gold.PLP.part.nonpolar>
-34.4081

> <Gold.PLP.part.repulsive>
0.2287

> <Gold.PLP.ligand.clash>
0.0000

> <Gold.PLP.ligand.torsion>
0.5064

> <Gold.PLP.Chemscore.Hbond>
5.0000

> <Gold.PLP.Chemscore.CHOScore>
0.0000

> <Gold.PLP.Chemscore.Metal>
0.0000

> <Gold.Chemscore.Hbonds>
donor molecule, donor type, donor heavy atom, donor atom, acceptor molecule, acceptor atom, score
      L1  H     5    49       P1  8028  2.00
      L1  H    10    31       P1  7948  0.93
      L1  H    12    48       P1  7948  2.00

> <Gold.PLP.Chemscore.Internal.Correction>
0.0445

> <Gold.Rescore>
     Score         DG    S(hbond)    S(metal)    S(lipo)     H(rot)  DE(clash)    DE(int)     intcor
     20.83     -21.45       2.80        0.00     102.70       2.11       0.05       0.58       ----

> <Gold.Chemscore.Fitness>
20.8285

> <Gold.Chemscore.DG>
-21.4542

> <Gold.Chemscore.ZeroCoef>
-5.4800

> <Gold.Chemscore.Hbond>
2.8039

> <Gold.Chemscore.Metal>
0.0000

> <Gold.Chemscore.Lipo>
102.7045

> <Gold.Chemscore.Internal_Hbond>
0.0000

> <Gold.Chemscore.DEClash>
0.0456

> <Gold.Chemscore.DEInternal>
0.5801

> <Gold.Chemscore.Rot>
2.1122

> <Gold.Chemscore.Internal.Correction>
   9.000000E+99

> <Gold.Chemscore.Hbonds>
donor molecule, donor type, donor heavy atom, donor atom, acceptor molecule, acceptor atom, score
      L1  H     5    49       P1  8028  0.99
      L1  H    10    31       P1  7948  0.83
      L1  H    12    48       P1  7948  0.94

> <Gold.Chemscore.Hbond.Weighted>
-9.3651

> <Gold.Chemscore.Metal.Weighted>
-0.0000

> <Gold.Chemscore.Lipo.Weighted>
-12.0164

> <Gold.Chemscore.Internal_Hbond.Weighted>
0.0000

> <Gold.Chemscore.DEClash.Weighted>
0.0456

> <Gold.Chemscore.DEInternal.Weighted>
0.5801

> <Gold.Chemscore.Rot.Weighted>
5.4073

> <Gold.Chemscore.Internal.Correction.Weighted>
   9.000000E+99

> <Gold.Protein.RotatedTorsions>
[ 6907 6896 6895 6894 ] final -126.30 input  -60.11 | X-H torsion
[ 7974 7965 7964 7962 ] final  -81.29 input  175.53 | X-H torsion
[ 8008 7997 7996 7995 ] final  133.43 input   59.86 | X-H torsion
[ 10167 10162 10161 10158 ] final   33.86 input  -65.29 | X-H torsion
[ 10718 10713 10712 10709 ] final  129.35 input   66.30 | X-H torsion
[ 10763 10752 10751 10750 ] final -176.62 input  -60.55 | X-H torsion
[ 11005 11000 10999 10996 ] final  -74.81 input  -57.11 | X-H torsion

> <Gold.Protein.ActiveResidues>
 VAL166  LYS551  ARG553  GLY616  TRP617  ASP618  TYR619  PRO620  LYS621  CYS622 
 ASP623  PHE694  ASN695  SER759  ASP760  ASP761  ALA762  ILE779  LEU786  VAL792 
 PHE793  MET794  SER795  GLU796  ALA797  LYS798  CYS799  TRP800  GLU811  SER814 

> <Gold.Protein.RotatedAtoms>
  150.8955  133.7187  159.2892 H   0  0  0  0  0  0  0  0  0  0  0  0  # atno 6907 bound_to 6896
  151.4723  135.1045  159.9764 H   0  0  0  0  0  0  0  0  0  0  0  0  # atno 6908 bound_to 6896
  152.4846  133.8292  159.7149 H   0  0  0  0  0  0  0  0  0  0  0  0  # atno 6909 bound_to 6896
  145.5487  140.9500  143.1511 H   0  0  0  0  0  0  0  0  0  0  0  0  # atno 7974 bound_to 7965
  156.2992  140.2521  156.3252 H   0  0  0  0  0  0  0  0  0  0  0  0  # atno 8008 bound_to 7997
  154.9197  140.0401  157.2010 H   0  0  0  0  0  0  0  0  0  0  0  0  # atno 8009 bound_to 7997
  154.8323  140.2877  155.5718 H   0  0  0  0  0  0  0  0  0  0  0  0  # atno 8010 bound_to 7997
  140.4369  144.1244  150.6167 H   0  0  0  0  0  0  0  0  0  0  0  0  # atno 10167 bound_to 10162
  157.5162  131.1097  150.9221 H   0  0  0  0  0  0  0  0  0  0  0  0  # atno 10718 bound_to 10713
  154.5701  135.2827  155.0835 H   0  0  0  0  0  0  0  0  0  0  0  0  # atno 10763 bound_to 10752
  154.2211  135.6391  153.5149 H   0  0  0  0  0  0  0  0  0  0  0  0  # atno 10764 bound_to 10752
  153.0055  135.5514  154.6322 H   0  0  0  0  0  0  0  0  0  0  0  0  # atno 10765 bound_to 10752
  141.1639  133.6924  156.7421 H   0  0  0  0  0  0  0  0  0  0  0  0  # atno 11005 bound_to 11000
  144.7540  139.7121  143.7261 LP  0  0  0  0  0  0  0  0  0  0  0  0  # atno 17320 bound_to 7965
  146.1932  139.5183  142.9792 LP  0  0  0  0  0  0  0  0  0  0  0  0  # atno 17321 bound_to 7965
  140.4364  143.2546  151.9530 LP  0  0  0  0  0  0  0  0  0  0  0  0  # atno 17342 bound_to 10162
  139.4787  144.5696  151.8109 LP  0  0  0  0  0  0  0  0  0  0  0  0  # atno 17343 bound_to 10162
  156.9846  130.5540  149.5299 LP  0  0  0  0  0  0  0  0  0  0  0  0  # atno 17370 bound_to 10713
  156.0322  130.5412  150.8562 LP  0  0  0  0  0  0  0  0  0  0  0  0  # atno 17371 bound_to 10713
  140.2666  134.8425  157.3809 LP  0  0  0  0  0  0  0  0  0  0  0  0  # atno 17394 bound_to 11000
  140.1560  134.4789  155.7927 LP  0  0  0  0  0  0  0  0  0  0  0  0  # atno 17395 bound_to 11000

$$$$
