#       Name:                AV-unprocessed.smi:107
#       Creating user name   scv26
#       Creation time:       Thu Mar 26 18:03:04 2020


#       File generated by GOLD software.
#

@<TRIPOS>MOLECULE
AV-unprocessed.smi:107
    41    42     1
SMALL
NO_CHARGES


@<TRIPOS>ATOM
      1 ****        -3.5701   1.7075   0.5521 C.3            1 S1                 0.0000
      2 ****        -2.9354   0.3555   0.2767 C.2            1 S1                 0.0000
      3 ****        -1.6067   0.1426   0.4063 C.2            1 S1                 0.0000
      4 ****        -1.0318  -1.0923   0.1535 N.am           1 S1                 0.0000
      5 ****         0.4596  -1.3259   0.3016 C.3            1 S1                 0.0000
      6 ****         1.1355  -1.4231  -1.0787 C.3            1 S1                 0.0000
      7 ****         2.2768  -0.4260  -0.9829 C.3            1 S1                 0.0000
      8 ****         3.4693  -1.0668  -0.5690 O.3            1 S1                 0.0000
      9 ****         1.7613   0.5699   0.0623 C.3            1 S1                 0.0000
     10 ****         2.8134   1.4237   0.7915 C.3            1 S1                 0.0000
     11 ****         3.4595   2.2922  -0.1157 O.3            1 S1                 0.0000
     12 ****         1.0473  -0.2515   0.9788 O.3            1 S1                 0.0000
     13 ****        -1.8557  -2.1775  -0.2460 C.2            1 S1                 0.0000
     14 ****        -1.3172  -3.2644  -0.4580 O.2            1 S1                 0.0000
     15 ****        -3.1970  -1.9718  -0.3794 N.pl3          1 S1                -1.0000
     16 ****        -3.7858  -0.7647  -0.1431 C.2            1 S1                 0.0000
     17 ****        -4.9978  -0.5921  -0.2710 O.2            1 S1                 0.0000
     18 ****        -2.8235   2.4424   0.8535 H              1 S1                 0.0000
     19 ****        -4.3064   1.6262   1.3523 H              1 S1                 0.0000
     20 ****        -4.0711   2.0820  -0.3412 H              1 S1                 0.0000
     21 ****        -0.9887   0.9699   0.7184 H              1 S1                 0.0000
     22 ****         0.5585  -2.2266   0.9098 H              1 S1                 0.0000
     23 ****         1.4552  -2.4445  -1.2888 H              1 S1                 0.0000
     24 ****         0.4346  -1.1132  -1.8553 H              1 S1                 0.0000
     25 ****         2.4665   0.0606  -1.9400 H              1 S1                 0.0000
     26 ****         4.1471  -0.4129  -0.4898 H              1 S1                 0.0000
     27 ****         1.0375   1.2308  -0.4182 H              1 S1                 0.0000
     28 ****         2.3310   2.0282   1.5599 H              1 S1                 0.0000
     29 ****         3.5536   0.8031   1.2967 H              1 S1                 0.0000
     30 ****         4.0804   2.8192   0.3638 H              1 S1                 0.0000
     31 ****         3.7378  -1.7512  -1.2469 LP             1 S1                 0.0000
     32 ****         3.3244  -1.5119   0.3147 LP             1 S1                 0.0000
     33 ****         2.7838   2.8837  -0.5557 LP             1 S1                 0.0000
     34 ****         3.9380   1.7573  -0.8121 LP             1 S1                 0.0000
     35 ****         1.6786  -0.6017   1.6708 LP             1 S1                 0.0000
     36 ****         0.3336   0.2904   1.4225 LP             1 S1                 0.0000
     37 ****        -0.3282  -3.3624  -0.3474 LP             1 S1                 0.0000
     38 ****        -1.8689  -4.0491  -0.7408 LP             1 S1                 0.0000
     39 ****        -3.7732  -2.7385  -0.6625 LP             1 S1                 0.0000
     40 ****        -5.3968   0.3066  -0.0892 LP             1 S1                 0.0000
     41 ****        -5.5835  -1.3507  -0.5567 LP             1 S1                 0.0000
@<TRIPOS>BOND
    1    1    2 1     
    2    1   18 1     
    3    1   19 1     
    4    1   20 1     
    5    2   16 1     
    6    2    3 2     
    7    3    4 1     
    8    3   21 1     
    9    4    5 1     
   10    4   13 am    
   11    5   12 1     
   12    5    6 1     
   13    5   22 1     
   14    6    7 1     
   15    6   23 1     
   16    6   24 1     
   17    7    8 1     
   18    7    9 1     
   19    7   25 1     
   20    8   26 1     
   21    9   10 1     
   22    9   12 1     
   23    9   27 1     
   24   10   11 1     
   25   10   28 1     
   26   10   29 1     
   27   11   30 1     
   28   13   14 2     
   29   13   15 1     
   30   15   16 1     
   31   16   17 2     
   32    8   31 1     
   33    8   32 1     
   34   11   33 1     
   35   11   34 1     
   36   12   35 1     
   37   12   36 1     
   38   14   37 1     
   39   14   38 1     
   40   15   39 1     
   41   17   40 1     
   42   17   41 1     
@<TRIPOS>SUBSTRUCTURE
      1 S1             1
@<TRIPOS>SET
LONE_PAIRS      STATIC     ATOMS    <user>   **** ""
11 31 32 33 34 35 36 37 38 39 40 41
DONOR_HYDROGENS      STATIC     ATOMS    <user>   **** ""
2 26 30
ATOM$BLUE        STATIC     ATOMS    COLORGROUP SYSTEM
11 31 32 33 34 35 36 37 38 39 40 41
ATOM$RED        STATIC     ATOMS    COLORGROUP SYSTEM
2 26 30
