AV-unprocessed.smi:3032|AV-procd|sdf|11563|dock1
  -GOLD-   2272016533D 1   1.00000     0.00000
 Structure written by MMmdl.
 37 38  0  0  0  0  0  0  0  0  1 V2000
  153.7330  141.9688  160.7439 C   0  0  0  0  0  0  0  0  0  0  0  0
  152.9086  142.7013  159.6758 C   0  0  2  0  0  0  0  0  0  0  0  0
  152.2079  143.9436  160.2595 C   0  0  0  0  0  0  0  0  0  0  0  0
  151.3760  144.6753  159.1944 C   0  0  0  0  0  0  0  0  0  0  0  0
  150.3570  143.7309  158.5386 C   0  0  0  0  0  0  0  0  0  0  0  0
  151.0516  142.4924  157.9363 C   0  0  2  0  0  0  0  0  0  0  0  0
  150.0234  141.5518  157.2945 C   0  0  0  0  0  0  0  0  0  0  0  0
  149.9356  140.3801  157.6630 O   0  0  0  0  0  0  0  0  0  0  0  0
  149.2419  142.0826  156.3419 N   0  0  0  0  0  0  0  0  0  0  0  0
  148.1620  141.3808  155.6553 C   0  0  0  0  0  0  0  0  0  0  0  0
  148.1802  141.5976  154.1284 C   0  0  0  0  0  0  0  0  0  0  0  0
  147.7500  140.3965  153.3467 C   0  0  0  0  0  0  0  0  0  0  0  0
  148.3654  139.2222  153.4961 N   0  0  0  0  0  0  0  0  0  0  0  0
  147.7130  138.4455  152.6044 N   0  0  0  0  0  0  0  0  0  0  0  0
  146.7874  139.1810  151.9910 C   0  0  0  0  0  0  0  0  0  0  0  0
  146.7546  140.4396  152.4075 N   0  0  0  0  0  0  0  0  0  0  0  0
  151.8786  141.7626  159.0167 C   0  0  0  0  0  0  0  0  0  0  0  0
  153.0993  141.6039  161.5529 H   0  0  0  0  0  0  0  0  0  0  0  0
  154.4841  142.6276  161.1803 H   0  0  0  0  0  0  0  0  0  0  0  0
  154.2550  141.1118  160.3176 H   0  0  0  0  0  0  0  0  0  0  0  0
  153.6000  143.0378  158.9019 H   0  0  0  0  0  0  0  0  0  0  0  0
  151.5591  143.6472  161.0850 H   0  0  0  0  0  0  0  0  0  0  0  0
  152.9469  144.6274  160.6787 H   0  0  0  0  0  0  0  0  0  0  0  0
  150.8599  145.5235  159.6450 H   0  0  0  0  0  0  0  0  0  0  0  0
  152.0378  145.0864  158.4311 H   0  0  0  0  0  0  0  0  0  0  0  0
  149.6194  143.4251  159.2825 H   0  0  0  0  0  0  0  0  0  0  0  0
  149.8088  144.2683  157.7634 H   0  0  0  0  0  0  0  0  0  0  0  0
  151.7370  142.8330  157.1577 H   0  0  0  0  0  0  0  0  0  0  0  0
  149.3815  143.0532  156.1004 H   0  0  0  0  0  0  0  0  0  0  0  0
  148.2737  140.3180  155.8709 H   0  0  0  0  0  0  0  0  0  0  0  0
  147.1973  141.6786  156.0689 H   0  0  0  0  0  0  0  0  0  0  0  0
  147.5359  142.4390  153.8711 H   0  0  0  0  0  0  0  0  0  0  0  0
  149.1838  141.8805  153.8082 H   0  0  0  0  0  0  0  0  0  0  0  0
  146.1304  138.7920  151.2272 H   0  0  0  0  0  0  0  0  0  0  0  0
  152.3932  140.9092  158.5724 H   0  0  0  0  0  0  0  0  0  0  0  0
  151.2173  141.3568  159.7843 H   0  0  0  0  0  0  0  0  0  0  0  0
  147.9280  137.4698  152.4562 H   0  0  0  0  0  0  0  0  0  0  0  0
  1  2  1  0  0  0  0
  1 18  1  0  0  0  0
  1 19  1  0  0  0  0
  1 20  1  0  0  0  0
  2 17  1  0  0  0  0
  2  3  1  0  0  0  0
  2 21  1  0  0  0  0
  3  4  1  0  0  0  0
  3 22  1  0  0  0  0
  3 23  1  0  0  0  0
  4  5  1  0  0  0  0
  4 24  1  0  0  0  0
  4 25  1  0  0  0  0
  5  6  1  0  0  0  0
  5 26  1  0  0  0  0
  5 27  1  0  0  0  0
  6  7  1  0  0  0  0
  6 17  1  0  0  0  0
  6 28  1  0  0  0  0
  7  8  2  0  0  0  0
  7  9  1  0  0  0  0
  9 10  1  0  0  0  0
  9 29  1  0  0  0  0
 10 11  1  0  0  0  0
 10 30  1  0  0  0  0
 10 31  1  0  0  0  0
 11 32  1  0  0  0  0
 11 33  1  0  0  0  0
 11 12  1  0  0  0  0
 12 16  1  0  0  0  0
 12 13  2  0  0  0  0
 13 14  1  0  0  0  0
 14 15  1  0  0  0  0
 14 37  1  0  0  0  0
 15 16  2  0  0  0  0
 15 34  1  0  0  0  0
 17 35  1  0  0  0  0
 17 36  1  0  0  0  0
M  END
> <s_m_source_file>
AV-unprocessed.smi

> <i_m_source_file_index>
3032

> <i_lp_mmshare_version>
43012

> <i_f3d_flags>
0

> <s_epik_input>
W0NIM11bQ0BASF0xW0NIMl1bQ0gyXVtDSDJdW0NASF0oW0NIMl0xKUMoPU8pW05IXVtDSDJdW0NIMl1jMm5uW2NIXVtuSF0y

> <s_epik_cmdline>
J2VwaWtfcHl0aG9uJywgJy1waCcsICc3LjAnLCAnLXRuJywgJzgnLCAnLW1hJywgJzIwMCcsICctbWV0YWxfYmluZGluZycsICctaW1hZScsICc8aW5maWxlLm1hZT4nLCAnLW9tYWUnLCAnPG91dGZpbGUubWFlPic=

> <r_epik_Ionization_Penalty>
0.000752022

> <r_epik_Ionization_Penalty_Charging>
0

> <r_epik_Ionization_Penalty_Neutral>
0.000752022

> <r_epik_State_Penalty>
0.639926

> <r_epik_Charging_Adjusted_Penalty>
0.639926

> <i_epik_Tot_Q>
0

> <i_epik_Tot_abs_Q>
0

> <r_epik_Metal_State_Penalty>
0.76532

> <b_epik_Metal_Only>
0

> <s_lp_Force_Field>
OPLS_2005

> <r_lp_Energy>
8.90132

> <b_lp_Chiralities_Consistent>
1

> <s_lp_Variant>
AV-unprocessed.smi:3032-7

> <Gold.Version>
5.8.1

> <Gold.Id.Protein>
6NUR|6NUR_protein|mol2

> <Gold.PLP.Fitness>
42.3719

> <Gold.PLP.PLP>
-35.0592

> <Gold.PLP.part.hbond>
-3.0000

> <Gold.PLP.part.metal>
0.0000

> <Gold.PLP.part.buried>
-1.6806

> <Gold.PLP.part.nonpolar>
-32.8585

> <Gold.PLP.part.repulsive>
3.4863

> <Gold.PLP.ligand.clash>
0.0000

> <Gold.PLP.ligand.torsion>
0.3636

> <Gold.PLP.Chemscore.Hbond>
1.9920

> <Gold.PLP.Chemscore.CHOScore>
0.6788

> <Gold.PLP.Chemscore.Metal>
0.0000

> <Gold.Chemscore.Hbonds>
donor molecule, donor type, donor heavy atom, donor atom, acceptor molecule, acceptor atom, score
      L1  H     9    29       P1  8028  1.00
      L1  H    14    37       P1  7948  1.00
      L1  C    15    34       P1 10171  0.68

> <Gold.PLP.Chemscore.Internal.Correction>
0.0277

> <Gold.Rescore>
     Score         DG    S(hbond)    S(metal)    S(lipo)     H(rot)  DE(clash)    DE(int)     intcor
     15.20     -15.67       1.75        0.00      86.43       2.25       0.14       0.33       ----

> <Gold.Chemscore.Fitness>
15.2019

> <Gold.Chemscore.DG>
-15.6738

> <Gold.Chemscore.ZeroCoef>
-5.4800

> <Gold.Chemscore.Hbond>
1.7490

> <Gold.Chemscore.Metal>
0.0000

> <Gold.Chemscore.Lipo>
86.4320

> <Gold.Chemscore.Internal_Hbond>
0.0000

> <Gold.Chemscore.DEClash>
0.1385

> <Gold.Chemscore.DEInternal>
0.3335

> <Gold.Chemscore.Rot>
2.2501

> <Gold.Chemscore.Internal.Correction>
   9.000000E+99

> <Gold.Chemscore.Hbonds>
donor molecule, donor type, donor heavy atom, donor atom, acceptor molecule, acceptor atom, score
      L1  H     9    29       P1  8028  0.99
      L1  H    14    37       P1  7948  0.94

> <Gold.Chemscore.Hbond.Weighted>
-5.8416

> <Gold.Chemscore.Metal.Weighted>
-0.0000

> <Gold.Chemscore.Lipo.Weighted>
-10.1125

> <Gold.Chemscore.Internal_Hbond.Weighted>
0.0000

> <Gold.Chemscore.DEClash.Weighted>
0.1385

> <Gold.Chemscore.DEInternal.Weighted>
0.3335

> <Gold.Chemscore.Rot.Weighted>
5.7603

> <Gold.Chemscore.Internal.Correction.Weighted>
   9.000000E+99

> <Gold.Protein.RotatedTorsions>
[ 6907 6896 6895 6894 ] final  119.69 input  -60.11 | X-H torsion
[ 7974 7965 7964 7962 ] final   72.96 input  175.53 | X-H torsion
[ 8008 7997 7996 7995 ] final  -26.32 input   59.86 | X-H torsion
[ 10167 10162 10161 10158 ] final  -34.73 input  -65.29 | X-H torsion
[ 10718 10713 10712 10709 ] final  140.90 input   66.30 | X-H torsion
[ 10763 10752 10751 10750 ] final   92.73 input  -60.55 | X-H torsion
[ 11005 11000 10999 10996 ] final -136.06 input  -57.11 | X-H torsion

> <Gold.Protein.ActiveResidues>
 VAL166  LYS551  ARG553  GLY616  TRP617  ASP618  TYR619  PRO620  LYS621  CYS622 
 ASP623  PHE694  ASN695  SER759  ASP760  ASP761  ALA762  ILE779  LEU786  VAL792 
 PHE793  MET794  SER795  GLU796  ALA797  LYS798  CYS799  TRP800  GLU811  SER814 

> <Gold.Protein.RotatedAtoms>
  152.4454  133.7525  159.6701 H   0  0  0  0  0  0  0  0  0  0  0  0  # atno 6907 bound_to 6896
  150.8352  133.8014  159.3088 H   0  0  0  0  0  0  0  0  0  0  0  0  # atno 6908 bound_to 6896
  151.5656  135.1067  160.0035 H   0  0  0  0  0  0  0  0  0  0  0  0  # atno 6909 bound_to 6896
  145.7468  139.2743  143.1454 H   0  0  0  0  0  0  0  0  0  0  0  0  # atno 7974 bound_to 7965
  154.4431  140.1902  156.0756 H   0  0  0  0  0  0  0  0  0  0  0  0  # atno 8008 bound_to 7997
  156.0477  140.3312  155.7289 H   0  0  0  0  0  0  0  0  0  0  0  0  # atno 8009 bound_to 7997
  155.5604  140.0603  157.2821 H   0  0  0  0  0  0  0  0  0  0  0  0  # atno 8010 bound_to 7997
  140.7180  143.3527  151.2122 H   0  0  0  0  0  0  0  0  0  0  0  0  # atno 10167 bound_to 10162
  157.3981  131.1013  151.0580 H   0  0  0  0  0  0  0  0  0  0  0  0  # atno 10718 bound_to 10713
  153.2224  135.4351  155.0504 H   0  0  0  0  0  0  0  0  0  0  0  0  # atno 10763 bound_to 10752
  154.8256  135.3359  154.6908 H   0  0  0  0  0  0  0  0  0  0  0  0  # atno 10764 bound_to 10752
  153.7339  135.7009  153.5039 H   0  0  0  0  0  0  0  0  0  0  0  0  # atno 10765 bound_to 10752
  140.8840  134.1896  157.4572 H   0  0  0  0  0  0  0  0  0  0  0  0  # atno 11005 bound_to 11000
  146.0395  140.8179  142.9836 LP  0  0  0  0  0  0  0  0  0  0  0  0  # atno 17320 bound_to 7965
  144.6858  140.2888  143.7281 LP  0  0  0  0  0  0  0  0  0  0  0  0  # atno 17321 bound_to 7965
  139.7062  143.9452  152.2927 LP  0  0  0  0  0  0  0  0  0  0  0  0  # atno 17342 bound_to 10162
  139.9161  144.6827  150.8510 LP  0  0  0  0  0  0  0  0  0  0  0  0  # atno 17343 bound_to 10162
  157.1589  130.6217  149.5604 LP  0  0  0  0  0  0  0  0  0  0  0  0  # atno 17370 bound_to 10713
  155.9816  130.4824  150.6834 LP  0  0  0  0  0  0  0  0  0  0  0  0  # atno 17371 bound_to 10713
  139.8722  134.9830  156.5178 LP  0  0  0  0  0  0  0  0  0  0  0  0  # atno 17394 bound_to 11000
  140.8427  133.8192  155.9091 LP  0  0  0  0  0  0  0  0  0  0  0  0  # atno 17395 bound_to 11000

$$$$
