AV-unprocessed.smi:1019|AV-procd|sdf|4449|dock9
  -GOLD-   22720 2413D 1   1.00000     0.00000
 Structure written by MMmdl.
 45 47  0  0  0  0  0  0  0  0  3 V2000
  145.9873  136.6294  153.4556 C   0  0  0  0  0  0  0  0  0  0  0  0
  146.5416  137.0592  152.1511 N   0  3  1  0  0  0  0  0  0  0  0  0
  145.7935  136.4701  151.0127 C   0  0  0  0  0  0  0  0  0  0  0  0
  145.8250  134.9517  151.0422 C   0  0  0  0  0  0  0  0  0  0  0  0
  144.8646  134.2136  150.3187 C   0  0  0  0  0  0  0  0  0  0  0  0
  144.8820  132.8058  150.3515 C   0  0  0  0  0  0  0  0  0  0  0  0
  145.8614  132.1304  151.1048 C   0  0  0  0  0  0  0  0  0  0  0  0
  146.8248  132.8631  151.8245 C   0  0  0  0  0  0  0  0  0  0  0  0
  146.8079  134.2711  151.7925 C   0  0  0  0  0  0  0  0  0  0  0  0
  146.7042  138.5346  152.0553 C   0  0  0  0  0  0  0  0  0  0  0  0
  147.5908  139.0985  153.1828 C   0  0  1  0  0  0  0  0  0  0  0  0
  148.8813  138.5244  153.0844 O   0  0  0  0  0  0  0  0  0  0  0  0
  147.7198  140.6320  153.0892 C   0  0  0  0  0  0  0  0  0  0  0  0
  147.7351  141.2866  154.4043 N   0  0  0  0  0  0  0  0  0  0  0  0
  146.8052  142.0876  154.9931 C   0  0  0  0  0  0  0  0  0  0  0  0
  147.2872  142.4476  156.2149 N   0  3  0  0  0  0  0  0  0  0  0  0
  148.5422  141.8673  156.4109 C   0  0  0  0  0  0  0  0  0  0  0  0
  149.4220  141.9385  157.4866 C   0  0  0  0  0  0  0  0  0  0  0  0
  150.6309  141.2226  157.3638 C   0  0  0  0  0  0  0  0  0  0  0  0
  150.9267  140.4727  156.2066 C   0  0  0  0  0  0  0  0  0  0  0  0
  150.0274  140.4074  155.1216 C   0  0  0  0  0  0  0  0  0  0  0  0
  148.8354  141.1189  155.2512 C   0  0  0  0  0  0  0  0  0  0  0  0
  144.9639  136.9851  153.5816 H   0  0  0  0  0  0  0  0  0  0  0  0
  146.5840  137.0085  154.2850 H   0  0  0  0  0  0  0  0  0  0  0  0
  145.9808  135.5414  153.5315 H   0  0  0  0  0  0  0  0  0  0  0  0
  144.7469  136.7755  151.0583 H   0  0  0  0  0  0  0  0  0  0  0  0
  146.1878  136.8488  150.0683 H   0  0  0  0  0  0  0  0  0  0  0  0
  144.1092  134.7245  149.7395 H   0  0  0  0  0  0  0  0  0  0  0  0
  144.1442  132.2432  149.7987 H   0  0  0  0  0  0  0  0  0  0  0  0
  145.8742  131.0507  151.1294 H   0  0  0  0  0  0  0  0  0  0  0  0
  147.5764  132.3449  152.4018 H   0  0  0  0  0  0  0  0  0  0  0  0
  147.5496  134.8252  152.3493 H   0  0  0  0  0  0  0  0  0  0  0  0
  147.1457  138.8180  151.0997 H   0  0  0  0  0  0  0  0  0  0  0  0
  145.7188  139.0031  152.0725 H   0  0  0  0  0  0  0  0  0  0  0  0
  147.1759  138.8394  154.1568 H   0  0  0  0  0  0  0  0  0  0  0  0
  148.8192  137.6995  152.6278 H   0  0  0  0  0  0  0  0  0  0  0  0
  148.6457  140.9037  152.5800 H   0  0  0  0  0  0  0  0  0  0  0  0
  146.9070  141.0590  152.5003 H   0  0  0  0  0  0  0  0  0  0  0  0
  145.8587  142.3875  154.5666 H   0  0  0  0  0  0  0  0  0  0  0  0
  149.1979  142.5113  158.3745 H   0  0  0  0  0  0  0  0  0  0  0  0
  151.3454  141.2489  158.1739 H   0  0  0  0  0  0  0  0  0  0  0  0
  151.8630  139.9362  156.1506 H   0  0  0  0  0  0  0  0  0  0  0  0
  150.2631  139.8301  154.2402 H   0  0  0  0  0  0  0  0  0  0  0  0
  147.4696  136.6658  152.0913 H   0  0  0  0  0  0  0  0  0  0  0  0
  146.7936  143.0461  156.8648 H   0  0  0  0  0  0  0  0  0  0  0  0
  1  2  1  0  0  0  0
  1 23  1  0  0  0  0
  1 24  1  0  0  0  0
  1 25  1  0  0  0  0
  2  3  1  0  0  0  0
  2 10  1  0  0  0  0
  2 44  1  0  0  0  0
  3  4  1  0  0  0  0
  3 26  1  0  0  0  0
  3 27  1  0  0  0  0
  4  9  1  0  0  0  0
  4  5  2  0  0  0  0
  5  6  1  0  0  0  0
  5 28  1  0  0  0  0
  6  7  2  0  0  0  0
  6 29  1  0  0  0  0
  7  8  1  0  0  0  0
  7 30  1  0  0  0  0
  8  9  2  0  0  0  0
  8 31  1  0  0  0  0
  9 32  1  0  0  0  0
 10 11  1  0  0  0  0
 10 33  1  0  0  0  0
 10 34  1  0  0  0  0
 11 12  1  0  0  0  0
 11 13  1  0  0  0  0
 11 35  1  0  0  0  0
 12 36  1  0  0  0  0
 13 14  1  0  0  0  0
 13 37  1  0  0  0  0
 13 38  1  0  0  0  0
 14 22  1  0  0  0  0
 14 15  1  0  0  0  0
 15 16  2  0  0  0  0
 15 39  1  0  0  0  0
 16 17  1  0  0  0  0
 16 45  1  0  0  0  0
 17 22  2  0  0  0  0
 17 18  1  0  0  0  0
 18 19  2  0  0  0  0
 18 40  1  0  0  0  0
 19 20  1  0  0  0  0
 19 41  1  0  0  0  0
 20 21  2  0  0  0  0
 20 42  1  0  0  0  0
 21 22  1  0  0  0  0
 21 43  1  0  0  0  0
M  CHG  1   2   1
M  CHG  1  16   1
M  END
> <s_m_source_file>
AV-unprocessed.smi

> <i_m_source_file_index>
1019

> <i_lp_mmshare_version>
43012

> <i_f3d_flags>
0

> <s_epik_input>
W2NIXTFbY0hdW2NIXVtjSF1bY0hdYzFbQ0gyXU4oW0NIM10pW0NIMl1bQ0BIXShbT0hdKVtDSDJdbihbY0hdbjIpYyhjMjMpW2NIXVtjSF1bY0hdW2NIXTM=

> <s_epik_cmdline>
J2VwaWtfcHl0aG9uJywgJy1waCcsICc3LjAnLCAnLXRuJywgJzgnLCAnLW1hJywgJzIwMCcsICctbWV0YWxfYmluZGluZycsICctaW1hZScsICc8aW5maWxlLm1hZT4nLCAnLW9tYWUnLCAnPG91dGZpbGUubWFlPic=

> <r_epik_Ionization_Penalty>
1.5198

> <r_epik_Ionization_Penalty_Charging>
1.5198

> <r_epik_Ionization_Penalty_Neutral>
3.13312e-06

> <r_epik_State_Penalty>
1.624

> <r_epik_Charging_Adjusted_Penalty>
3.1438

> <i_epik_Tot_Q>
2

> <i_epik_Tot_abs_Q>
2

> <r_epik_Metal_State_Penalty>
5.67392

> <b_epik_Metal_Only>
0

> <s_lp_Force_Field>
OPLS_2005

> <r_lp_Energy>
24.7474

> <b_lp_Chiralities_Consistent>
1

> <s_lp_Variant>
AV-unprocessed.smi:1019-7

> <Gold.Version>
5.8.1

> <Gold.Id.Protein>
6NUR|6NUR_protein|mol2

> <Gold.PLP.Fitness>
49.9029

> <Gold.PLP.PLP>
-42.6428

> <Gold.PLP.part.hbond>
-3.7592

> <Gold.PLP.part.metal>
0.0000

> <Gold.PLP.part.buried>
1.5973

> <Gold.PLP.part.nonpolar>
-40.4781

> <Gold.PLP.part.repulsive>
0.0578

> <Gold.PLP.ligand.clash>
0.0000

> <Gold.PLP.ligand.torsion>
0.8938

> <Gold.PLP.Chemscore.Hbond>
3.0000

> <Gold.PLP.Chemscore.CHOScore>
0.0000

> <Gold.PLP.Chemscore.Metal>
0.0000

> <Gold.Chemscore.Hbonds>
donor molecule, donor type, donor heavy atom, donor atom, acceptor molecule, acceptor atom, score
      L1  H     2    44       P1  7948  2.00
      L1  H    12    36       P1  7948  1.00

> <Gold.PLP.Chemscore.Internal.Correction>
0.0477

> <Gold.Rescore>
     Score         DG    S(hbond)    S(metal)    S(lipo)     H(rot)  DE(clash)    DE(int)     intcor
     14.87     -17.71       1.98        0.00     101.62       2.46       0.62       2.22       ----

> <Gold.Chemscore.Fitness>
14.8694

> <Gold.Chemscore.DG>
-17.7131

> <Gold.Chemscore.ZeroCoef>
-5.4800

> <Gold.Chemscore.Hbond>
1.9849

> <Gold.Chemscore.Metal>
0.0000

> <Gold.Chemscore.Lipo>
101.6156

> <Gold.Chemscore.Internal_Hbond>
0.0000

> <Gold.Chemscore.DEClash>
0.6239

> <Gold.Chemscore.DEInternal>
2.2199

> <Gold.Chemscore.Rot>
2.4552

> <Gold.Chemscore.Internal.Correction>
   9.000000E+99

> <Gold.Chemscore.Hbonds>
donor molecule, donor type, donor heavy atom, donor atom, acceptor molecule, acceptor atom, score
      L1  H     2    44       P1  7948  0.94
      L1  H    12    36       P1  7948  1.00

> <Gold.Chemscore.Hbond.Weighted>
-6.6295

> <Gold.Chemscore.Metal.Weighted>
-0.0000

> <Gold.Chemscore.Lipo.Weighted>
-11.8890

> <Gold.Chemscore.Internal_Hbond.Weighted>
0.0000

> <Gold.Chemscore.DEClash.Weighted>
0.6239

> <Gold.Chemscore.DEInternal.Weighted>
2.2199

> <Gold.Chemscore.Rot.Weighted>
6.2854

> <Gold.Chemscore.Internal.Correction.Weighted>
   9.000000E+99

> <Gold.Protein.RotatedTorsions>
[ 6907 6896 6895 6894 ] final   89.62 input  -60.11 | X-H torsion
[ 7974 7965 7964 7962 ] final  -36.38 input  175.53 | X-H torsion
[ 8008 7997 7996 7995 ] final  -77.06 input   59.86 | X-H torsion
[ 10167 10162 10161 10158 ] final -123.94 input  -65.29 | X-H torsion
[ 10718 10713 10712 10709 ] final  165.27 input   66.30 | X-H torsion
[ 10763 10752 10751 10750 ] final  158.34 input  -60.55 | X-H torsion
[ 11005 11000 10999 10996 ] final  -97.93 input  -57.11 | X-H torsion

> <Gold.Protein.ActiveResidues>
 VAL166  LYS551  ARG553  GLY616  TRP617  ASP618  TYR619  PRO620  LYS621  CYS622 
 ASP623  PHE694  ASN695  SER759  ASP760  ASP761  ALA762  ILE779  LEU786  VAL792 
 PHE793  MET794  SER795  GLU796  ALA797  LYS798  CYS799  TRP800  GLU811  SER814 

> <Gold.Protein.RotatedAtoms>
  152.5438  134.1939  159.8684 H   0  0  0  0  0  0  0  0  0  0  0  0  # atno 6907 bound_to 6896
  151.1932  133.4648  159.2602 H   0  0  0  0  0  0  0  0  0  0  0  0  # atno 6908 bound_to 6896
  151.1062  135.0013  159.8528 H   0  0  0  0  0  0  0  0  0  0  0  0  # atno 6909 bound_to 6896
  146.0667  140.6271  142.8972 H   0  0  0  0  0  0  0  0  0  0  0  0  # atno 7974 bound_to 7965
  154.5561  140.0717  156.8745 H   0  0  0  0  0  0  0  0  0  0  0  0  # atno 8008 bound_to 7997
  155.2900  140.3377  155.4235 H   0  0  0  0  0  0  0  0  0  0  0  0  # atno 8009 bound_to 7997
  156.2003  140.1719  156.7899 H   0  0  0  0  0  0  0  0  0  0  0  0  # atno 8010 bound_to 7997
  139.9981  143.5569  152.2314 H   0  0  0  0  0  0  0  0  0  0  0  0  # atno 10167 bound_to 10162
  157.0826  131.0396  151.2569 H   0  0  0  0  0  0  0  0  0  0  0  0  # atno 10718 bound_to 10713
  154.2144  135.2784  155.2947 H   0  0  0  0  0  0  0  0  0  0  0  0  # atno 10763 bound_to 10752
  154.5752  135.5606  153.7136 H   0  0  0  0  0  0  0  0  0  0  0  0  # atno 10764 bound_to 10752
  153.0056  135.6331  154.2284 H   0  0  0  0  0  0  0  0  0  0  0  0  # atno 10765 bound_to 10752
  141.1362  133.8207  157.0771 H   0  0  0  0  0  0  0  0  0  0  0  0  # atno 11005 bound_to 11000
  144.7206  140.4361  143.7011 LP  0  0  0  0  0  0  0  0  0  0  0  0  # atno 17320 bound_to 7965
  145.6465  139.1558  143.2886 LP  0  0  0  0  0  0  0  0  0  0  0  0  # atno 17321 bound_to 7965
  139.6291  144.7641  151.2574 LP  0  0  0  0  0  0  0  0  0  0  0  0  # atno 17342 bound_to 10162
  140.7429  143.6511  150.8248 LP  0  0  0  0  0  0  0  0  0  0  0  0  # atno 17343 bound_to 10162
  157.4788  130.7752  149.7394 LP  0  0  0  0  0  0  0  0  0  0  0  0  # atno 17370 bound_to 10713
  155.9919  130.3934  150.2963 LP  0  0  0  0  0  0  0  0  0  0  0  0  # atno 17371 bound_to 10713
  140.0475  134.9823  157.1075 LP  0  0  0  0  0  0  0  0  0  0  0  0  # atno 17394 bound_to 11000
  140.4041  134.2051  155.7163 LP  0  0  0  0  0  0  0  0  0  0  0  0  # atno 17395 bound_to 11000

$$$$
