#       Name:                AV-unprocessed.smi:213
#       Creating user name   scv26
#       Creation time:       Thu Mar 26 20:01:01 2020


#       File generated by GOLD software.
#

@<TRIPOS>MOLECULE
AV-unprocessed.smi:213
    68    71     1
SMALL
NO_CHARGES


@<TRIPOS>ATOM
      1 ****        -3.5586  -0.1093  -1.3937 C.3            1 S1                 0.0000
      2 ****        -3.0188   0.2319   0.0064 C.3            1 S1                 0.0000
      3 ****        -4.1130   0.1659   1.0955 C.3            1 S1                 0.0000
      4 ****        -4.7520  -1.1387   1.2739 N.3            1 S1                 0.0000
      5 ****        -5.9032  -1.0366   2.1645 C.3            1 S1                 0.0000
      6 ****        -6.5995  -2.3937   2.3643 C.3            1 S1                 0.0000
      7 ****        -5.6605  -3.3403   2.8636 O.3            1 S1                 0.0000
      8 ****        -4.5405  -3.5069   2.0008 C.3            1 S1                 0.0000
      9 ****        -3.8378  -2.1535   1.7951 C.3            1 S1                 0.0000
     10 ****        -2.3598   1.5411   0.0075 N.pl3          1 S1                 0.0000
     11 ****        -3.1320   2.7726  -0.1459 C.3            1 S1                 0.0000
     12 ****        -1.0305   1.6444   0.2750 C.ar           1 S1                 0.0000
     13 ****        -0.6010   2.7150   0.9956 N.ar           1 S1                 0.0000
     14 ****         0.6939   2.8634   1.2882 C.ar           1 S1                 0.0000
     15 ****         1.7183   2.0757   0.9596 N.ar           1 S1                 0.0000
     16 ****         1.3006   1.0062   0.2247 C.ar           1 S1                 0.0000
     17 ****        -0.0395   0.7143  -0.1613 C.ar           1 S1                 0.0000
     18 ****        -0.0591  -0.4506  -0.9227 N.2            1 S1                 0.0000
     19 ****         1.1882  -0.8304  -0.9696 C.2            1 S1                 0.0000
     20 ****         2.0720  -0.0103  -0.3079 N.pl3          1 S1                 0.0000
     21 ****         3.5103  -0.1776  -0.2053 C.3            1 S1                 0.0000
     22 ****         4.2702   0.6768  -1.2381 C.3            1 S1                 0.0000
     23 ****         3.9131   0.2982  -2.5537 O.3            1 S1                 0.0000
     24 ****         5.7995   0.6196  -1.0528 C.3            1 S1                 0.0000
     25 ****         6.6419   1.3770  -2.0821 C.3            1 S1                 0.0000
     26 ****         7.9764   0.6814  -1.9326 C.3            1 S1                 0.0000
     27 ****         7.5538  -0.7698  -1.7099 C.3            1 S1                 0.0000
     28 ****         6.2886  -0.7192  -1.0544 O.3            1 S1                 0.0000
     29 ****        -3.9645  -1.1205  -1.4225 H              1 S1                 0.0000
     30 ****        -2.7667  -0.0564  -2.1413 H              1 S1                 0.0000
     31 ****        -4.3523   0.5718  -1.7001 H              1 S1                 0.0000
     32 ****        -2.2777  -0.5188   0.2670 H              1 S1                 0.0000
     33 ****        -3.6892   0.4894   2.0476 H              1 S1                 0.0000
     34 ****        -4.8823   0.8990   0.8498 H              1 S1                 0.0000
     35 ****        -5.5876  -0.6483   3.1344 H              1 S1                 0.0000
     36 ****        -6.6213  -0.3215   1.7615 H              1 S1                 0.0000
     37 ****        -7.4216  -2.2978   3.0734 H              1 S1                 0.0000
     38 ****        -7.0246  -2.7521   1.4255 H              1 S1                 0.0000
     39 ****        -3.8534  -4.2282   2.4431 H              1 S1                 0.0000
     40 ****        -4.8679  -3.9201   1.0455 H              1 S1                 0.0000
     41 ****        -3.0027  -2.3025   1.1119 H              1 S1                 0.0000
     42 ****        -3.4130  -1.8184   2.7426 H              1 S1                 0.0000
     43 ****        -2.6000   3.4868  -0.7755 H              1 S1                 0.0000
     44 ****        -3.3106   3.2341   0.8258 H              1 S1                 0.0000
     45 ****        -4.0995   2.5811  -0.6090 H              1 S1                 0.0000
     46 ****         0.9448   3.7396   1.8677 H              1 S1                 0.0000
     47 ****         1.5006  -1.7190  -1.4988 H              1 S1                 0.0000
     48 ****         3.8133   0.0949   0.8063 H              1 S1                 0.0000
     49 ****         3.7487  -1.2349  -0.3284 H              1 S1                 0.0000
     50 ****         3.9610   1.7162  -1.1205 H              1 S1                 0.0000
     51 ****         4.2116  -0.5866  -2.6988 H              1 S1                 0.0000
     52 ****         6.0385   1.0235  -0.0675 H              1 S1                 0.0000
     53 ****         6.2671   1.2331  -3.0960 H              1 S1                 0.0000
     54 ****         6.6926   2.4482  -1.8855 H              1 S1                 0.0000
     55 ****         8.6273   0.8084  -2.7981 H              1 S1                 0.0000
     56 ****         8.4988   1.0603  -1.0530 H              1 S1                 0.0000
     57 ****         7.4256  -1.2791  -2.6658 H              1 S1                 0.0000
     58 ****         8.2835  -1.3289  -1.1237 H              1 S1                 0.0000
     59 ****        -5.0463  -1.4268   0.3626 LP             1 S1                 0.0000
     60 ****        -6.1193  -4.2228   2.9670 LP             1 S1                 0.0000
     61 ****        -5.3340  -3.0278   3.7556 LP             1 S1                 0.0000
     62 ****        -1.2609   3.3976   1.3094 LP             1 S1                 0.0000
     63 ****         2.6689   2.2471   1.2184 LP             1 S1                 0.0000
     64 ****        -0.8511  -0.8963  -1.3400 LP             1 S1                 0.0000
     65 ****         4.3464   0.9136  -3.2122 LP             1 S1                 0.0000
     66 ****         2.9198   0.3418  -2.6604 LP             1 S1                 0.0000
     67 ****         5.6408  -1.3088  -1.5369 LP             1 S1                 0.0000
     68 ****         6.3901  -1.0368  -0.1117 LP             1 S1                 0.0000
@<TRIPOS>BOND
    1    1    2 1     
    2    1   29 1     
    3    1   30 1     
    4    1   31 1     
    5    2    3 1     
    6    2   10 1     
    7    2   32 1     
    8    3    4 1     
    9    3   33 1     
   10    3   34 1     
   11    4    9 1     
   12    4    5 1     
   13    5    6 1     
   14    5   35 1     
   15    5   36 1     
   16    6    7 1     
   17    6   37 1     
   18    6   38 1     
   19    7    8 1     
   20    8    9 1     
   21    8   39 1     
   22    8   40 1     
   23    9   41 1     
   24    9   42 1     
   25   10   11 1     
   26   10   12 1     
   27   11   43 1     
   28   11   44 1     
   29   11   45 1     
   30   12   17 ar    
   31   12   13 ar    
   32   13   14 ar    
   33   14   15 ar    
   34   14   46 1     
   35   15   16 ar    
   36   16   20 1     
   37   16   17 ar    
   38   17   18 1     
   39   18   19 2     
   40   19   20 1     
   41   19   47 1     
   42   20   21 1     
   43   21   22 1     
   44   21   48 1     
   45   21   49 1     
   46   22   23 1     
   47   22   24 1     
   48   22   50 1     
   49   23   51 1     
   50   24   28 1     
   51   24   25 1     
   52   24   52 1     
   53   25   26 1     
   54   25   53 1     
   55   25   54 1     
   56   26   27 1     
   57   26   55 1     
   58   26   56 1     
   59   27   28 1     
   60   27   57 1     
   61   27   58 1     
   62    4   59 1     
   63    7   60 1     
   64    7   61 1     
   65   13   62 1     
   66   15   63 1     
   67   18   64 1     
   68   23   65 1     
   69   23   66 1     
   70   28   67 1     
   71   28   68 1     
@<TRIPOS>SUBSTRUCTURE
      1 S1             1
@<TRIPOS>SET
LONE_PAIRS      STATIC     ATOMS    <user>   **** ""
10 59 60 61 62 63 64 65 66 67 68
DONOR_HYDROGENS      STATIC     ATOMS    <user>   **** ""
1 51
ATOM$BLUE        STATIC     ATOMS    COLORGROUP SYSTEM
10 59 60 61 62 63 64 65 66 67 68
ATOM$RED        STATIC     ATOMS    COLORGROUP SYSTEM
1 51
