AV-unprocessed.smi:1645|AV-procd|sdf|6611|dock6
  -GOLD-   22720 7313D 1   1.00000     0.00000
 Structure written by MMmdl.
 56 59  0  0  0  0  0  0  0  0  3 V2000
  146.3824  136.8159  155.3678 O   0  0  0  0  0  0  0  0  0  0  0  0
  147.0999  136.5483  154.4043 C   0  0  0  0  0  0  0  0  0  0  0  0
  148.2959  137.1052  154.1493 N   0  0  0  0  0  0  0  0  0  0  0  0
  148.9728  138.1040  154.8987 C   0  0  0  0  0  0  0  0  0  0  0  0
  150.1510  138.7570  154.4577 C   0  0  0  0  0  0  0  0  0  0  0  0
  150.7573  139.7259  155.2831 C   0  0  0  0  0  0  0  0  0  0  0  0
  150.1845  140.0239  156.5405 C   0  0  0  0  0  0  0  0  0  0  0  0
  150.7158  140.9726  157.4235 N   0  0  0  0  0  0  0  0  0  0  0  0
  151.9555  140.5296  158.0571 C   0  0  0  0  0  0  0  0  0  0  0  0
  152.3963  141.5200  159.1487 C   0  0  0  0  0  0  0  0  0  0  0  0
  152.5042  142.9459  158.5847 C   0  0  0  0  0  0  0  0  0  0  0  0
  151.1864  143.3493  157.9038 C   0  0  0  0  0  0  0  0  0  0  0  0
  150.7752  142.3123  156.8445 C   0  0  0  0  0  0  0  0  0  0  0  0
  149.0694  139.3680  156.9296 N   0  3  0  0  0  0  0  0  0  0  0  0
  148.4593  138.4322  156.1709 C   0  0  0  0  0  0  0  0  0  0  0  0
  146.7825  135.6267  153.4842 N   0  0  0  0  0  0  0  0  0  0  0  0
  145.5550  134.8344  153.4951 C   0  0  1  0  0  0  0  0  0  0  0  0
  144.3219  135.6139  153.0196 C   0  0  0  0  0  0  0  0  0  0  0  0
  143.4159  134.5614  152.3552 C   0  0  0  0  0  0  0  0  0  0  0  0
  144.1498  133.2780  152.4310 N   0  3  1  0  0  0  0  0  0  0  0  0
  143.8115  132.2600  151.4035 C   0  0  0  0  0  0  0  0  0  0  0  0
  144.4736  132.5451  150.0452 C   0  0  0  0  0  0  0  0  0  0  0  0
  145.9864  132.7228  150.2085 C   0  0  0  0  0  0  0  0  0  0  0  0
  146.2669  133.8558  151.2011 C   0  0  0  0  0  0  0  0  0  0  0  0
  145.5863  133.6041  152.5718 C   0  0  1  0  0  0  0  0  0  0  0  0
  148.8117  136.7203  153.3712 H   0  0  0  0  0  0  0  0  0  0  0  0
  150.6090  138.5248  153.5085 H   0  0  0  0  0  0  0  0  0  0  0  0
  151.6541  140.2291  154.9519 H   0  0  0  0  0  0  0  0  0  0  0  0
  151.8134  139.5389  158.4913 H   0  0  0  0  0  0  0  0  0  0  0  0
  152.7393  140.4392  157.3038 H   0  0  0  0  0  0  0  0  0  0  0  0
  151.6761  141.5048  159.9680 H   0  0  0  0  0  0  0  0  0  0  0  0
  153.3526  141.2096  159.5707 H   0  0  0  0  0  0  0  0  0  0  0  0
  152.7488  143.6495  159.3810 H   0  0  0  0  0  0  0  0  0  0  0  0
  153.3202  142.9942  157.8625 H   0  0  0  0  0  0  0  0  0  0  0  0
  150.3994  143.4365  158.6543 H   0  0  0  0  0  0  0  0  0  0  0  0
  151.2869  144.3329  157.4442 H   0  0  0  0  0  0  0  0  0  0  0  0
  151.4910  142.3227  156.0213 H   0  0  0  0  0  0  0  0  0  0  0  0
  149.8028  142.5761  156.4260 H   0  0  0  0  0  0  0  0  0  0  0  0
  147.5760  137.9833  156.6018 H   0  0  0  0  0  0  0  0  0  0  0  0
  147.4293  135.4607  152.7268 H   0  0  0  0  0  0  0  0  0  0  0  0
  145.3612  134.4974  154.5158 H   0  0  0  0  0  0  0  0  0  0  0  0
  143.8244  136.1225  153.8460 H   0  0  0  0  0  0  0  0  0  0  0  0
  144.5989  136.3732  152.2866 H   0  0  0  0  0  0  0  0  0  0  0  0
  142.4546  134.4712  152.8617 H   0  0  0  0  0  0  0  0  0  0  0  0
  143.2208  134.8400  151.3189 H   0  0  0  0  0  0  0  0  0  0  0  0
  144.1514  131.2902  151.7696 H   0  0  0  0  0  0  0  0  0  0  0  0
  142.7284  132.1876  151.2983 H   0  0  0  0  0  0  0  0  0  0  0  0
  144.2678  131.7266  149.3550 H   0  0  0  0  0  0  0  0  0  0  0  0
  144.0424  133.4402  149.5957 H   0  0  0  0  0  0  0  0  0  0  0  0
  146.4361  131.7948  150.5642 H   0  0  0  0  0  0  0  0  0  0  0  0
  146.4452  132.9453  149.2446 H   0  0  0  0  0  0  0  0  0  0  0  0
  147.3442  133.9644  151.3304 H   0  0  0  0  0  0  0  0  0  0  0  0
  145.9154  134.7949  150.7716 H   0  0  0  0  0  0  0  0  0  0  0  0
  146.0887  132.7707  153.0651 H   0  0  0  0  0  0  0  0  0  0  0  0
  143.8790  132.8802  153.3191 H   0  0  0  0  0  0  0  0  0  0  0  0
  148.6693  139.5904  157.8416 H   0  0  0  0  0  0  0  0  0  0  0  0
  1  2  2  0  0  0  0
  2  3  1  0  0  0  0
  2 16  1  0  0  0  0
  3  4  1  0  0  0  0
  3 26  1  0  0  0  0
  4 15  1  0  0  0  0
  4  5  2  0  0  0  0
  5  6  1  0  0  0  0
  5 27  1  0  0  0  0
  6  7  2  0  0  0  0
  6 28  1  0  0  0  0
  7  8  1  0  0  0  0
  7 14  1  0  0  0  0
  8 13  1  0  0  0  0
  8  9  1  0  0  0  0
  9 10  1  0  0  0  0
  9 29  1  0  0  0  0
  9 30  1  0  0  0  0
 10 11  1  0  0  0  0
 10 31  1  0  0  0  0
 10 32  1  0  0  0  0
 11 12  1  0  0  0  0
 11 33  1  0  0  0  0
 11 34  1  0  0  0  0
 12 13  1  0  0  0  0
 12 35  1  0  0  0  0
 12 36  1  0  0  0  0
 13 37  1  0  0  0  0
 13 38  1  0  0  0  0
 14 15  2  0  0  0  0
 14 56  1  0  0  0  0
 15 39  1  0  0  0  0
 16 17  1  0  0  0  0
 16 40  1  0  0  0  0
 17 25  1  0  0  0  0
 17 18  1  0  0  0  0
 17 41  1  0  0  0  0
 18 19  1  0  0  0  0
 18 42  1  0  0  0  0
 18 43  1  0  0  0  0
 19 20  1  0  0  0  0
 19 44  1  0  0  0  0
 19 45  1  0  0  0  0
 20 25  1  0  0  0  0
 20 21  1  0  0  0  0
 20 55  1  0  0  0  0
 21 22  1  0  0  0  0
 21 46  1  0  0  0  0
 21 47  1  0  0  0  0
 22 23  1  0  0  0  0
 22 48  1  0  0  0  0
 22 49  1  0  0  0  0
 23 24  1  0  0  0  0
 23 50  1  0  0  0  0
 23 51  1  0  0  0  0
 24 25  1  0  0  0  0
 24 52  1  0  0  0  0
 24 53  1  0  0  0  0
 25 54  1  0  0  0  0
M  CHG  1  14   1
M  CHG  1  20   1
M  END
> <s_m_source_file>
AV-unprocessed.smi

> <i_m_source_file_index>
1645

> <i_lp_mmshare_version>
43012

> <i_f3d_flags>
0

> <s_epik_input>
W0NIMl0xW0NIMl1bQ0gyXVtDSDJdW0NASF0oTjEyKVtDQEBIXShbQ0gyXVtDSDJdMilbTkhdQyg9TylbTkhdYzNbY0hdW2NIXWMobltjSF0zKU40W0NIMl1bQ0gyXVtDSDJdW0NIMl1bQ0gyXTQ=

> <s_epik_cmdline>
J2VwaWtfcHl0aG9uJywgJy1waCcsICc3LjAnLCAnLXRuJywgJzgnLCAnLW1hJywgJzIwMCcsICctbWV0YWxfYmluZGluZycsICctaW1hZScsICc8aW5maWxlLm1hZT4nLCAnLW9tYWUnLCAnPG91dGZpbGUubWFlPic=

> <r_lp_tautomer_probability>
0.999994

> <r_epik_Ionization_Penalty>
1.26838

> <r_epik_Ionization_Penalty_Charging>
1.26836

> <r_epik_Ionization_Penalty_Neutral>
1.95562e-05

> <r_epik_State_Penalty>
1.33841

> <r_epik_Charging_Adjusted_Penalty>
2.60677

> <i_epik_Tot_Q>
2

> <i_epik_Tot_abs_Q>
2

> <r_epik_Metal_State_Penalty>
1.40601

> <b_epik_Metal_Only>
0

> <s_lp_Force_Field>
OPLS_2005

> <r_lp_Energy>
62.3043

> <b_lp_Chiralities_Consistent>
1

> <s_lp_Variant>
AV-unprocessed.smi:1645-12

> <Gold.Version>
5.8.1

> <Gold.Id.Protein>
6NUR|6NUR_protein|mol2

> <Gold.PLP.Fitness>
46.7572

> <Gold.PLP.PLP>
-38.1426

> <Gold.PLP.part.hbond>
-2.5951

> <Gold.PLP.part.metal>
0.0000

> <Gold.PLP.part.buried>
-5.9159

> <Gold.PLP.part.nonpolar>
-30.8468

> <Gold.PLP.part.repulsive>
0.0802

> <Gold.PLP.ligand.clash>
0.0000

> <Gold.PLP.ligand.torsion>
0.3636

> <Gold.PLP.Chemscore.Hbond>
3.0665

> <Gold.PLP.Chemscore.CHOScore>
0.0000

> <Gold.PLP.Chemscore.Metal>
0.0000

> <Gold.Chemscore.Hbonds>
donor molecule, donor type, donor heavy atom, donor atom, acceptor molecule, acceptor atom, score
      L1  H     3    26       P1  7948  1.00
      L1  H    16    40       P1  7948  0.86
      L1  H    20    55       P1 10957  1.17

> <Gold.PLP.Chemscore.Internal.Correction>
0.1422

> <Gold.Rescore>
     Score         DG    S(hbond)    S(metal)    S(lipo)     H(rot)  DE(clash)    DE(int)     intcor
     22.01     -23.85       2.65        0.00     107.35       1.18       0.03       1.80       ----

> <Gold.Chemscore.Fitness>
22.0148

> <Gold.Chemscore.DG>
-23.8456

> <Gold.Chemscore.ZeroCoef>
-5.4800

> <Gold.Chemscore.Hbond>
2.6452

> <Gold.Chemscore.Metal>
0.0000

> <Gold.Chemscore.Lipo>
107.3502

> <Gold.Chemscore.Internal_Hbond>
0.0000

> <Gold.Chemscore.DEClash>
0.0327

> <Gold.Chemscore.DEInternal>
1.7981

> <Gold.Chemscore.Rot>
1.1833

> <Gold.Chemscore.Internal.Correction>
   9.000000E+99

> <Gold.Chemscore.Hbonds>
donor molecule, donor type, donor heavy atom, donor atom, acceptor molecule, acceptor atom, score
      L1  H     3    26       P1  7948  0.95
      L1  H    16    40       P1  7948  0.85
      L1  H    20    55       P1 10957  0.35

> <Gold.Chemscore.Hbond.Weighted>
-8.8350

> <Gold.Chemscore.Metal.Weighted>
-0.0000

> <Gold.Chemscore.Lipo.Weighted>
-12.5600

> <Gold.Chemscore.Internal_Hbond.Weighted>
0.0000

> <Gold.Chemscore.DEClash.Weighted>
0.0327

> <Gold.Chemscore.DEInternal.Weighted>
1.7981

> <Gold.Chemscore.Rot.Weighted>
3.0293

> <Gold.Chemscore.Internal.Correction.Weighted>
   9.000000E+99

> <Gold.Protein.RotatedTorsions>
[ 6907 6896 6895 6894 ] final  -70.91 input  -60.11 | X-H torsion
[ 7974 7965 7964 7962 ] final  -61.43 input  175.53 | X-H torsion
[ 8008 7997 7996 7995 ] final   80.52 input   59.86 | X-H torsion
[ 10167 10162 10161 10158 ] final   63.19 input  -65.29 | X-H torsion
[ 10718 10713 10712 10709 ] final  107.53 input   66.30 | X-H torsion
[ 10763 10752 10751 10750 ] final  -67.15 input  -60.55 | X-H torsion
[ 11005 11000 10999 10996 ] final  -63.99 input  -57.11 | X-H torsion

> <Gold.Protein.ActiveResidues>
 VAL166  LYS551  ARG553  GLY616  TRP617  ASP618  TYR619  PRO620  LYS621  CYS622 
 ASP623  PHE694  ASN695  SER759  ASP760  ASP761  ALA762  ILE779  LEU786  VAL792 
 PHE793  MET794  SER795  GLU796  ALA797  LYS798  CYS799  TRP800  GLU811  SER814 

> <Gold.Protein.RotatedAtoms>
  150.7236  134.5385  159.5735 H   0  0  0  0  0  0  0  0  0  0  0  0  # atno 6907 bound_to 6896
  152.2901  134.7728  160.0388 H   0  0  0  0  0  0  0  0  0  0  0  0  # atno 6908 bound_to 6896
  151.8345  133.3378  159.3660 H   0  0  0  0  0  0  0  0  0  0  0  0  # atno 6909 bound_to 6896
  145.8035  140.8641  143.0219 H   0  0  0  0  0  0  0  0  0  0  0  0  # atno 7974 bound_to 7965
  155.8847  140.3442  155.5913 H   0  0  0  0  0  0  0  0  0  0  0  0  # atno 8008 bound_to 7997
  155.7680  140.0841  157.2141 H   0  0  0  0  0  0  0  0  0  0  0  0  # atno 8009 bound_to 7997
  154.4027  140.1523  156.2896 H   0  0  0  0  0  0  0  0  0  0  0  0  # atno 8010 bound_to 7997
  140.1358  144.4600  150.6839 H   0  0  0  0  0  0  0  0  0  0  0  0  # atno 10167 bound_to 10162
  157.6624  131.0875  150.6170 H   0  0  0  0  0  0  0  0  0  0  0  0  # atno 10718 bound_to 10713
  154.3703  135.6096  153.5737 H   0  0  0  0  0  0  0  0  0  0  0  0  # atno 10763 bound_to 10752
  152.9790  135.5836  154.4529 H   0  0  0  0  0  0  0  0  0  0  0  0  # atno 10764 bound_to 10752
  154.4282  135.2847  155.1908 H   0  0  0  0  0  0  0  0  0  0  0  0  # atno 10765 bound_to 10752
  141.1411  133.6659  156.5765 H   0  0  0  0  0  0  0  0  0  0  0  0  # atno 11005 bound_to 11000
  144.6766  140.0293  143.7483 LP  0  0  0  0  0  0  0  0  0  0  0  0  # atno 17320 bound_to 7965
  145.9853  139.2972  143.1017 LP  0  0  0  0  0  0  0  0  0  0  0  0  # atno 17321 bound_to 7965
  140.6790  143.2318  151.5433 LP  0  0  0  0  0  0  0  0  0  0  0  0  # atno 17342 bound_to 10162
  139.5497  144.2429  152.1507 LP  0  0  0  0  0  0  0  0  0  0  0  0  # atno 17343 bound_to 10162
  156.6473  130.4475  149.5731 LP  0  0  0  0  0  0  0  0  0  0  0  0  # atno 17370 bound_to 10713
  156.2164  130.6710  151.1323 LP  0  0  0  0  0  0  0  0  0  0  0  0  # atno 17371 bound_to 10713
  140.3871  134.7472  157.4698 LP  0  0  0  0  0  0  0  0  0  0  0  0  # atno 17394 bound_to 11000
  140.0594  134.6018  155.8767 LP  0  0  0  0  0  0  0  0  0  0  0  0  # atno 17395 bound_to 11000

$$$$
