AV-unprocessed.smi:458|AV-procd|sdf|2622|dock4
  -GOLD-   2262023 23D 1   1.00000     0.00000
 Structure written by MMmdl.
 37 39  0  0  0  0  0  0  0  0  2 V2000
  151.0800  136.3404  154.4147 O   0  0  0  0  0  0  0  0  0  0  0  0
  151.3770  137.6063  154.9612 C   0  0  0  0  0  0  0  0  0  0  0  0
  150.3006  138.6053  154.6910 C   0  0  0  0  0  0  0  0  0  0  0  0
  149.1596  138.3688  153.9848 N   0  3  0  0  0  0  0  0  0  0  0  0
  148.3977  139.5347  153.9121 C   0  0  0  0  0  0  0  0  0  0  0  0
  147.1738  139.7835  153.2988 C   0  0  0  0  0  0  0  0  0  0  0  0
  146.6682  141.0956  153.4045 C   0  0  0  0  0  0  0  0  0  0  0  0
  147.3731  142.0996  154.0990 C   0  0  0  0  0  0  0  0  0  0  0  0
  148.6113  141.8341  154.7194 C   0  0  0  0  0  0  0  0  0  0  0  0
  149.1065  140.5339  154.6107 C   0  0  0  0  0  0  0  0  0  0  0  0
  150.2758  139.9153  155.0738 N   0  0  0  0  0  0  0  0  0  0  0  0
  151.2630  140.6977  155.8375 C   0  0  0  0  0  0  0  0  0  0  0  0
  151.1336  140.4858  157.3594 C   0  0  2  0  0  0  0  0  0  0  0  0
  149.8498  139.9590  157.6235 O   0  0  0  0  0  0  0  0  0  0  0  0
  151.4111  141.7586  158.1473 C   0  0  0  0  0  0  0  0  0  0  0  0
  150.6075  142.9008  157.9413 C   0  0  0  0  0  0  0  0  0  0  0  0
  150.8340  144.0729  158.6883 C   0  0  0  0  0  0  0  0  0  0  0  0
  151.8666  144.1104  159.6447 C   0  0  0  0  0  0  0  0  0  0  0  0
  152.0821  145.2361  160.3653 F   0  0  0  0  0  0  0  0  0  0  0  0
  152.6733  142.9754  159.8531 C   0  0  0  0  0  0  0  0  0  0  0  0
  152.4465  141.8025  159.1071 C   0  0  0  0  0  0  0  0  0  0  0  0
  150.8304  136.4543  153.5100 H   0  0  0  0  0  0  0  0  0  0  0  0
  151.5128  137.5050  156.0382 H   0  0  0  0  0  0  0  0  0  0  0  0
  152.3235  137.9595  154.5529 H   0  0  0  0  0  0  0  0  0  0  0  0
  146.6331  139.0163  152.7644 H   0  0  0  0  0  0  0  0  0  0  0  0
  145.7217  141.3369  152.9427 H   0  0  0  0  0  0  0  0  0  0  0  0
  146.9563  143.0948  154.1569 H   0  0  0  0  0  0  0  0  0  0  0  0
  149.1402  142.6158  155.2437 H   0  0  0  0  0  0  0  0  0  0  0  0
  152.2691  140.4679  155.4876 H   0  0  0  0  0  0  0  0  0  0  0  0
  151.0960  141.7468  155.5914 H   0  0  0  0  0  0  0  0  0  0  0  0
  151.8463  139.7225  157.6731 H   0  0  0  0  0  0  0  0  0  0  0  0
  149.2462  140.6785  157.7298 H   0  0  0  0  0  0  0  0  0  0  0  0
  149.8070  142.8776  157.2160 H   0  0  0  0  0  0  0  0  0  0  0  0
  150.2136  144.9425  158.5290 H   0  0  0  0  0  0  0  0  0  0  0  0
  153.4646  143.0030  160.5877 H   0  0  0  0  0  0  0  0  0  0  0  0
  153.0639  140.9334  159.2820 H   0  0  0  0  0  0  0  0  0  0  0  0
  148.9261  137.4732  153.5758 H   0  0  0  0  0  0  0  0  0  0  0  0
  1  2  1  0  0  0  0
  1 22  1  0  0  0  0
  2  3  1  0  0  0  0
  2 23  1  0  0  0  0
  2 24  1  0  0  0  0
  3 11  1  0  0  0  0
  3  4  2  0  0  0  0
  4  5  1  0  0  0  0
  4 37  1  0  0  0  0
  5 10  2  0  0  0  0
  5  6  1  0  0  0  0
  6  7  2  0  0  0  0
  6 25  1  0  0  0  0
  7  8  1  0  0  0  0
  7 26  1  0  0  0  0
  8  9  2  0  0  0  0
  8 27  1  0  0  0  0
  9 10  1  0  0  0  0
  9 28  1  0  0  0  0
 10 11  1  0  0  0  0
 11 12  1  0  0  0  0
 12 13  1  0  0  0  0
 12 29  1  0  0  0  0
 12 30  1  0  0  0  0
 13 14  1  0  0  0  0
 13 15  1  0  0  0  0
 13 31  1  0  0  0  0
 14 32  1  0  0  0  0
 15 21  1  0  0  0  0
 15 16  2  0  0  0  0
 16 17  1  0  0  0  0
 16 33  1  0  0  0  0
 17 18  2  0  0  0  0
 17 34  1  0  0  0  0
 18 19  1  0  0  0  0
 18 20  1  0  0  0  0
 20 21  2  0  0  0  0
 20 35  1  0  0  0  0
 21 36  1  0  0  0  0
M  CHG  1   4   1
M  END
> <s_m_source_file>
AV-unprocessed.smi

> <i_m_source_file_index>
458

> <i_lp_mmshare_version>
43012

> <i_f3d_flags>
0

> <s_epik_input>
W2NIXTFbY0hdW2NIXVtjSF1jKGMxMiluKGMobjIpW0NIMl1bT0hdKVtDSDJdW0NASF0oW09IXSljM1tjSF1bY0hdYyhGKVtjSF1bY0hdMw==

> <s_epik_cmdline>
J2VwaWtfcHl0aG9uJywgJy1waCcsICc3LjAnLCAnLXRuJywgJzgnLCAnLW1hJywgJzIwMCcsICctbWV0YWxfYmluZGluZycsICctaW1hZScsICc8aW5maWxlLm1hZT4nLCAnLW9tYWUnLCAnPG91dGZpbGUubWFlPic=

> <r_epik_Ionization_Penalty>
1.35643

> <r_epik_Ionization_Penalty_Charging>
1.35557

> <r_epik_Ionization_Penalty_Neutral>
0.00085758

> <r_epik_State_Penalty>
1.43401

> <r_epik_Charging_Adjusted_Penalty>
2.78958

> <i_epik_Tot_Q>
1

> <i_epik_Tot_abs_Q>
1

> <r_epik_Metal_State_Penalty>
5.47166

> <b_epik_Metal_Only>
0

> <s_lp_Force_Field>
OPLS_2005

> <r_lp_Energy>
15.2314

> <b_lp_Chiralities_Consistent>
1

> <s_lp_Variant>
AV-unprocessed.smi:458-3

> <Gold.Version>
5.8.1

> <Gold.Id.Protein>
6NUR|6NUR_protein|mol2

> <Gold.PLP.Fitness>
59.7102

> <Gold.PLP.PLP>
-49.3776

> <Gold.PLP.part.hbond>
-3.3781

> <Gold.PLP.part.metal>
0.0000

> <Gold.PLP.part.buried>
0.4964

> <Gold.PLP.part.nonpolar>
-46.4962

> <Gold.PLP.part.repulsive>
0.0420

> <Gold.PLP.ligand.clash>
0.0000

> <Gold.PLP.ligand.torsion>
0.8496

> <Gold.PLP.Chemscore.Hbond>
4.0000

> <Gold.PLP.Chemscore.CHOScore>
0.0000

> <Gold.PLP.Chemscore.Metal>
0.0000

> <Gold.Chemscore.Hbonds>
donor molecule, donor type, donor heavy atom, donor atom, acceptor molecule, acceptor atom, score
      L1  H     1    22       P1  7949  0.60
      L1  H     4    37       P1  7948  1.54
      P1  H 10752 10763       L1     1  0.95

> <Gold.PLP.Chemscore.Internal.Correction>
0.0317

> <Gold.Rescore>
     Score         DG    S(hbond)    S(metal)    S(lipo)     H(rot)  DE(clash)    DE(int)     intcor
     17.40     -19.15       1.99        0.00     121.76       2.82       0.72       1.04       ----

> <Gold.Chemscore.Fitness>
17.4004

> <Gold.Chemscore.DG>
-19.1526

> <Gold.Chemscore.ZeroCoef>
-5.4800

> <Gold.Chemscore.Hbond>
1.9911

> <Gold.Chemscore.Metal>
0.0000

> <Gold.Chemscore.Lipo>
121.7636

> <Gold.Chemscore.Internal_Hbond>
0.0000

> <Gold.Chemscore.DEClash>
0.7159

> <Gold.Chemscore.DEInternal>
1.0363

> <Gold.Chemscore.Rot>
2.8219

> <Gold.Chemscore.Internal.Correction>
   9.000000E+99

> <Gold.Chemscore.Hbonds>
donor molecule, donor type, donor heavy atom, donor atom, acceptor molecule, acceptor atom, score
      L1  H     1    22       P1  7949  0.07
      L1  H     4    37       P1  7948  0.73
      P1  H 10752 10763       L1     1  0.06

> <Gold.Chemscore.Hbond.Weighted>
-6.6503

> <Gold.Chemscore.Metal.Weighted>
-0.0000

> <Gold.Chemscore.Lipo.Weighted>
-14.2463

> <Gold.Chemscore.Internal_Hbond.Weighted>
0.0000

> <Gold.Chemscore.DEClash.Weighted>
0.7159

> <Gold.Chemscore.DEInternal.Weighted>
1.0363

> <Gold.Chemscore.Rot.Weighted>
7.2240

> <Gold.Chemscore.Internal.Correction.Weighted>
   9.000000E+99

> <Gold.Protein.RotatedTorsions>
[ 6907 6896 6895 6894 ] final   -8.39 input  -60.11 | X-H torsion
[ 7974 7965 7964 7962 ] final    4.84 input  175.53 | X-H torsion
[ 8008 7997 7996 7995 ] final -171.18 input   59.86 | X-H torsion
[ 10167 10162 10161 10158 ] final  100.79 input  -65.29 | X-H torsion
[ 10718 10713 10712 10709 ] final -158.78 input   66.30 | X-H torsion
[ 10763 10752 10751 10750 ] final   37.03 input  -60.55 | X-H torsion
[ 11005 11000 10999 10996 ] final  -51.40 input  -57.11 | X-H torsion

> <Gold.Protein.ActiveResidues>
 VAL166  LYS551  ARG553  GLY616  TRP617  ASP618  TYR619  PRO620  LYS621  CYS622 
 ASP623  PHE694  ASN695  SER759  ASP760  ASP761  ALA762  ILE779  LEU786  VAL792 
 PHE793  MET794  SER795  GLU796  ALA797  LYS798  CYS799  TRP800  GLU811  SER814 

> <Gold.Protein.RotatedAtoms>
  151.4344  135.1013  159.9651 H   0  0  0  0  0  0  0  0  0  0  0  0  # atno 6907 bound_to 6896
  152.4945  133.8587  159.7250 H   0  0  0  0  0  0  0  0  0  0  0  0  # atno 6908 bound_to 6896
  150.9132  133.6913  159.2877 H   0  0  0  0  0  0  0  0  0  0  0  0  # atno 6909 bound_to 6896
  146.2443  140.0474  142.8377 H   0  0  0  0  0  0  0  0  0  0  0  0  # atno 7974 bound_to 7965
  155.9282  140.1086  157.1153 H   0  0  0  0  0  0  0  0  0  0  0  0  # atno 8008 bound_to 7997
  154.4066  140.1243  156.4833 H   0  0  0  0  0  0  0  0  0  0  0  0  # atno 8009 bound_to 7997
  155.7113  140.3471  155.4977 H   0  0  0  0  0  0  0  0  0  0  0  0  # atno 8010 bound_to 7997
  139.7496  144.6988  151.0452 H   0  0  0  0  0  0  0  0  0  0  0  0  # atno 10167 bound_to 10162
  156.5589  130.8638  151.2803 H   0  0  0  0  0  0  0  0  0  0  0  0  # atno 10718 bound_to 10713
  153.0053  135.6289  154.2080 H   0  0  0  0  0  0  0  0  0  0  0  0  # atno 10763 bound_to 10752
  154.1824  135.2813  155.3049 H   0  0  0  0  0  0  0  0  0  0  0  0  # atno 10764 bound_to 10752
  154.5824  135.5643  153.7258 H   0  0  0  0  0  0  0  0  0  0  0  0  # atno 10765 bound_to 10752
  141.0869  133.6640  156.3872 H   0  0  0  0  0  0  0  0  0  0  0  0  # atno 11005 bound_to 11000
  145.1014  140.9348  143.4710 LP  0  0  0  0  0  0  0  0  0  0  0  0  # atno 17320 bound_to 7965
  145.0668  139.3062  143.5852 LP  0  0  0  0  0  0  0  0  0  0  0  0  # atno 17321 bound_to 7965
  140.7796  143.4825  150.9999 LP  0  0  0  0  0  0  0  0  0  0  0  0  # atno 17342 bound_to 10162
  139.8513  143.7435  152.3178 LP  0  0  0  0  0  0  0  0  0  0  0  0  # atno 17343 bound_to 10162
  157.7372  130.9792  150.2182 LP  0  0  0  0  0  0  0  0  0  0  0  0  # atno 17370 bound_to 10713
  156.2817  130.3734  149.7929 LP  0  0  0  0  0  0  0  0  0  0  0  0  # atno 17371 bound_to 10713
  140.5342  134.6183  157.5360 LP  0  0  0  0  0  0  0  0  0  0  0  0  # atno 17394 bound_to 11000
  139.9688  134.7327  156.0083 LP  0  0  0  0  0  0  0  0  0  0  0  0  # atno 17395 bound_to 11000

$$$$
