AV-unprocessed.smi:928|AV-procd|sdf|4191|dock4
  -GOLD-   22720 2 93D 1   1.00000     0.00000
 Structure written by MMmdl.
 43 44  0  0  0  0  0  0  0  0  1 V2000
  151.9017  143.7806  157.9708 C   0  0  0  0  0  0  0  0  0  0  0  0
  151.1618  142.5016  158.3776 C   0  0  0  0  0  0  0  0  0  0  0  0
  150.9775  141.5448  157.2462 C   0  0  0  0  0  0  0  0  0  0  0  0
  150.4340  141.8012  156.0115 C   0  0  0  0  0  0  0  0  0  0  0  0
  150.4118  140.6924  155.1624 N   0  0  0  0  0  0  0  0  0  0  0  0
  150.9147  139.5985  155.7396 C   0  0  0  0  0  0  0  0  0  0  0  0
  151.0457  138.2851  155.0448 C   0  0  0  0  0  0  0  0  0  0  0  0
  150.0315  137.2503  155.5586 C   0  0  0  0  0  0  0  0  0  0  0  0
  149.0281  136.9299  154.5505 N   0  0  0  0  0  0  0  0  0  0  0  0
  147.7047  137.0518  154.7220 C   0  0  0  0  0  0  0  0  0  0  0  0
  147.1792  137.4626  155.7570 O   0  0  0  0  0  0  0  0  0  0  0  0
  147.0255  136.6732  153.6302 N   0  0  0  0  0  0  0  0  0  0  0  0
  145.5704  136.6889  153.4905 C   0  0  2  0  0  0  0  0  0  0  0  0
  144.9769  135.8271  154.6241 C   0  0  0  0  0  0  0  0  0  0  0  0
  143.4574  135.6538  154.4889 C   0  0  0  0  0  0  0  0  0  0  0  0
  143.0942  135.0598  153.1218 C   0  0  0  0  0  0  0  0  0  0  0  0
  143.6381  135.9393  151.9883 C   0  0  0  0  0  0  0  0  0  0  0  0
  145.1617  136.1416  152.1007 C   0  0  1  0  0  0  0  0  0  0  0  0
  145.5393  137.0568  151.0913 O   0  0  0  0  0  0  0  0  0  0  0  0
  151.4810  139.8791  157.3815 S   0  0  0  0  0  0  0  0  0  0  0  0
  152.0088  144.4542  158.8211 H   0  0  0  0  0  0  0  0  0  0  0  0
  151.3613  144.3148  157.1889 H   0  0  0  0  0  0  0  0  0  0  0  0
  152.9008  143.5571  157.5956 H   0  0  0  0  0  0  0  0  0  0  0  0
  151.7089  142.0085  159.1819 H   0  0  0  0  0  0  0  0  0  0  0  0
  150.1891  142.7659  158.7938 H   0  0  0  0  0  0  0  0  0  0  0  0
  150.0449  142.7423  155.6516 H   0  0  0  0  0  0  0  0  0  0  0  0
  150.9133  138.4495  153.9749 H   0  0  0  0  0  0  0  0  0  0  0  0
  152.0632  137.9160  155.1797 H   0  0  0  0  0  0  0  0  0  0  0  0
  150.5465  136.3277  155.8283 H   0  0  0  0  0  0  0  0  0  0  0  0
  149.5446  137.6111  156.4665 H   0  0  0  0  0  0  0  0  0  0  0  0
  149.3653  136.5852  153.6635 H   0  0  0  0  0  0  0  0  0  0  0  0
  147.5531  136.3549  152.8307 H   0  0  0  0  0  0  0  0  0  0  0  0
  145.1822  137.7031  153.6052 H   0  0  0  0  0  0  0  0  0  0  0  0
  145.4453  134.8416  154.6213 H   0  0  0  0  0  0  0  0  0  0  0  0
  145.2092  136.2740  155.5915 H   0  0  0  0  0  0  0  0  0  0  0  0
  143.0848  135.0091  155.2854 H   0  0  0  0  0  0  0  0  0  0  0  0
  142.9643  136.6187  154.6143 H   0  0  0  0  0  0  0  0  0  0  0  0
  143.5034  134.0522  153.0359 H   0  0  0  0  0  0  0  0  0  0  0  0
  142.0117  134.9646  153.0323 H   0  0  0  0  0  0  0  0  0  0  0  0
  143.3910  135.4919  151.0247 H   0  0  0  0  0  0  0  0  0  0  0  0
  143.1334  136.9065  152.0168 H   0  0  0  0  0  0  0  0  0  0  0  0
  145.6632  135.1907  151.9139 H   0  0  0  0  0  0  0  0  0  0  0  0
  144.7567  137.4366  150.7218 H   0  0  0  0  0  0  0  0  0  0  0  0
  1  2  1  0  0  0  0
  1 21  1  0  0  0  0
  1 22  1  0  0  0  0
  1 23  1  0  0  0  0
  2  3  1  0  0  0  0
  2 24  1  0  0  0  0
  2 25  1  0  0  0  0
  3 20  1  0  0  0  0
  3  4  2  0  0  0  0
  4  5  1  0  0  0  0
  4 26  1  0  0  0  0
  5  6  2  0  0  0  0
  6  7  1  0  0  0  0
  6 20  1  0  0  0  0
  7  8  1  0  0  0  0
  7 27  1  0  0  0  0
  7 28  1  0  0  0  0
  8  9  1  0  0  0  0
  8 29  1  0  0  0  0
  8 30  1  0  0  0  0
  9 10  1  0  0  0  0
  9 31  1  0  0  0  0
 10 11  2  0  0  0  0
 10 12  1  0  0  0  0
 12 13  1  0  0  0  0
 12 32  1  0  0  0  0
 13 18  1  0  0  0  0
 13 14  1  0  0  0  0
 13 33  1  0  0  0  0
 14 15  1  0  0  0  0
 14 34  1  0  0  0  0
 14 35  1  0  0  0  0
 15 16  1  0  0  0  0
 15 36  1  0  0  0  0
 15 37  1  0  0  0  0
 16 17  1  0  0  0  0
 16 38  1  0  0  0  0
 16 39  1  0  0  0  0
 17 18  1  0  0  0  0
 17 40  1  0  0  0  0
 17 41  1  0  0  0  0
 18 19  1  0  0  0  0
 18 42  1  0  0  0  0
 19 43  1  0  0  0  0
M  END
> <s_m_source_file>
AV-unprocessed.smi

> <i_m_source_file_index>
928

> <i_lp_mmshare_version>
43012

> <i_f3d_flags>
0

> <s_epik_input>
W0NIM11bQ0gyXWMxW2NIXW5jKHMxKVtDSDJdW0NIMl1bTkhdQyg9TylbTkhdW0NAQEhdMltDSDJdW0NIMl1bQ0gyXVtDSDJdW0NASF0yW09IXQ==

> <s_epik_cmdline>
J2VwaWtfcHl0aG9uJywgJy1waCcsICc3LjAnLCAnLXRuJywgJzgnLCAnLW1hJywgJzIwMCcsICctbWV0YWxfYmluZGluZycsICctaW1hZScsICc8aW5maWxlLm1hZT4nLCAnLW9tYWUnLCAnPG91dGZpbGUubWFlPic=

> <r_epik_Ionization_Penalty>
0.000957396

> <r_epik_Ionization_Penalty_Charging>
0

> <r_epik_Ionization_Penalty_Neutral>
0.000957396

> <r_epik_State_Penalty>
0.000586538

> <r_epik_Charging_Adjusted_Penalty>
0.000586538

> <i_epik_Tot_Q>
0

> <i_epik_Tot_abs_Q>
0

> <r_epik_Metal_State_Penalty>
-0

> <b_epik_Metal_Only>
0

> <s_lp_Force_Field>
OPLS_2005

> <r_lp_Energy>
-3.08797

> <b_lp_Chiralities_Consistent>
1

> <s_lp_Variant>
AV-unprocessed.smi:928-1

> <Gold.Version>
5.8.1

> <Gold.Id.Protein>
6NUR|6NUR_protein|mol2

> <Gold.PLP.Fitness>
43.4645

> <Gold.PLP.PLP>
-30.1264

> <Gold.PLP.part.hbond>
-4.0000

> <Gold.PLP.part.metal>
0.0000

> <Gold.PLP.part.buried>
-4.9468

> <Gold.PLP.part.nonpolar>
-20.9949

> <Gold.PLP.part.repulsive>
0.1170

> <Gold.PLP.ligand.clash>
0.0000

> <Gold.PLP.ligand.torsion>
0.5824

> <Gold.PLP.Chemscore.Hbond>
3.8080

> <Gold.PLP.Chemscore.CHOScore>
1.0000

> <Gold.PLP.Chemscore.Metal>
0.0000

> <Gold.Chemscore.Hbonds>
donor molecule, donor type, donor heavy atom, donor atom, acceptor molecule, acceptor atom, score
      L1  H     9    31       P1  7948  0.96
      L1  H    12    32       P1  7948  1.00
      L1  H    19    43       P1 10171  1.00
      P1  H  7989  7998       L1     5  0.80
      L1  C     4    26       P1  8028  1.00

> <Gold.PLP.Chemscore.Internal.Correction>
0.0789

> <Gold.Rescore>
     Score         DG    S(hbond)    S(metal)    S(lipo)     H(rot)  DE(clash)    DE(int)     intcor
     19.03     -20.72       3.65        0.00      74.35       2.21       0.11       1.58       ----

> <Gold.Chemscore.Fitness>
19.0335

> <Gold.Chemscore.DG>
-20.7228

> <Gold.Chemscore.ZeroCoef>
-5.4800

> <Gold.Chemscore.Hbond>
3.6519

> <Gold.Chemscore.Metal>
0.0000

> <Gold.Chemscore.Lipo>
74.3505

> <Gold.Chemscore.Internal_Hbond>
0.0000

> <Gold.Chemscore.DEClash>
0.1061

> <Gold.Chemscore.DEInternal>
1.5832

> <Gold.Chemscore.Rot>
2.2084

> <Gold.Chemscore.Internal.Correction>
   9.000000E+99

> <Gold.Chemscore.Hbonds>
donor molecule, donor type, donor heavy atom, donor atom, acceptor molecule, acceptor atom, score
      L1  H     9    31       P1  7948  0.84
      L1  H    12    32       P1  7948  0.98
      L1  H    19    43       P1 10171  0.98
      P1  H  7989  7998       L1     5  0.23

> <Gold.Chemscore.Hbond.Weighted>
-12.1973

> <Gold.Chemscore.Metal.Weighted>
-0.0000

> <Gold.Chemscore.Lipo.Weighted>
-8.6990

> <Gold.Chemscore.Internal_Hbond.Weighted>
0.0000

> <Gold.Chemscore.DEClash.Weighted>
0.1061

> <Gold.Chemscore.DEInternal.Weighted>
1.5832

> <Gold.Chemscore.Rot.Weighted>
5.6535

> <Gold.Chemscore.Internal.Correction.Weighted>
   9.000000E+99

> <Gold.Protein.RotatedTorsions>
[ 6907 6896 6895 6894 ] final    6.59 input  -60.11 | X-H torsion
[ 7974 7965 7964 7962 ] final  168.53 input  175.53 | X-H torsion
[ 8008 7997 7996 7995 ] final  -31.08 input   59.86 | X-H torsion
[ 10167 10162 10161 10158 ] final   37.52 input  -65.29 | X-H torsion
[ 10718 10713 10712 10709 ] final   71.04 input   66.30 | X-H torsion
[ 10763 10752 10751 10750 ] final  -40.39 input  -60.55 | X-H torsion
[ 11005 11000 10999 10996 ] final   81.36 input  -57.11 | X-H torsion

> <Gold.Protein.ActiveResidues>
 VAL166  LYS551  ARG553  GLY616  TRP617  ASP618  TYR619  PRO620  LYS621  CYS622 
 ASP623  PHE694  ASN695  SER759  ASP760  ASP761  ALA762  ILE779  LEU786  VAL792 
 PHE793  MET794  SER795  GLU796  ALA797  LYS798  CYS799  TRP800  GLU811  SER814 

> <Gold.Protein.RotatedAtoms>
  151.6762  135.0969  160.0207 H   0  0  0  0  0  0  0  0  0  0  0  0  # atno 6907 bound_to 6896
  152.3863  133.6611  159.6209 H   0  0  0  0  0  0  0  0  0  0  0  0  # atno 6908 bound_to 6896
  150.7788  133.8947  159.3365 H   0  0  0  0  0  0  0  0  0  0  0  0  # atno 6909 bound_to 6896
  144.7385  139.8920  143.6404 H   0  0  0  0  0  0  0  0  0  0  0  0  # atno 7974 bound_to 7965
  154.4227  140.1774  156.1509 H   0  0  0  0  0  0  0  0  0  0  0  0  # atno 8008 bound_to 7997
  155.9915  140.3368  155.6733 H   0  0  0  0  0  0  0  0  0  0  0  0  # atno 8009 bound_to 7997
  155.6365  140.0675  157.2623 H   0  0  0  0  0  0  0  0  0  0  0  0  # atno 8010 bound_to 7997
  140.4025  144.1704  150.6134 H   0  0  0  0  0  0  0  0  0  0  0  0  # atno 10167 bound_to 10162
  157.6431  130.9508  150.0734 H   0  0  0  0  0  0  0  0  0  0  0  0  # atno 10718 bound_to 10713
  153.9451  135.6757  153.4744 H   0  0  0  0  0  0  0  0  0  0  0  0  # atno 10763 bound_to 10752
  153.0912  135.4874  154.8690 H   0  0  0  0  0  0  0  0  0  0  0  0  # atno 10764 bound_to 10752
  154.7356  135.3148  154.8776 H   0  0  0  0  0  0  0  0  0  0  0  0  # atno 10765 bound_to 10752
  139.9101  134.7991  156.2031 H   0  0  0  0  0  0  0  0  0  0  0  0  # atno 11005 bound_to 11000
  146.1134  139.4142  143.0273 LP  0  0  0  0  0  0  0  0  0  0  0  0  # atno 17320 bound_to 7965
  145.7409  141.0008  143.1301 LP  0  0  0  0  0  0  0  0  0  0  0  0  # atno 17321 bound_to 7965
  140.4725  143.2408  151.9069 LP  0  0  0  0  0  0  0  0  0  0  0  0  # atno 17342 bound_to 10162
  139.4784  144.5355  151.8605 LP  0  0  0  0  0  0  0  0  0  0  0  0  # atno 17343 bound_to 10162
  156.1731  130.3647  149.9137 LP  0  0  0  0  0  0  0  0  0  0  0  0  # atno 17370 bound_to 10713
  156.7107  130.8969  151.3609 LP  0  0  0  0  0  0  0  0  0  0  0  0  # atno 17371 bound_to 10713
  141.0512  133.6888  156.1775 LP  0  0  0  0  0  0  0  0  0  0  0  0  # atno 17394 bound_to 11000
  140.6807  134.4770  157.5589 LP  0  0  0  0  0  0  0  0  0  0  0  0  # atno 17395 bound_to 11000

$$$$
