#       Name:                AV-unprocessed.smi:61
#       Creating user name   scv26
#       Creation time:       Thu Mar 26 16:49:10 2020


#       File generated by GOLD software.
#

@<TRIPOS>MOLECULE
AV-unprocessed.smi:61
    33    34     1
SMALL
NO_CHARGES


@<TRIPOS>ATOM
      1 ****        -3.5614   1.2616  -0.7197 N.pl3          1 S1                 0.0000
      2 ****        -2.7888   0.3861   0.0053 C.ar           1 S1                 0.0000
      3 ****        -3.3917  -0.4261   0.8845 N.pl3          1 S1                 1.0000
      4 ****        -2.6454  -1.2953   1.6076 C.ar           1 S1                 0.0000
      5 ****        -1.2495  -1.3444   1.4390 C.ar           1 S1                 0.0000
      6 ****        -0.6786  -0.4618   0.4985 C.ar           1 S1                 0.0000
      7 ****         0.7150  -0.4481   0.2761 N.3            1 S1                 0.0000
      8 ****         1.5733  -0.5500   1.4523 C.3            1 S1                 0.0000
      9 ****         2.7805   0.3520   1.1823 C.3            1 S1                 0.0000
     10 ****         2.8095   0.4678  -0.3374 C.3            1 S1                 0.0000
     11 ****         1.3236   0.4432  -0.7112 C.3            1 S1                 0.0000
     12 ****         1.0750  -0.0052  -2.1658 C.3            1 S1                 0.0000
     13 ****         1.5871   0.9584  -3.0605 O.3            1 S1                 0.0000
     14 ****        -1.4676   0.3865  -0.2006 N.ar           1 S1                 0.0000
     15 ****        -3.1336   1.8857  -1.3887 H              1 S1                 0.0000
     16 ****        -4.5536   1.3354  -0.5482 H              1 S1                 0.0000
     17 ****        -3.1896  -1.9244   2.2968 H              1 S1                 0.0000
     18 ****        -0.6499  -2.0400   2.0080 H              1 S1                 0.0000
     19 ****         1.0657  -0.2519   2.3708 H              1 S1                 0.0000
     20 ****         1.8894  -1.5879   1.5615 H              1 S1                 0.0000
     21 ****         2.6094   1.3365   1.6199 H              1 S1                 0.0000
     22 ****         3.7070  -0.0446   1.5980 H              1 S1                 0.0000
     23 ****         3.3192   1.3672  -0.6846 H              1 S1                 0.0000
     24 ****         3.3254  -0.3963  -0.7591 H              1 S1                 0.0000
     25 ****         0.9128   1.4432  -0.5620 H              1 S1                 0.0000
     26 ****         1.5478  -0.9682  -2.3622 H              1 S1                 0.0000
     27 ****         0.0123  -0.1245  -2.3741 H              1 S1                 0.0000
     28 ****         1.4615   0.6462  -3.9438 H              1 S1                 0.0000
     29 ****        -4.4032  -0.4003   1.0161 H              1 S1                 0.0000
     30 ****         0.6874  -1.3261  -0.2019 LP             1 S1                 0.0000
     31 ****         2.5624   1.0948  -2.8868 LP             1 S1                 0.0000
     32 ****         1.1023   1.8242  -2.9370 LP             1 S1                 0.0000
     33 ****        -1.0641   1.0115  -0.8689 LP             1 S1                 0.0000
@<TRIPOS>BOND
    1    1    2 1     
    2    1   15 1     
    3    1   16 1     
    4    2   14 ar    
    5    2    3 ar    
    6    3    4 ar    
    7    3   29 1     
    8    4    5 ar    
    9    4   17 1     
   10    5    6 ar    
   11    5   18 1     
   12    6    7 1     
   13    6   14 ar    
   14    7   11 1     
   15    7    8 1     
   16    8    9 1     
   17    8   19 1     
   18    8   20 1     
   19    9   10 1     
   20    9   21 1     
   21    9   22 1     
   22   10   11 1     
   23   10   23 1     
   24   10   24 1     
   25   11   12 1     
   26   11   25 1     
   27   12   13 1     
   28   12   26 1     
   29   12   27 1     
   30   13   28 1     
   31    7   30 1     
   32   13   31 1     
   33   13   32 1     
   34   14   33 1     
@<TRIPOS>SUBSTRUCTURE
      1 S1             1
@<TRIPOS>SET
LONE_PAIRS      STATIC     ATOMS    <user>   **** ""
4 30 31 32 33
DONOR_HYDROGENS      STATIC     ATOMS    <user>   **** ""
4 15 16 29 28
ATOM$BLUE        STATIC     ATOMS    COLORGROUP SYSTEM
4 30 31 32 33
ATOM$RED        STATIC     ATOMS    COLORGROUP SYSTEM
4 15 16 29 28
