AV-unprocessed.smi:2063|AV-procd|sdf|8413|dock4
  -GOLD-   2272011103D 1   1.00000     0.00000
 Structure written by MMmdl.
 38 39  0  0  0  0  0  0  0  0  2 V2000
  147.9563  139.3668  153.4887 C   0  0  0  0  0  0  0  0  0  0  0  0
  148.5355  140.4890  154.3622 C   0  0  0  0  0  0  0  0  0  0  0  0
  148.7037  141.8153  153.6070 C   0  0  0  0  0  0  0  0  0  0  0  0
  149.7939  140.0695  155.0557 C   0  0  0  0  0  0  0  0  0  0  0  0
  150.9318  139.8026  154.4071 N   0  0  0  0  0  0  0  0  0  0  0  0
  151.9515  139.4272  155.2695 N   0  0  0  0  0  0  0  0  0  0  0  0
  151.5714  139.4043  156.5547 C   0  0  0  0  0  0  0  0  0  0  0  0
  152.4082  139.0624  157.5485 N   0  5  0  0  0  0  0  0  0  0  0  0
  152.0955  139.3682  158.8288 C   0  0  0  0  0  0  0  0  0  0  0  0
  151.0330  139.1137  159.4008 O   0  0  0  0  0  0  0  0  0  0  0  0
  153.0736  140.0078  159.4866 N   0  0  0  0  0  0  0  0  0  0  0  0
  153.0224  140.4727  160.8714 C   0  0  1  0  0  0  0  0  0  0  0  0
  154.1503  139.8089  161.6817 C   0  0  0  0  0  0  0  0  0  0  0  0
  153.1156  142.0110  160.8936 C   0  0  2  0  0  0  0  0  0  0  0  0
  152.3767  142.6787  162.0540 C   0  0  0  0  0  0  0  0  0  0  0  0
  152.1658  144.0763  161.5190 C   0  0  0  0  0  0  0  0  0  0  0  0
  151.8840  143.8144  160.0420 C   0  0  0  0  0  0  0  0  0  0  0  0
  152.5030  142.5679  159.7326 O   0  0  0  0  0  0  0  0  0  0  0  0
  149.8922  139.8828  156.7995 S   0  0  0  0  0  0  0  0  0  0  0  0
  147.7738  138.4671  154.0774 H   0  0  0  0  0  0  0  0  0  0  0  0
  148.6375  139.1026  152.6792 H   0  0  0  0  0  0  0  0  0  0  0  0
  147.0087  139.6667  153.0410 H   0  0  0  0  0  0  0  0  0  0  0  0
  147.8012  140.6754  155.1468 H   0  0  0  0  0  0  0  0  0  0  0  0
  149.0367  142.6083  154.2773 H   0  0  0  0  0  0  0  0  0  0  0  0
  147.7620  142.1347  153.1596 H   0  0  0  0  0  0  0  0  0  0  0  0
  149.4383  141.7251  152.8061 H   0  0  0  0  0  0  0  0  0  0  0  0
  153.9228  140.1999  158.9754 H   0  0  0  0  0  0  0  0  0  0  0  0
  152.0635  140.1860  161.3072 H   0  0  0  0  0  0  0  0  0  0  0  0
  154.1166  140.1055  162.7298 H   0  0  0  0  0  0  0  0  0  0  0  0
  155.1311  140.0794  161.2894 H   0  0  0  0  0  0  0  0  0  0  0  0
  154.0702  138.7219  161.6528 H   0  0  0  0  0  0  0  0  0  0  0  0
  154.1602  142.3273  160.9051 H   0  0  0  0  0  0  0  0  0  0  0  0
  151.4141  142.1953  162.2262 H   0  0  0  0  0  0  0  0  0  0  0  0
  152.9413  142.6624  162.9865 H   0  0  0  0  0  0  0  0  0  0  0  0
  151.3583  144.6116  162.0191 H   0  0  0  0  0  0  0  0  0  0  0  0
  153.0816  144.6585  161.6288 H   0  0  0  0  0  0  0  0  0  0  0  0
  150.8122  143.7215  159.8646 H   0  0  0  0  0  0  0  0  0  0  0  0
  152.2641  144.6133  159.4049 H   0  0  0  0  0  0  0  0  0  0  0  0
  1  2  1  0  0  0  0
  1 20  1  0  0  0  0
  1 21  1  0  0  0  0
  1 22  1  0  0  0  0
  2  3  1  0  0  0  0
  2  4  1  0  0  0  0
  2 23  1  0  0  0  0
  3 24  1  0  0  0  0
  3 25  1  0  0  0  0
  3 26  1  0  0  0  0
  4 19  1  0  0  0  0
  4  5  2  0  0  0  0
  5  6  1  0  0  0  0
  6  7  2  0  0  0  0
  7  8  1  0  0  0  0
  7 19  1  0  0  0  0
  8  9  1  0  0  0  0
  9 10  2  0  0  0  0
  9 11  1  0  0  0  0
 11 12  1  0  0  0  0
 11 27  1  0  0  0  0
 12 13  1  0  0  0  0
 12 14  1  0  0  0  0
 12 28  1  0  0  0  0
 13 29  1  0  0  0  0
 13 30  1  0  0  0  0
 13 31  1  0  0  0  0
 14 18  1  0  0  0  0
 14 15  1  0  0  0  0
 14 32  1  0  0  0  0
 15 16  1  0  0  0  0
 15 33  1  0  0  0  0
 15 34  1  0  0  0  0
 16 17  1  0  0  0  0
 16 35  1  0  0  0  0
 16 36  1  0  0  0  0
 17 18  1  0  0  0  0
 17 37  1  0  0  0  0
 17 38  1  0  0  0  0
M  CHG  1   8  -1
M  END
> <s_m_source_file>
AV-unprocessed.smi

> <i_m_source_file_index>
2063

> <i_lp_mmshare_version>
43012

> <i_f3d_flags>
0

> <s_epik_input>
W0NIM11bQ0hdKFtDSDNdKWMxbm5jKHMxKVtOSF1DKD1PKVtOSF1bQ0BIXShbQ0gzXSlbQ0BASF0yW0NIMl1bQ0gyXVtDSDJdTzI=

> <s_epik_cmdline>
J2VwaWtfcHl0aG9uJywgJy1waCcsICc3LjAnLCAnLXRuJywgJzgnLCAnLW1hJywgJzIwMCcsICctbWV0YWxfYmluZGluZycsICctaW1hZScsICc8aW5maWxlLm1hZT4nLCAnLW9tYWUnLCAnPG91dGZpbGUubWFlPic=

> <r_lp_tautomer_probability>
1

> <r_epik_Ionization_Penalty>
4.37022

> <r_epik_Ionization_Penalty_Charging>
4.21437

> <r_epik_Ionization_Penalty_Neutral>
0.15585

> <r_epik_State_Penalty>
4.21389

> <r_epik_Charging_Adjusted_Penalty>
8.42826

> <i_epik_Tot_Q>
-1

> <i_epik_Tot_abs_Q>
1

> <r_epik_Metal_State_Penalty>
0.693772

> <b_epik_Metal_Only>
1

> <s_lp_Force_Field>
OPLS_2005

> <r_lp_Energy>
10.2416

> <b_lp_Chiralities_Consistent>
1

> <s_lp_Variant>
AV-unprocessed.smi:2063-6

> <Gold.Version>
5.8.1

> <Gold.Id.Protein>
6NUR|6NUR_protein|mol2

> <Gold.PLP.Fitness>
44.0594

> <Gold.PLP.PLP>
-38.9251

> <Gold.PLP.part.hbond>
-2.7491

> <Gold.PLP.part.metal>
0.0000

> <Gold.PLP.part.buried>
-5.1981

> <Gold.PLP.part.nonpolar>
-31.2075

> <Gold.PLP.part.repulsive>
0.2209

> <Gold.PLP.ligand.clash>
0.0000

> <Gold.PLP.ligand.torsion>
1.2621

> <Gold.PLP.Chemscore.Hbond>
2.5176

> <Gold.PLP.Chemscore.CHOScore>
0.0000

> <Gold.PLP.Chemscore.Metal>
0.0000

> <Gold.Chemscore.Hbonds>
donor molecule, donor type, donor heavy atom, donor atom, acceptor molecule, acceptor atom, score
      P1  H  7989  7998       L1     5  1.00
      P1  H  7997  8008       L1     8  0.08

> <Gold.PLP.Chemscore.Internal.Correction>
0.1058

> <Gold.Rescore>
     Score         DG    S(hbond)    S(metal)    S(lipo)     H(rot)  DE(clash)    DE(int)     intcor
     13.44     -15.82       0.90        0.00      93.12       1.39       0.10       2.28       ----

> <Gold.Chemscore.Fitness>
13.4436

> <Gold.Chemscore.DG>
-15.8249

> <Gold.Chemscore.ZeroCoef>
-5.4800

> <Gold.Chemscore.Hbond>
0.9002

> <Gold.Chemscore.Metal>
0.0000

> <Gold.Chemscore.Lipo>
93.1192

> <Gold.Chemscore.Internal_Hbond>
0.0000

> <Gold.Chemscore.DEClash>
0.0989

> <Gold.Chemscore.DEInternal>
2.2824

> <Gold.Chemscore.Rot>
1.3893

> <Gold.Chemscore.Internal.Correction>
   9.000000E+99

> <Gold.Chemscore.Hbonds>
donor molecule, donor type, donor heavy atom, donor atom, acceptor molecule, acceptor atom, score
      P1  H  7989  7998       L1     5  0.38
      P1  H  7997  8008       L1     8  0.01

> <Gold.Chemscore.Hbond.Weighted>
-3.0066

> <Gold.Chemscore.Metal.Weighted>
-0.0000

> <Gold.Chemscore.Lipo.Weighted>
-10.8950

> <Gold.Chemscore.Internal_Hbond.Weighted>
0.0000

> <Gold.Chemscore.DEClash.Weighted>
0.0989

> <Gold.Chemscore.DEInternal.Weighted>
2.2824

> <Gold.Chemscore.Rot.Weighted>
3.5567

> <Gold.Chemscore.Internal.Correction.Weighted>
   9.000000E+99

> <Gold.Protein.RotatedTorsions>
[ 6907 6896 6895 6894 ] final  -62.95 input  -60.11 | X-H torsion
[ 7974 7965 7964 7962 ] final   58.44 input  175.53 | X-H torsion
[ 8008 7997 7996 7995 ] final  -55.48 input   59.86 | X-H torsion
[ 10167 10162 10161 10158 ] final   -8.42 input  -65.29 | X-H torsion
[ 10718 10713 10712 10709 ] final  -27.90 input   66.30 | X-H torsion
[ 10763 10752 10751 10750 ] final   39.49 input  -60.55 | X-H torsion
[ 11005 11000 10999 10996 ] final  169.21 input  -57.11 | X-H torsion

> <Gold.Protein.ActiveResidues>
 VAL166  LYS551  ARG553  GLY616  TRP617  ASP618  TYR619  PRO620  LYS621  CYS622 
 ASP623  PHE694  ASN695  SER759  ASP760  ASP761  ALA762  ILE779  LEU786  VAL792 
 PHE793  MET794  SER795  GLU796  ALA797  LYS798  CYS799  TRP800  GLU811  SER814 

> <Gold.Protein.RotatedAtoms>
  150.7681  134.6501  159.6283 H   0  0  0  0  0  0  0  0  0  0  0  0  # atno 6907 bound_to 6896
  152.3722  134.6714  160.0181 H   0  0  0  0  0  0  0  0  0  0  0  0  # atno 6908 bound_to 6896
  151.7070  133.3275  159.3317 H   0  0  0  0  0  0  0  0  0  0  0  0  # atno 6909 bound_to 6896
  145.9181  139.3707  143.0495 H   0  0  0  0  0  0  0  0  0  0  0  0  # atno 7974 bound_to 7965
  154.4196  140.1152  156.5484 H   0  0  0  0  0  0  0  0  0  0  0  0  # atno 8008 bound_to 7997
  155.6435  140.3496  155.4704 H   0  0  0  0  0  0  0  0  0  0  0  0  # atno 8009 bound_to 7997
  155.9851  140.1168  157.0680 H   0  0  0  0  0  0  0  0  0  0  0  0  # atno 8010 bound_to 7997
  140.7058  143.5971  150.8835 H   0  0  0  0  0  0  0  0  0  0  0  0  # atno 10167 bound_to 10162
  156.4322  130.4447  149.7109 H   0  0  0  0  0  0  0  0  0  0  0  0  # atno 10718 bound_to 10713
  152.9966  135.6219  154.2473 H   0  0  0  0  0  0  0  0  0  0  0  0  # atno 10763 bound_to 10752
  154.2212  135.2796  155.2925 H   0  0  0  0  0  0  0  0  0  0  0  0  # atno 10764 bound_to 10752
  154.5527  135.5728  153.6994 H   0  0  0  0  0  0  0  0  0  0  0  0  # atno 10765 bound_to 10752
  140.2953  134.7639  157.3872 H   0  0  0  0  0  0  0  0  0  0  0  0  # atno 11005 bound_to 11000
  145.8585  140.9489  143.0712 LP  0  0  0  0  0  0  0  0  0  0  0  0  # atno 17320 bound_to 7965
  144.6750  140.0500  143.7479 LP  0  0  0  0  0  0  0  0  0  0  0  0  # atno 17321 bound_to 7965
  139.9695  143.6072  152.2978 LP  0  0  0  0  0  0  0  0  0  0  0  0  # atno 17342 bound_to 10162
  139.6654  144.7662  151.1883 LP  0  0  0  0  0  0  0  0  0  0  0  0  # atno 17343 bound_to 10162
  156.4008  130.7674  151.2681 LP  0  0  0  0  0  0  0  0  0  0  0  0  # atno 17370 bound_to 10713
  157.7508  131.0240  150.3859 LP  0  0  0  0  0  0  0  0  0  0  0  0  # atno 17371 bound_to 10713
  140.1158  134.5285  155.8226 LP  0  0  0  0  0  0  0  0  0  0  0  0  # atno 17394 bound_to 11000
  141.2138  133.6739  156.6774 LP  0  0  0  0  0  0  0  0  0  0  0  0  # atno 17395 bound_to 11000

$$$$
