AV-unprocessed.smi:1821|AV-procd|sdf|7386|dock10
  -GOLD-   22720 9 53D 1   1.00000     0.00000
 Structure written by MMmdl.
 35 37  0  0  0  0  0  0  0  0  1 V2000
  152.1028  138.7428  155.6864 C   0  0  0  0  0  0  0  0  0  0  0  0
  150.8494  139.2742  155.0669 C   0  0  0  0  0  0  0  0  0  0  0  0
  150.0220  138.5012  154.3628 N   0  0  0  0  0  0  0  0  0  0  0  0
  149.0258  139.3836  153.9917 C   0  0  0  0  0  0  0  0  0  0  0  0
  147.8543  139.1786  153.2282 C   0  0  0  0  0  0  0  0  0  0  0  0
  146.9709  140.2486  152.9748 C   0  0  0  0  0  0  0  0  0  0  0  0
  147.2453  141.5361  153.4804 C   0  0  0  0  0  0  0  0  0  0  0  0
  148.4063  141.7619  154.2445 C   0  0  0  0  0  0  0  0  0  0  0  0
  149.2846  140.6905  154.4940 C   0  0  0  0  0  0  0  0  0  0  0  0
  150.4837  140.5744  155.1891 N   0  0  0  0  0  0  0  0  0  0  0  0
  151.1758  141.6454  155.8932 C   0  0  0  0  0  0  0  0  0  0  0  0
  150.6200  141.8792  157.3128 C   0  0  2  0  0  0  0  0  0  0  0  0
  149.8073  143.0376  157.3387 O   0  0  0  0  0  0  0  0  0  0  0  0
  151.7393  141.9283  158.3475 C   0  0  0  0  0  0  0  0  0  0  0  0
  152.0797  140.7792  159.1013 C   0  0  0  0  0  0  0  0  0  0  0  0
  151.4139  139.6133  158.9201 F   0  0  0  0  0  0  0  0  0  0  0  0
  153.1137  140.8360  160.0556 C   0  0  0  0  0  0  0  0  0  0  0  0
  153.8120  142.0383  160.2713 C   0  0  0  0  0  0  0  0  0  0  0  0
  153.4726  143.1873  159.5339 C   0  0  0  0  0  0  0  0  0  0  0  0
  152.4400  143.1356  158.5774 C   0  0  0  0  0  0  0  0  0  0  0  0
  152.1259  144.2568  157.8846 F   0  0  0  0  0  0  0  0  0  0  0  0
  152.2644  137.7050  155.3930 H   0  0  0  0  0  0  0  0  0  0  0  0
  152.0327  138.7860  156.7735 H   0  0  0  0  0  0  0  0  0  0  0  0
  152.9644  139.3274  155.3640 H   0  0  0  0  0  0  0  0  0  0  0  0
  147.6349  138.1963  152.8369 H   0  0  0  0  0  0  0  0  0  0  0  0
  146.0783  140.0801  152.3902 H   0  0  0  0  0  0  0  0  0  0  0  0
  146.5636  142.3501  153.2815 H   0  0  0  0  0  0  0  0  0  0  0  0
  148.6199  142.7464  154.6335 H   0  0  0  0  0  0  0  0  0  0  0  0
  152.2321  141.3793  155.9499 H   0  0  0  0  0  0  0  0  0  0  0  0
  151.1276  142.5603  155.3032 H   0  0  0  0  0  0  0  0  0  0  0  0
  149.9542  141.0521  157.5595 H   0  0  0  0  0  0  0  0  0  0  0  0
  149.8548  143.4567  156.4931 H   0  0  0  0  0  0  0  0  0  0  0  0
  153.3699  139.9547  160.6251 H   0  0  0  0  0  0  0  0  0  0  0  0
  154.6041  142.0798  161.0041 H   0  0  0  0  0  0  0  0  0  0  0  0
  154.0050  144.1118  159.7027 H   0  0  0  0  0  0  0  0  0  0  0  0
  1  2  1  0  0  0  0
  1 22  1  0  0  0  0
  1 23  1  0  0  0  0
  1 24  1  0  0  0  0
  2 10  1  0  0  0  0
  2  3  2  0  0  0  0
  3  4  1  0  0  0  0
  4  9  2  0  0  0  0
  4  5  1  0  0  0  0
  5  6  2  0  0  0  0
  5 25  1  0  0  0  0
  6  7  1  0  0  0  0
  6 26  1  0  0  0  0
  7  8  2  0  0  0  0
  7 27  1  0  0  0  0
  8  9  1  0  0  0  0
  8 28  1  0  0  0  0
  9 10  1  0  0  0  0
 10 11  1  0  0  0  0
 11 12  1  0  0  0  0
 11 29  1  0  0  0  0
 11 30  1  0  0  0  0
 12 13  1  0  0  0  0
 12 14  1  0  0  0  0
 12 31  1  0  0  0  0
 13 32  1  0  0  0  0
 14 20  1  0  0  0  0
 14 15  2  0  0  0  0
 15 16  1  0  0  0  0
 15 17  1  0  0  0  0
 17 18  2  0  0  0  0
 17 33  1  0  0  0  0
 18 19  1  0  0  0  0
 18 34  1  0  0  0  0
 19 20  2  0  0  0  0
 19 35  1  0  0  0  0
 20 21  1  0  0  0  0
M  END
> <s_m_source_file>
AV-unprocessed.smi

> <i_m_source_file_index>
1821

> <i_lp_mmshare_version>
43012

> <i_f3d_flags>
0

> <s_epik_input>
W2NIXTFbY0hdW2NIXVtjSF1jKGMxMiluKGMobjIpW0NIM10pW0NIMl1bQ0BIXShbT0hdKWMzYyhGKVtjSF1bY0hdW2NIXWMzRg==

> <s_epik_cmdline>
J2VwaWtfcHl0aG9uJywgJy1waCcsICc3LjAnLCAnLXRuJywgJzgnLCAnLW1hJywgJzIwMCcsICctbWV0YWxfYmluZGluZycsICctaW1hZScsICc8aW5maWxlLm1hZT4nLCAnLW9tYWUnLCAnPG91dGZpbGUubWFlPic=

> <r_epik_Ionization_Penalty>
0.129663

> <r_epik_Ionization_Penalty_Charging>
0

> <r_epik_Ionization_Penalty_Neutral>
0.129663

> <r_epik_State_Penalty>
0.119073

> <r_epik_Charging_Adjusted_Penalty>
0.119073

> <i_epik_Tot_Q>
0

> <i_epik_Tot_abs_Q>
0

> <r_epik_Metal_State_Penalty>
0.000131867

> <b_epik_Metal_Only>
0

> <s_lp_Force_Field>
OPLS_2005

> <r_lp_Energy>
13.297

> <b_lp_Chiralities_Consistent>
1

> <s_lp_Variant>
AV-unprocessed.smi:1821-1

> <Gold.Version>
5.8.1

> <Gold.Id.Protein>
6NUR|6NUR_protein|mol2

> <Gold.PLP.Fitness>
49.8328

> <Gold.PLP.PLP>
-49.9716

> <Gold.PLP.part.hbond>
-1.0000

> <Gold.PLP.part.metal>
0.0000

> <Gold.PLP.part.buried>
-2.4740

> <Gold.PLP.part.nonpolar>
-46.4653

> <Gold.PLP.part.repulsive>
0.2021

> <Gold.PLP.ligand.clash>
0.0000

> <Gold.PLP.ligand.torsion>
1.5857

> <Gold.PLP.Chemscore.Hbond>
1.0000

> <Gold.PLP.Chemscore.CHOScore>
0.0000

> <Gold.PLP.Chemscore.Metal>
0.0000

> <Gold.Chemscore.Hbonds>
donor molecule, donor type, donor heavy atom, donor atom, acceptor molecule, acceptor atom, score
      L1  H    13    32       P1  8028  0.69

> <Gold.PLP.Chemscore.Internal.Correction>
0.0326

> <Gold.Rescore>
     Score         DG    S(hbond)    S(metal)    S(lipo)     H(rot)  DE(clash)    DE(int)     intcor
     15.62     -18.34       0.97        0.00     123.44       1.88       0.19       2.54       ----

> <Gold.Chemscore.Fitness>
15.6159

> <Gold.Chemscore.DG>
-18.3396

> <Gold.Chemscore.ZeroCoef>
-5.4800

> <Gold.Chemscore.Hbond>
0.9699

> <Gold.Chemscore.Metal>
0.0000

> <Gold.Chemscore.Lipo>
123.4438

> <Gold.Chemscore.Internal_Hbond>
0.0000

> <Gold.Chemscore.DEClash>
0.1882

> <Gold.Chemscore.DEInternal>
2.5355

> <Gold.Chemscore.Rot>
1.8839

> <Gold.Chemscore.Internal.Correction>
   9.000000E+99

> <Gold.Chemscore.Hbonds>
donor molecule, donor type, donor heavy atom, donor atom, acceptor molecule, acceptor atom, score
      L1  H    13    32       P1  8028  0.68

> <Gold.Chemscore.Hbond.Weighted>
-3.2395

> <Gold.Chemscore.Metal.Weighted>
-0.0000

> <Gold.Chemscore.Lipo.Weighted>
-14.4429

> <Gold.Chemscore.Internal_Hbond.Weighted>
0.0000

> <Gold.Chemscore.DEClash.Weighted>
0.1882

> <Gold.Chemscore.DEInternal.Weighted>
2.5355

> <Gold.Chemscore.Rot.Weighted>
4.8227

> <Gold.Chemscore.Internal.Correction.Weighted>
   9.000000E+99

> <Gold.Protein.RotatedTorsions>
[ 6907 6896 6895 6894 ] final    4.08 input  -60.11 | X-H torsion
[ 7974 7965 7964 7962 ] final  114.93 input  175.53 | X-H torsion
[ 8008 7997 7996 7995 ] final -129.95 input   59.86 | X-H torsion
[ 10167 10162 10161 10158 ] final   49.40 input  -65.29 | X-H torsion
[ 10718 10713 10712 10709 ] final  136.31 input   66.30 | X-H torsion
[ 10763 10752 10751 10750 ] final   98.18 input  -60.55 | X-H torsion
[ 11005 11000 10999 10996 ] final   65.87 input  -57.11 | X-H torsion

> <Gold.Protein.ActiveResidues>
 VAL166  LYS551  ARG553  GLY616  TRP617  ASP618  TYR619  PRO620  LYS621  CYS622 
 ASP623  PHE694  ASN695  SER759  ASP760  ASP761  ALA762  ILE779  LEU786  VAL792 
 PHE793  MET794  SER795  GLU796  ALA797  LYS798  CYS799  TRP800  GLU811  SER814 

> <Gold.Protein.RotatedAtoms>
  151.6354  135.1018  160.0130 H   0  0  0  0  0  0  0  0  0  0  0  0  # atno 6907 bound_to 6896
  152.4083  133.6919  159.6384 H   0  0  0  0  0  0  0  0  0  0  0  0  # atno 6908 bound_to 6896
  150.7976  133.8586  159.3266 H   0  0  0  0  0  0  0  0  0  0  0  0  # atno 6909 bound_to 6896
  145.1983  139.2965  143.4332 H   0  0  0  0  0  0  0  0  0  0  0  0  # atno 7974 bound_to 7965
  155.2877  140.0447  157.3020 H   0  0  0  0  0  0  0  0  0  0  0  0  # atno 8008 bound_to 7997
  154.5559  140.2331  155.8378 H   0  0  0  0  0  0  0  0  0  0  0  0  # atno 8009 bound_to 7997
  156.2007  140.3026  155.9528 H   0  0  0  0  0  0  0  0  0  0  0  0  # atno 8010 bound_to 7997
  140.2832  144.3132  150.6259 H   0  0  0  0  0  0  0  0  0  0  0  0  # atno 10167 bound_to 10162
  157.4480  131.1063  151.0067 H   0  0  0  0  0  0  0  0  0  0  0  0  # atno 10718 bound_to 10713
  153.2859  135.4157  155.1122 H   0  0  0  0  0  0  0  0  0  0  0  0  # atno 10763 bound_to 10752
  154.8505  135.3506  154.6048 H   0  0  0  0  0  0  0  0  0  0  0  0  # atno 10764 bound_to 10752
  153.6469  135.7054  153.5280 H   0  0  0  0  0  0  0  0  0  0  0  0  # atno 10765 bound_to 10752
  139.9867  134.6657  156.0163 H   0  0  0  0  0  0  0  0  0  0  0  0  # atno 11005 bound_to 11000
  146.3423  140.2218  142.8591 LP  0  0  0  0  0  0  0  0  0  0  0  0  # atno 17320 bound_to 7965
  144.9973  140.8601  143.5303 LP  0  0  0  0  0  0  0  0  0  0  0  0  # atno 17321 bound_to 7965
  140.5794  143.2174  151.7456 LP  0  0  0  0  0  0  0  0  0  0  0  0  # atno 17342 bound_to 10162
  139.4957  144.4102  152.0088 LP  0  0  0  0  0  0  0  0  0  0  0  0  # atno 17343 bound_to 10162
  157.0907  130.5941  149.5439 LP  0  0  0  0  0  0  0  0  0  0  0  0  # atno 17370 bound_to 10713
  155.9975  130.5047  150.7537 LP  0  0  0  0  0  0  0  0  0  0  0  0  # atno 17371 bound_to 10713
  141.1531  133.6546  156.4074 LP  0  0  0  0  0  0  0  0  0  0  0  0  # atno 17394 bound_to 11000
  140.4988  134.6505  157.5240 LP  0  0  0  0  0  0  0  0  0  0  0  0  # atno 17395 bound_to 11000

$$$$
