AV-unprocessed.smi:2339|AV-procd|sdf|9337|dock3
  -GOLD-   2272012553D 1   1.00000     0.00000
 Structure written by MMmdl.
 49 52  0  0  0  0  0  0  0  0  1 V2000
  148.7322  131.0265  161.3888 C   0  0  0  0  0  0  0  0  0  0  0  0
  147.8957  131.8219  160.3806 C   0  0  0  0  0  0  0  0  0  0  0  0
  147.9424  133.2526  160.6467 N   0  0  0  0  0  0  0  0  0  0  0  0
  147.4096  133.7869  161.8156 C   0  0  0  0  0  0  0  0  0  0  0  0
  147.3443  135.1058  162.0822 C   0  0  0  0  0  0  0  0  0  0  0  0
  147.8593  136.0710  161.0900 C   0  0  0  0  0  0  0  0  0  0  0  0
  147.8105  137.2836  161.2968 O   0  0  0  0  0  0  0  0  0  0  0  0
  148.4330  135.4993  159.8439 C   0  0  0  0  0  0  0  0  0  0  0  0
  148.9097  136.4205  158.8995 N   0  0  0  0  0  0  0  0  0  0  0  0
  150.0536  137.1342  158.9065 C   0  0  0  0  0  0  0  0  0  0  0  0
  150.8852  137.1329  159.8116 O   0  0  0  0  0  0  0  0  0  0  0  0
  150.2000  137.9259  157.8302 N   0  0  0  0  0  0  0  0  0  0  0  0
  151.3210  138.8255  157.5292 C   0  0  1  0  0  0  0  0  0  0  0  0
  151.8011  138.7610  156.0587 C   0  0  1  0  0  0  0  0  0  0  0  0
  151.3628  137.6907  155.0876 C   0  0  0  0  0  0  0  0  0  0  0  0
  150.2229  138.3695  154.3232 C   0  0  0  0  0  0  0  0  0  0  0  0
  149.7908  139.4256  155.1777 O   0  0  0  0  0  0  0  0  0  0  0  0
  150.9484  139.9903  155.7877 C   0  0  1  0  0  0  0  0  0  0  0  0
  150.8528  140.2820  157.2992 C   0  0  0  0  0  0  0  0  0  0  0  0
  149.5073  140.7594  157.8460 C   0  0  0  0  0  0  0  0  0  0  0  0
  149.5071  142.2847  157.7420 C   0  0  0  0  0  0  0  0  0  0  0  0
  150.9811  142.6959  157.8017 C   0  0  0  0  0  0  0  0  0  0  0  0
  151.7802  141.3877  157.8037 C   0  0  0  0  0  0  0  0  0  0  0  0
  148.4314  134.1499  159.6994 C   0  0  0  0  0  0  0  0  0  0  0  0
  148.6777  129.9584  161.1786 H   0  0  0  0  0  0  0  0  0  0  0  0
  148.3771  131.1840  162.4076 H   0  0  0  0  0  0  0  0  0  0  0  0
  149.7817  131.3198  161.3485 H   0  0  0  0  0  0  0  0  0  0  0  0
  148.2524  131.6277  159.3683 H   0  0  0  0  0  0  0  0  0  0  0  0
  146.8602  131.4809  160.4090 H   0  0  0  0  0  0  0  0  0  0  0  0
  147.0462  133.0497  162.5169 H   0  0  0  0  0  0  0  0  0  0  0  0
  146.9228  135.4746  163.0058 H   0  0  0  0  0  0  0  0  0  0  0  0
  148.2852  136.5882  158.1238 H   0  0  0  0  0  0  0  0  0  0  0  0
  149.4157  137.9771  157.1959 H   0  0  0  0  0  0  0  0  0  0  0  0
  152.1413  138.7676  158.2472 H   0  0  0  0  0  0  0  0  0  0  0  0
  152.8630  139.0026  155.9918 H   0  0  0  0  0  0  0  0  0  0  0  0
  152.1654  137.3944  154.4118 H   0  0  0  0  0  0  0  0  0  0  0  0
  151.0174  136.7891  155.5910 H   0  0  0  0  0  0  0  0  0  0  0  0
  150.5903  138.7980  153.3896 H   0  0  0  0  0  0  0  0  0  0  0  0
  149.4075  137.6856  154.0878 H   0  0  0  0  0  0  0  0  0  0  0  0
  151.4388  140.7495  155.1766 H   0  0  0  0  0  0  0  0  0  0  0  0
  148.6567  140.3266  157.3186 H   0  0  0  0  0  0  0  0  0  0  0  0
  149.4084  140.4705  158.8933 H   0  0  0  0  0  0  0  0  0  0  0  0
  149.0795  142.5902  156.7862 H   0  0  0  0  0  0  0  0  0  0  0  0
  148.9135  142.7467  158.5313 H   0  0  0  0  0  0  0  0  0  0  0  0
  151.2364  143.3020  156.9316 H   0  0  0  0  0  0  0  0  0  0  0  0
  151.1999  143.2888  158.6904 H   0  0  0  0  0  0  0  0  0  0  0  0
  152.1009  141.1665  158.8226 H   0  0  0  0  0  0  0  0  0  0  0  0
  152.6874  141.4774  157.2046 H   0  0  0  0  0  0  0  0  0  0  0  0
  148.8071  133.6552  158.8175 H   0  0  0  0  0  0  0  0  0  0  0  0
  1  2  1  0  0  0  0
  1 25  1  0  0  0  0
  1 26  1  0  0  0  0
  1 27  1  0  0  0  0
  2  3  1  0  0  0  0
  2 28  1  0  0  0  0
  2 29  1  0  0  0  0
  3 24  1  0  0  0  0
  3  4  1  0  0  0  0
  4  5  2  0  0  0  0
  4 30  1  0  0  0  0
  5  6  1  0  0  0  0
  5 31  1  0  0  0  0
  6  7  2  0  0  0  0
  6  8  1  0  0  0  0
  8  9  1  0  0  0  0
  8 24  2  0  0  0  0
  9 10  1  0  0  0  0
  9 32  1  0  0  0  0
 10 11  2  0  0  0  0
 10 12  1  0  0  0  0
 12 13  1  0  0  0  0
 12 33  1  0  0  0  0
 13 19  1  0  0  0  0
 13 14  1  0  0  0  0
 13 34  1  0  0  0  0
 14 18  1  0  0  0  0
 14 15  1  0  0  0  0
 14 35  1  0  0  0  0
 15 16  1  0  0  0  0
 15 36  1  0  0  0  0
 15 37  1  0  0  0  0
 16 17  1  0  0  0  0
 16 38  1  0  0  0  0
 16 39  1  0  0  0  0
 17 18  1  0  0  0  0
 18 19  1  0  0  0  0
 18 40  1  0  0  0  0
 19 23  1  0  0  0  0
 19 20  1  0  0  0  0
 20 21  1  0  0  0  0
 20 41  1  0  0  0  0
 20 42  1  0  0  0  0
 21 22  1  0  0  0  0
 21 43  1  0  0  0  0
 21 44  1  0  0  0  0
 22 23  1  0  0  0  0
 22 45  1  0  0  0  0
 22 46  1  0  0  0  0
 23 47  1  0  0  0  0
 23 48  1  0  0  0  0
 24 49  1  0  0  0  0
M  END
> <s_m_source_file>
AV-unprocessed.smi

> <i_m_source_file_index>
2339

> <i_lp_mmshare_version>
43012

> <i_f3d_flags>
0

> <s_epik_input>
W0NIM11bQ0gyXW4xW2NIXVtjSF1jKD1PKWMoW2NIXTEpW05IXUMoPU8pW05IXVtDQEBIXTJbQ0BASF0oW0NIMl1bQ0gyXU8zKVtDQEBIXTNDMjRbQ0gyXVtDSDJdW0NIMl1bQ0gyXTQ=

> <s_epik_cmdline>
J2VwaWtfcHl0aG9uJywgJy1waCcsICc3LjAnLCAnLXRuJywgJzgnLCAnLW1hJywgJzIwMCcsICctbWV0YWxfYmluZGluZycsICctaW1hZScsICc8aW5maWxlLm1hZT4nLCAnLW9tYWUnLCAnPG91dGZpbGUubWFlPic=

> <r_lp_tautomer_probability>
1

> <r_epik_Ionization_Penalty>
0.00145966

> <r_epik_Ionization_Penalty_Charging>
0.00143969

> <r_epik_Ionization_Penalty_Neutral>
1.99697e-05

> <r_epik_State_Penalty>
0.000961843

> <r_epik_Charging_Adjusted_Penalty>
0.00240153

> <i_epik_Tot_Q>
0

> <i_epik_Tot_abs_Q>
0

> <r_epik_Metal_State_Penalty>
-0

> <b_epik_Metal_Only>
0

> <s_lp_Force_Field>
OPLS_2005

> <r_lp_Energy>
59.7263

> <b_lp_Chiralities_Consistent>
1

> <s_lp_Variant>
AV-unprocessed.smi:2339-2

> <Gold.Version>
5.8.1

> <Gold.Id.Protein>
6NUR|6NUR_protein|mol2

> <Gold.PLP.Fitness>
45.2942

> <Gold.PLP.PLP>
-38.5442

> <Gold.PLP.part.hbond>
-3.1331

> <Gold.PLP.part.metal>
0.0000

> <Gold.PLP.part.buried>
-4.3725

> <Gold.PLP.part.nonpolar>
-31.3470

> <Gold.PLP.part.repulsive>
0.2724

> <Gold.PLP.ligand.clash>
0.0000

> <Gold.PLP.ligand.torsion>
0.8311

> <Gold.PLP.Chemscore.Hbond>
2.7353

> <Gold.PLP.Chemscore.CHOScore>
0.0000

> <Gold.PLP.Chemscore.Metal>
0.0000

> <Gold.Chemscore.Hbonds>
donor molecule, donor type, donor heavy atom, donor atom, acceptor molecule, acceptor atom, score
      P1  H  6896  6907       L1    11  0.99
      P1  H  6931  6943       L1     7  0.96
      P1  H  6934  6947       L1     7  0.75

> <Gold.PLP.Chemscore.Internal.Correction>
0.2063

> <Gold.Rescore>
     Score         DG    S(hbond)    S(metal)    S(lipo)     H(rot)  DE(clash)    DE(int)     intcor
     20.97     -21.76       2.68        0.00      88.31       1.17       0.01       0.78       ----

> <Gold.Chemscore.Fitness>
20.9746

> <Gold.Chemscore.DG>
-21.7638

> <Gold.Chemscore.ZeroCoef>
-5.4800

> <Gold.Chemscore.Hbond>
2.6762

> <Gold.Chemscore.Metal>
0.0000

> <Gold.Chemscore.Lipo>
88.3135

> <Gold.Chemscore.Internal_Hbond>
0.0000

> <Gold.Chemscore.DEClash>
0.0073

> <Gold.Chemscore.DEInternal>
0.7819

> <Gold.Chemscore.Rot>
1.1670

> <Gold.Chemscore.Internal.Correction>
   9.000000E+99

> <Gold.Chemscore.Hbonds>
donor molecule, donor type, donor heavy atom, donor atom, acceptor molecule, acceptor atom, score
      P1  H  6896  6907       L1    11  0.24
      P1  H  6931  6943       L1     7  0.92
      P1  H  6934  6947       L1     7  0.76

> <Gold.Chemscore.Hbond.Weighted>
-8.9386

> <Gold.Chemscore.Metal.Weighted>
-0.0000

> <Gold.Chemscore.Lipo.Weighted>
-10.3327

> <Gold.Chemscore.Internal_Hbond.Weighted>
0.0000

> <Gold.Chemscore.DEClash.Weighted>
0.0073

> <Gold.Chemscore.DEInternal.Weighted>
0.7819

> <Gold.Chemscore.Rot.Weighted>
2.9874

> <Gold.Chemscore.Internal.Correction.Weighted>
   9.000000E+99

> <Gold.Protein.RotatedTorsions>
[ 6907 6896 6895 6894 ] final  -17.00 input  -60.11 | X-H torsion
[ 7974 7965 7964 7962 ] final   41.22 input  175.53 | X-H torsion
[ 8008 7997 7996 7995 ] final  154.08 input   59.86 | X-H torsion
[ 10167 10162 10161 10158 ] final   34.32 input  -65.29 | X-H torsion
[ 10718 10713 10712 10709 ] final  114.94 input   66.30 | X-H torsion
[ 10763 10752 10751 10750 ] final   45.29 input  -60.55 | X-H torsion
[ 11005 11000 10999 10996 ] final  111.16 input  -57.11 | X-H torsion

> <Gold.Protein.ActiveResidues>
 VAL166  LYS551  ARG553  GLY616  TRP617  ASP618  TYR619  PRO620  LYS621  CYS622 
 ASP623  PHE694  ASN695  SER759  ASP760  ASP761  ALA762  ILE779  LEU786  VAL792 
 PHE793  MET794  SER795  GLU796  ALA797  LYS798  CYS799  TRP800  GLU811  SER814 

> <Gold.Protein.RotatedAtoms>
  151.3000  135.0766  159.9234 H   0  0  0  0  0  0  0  0  0  0  0  0  # atno 6907 bound_to 6896
  152.5299  133.9844  159.7832 H   0  0  0  0  0  0  0  0  0  0  0  0  # atno 6908 bound_to 6896
  151.0128  133.5897  159.2711 H   0  0  0  0  0  0  0  0  0  0  0  0  # atno 6909 bound_to 6896
  146.0841  139.5441  142.9518 H   0  0  0  0  0  0  0  0  0  0  0  0  # atno 7974 bound_to 7965
  156.2549  140.1976  156.6590 H   0  0  0  0  0  0  0  0  0  0  0  0  # atno 8008 bound_to 7997
  154.6478  140.0575  156.9946 H   0  0  0  0  0  0  0  0  0  0  0  0  # atno 8009 bound_to 7997
  155.1463  140.3247  155.4443 H   0  0  0  0  0  0  0  0  0  0  0  0  # atno 8010 bound_to 7997
  140.4326  144.1303  150.6161 H   0  0  0  0  0  0  0  0  0  0  0  0  # atno 10167 bound_to 10162
  157.6252  131.1005  150.7258 H   0  0  0  0  0  0  0  0  0  0  0  0  # atno 10718 bound_to 10713
  152.9827  135.6044  154.3412 H   0  0  0  0  0  0  0  0  0  0  0  0  # atno 10763 bound_to 10752
  154.3109  135.2771  155.2568 H   0  0  0  0  0  0  0  0  0  0  0  0  # atno 10764 bound_to 10752
  154.4778  135.5925  153.6424 H   0  0  0  0  0  0  0  0  0  0  0  0  # atno 10765 bound_to 10752
  139.8897  134.9501  156.6389 H   0  0  0  0  0  0  0  0  0  0  0  0  # atno 11005 bound_to 11000
  145.6162  141.0331  143.1939 LP  0  0  0  0  0  0  0  0  0  0  0  0  # atno 17320 bound_to 7965
  144.7313  139.7716  143.7346 LP  0  0  0  0  0  0  0  0  0  0  0  0  # atno 17321 bound_to 7965
  140.4410  143.2526  151.9473 LP  0  0  0  0  0  0  0  0  0  0  0  0  # atno 17342 bound_to 10162
  139.4785  144.5654  151.8173 LP  0  0  0  0  0  0  0  0  0  0  0  0  # atno 17343 bound_to 10162
  156.7607  130.4798  149.5437 LP  0  0  0  0  0  0  0  0  0  0  0  0  # atno 17370 bound_to 10713
  156.1419  130.6251  151.0479 LP  0  0  0  0  0  0  0  0  0  0  0  0  # atno 17371 bound_to 10713
  140.7609  133.8818  155.8417 LP  0  0  0  0  0  0  0  0  0  0  0  0  # atno 17394 bound_to 11000
  140.9923  134.1262  157.4397 LP  0  0  0  0  0  0  0  0  0  0  0  0  # atno 17395 bound_to 11000

$$$$
