AV-unprocessed.smi:3275|AV-procd|sdf|12531|dock9
  -GOLD-   2272018443D 1   1.00000     0.00000
 Structure written by MMmdl.
 35 36  0  0  0  0  0  0  0  0  2 V2000
  151.7295  146.7060  160.5795 O   0  0  0  0  0  0  0  0  0  0  0  0
  151.3075  145.4121  160.2067 C   0  0  0  0  0  0  0  0  0  0  0  0
  152.0047  144.9888  158.9098 C   0  0  0  0  0  0  0  0  0  0  0  0
  151.1812  144.0472  158.2376 O   0  0  0  0  0  0  0  0  0  0  0  0
  151.8004  142.7913  157.9921 C   0  0  1  0  0  0  0  0  0  0  0  0
  151.9977  141.9980  159.3013 C   0  0  0  0  0  0  0  0  0  0  0  0
  152.5124  140.5815  158.9974 C   0  0  0  0  0  0  0  0  0  0  0  0
  151.5922  139.8596  157.9990 C   0  0  0  0  0  0  0  0  0  0  0  0
  151.4066  140.6662  156.7957 N   0  0  0  0  0  0  0  0  0  0  0  0
  150.8673  139.9533  155.7098 C   0  0  0  0  0  0  0  0  0  0  0  0
  149.5975  140.2785  155.1697 C   0  0  0  0  0  0  0  0  0  0  0  0
  149.0863  139.5324  154.0889 C   0  0  0  0  0  0  0  0  0  0  0  0
  149.8068  138.5140  153.5746 N   0  3  0  0  0  0  0  0  0  0  0  0
  151.0203  138.1659  154.0517 C   0  0  0  0  0  0  0  0  0  0  0  0
  151.5861  138.8746  155.1313 C   0  0  0  0  0  0  0  0  0  0  0  0
  153.1560  138.4213  155.6987 Cl  0  0  0  0  0  0  0  0  0  0  0  0
  150.8848  142.0106  157.0323 C   0  0  0  0  0  0  0  0  0  0  0  0
  152.3711  147.0048  159.9534 H   0  0  0  0  0  0  0  0  0  0  0  0
  151.5401  144.7148  161.0117 H   0  0  0  0  0  0  0  0  0  0  0  0
  150.2252  145.4134  160.0763 H   0  0  0  0  0  0  0  0  0  0  0  0
  152.1710  145.8605  158.2752 H   0  0  0  0  0  0  0  0  0  0  0  0
  152.9782  144.5549  159.1384 H   0  0  0  0  0  0  0  0  0  0  0  0
  152.7639  142.9407  157.5008 H   0  0  0  0  0  0  0  0  0  0  0  0
  152.7003  142.5033  159.9632 H   0  0  0  0  0  0  0  0  0  0  0  0
  151.0509  141.9348  159.8389 H   0  0  0  0  0  0  0  0  0  0  0  0
  153.5203  140.6414  158.5848 H   0  0  0  0  0  0  0  0  0  0  0  0
  152.5889  140.0045  159.9194 H   0  0  0  0  0  0  0  0  0  0  0  0
  152.0119  138.8842  157.7515 H   0  0  0  0  0  0  0  0  0  0  0  0
  150.6185  139.6765  158.4556 H   0  0  0  0  0  0  0  0  0  0  0  0
  149.0048  141.0836  155.5779 H   0  0  0  0  0  0  0  0  0  0  0  0
  148.1277  139.7170  153.6262 H   0  0  0  0  0  0  0  0  0  0  0  0
  151.5039  137.3378  153.5547 H   0  0  0  0  0  0  0  0  0  0  0  0
  149.8843  141.9424  157.4613 H   0  0  0  0  0  0  0  0  0  0  0  0
  150.7966  142.5466  156.0862 H   0  0  0  0  0  0  0  0  0  0  0  0
  149.4190  137.9862  152.7920 H   0  0  0  0  0  0  0  0  0  0  0  0
  1  2  1  0  0  0  0
  1 18  1  0  0  0  0
  2  3  1  0  0  0  0
  2 19  1  0  0  0  0
  2 20  1  0  0  0  0
  3  4  1  0  0  0  0
  3 21  1  0  0  0  0
  3 22  1  0  0  0  0
  4  5  1  0  0  0  0
  5 17  1  0  0  0  0
  5  6  1  0  0  0  0
  5 23  1  0  0  0  0
  6  7  1  0  0  0  0
  6 24  1  0  0  0  0
  6 25  1  0  0  0  0
  7  8  1  0  0  0  0
  7 26  1  0  0  0  0
  7 27  1  0  0  0  0
  8  9  1  0  0  0  0
  8 28  1  0  0  0  0
  8 29  1  0  0  0  0
  9 10  1  0  0  0  0
  9 17  1  0  0  0  0
 10 15  1  0  0  0  0
 10 11  2  0  0  0  0
 11 12  1  0  0  0  0
 11 30  1  0  0  0  0
 12 13  2  0  0  0  0
 12 31  1  0  0  0  0
 13 14  1  0  0  0  0
 13 35  1  0  0  0  0
 14 15  2  0  0  0  0
 14 32  1  0  0  0  0
 15 16  1  0  0  0  0
 17 33  1  0  0  0  0
 17 34  1  0  0  0  0
M  CHG  1  13   1
M  END
> <s_m_source_file>
AV-unprocessed.smi

> <i_m_source_file_index>
3275

> <i_lp_mmshare_version>
43012

> <i_f3d_flags>
0

> <s_epik_input>
W09IXVtDSDJdW0NIMl1PW0NAQEhdMVtDSDJdW0NIMl1bQ0gyXU4oW0NIMl0xKWMyW2NIXVtjSF1uW2NIXWMyQ2w=

> <s_epik_cmdline>
J2VwaWtfcHl0aG9uJywgJy1waCcsICc3LjAnLCAnLXRuJywgJzgnLCAnLW1hJywgJzIwMCcsICctbWV0YWxfYmluZGluZycsICctaW1hZScsICc8aW5maWxlLm1hZT4nLCAnLW9tYWUnLCAnPG91dGZpbGUubWFlPic=

> <r_lp_tautomer_probability>
1

> <r_epik_Ionization_Penalty>
0.0778579

> <r_epik_Ionization_Penalty_Charging>
0.0778578

> <r_epik_Ionization_Penalty_Neutral>
8.80348e-08

> <r_epik_State_Penalty>
0.0687871

> <r_epik_Charging_Adjusted_Penalty>
0.146645

> <i_epik_Tot_Q>
1

> <i_epik_Tot_abs_Q>
1

> <r_epik_Metal_State_Penalty>
2.85646

> <b_epik_Metal_Only>
0

> <s_lp_Force_Field>
OPLS_2005

> <r_lp_Energy>
26.1135

> <b_lp_Chiralities_Consistent>
1

> <s_lp_Variant>
AV-unprocessed.smi:3275-2

> <Gold.Version>
5.8.1

> <Gold.Id.Protein>
6NUR|6NUR_protein|mol2

> <Gold.PLP.Fitness>
44.1876

> <Gold.PLP.PLP>
-39.6829

> <Gold.PLP.part.hbond>
-5.7034

> <Gold.PLP.part.metal>
0.0000

> <Gold.PLP.part.buried>
-2.6652

> <Gold.PLP.part.nonpolar>
-31.6262

> <Gold.PLP.part.repulsive>
0.2140

> <Gold.PLP.ligand.clash>
0.0000

> <Gold.PLP.ligand.torsion>
0.9051

> <Gold.PLP.Chemscore.Hbond>
2.0000

> <Gold.PLP.Chemscore.CHOScore>
0.0000

> <Gold.PLP.Chemscore.Metal>
0.0000

> <Gold.Chemscore.Hbonds>
donor molecule, donor type, donor heavy atom, donor atom, acceptor molecule, acceptor atom, score
      L1  H    13    35       P1  7948  2.00

> <Gold.PLP.Chemscore.Internal.Correction>
0.3149

> <Gold.Rescore>
     Score         DG    S(hbond)    S(metal)    S(lipo)     H(rot)  DE(clash)    DE(int)     intcor
     10.82     -15.15       0.90        0.00     103.77       2.14       3.23       1.10       ----

> <Gold.Chemscore.Fitness>
10.8242

> <Gold.Chemscore.DG>
-15.1541

> <Gold.Chemscore.ZeroCoef>
-5.4800

> <Gold.Chemscore.Hbond>
0.9017

> <Gold.Chemscore.Metal>
0.0000

> <Gold.Chemscore.Lipo>
103.7658

> <Gold.Chemscore.Internal_Hbond>
0.0000

> <Gold.Chemscore.DEClash>
3.2268

> <Gold.Chemscore.DEInternal>
1.1030

> <Gold.Chemscore.Rot>
2.1400

> <Gold.Chemscore.Internal.Correction>
   9.000000E+99

> <Gold.Chemscore.Hbonds>
donor molecule, donor type, donor heavy atom, donor atom, acceptor molecule, acceptor atom, score
      L1  H    13    35       P1  7948  0.82

> <Gold.Chemscore.Hbond.Weighted>
-3.0118

> <Gold.Chemscore.Metal.Weighted>
-0.0000

> <Gold.Chemscore.Lipo.Weighted>
-12.1406

> <Gold.Chemscore.Internal_Hbond.Weighted>
0.0000

> <Gold.Chemscore.DEClash.Weighted>
3.2268

> <Gold.Chemscore.DEInternal.Weighted>
1.1030

> <Gold.Chemscore.Rot.Weighted>
5.4783

> <Gold.Chemscore.Internal.Correction.Weighted>
   9.000000E+99

> <Gold.Protein.RotatedTorsions>
[ 6907 6896 6895 6894 ] final   90.48 input  -60.11 | X-H torsion
[ 7974 7965 7964 7962 ] final  178.00 input  175.53 | X-H torsion
[ 8008 7997 7996 7995 ] final  -53.47 input   59.86 | X-H torsion
[ 10167 10162 10161 10158 ] final  -18.48 input  -65.29 | X-H torsion
[ 10718 10713 10712 10709 ] final  -51.47 input   66.30 | X-H torsion
[ 10763 10752 10751 10750 ] final  160.60 input  -60.55 | X-H torsion
[ 11005 11000 10999 10996 ] final -110.69 input  -57.11 | X-H torsion

> <Gold.Protein.ActiveResidues>
 VAL166  LYS551  ARG553  GLY616  TRP617  ASP618  TYR619  PRO620  LYS621  CYS622 
 ASP623  PHE694  ASN695  SER759  ASP760  ASP761  ALA762  ILE779  LEU786  VAL792 
 PHE793  MET794  SER795  GLU796  ALA797  LYS798  CYS799  TRP800  GLU811  SER814 

> <Gold.Protein.RotatedAtoms>
  152.5445  134.1805  159.8633 H   0  0  0  0  0  0  0  0  0  0  0  0  # atno 6907 bound_to 6896
  151.1808  133.4719  159.2601 H   0  0  0  0  0  0  0  0  0  0  0  0  # atno 6908 bound_to 6896
  151.1181  135.0075  159.8581 H   0  0  0  0  0  0  0  0  0  0  0  0  # atno 6909 bound_to 6896
  144.7161  140.0332  143.6438 H   0  0  0  0  0  0  0  0  0  0  0  0  # atno 7974 bound_to 7965
  154.4134  140.1199  156.5159 H   0  0  0  0  0  0  0  0  0  0  0  0  # atno 8008 bound_to 7997
  155.6752  140.3496  155.4814 H   0  0  0  0  0  0  0  0  0  0  0  0  # atno 8009 bound_to 7997
  155.9599  140.1121  157.0895 H   0  0  0  0  0  0  0  0  0  0  0  0  # atno 8010 bound_to 7997
  140.7259  143.4912  150.9989 H   0  0  0  0  0  0  0  0  0  0  0  0  # atno 10167 bound_to 10162
  156.1707  130.4149  149.9651 H   0  0  0  0  0  0  0  0  0  0  0  0  # atno 10718 bound_to 10713
  154.2499  135.2772  155.2821 H   0  0  0  0  0  0  0  0  0  0  0  0  # atno 10763 bound_to 10752
  154.5474  135.5685  153.6895 H   0  0  0  0  0  0  0  0  0  0  0  0  # atno 10764 bound_to 10752
  152.9982  135.6266  154.2646 H   0  0  0  0  0  0  0  0  0  0  0  0  # atno 10765 bound_to 10752
  141.0777  133.9273  157.2355 H   0  0  0  0  0  0  0  0  0  0  0  0  # atno 11005 bound_to 11000
  146.0085  139.3150  143.0885 LP  0  0  0  0  0  0  0  0  0  0  0  0  # atno 17320 bound_to 7965
  145.8710  140.9420  143.0651 LP  0  0  0  0  0  0  0  0  0  0  0  0  # atno 17321 bound_to 7965
  139.8617  143.7306  152.3173 LP  0  0  0  0  0  0  0  0  0  0  0  0  # atno 17342 bound_to 10162
  139.7524  144.7530  151.0486 LP  0  0  0  0  0  0  0  0  0  0  0  0  # atno 17343 bound_to 10162
  156.7452  130.9094  151.3634 LP  0  0  0  0  0  0  0  0  0  0  0  0  # atno 17370 bound_to 10713
  157.6801  130.9131  150.0246 LP  0  0  0  0  0  0  0  0  0  0  0  0  # atno 17371 bound_to 10713
  139.9590  135.0159  156.9207 LP  0  0  0  0  0  0  0  0  0  0  0  0  # atno 17394 bound_to 11000
  140.5537  134.0602  155.7377 LP  0  0  0  0  0  0  0  0  0  0  0  0  # atno 17395 bound_to 11000

$$$$
