AV-unprocessed.smi:3298|AV-procd|sdf|12646|dock7
  -GOLD-   2272018583D 1   1.00000     0.00000
 Structure written by MMmdl.
 36 37  0  0  0  0  0  0  0  0  2 V2000
  146.2331  143.1394  154.1211 C   0  0  0  0  0  0  0  0  0  0  0  0
  147.1699  141.9498  154.1290 C   0  0  0  0  0  0  0  0  0  0  0  0
  146.7991  140.6950  153.5990 C   0  0  0  0  0  0  0  0  0  0  0  0
  147.7269  139.6217  153.6315 C   0  0  0  0  0  0  0  0  0  0  0  0
  147.4618  138.3134  153.1381 N   0  0  0  0  0  0  0  0  0  0  0  0
  146.2942  137.6494  153.0690 C   0  0  0  0  0  0  0  0  0  0  0  0
  145.2015  138.0849  153.4299 O   0  0  0  0  0  0  0  0  0  0  0  0
  146.4619  136.4301  152.5365 N   0  0  0  0  0  0  0  0  0  0  0  0
  145.3981  135.4530  152.3245 C   0  0  2  0  0  0  0  0  0  0  0  0
  145.7992  134.0877  152.8166 C   0  0  0  0  0  0  0  0  0  0  0  0
  145.7963  133.1726  151.8502 C   0  0  0  0  0  0  0  0  0  0  0  0
  145.4162  133.7393  150.5070 C   0  0  1  0  0  0  0  0  0  0  0  0
  144.2380  132.9800  149.8739 C   0  0  0  0  0  0  0  0  0  0  0  0
  143.7980  133.6438  148.7080 O   0  0  0  0  0  0  0  0  0  0  0  0
  145.1131  135.2293  150.8186 C   0  0  0  0  0  0  0  0  0  0  0  0
  148.9934  139.8460  154.2158 C   0  0  0  0  0  0  0  0  0  0  0  0
  149.3084  141.1196  154.7310 C   0  0  0  0  0  0  0  0  0  0  0  0
  148.3977  142.1138  154.6681 N   0  3  0  0  0  0  0  0  0  0  0  0
  144.4848  135.7634  152.8354 H   0  0  0  0  0  0  0  0  0  0  0  0
  146.2923  133.6643  149.8614 H   0  0  0  0  0  0  0  0  0  0  0  0
  145.2779  142.8852  153.6605 H   0  0  0  0  0  0  0  0  0  0  0  0
  146.6716  143.9648  153.5595 H   0  0  0  0  0  0  0  0  0  0  0  0
  146.0400  143.4782  155.1393 H   0  0  0  0  0  0  0  0  0  0  0  0
  145.8082  140.5825  153.1882 H   0  0  0  0  0  0  0  0  0  0  0  0
  148.2601  137.8323  152.7503 H   0  0  0  0  0  0  0  0  0  0  0  0
  147.3927  136.1515  152.2626 H   0  0  0  0  0  0  0  0  0  0  0  0
  146.0459  133.8979  153.8509 H   0  0  0  0  0  0  0  0  0  0  0  0
  146.0508  132.1313  151.9825 H   0  0  0  0  0  0  0  0  0  0  0  0
  144.5404  131.9685  149.6010 H   0  0  0  0  0  0  0  0  0  0  0  0
  143.4074  132.8908  150.5754 H   0  0  0  0  0  0  0  0  0  0  0  0
  144.5311  134.1047  148.3291 H   0  0  0  0  0  0  0  0  0  0  0  0
  144.0709  135.4704  150.6041 H   0  0  0  0  0  0  0  0  0  0  0  0
  145.7175  135.8817  150.1866 H   0  0  0  0  0  0  0  0  0  0  0  0
  149.7233  139.0510  154.2677 H   0  0  0  0  0  0  0  0  0  0  0  0
  150.2542  141.3707  155.1886 H   0  0  0  0  0  0  0  0  0  0  0  0
  148.6459  143.0282  155.0468 H   0  0  0  0  0  0  0  0  0  0  0  0
  1  2  1  0  0  0  0
  1 21  1  0  0  0  0
  1 22  1  0  0  0  0
  1 23  1  0  0  0  0
  2 18  1  0  0  0  0
  2  3  2  0  0  0  0
  3  4  1  0  0  0  0
  3 24  1  0  0  0  0
  4  5  1  0  0  0  0
  4 16  2  0  0  0  0
  5  6  1  0  0  0  0
  5 25  1  0  0  0  0
  6  7  2  0  0  0  0
  6  8  1  0  0  0  0
  8  9  1  0  0  0  0
  8 26  1  0  0  0  0
  9 19  1  0  0  0  0
  9 15  1  0  0  0  0
  9 10  1  0  0  0  0
 10 11  2  0  0  0  0
 10 27  1  0  0  0  0
 11 12  1  0  0  0  0
 11 28  1  0  0  0  0
 12 20  1  0  0  0  0
 12 13  1  0  0  0  0
 12 15  1  0  0  0  0
 13 14  1  0  0  0  0
 13 29  1  0  0  0  0
 13 30  1  0  0  0  0
 14 31  1  0  0  0  0
 15 32  1  0  0  0  0
 15 33  1  0  0  0  0
 16 17  1  0  0  0  0
 16 34  1  0  0  0  0
 17 18  2  0  0  0  0
 17 35  1  0  0  0  0
 18 36  1  0  0  0  0
M  CHG  1  18   1
M  END
> <s_m_source_file>
AV-unprocessed.smi

> <i_m_source_file_index>
3298

> <i_lp_mmshare_version>
43012

> <i_f3d_flags>
0

> <s_epik_input>
W0NIM11jMVtjSF1jKFtjSF1bY0hdbjEpW05IXUMoPU8pW05IXVtDQEBIXTJbQ0hdPVtDSF1bQ0BASF0oW0NIMl0yKVtDSDJdW09IXQ==

> <s_epik_cmdline>
J2VwaWtfcHl0aG9uJywgJy1waCcsICc3LjAnLCAnLXRuJywgJzgnLCAnLW1hJywgJzIwMCcsICctbWV0YWxfYmluZGluZycsICctaW1hZScsICc8aW5maWxlLm1hZT4nLCAnLW9tYWUnLCAnPG91dGZpbGUubWFlPic=

> <r_epik_Ionization_Penalty>
0.443901

> <r_epik_Ionization_Penalty_Charging>
0.443881

> <r_epik_Ionization_Penalty_Neutral>
1.94967e-05

> <r_epik_State_Penalty>
0.446172

> <r_epik_Charging_Adjusted_Penalty>
0.890053

> <i_epik_Tot_Q>
1

> <i_epik_Tot_abs_Q>
1

> <r_epik_Metal_State_Penalty>
0.675842

> <b_epik_Metal_Only>
0

> <s_lp_Force_Field>
OPLS_2005

> <r_lp_Energy>
27.4169

> <b_lp_Chiralities_Consistent>
1

> <s_lp_Variant>
AV-unprocessed.smi:3298-7

> <Gold.Version>
5.8.1

> <Gold.Id.Protein>
6NUR|6NUR_protein|mol2

> <Gold.PLP.Fitness>
49.4684

> <Gold.PLP.PLP>
-35.1675

> <Gold.PLP.part.hbond>
-5.0000

> <Gold.PLP.part.metal>
0.0000

> <Gold.PLP.part.buried>
-4.4450

> <Gold.PLP.part.nonpolar>
-27.4796

> <Gold.PLP.part.repulsive>
1.4515

> <Gold.PLP.ligand.clash>
0.0000

> <Gold.PLP.ligand.torsion>
0.3205

> <Gold.PLP.Chemscore.Hbond>
4.9760

> <Gold.PLP.Chemscore.CHOScore>
0.0000

> <Gold.PLP.Chemscore.Metal>
0.0000

> <Gold.Chemscore.Hbonds>
donor molecule, donor type, donor heavy atom, donor atom, acceptor molecule, acceptor atom, score
      L1  H     5    25       P1  7948  0.98
      L1  H     8    26       P1  7948  1.00
      L1  H    14    31       P1  7921  1.00
      L1  H    18    36       P1  8028  2.00

> <Gold.PLP.Chemscore.Internal.Correction>
0.0138

> <Gold.Rescore>
     Score         DG    S(hbond)    S(metal)    S(lipo)     H(rot)  DE(clash)    DE(int)     intcor
     22.17     -22.65       3.92        0.00      74.36       1.81       0.15       0.33       ----

> <Gold.Chemscore.Fitness>
22.1746

> <Gold.Chemscore.DG>
-22.6518

> <Gold.Chemscore.ZeroCoef>
-5.4800

> <Gold.Chemscore.Hbond>
3.9208

> <Gold.Chemscore.Metal>
0.0000

> <Gold.Chemscore.Lipo>
74.3589

> <Gold.Chemscore.Internal_Hbond>
0.0000

> <Gold.Chemscore.DEClash>
0.1460

> <Gold.Chemscore.DEInternal>
0.3312

> <Gold.Chemscore.Rot>
1.8061

> <Gold.Chemscore.Internal.Correction>
   9.000000E+99

> <Gold.Chemscore.Hbonds>
donor molecule, donor type, donor heavy atom, donor atom, acceptor molecule, acceptor atom, score
      L1  H     5    25       P1  7948  0.91
      L1  H     8    26       P1  7948  0.98
      L1  H    14    31       P1  7921  1.00
      L1  H    18    36       P1  8028  1.00

> <Gold.Chemscore.Hbond.Weighted>
-13.0955

> <Gold.Chemscore.Metal.Weighted>
-0.0000

> <Gold.Chemscore.Lipo.Weighted>
-8.7000

> <Gold.Chemscore.Internal_Hbond.Weighted>
0.0000

> <Gold.Chemscore.DEClash.Weighted>
0.1460

> <Gold.Chemscore.DEInternal.Weighted>
0.3312

> <Gold.Chemscore.Rot.Weighted>
4.6237

> <Gold.Chemscore.Internal.Correction.Weighted>
   9.000000E+99

> <Gold.Protein.RotatedTorsions>
[ 6907 6896 6895 6894 ] final   38.10 input  -60.11 | X-H torsion
[ 7974 7965 7964 7962 ] final -149.42 input  175.53 | X-H torsion
[ 8008 7997 7996 7995 ] final  -47.52 input   59.86 | X-H torsion
[ 10167 10162 10161 10158 ] final  177.27 input  -65.29 | X-H torsion
[ 10718 10713 10712 10709 ] final    3.49 input   66.30 | X-H torsion
[ 10763 10752 10751 10750 ] final  125.21 input  -60.55 | X-H torsion
[ 11005 11000 10999 10996 ] final   30.57 input  -57.11 | X-H torsion

> <Gold.Protein.ActiveResidues>
 VAL166  LYS551  ARG553  GLY616  TRP617  ASP618  TYR619  PRO620  LYS621  CYS622 
 ASP623  PHE694  ASN695  SER759  ASP760  ASP761  ALA762  ILE779  LEU786  VAL792 
 PHE793  MET794  SER795  GLU796  ALA797  LYS798  CYS799  TRP800  GLU811  SER814 

> <Gold.Protein.RotatedAtoms>
  152.1519  134.8981  160.0547 H   0  0  0  0  0  0  0  0  0  0  0  0  # atno 6907 bound_to 6896
  152.0010  133.3820  159.4190 H   0  0  0  0  0  0  0  0  0  0  0  0  # atno 6908 bound_to 6896
  150.6876  134.3756  159.5055 H   0  0  0  0  0  0  0  0  0  0  0  0  # atno 6909 bound_to 6896
  144.7968  140.5067  143.5734 H   0  0  0  0  0  0  0  0  0  0  0  0  # atno 7974 bound_to 7965
  154.4018  140.1344  156.4188 H   0  0  0  0  0  0  0  0  0  0  0  0  # atno 8008 bound_to 7997
  155.7662  140.3485  155.5203 H   0  0  0  0  0  0  0  0  0  0  0  0  # atno 8009 bound_to 7997
  155.8811  140.0987  157.1475 H   0  0  0  0  0  0  0  0  0  0  0  0  # atno 8010 bound_to 7997
  139.5246  144.2818  152.0540 H   0  0  0  0  0  0  0  0  0  0  0  0  # atno 10167 bound_to 10162
  156.8785  130.5645  149.5654 H   0  0  0  0  0  0  0  0  0  0  0  0  # atno 10718 bound_to 10713
  153.6737  135.3326  155.3160 H   0  0  0  0  0  0  0  0  0  0  0  0  # atno 10763 bound_to 10752
  154.8484  135.4392  154.1679 H   0  0  0  0  0  0  0  0  0  0  0  0  # atno 10764 bound_to 10752
  153.2677  135.6997  153.7589 H   0  0  0  0  0  0  0  0  0  0  0  0  # atno 10765 bound_to 10752
  140.2930  134.2843  155.7771 H   0  0  0  0  0  0  0  0  0  0  0  0  # atno 11005 bound_to 11000
  145.5652  139.1481  143.3319 LP  0  0  0  0  0  0  0  0  0  0  0  0  # atno 17320 bound_to 7965
  146.2239  140.5787  142.9005 LP  0  0  0  0  0  0  0  0  0  0  0  0  # atno 17321 bound_to 7965
  140.2273  144.4405  150.6315 LP  0  0  0  0  0  0  0  0  0  0  0  0  # atno 17342 bound_to 10162
  140.6379  143.2198  151.6355 LP  0  0  0  0  0  0  0  0  0  0  0  0  # atno 17343 bound_to 10162
  156.0689  130.5726  150.9344 LP  0  0  0  0  0  0  0  0  0  0  0  0  # atno 17370 bound_to 10713
  157.6154  131.0933  150.8720 LP  0  0  0  0  0  0  0  0  0  0  0  0  # atno 17371 bound_to 10713
  141.2143  133.7597  156.9653 LP  0  0  0  0  0  0  0  0  0  0  0  0  # atno 17394 bound_to 11000
  140.1178  134.9436  157.2160 LP  0  0  0  0  0  0  0  0  0  0  0  0  # atno 17395 bound_to 11000

$$$$
