AV-unprocessed.smi:115|AV-procd|sdf|1126|dock7
  -GOLD-   2262018253D 1   1.00000     0.00000
 Structure written by MMmdl.
 55 57  0  0  0  0  0  0  0  0  1 V2000
  157.1674  140.9764  167.0875 C   0  0  0  0  0  0  0  0  0  0  0  0
  157.4241  139.7546  166.4174 O   0  0  0  0  0  0  0  0  0  0  0  0
  156.3677  139.3747  165.5498 C   0  0  0  0  0  0  0  0  0  0  0  0
  156.9673  138.7935  164.2530 C   0  0  1  0  0  0  0  0  0  0  0  0
  157.9019  137.5931  164.4823 C   0  0  0  0  0  0  0  0  0  0  0  0
  155.9636  138.5157  163.2121 N   0  0  0  0  0  0  0  0  0  0  0  0
  154.8577  137.6876  163.4019 C   0  0  0  0  0  0  0  0  0  0  0  0
  154.5612  136.9840  164.6887 C   0  0  0  0  0  0  0  0  0  0  0  0
  154.1542  137.6522  162.2364 C   0  0  0  0  0  0  0  0  0  0  0  0
  154.8062  138.4832  161.2878 C   0  0  0  0  0  0  0  0  0  0  0  0
  154.4183  138.7258  159.8745 C   0  0  0  0  0  0  0  0  0  0  0  0
  155.2316  138.9643  158.9806 O   0  0  0  0  0  0  0  0  0  0  0  0
  152.9100  138.6464  159.5725 C   0  0  0  0  0  0  0  0  0  0  0  0
  152.3638  139.8997  159.0669 N   0  0  0  0  0  0  0  0  0  0  0  0
  151.6228  139.8637  157.8590 C   0  0  0  0  0  0  0  0  0  0  0  0
  151.4258  138.8155  157.2418 O   0  0  0  0  0  0  0  0  0  0  0  0
  151.1359  141.1631  157.4087 C   0  0  0  0  0  0  0  0  0  0  0  0
  150.4229  141.2480  156.2728 F   0  0  0  0  0  0  0  0  0  0  0  0
  151.3949  142.2873  158.1107 C   0  0  0  0  0  0  0  0  0  0  0  0
  152.1250  142.2924  159.2877 N   0  0  0  0  0  0  0  0  0  0  0  0
  152.4121  143.5768  160.0337 C   0  0  1  0  0  0  0  0  0  0  0  0
  152.7388  144.7016  159.0451 C   0  0  0  0  0  0  0  0  0  0  0  0
  151.3813  145.3370  158.8396 C   0  0  0  0  0  0  0  0  0  0  0  0
  150.7606  145.1889  160.2242 C   0  0  0  0  0  0  0  0  0  0  0  0
  151.2692  143.9618  160.7425 O   0  0  0  0  0  0  0  0  0  0  0  0
  152.6446  141.0815  159.7939 C   0  0  0  0  0  0  0  0  0  0  0  0
  153.3285  141.0673  160.8201 O   0  0  0  0  0  0  0  0  0  0  0  0
  155.9028  139.0378  161.9102 C   0  0  0  0  0  0  0  0  0  0  0  0
  156.9118  140.0210  161.3831 C   0  0  0  0  0  0  0  0  0  0  0  0
  158.0087  141.2217  167.7357 H   0  0  0  0  0  0  0  0  0  0  0  0
  156.2737  140.9056  167.7087 H   0  0  0  0  0  0  0  0  0  0  0  0
  157.0385  141.7957  166.3791 H   0  0  0  0  0  0  0  0  0  0  0  0
  155.7280  138.6566  166.0602 H   0  0  0  0  0  0  0  0  0  0  0  0
  155.7627  140.2531  165.3188 H   0  0  0  0  0  0  0  0  0  0  0  0
  157.6028  139.5925  163.8761 H   0  0  0  0  0  0  0  0  0  0  0  0
  158.7033  137.8527  165.1743 H   0  0  0  0  0  0  0  0  0  0  0  0
  158.3683  137.2821  163.5471 H   0  0  0  0  0  0  0  0  0  0  0  0
  157.3857  136.7280  164.8933 H   0  0  0  0  0  0  0  0  0  0  0  0
  153.5989  136.4742  164.6384 H   0  0  0  0  0  0  0  0  0  0  0  0
  154.5178  137.6874  165.5205 H   0  0  0  0  0  0  0  0  0  0  0  0
  155.3215  136.2340  164.9081 H   0  0  0  0  0  0  0  0  0  0  0  0
  153.2547  137.0745  162.0816 H   0  0  0  0  0  0  0  0  0  0  0  0
  152.6999  137.8630  158.8430 H   0  0  0  0  0  0  0  0  0  0  0  0
  152.3442  138.3708  160.4639 H   0  0  0  0  0  0  0  0  0  0  0  0
  151.0142  143.2186  157.7192 H   0  0  0  0  0  0  0  0  0  0  0  0
  153.2195  143.3484  160.7314 H   0  0  0  0  0  0  0  0  0  0  0  0
  153.4198  145.4028  159.5288 H   0  0  0  0  0  0  0  0  0  0  0  0
  153.2018  144.3328  158.1291 H   0  0  0  0  0  0  0  0  0  0  0  0
  151.4388  146.3733  158.5059 H   0  0  0  0  0  0  0  0  0  0  0  0
  150.8073  144.7726  158.1037 H   0  0  0  0  0  0  0  0  0  0  0  0
  151.0864  146.0024  160.8735 H   0  0  0  0  0  0  0  0  0  0  0  0
  149.6709  145.1905  160.1979 H   0  0  0  0  0  0  0  0  0  0  0  0
  156.4731  140.6878  160.6430 H   0  0  0  0  0  0  0  0  0  0  0  0
  157.7487  139.5033  160.9146 H   0  0  0  0  0  0  0  0  0  0  0  0
  157.3026  140.6747  162.1569 H   0  0  0  0  0  0  0  0  0  0  0  0
  1  2  1  0  0  0  0
  1 30  1  0  0  0  0
  1 31  1  0  0  0  0
  1 32  1  0  0  0  0
  2  3  1  0  0  0  0
  3  4  1  0  0  0  0
  3 33  1  0  0  0  0
  3 34  1  0  0  0  0
  4  5  1  0  0  0  0
  4  6  1  0  0  0  0
  4 35  1  0  0  0  0
  5 36  1  0  0  0  0
  5 37  1  0  0  0  0
  5 38  1  0  0  0  0
  6 28  1  0  0  0  0
  6  7  1  0  0  0  0
  7  8  1  0  0  0  0
  7  9  2  0  0  0  0
  8 39  1  0  0  0  0
  8 40  1  0  0  0  0
  8 41  1  0  0  0  0
  9 10  1  0  0  0  0
  9 42  1  0  0  0  0
 10 11  1  0  0  0  0
 10 28  2  0  0  0  0
 11 12  2  0  0  0  0
 11 13  1  0  0  0  0
 13 14  1  0  0  0  0
 13 43  1  0  0  0  0
 13 44  1  0  0  0  0
 14 26  1  0  0  0  0
 14 15  1  0  0  0  0
 15 16  2  0  0  0  0
 15 17  1  0  0  0  0
 17 18  1  0  0  0  0
 17 19  2  0  0  0  0
 19 20  1  0  0  0  0
 19 45  1  0  0  0  0
 20 21  1  0  0  0  0
 20 26  1  0  0  0  0
 21 25  1  0  0  0  0
 21 22  1  0  0  0  0
 21 46  1  0  0  0  0
 22 23  1  0  0  0  0
 22 47  1  0  0  0  0
 22 48  1  0  0  0  0
 23 24  1  0  0  0  0
 23 49  1  0  0  0  0
 23 50  1  0  0  0  0
 24 25  1  0  0  0  0
 24 51  1  0  0  0  0
 24 52  1  0  0  0  0
 26 27  2  0  0  0  0
 28 29  1  0  0  0  0
 29 53  1  0  0  0  0
 29 54  1  0  0  0  0
 29 55  1  0  0  0  0
M  END
> <s_m_source_file>
AV-unprocessed.smi

> <i_m_source_file_index>
115

> <i_lp_mmshare_version>
43012

> <i_f3d_flags>
0

> <s_epik_input>
W0NIM11PW0NIMl1bQ0BIXShbQ0gzXSluMWMoW0NIM10pW2NIXWMoYzFbQ0gzXSlDKD1PKVtDSDJdbjJjKD1PKWMoRilbY0hdbihjMj1PKVtDQEBIXTNbQ0gyXVtDSDJdW0NIMl1PMw==

> <s_epik_cmdline>
J2VwaWtfcHl0aG9uJywgJy1waCcsICc3LjAnLCAnLXRuJywgJzgnLCAnLW1hJywgJzIwMCcsICctbWV0YWxfYmluZGluZycsICctaW1hZScsICc8aW5maWxlLm1hZT4nLCAnLW9tYWUnLCAnPG91dGZpbGUubWFlPic=

> <r_lp_tautomer_probability>
1

> <r_epik_Ionization_Penalty>
5.02611e-09

> <r_epik_Ionization_Penalty_Charging>
5.01743e-09

> <r_epik_Ionization_Penalty_Neutral>
8.68114e-12

> <r_epik_State_Penalty>
-0

> <r_epik_Charging_Adjusted_Penalty>
5.01743e-09

> <i_epik_Tot_Q>
0

> <i_epik_Tot_abs_Q>
0

> <r_epik_Metal_State_Penalty>
-0

> <b_epik_Metal_Only>
0

> <s_epik_Chemistry_Notes>
This compound contains an acetal/aminal-like group ( X-CH(R)-Y where X, Y are N, S, or O) that may be acid/base labile, releasing an aldehyde.

> <s_lp_Force_Field>
OPLS_2005

> <r_lp_Energy>
46.6669

> <b_lp_Chiralities_Consistent>
1

> <s_lp_Variant>
AV-unprocessed.smi:115-4

> <Gold.Version>
5.8.1

> <Gold.Id.Protein>
6NUR|6NUR_protein|mol2

> <Gold.PLP.Fitness>
55.8200

> <Gold.PLP.PLP>
-55.3029

> <Gold.PLP.part.hbond>
-2.0000

> <Gold.PLP.part.metal>
0.0000

> <Gold.PLP.part.buried>
-6.4780

> <Gold.PLP.part.nonpolar>
-45.9310

> <Gold.PLP.part.repulsive>
0.1757

> <Gold.PLP.ligand.clash>
0.0000

> <Gold.PLP.ligand.torsion>
1.4134

> <Gold.PLP.Chemscore.Hbond>
1.0000

> <Gold.PLP.Chemscore.CHOScore>
0.0000

> <Gold.PLP.Chemscore.Metal>
0.0000

> <Gold.Chemscore.Hbonds>
donor molecule, donor type, donor heavy atom, donor atom, acceptor molecule, acceptor atom, score
      P1  H  7997  8010       L1    12  1.00

> <Gold.PLP.Chemscore.Internal.Correction>
0.3439

> <Gold.Rescore>
     Score         DG    S(hbond)    S(metal)    S(lipo)     H(rot)  DE(clash)    DE(int)     intcor
     11.69     -15.99       0.99        0.00     109.68       2.19       0.02       4.29       ----

> <Gold.Chemscore.Fitness>
11.6860

> <Gold.Chemscore.DG>
-15.9949

> <Gold.Chemscore.ZeroCoef>
-5.4800

> <Gold.Chemscore.Hbond>
0.9875

> <Gold.Chemscore.Metal>
0.0000

> <Gold.Chemscore.Lipo>
109.6805

> <Gold.Chemscore.Internal_Hbond>
0.0000

> <Gold.Chemscore.DEClash>
0.0200

> <Gold.Chemscore.DEInternal>
4.2889

> <Gold.Chemscore.Rot>
2.1938

> <Gold.Chemscore.Internal.Correction>
   9.000000E+99

> <Gold.Chemscore.Hbonds>
donor molecule, donor type, donor heavy atom, donor atom, acceptor molecule, acceptor atom, score
      P1  H  7997  8010       L1    12  0.99

> <Gold.Chemscore.Hbond.Weighted>
-3.2983

> <Gold.Chemscore.Metal.Weighted>
-0.0000

> <Gold.Chemscore.Lipo.Weighted>
-12.8326

> <Gold.Chemscore.Internal_Hbond.Weighted>
0.0000

> <Gold.Chemscore.DEClash.Weighted>
0.0200

> <Gold.Chemscore.DEInternal.Weighted>
4.2889

> <Gold.Chemscore.Rot.Weighted>
5.6160

> <Gold.Chemscore.Internal.Correction.Weighted>
   9.000000E+99

> <Gold.Protein.RotatedTorsions>
[ 6907 6896 6895 6894 ] final  177.95 input  -60.11 | X-H torsion
[ 7974 7965 7964 7962 ] final  -51.20 input  175.53 | X-H torsion
[ 8008 7997 7996 7995 ] final  -21.89 input   59.86 | X-H torsion
[ 10167 10162 10161 10158 ] final -168.76 input  -65.29 | X-H torsion
[ 10718 10713 10712 10709 ] final  174.02 input   66.30 | X-H torsion
[ 10763 10752 10751 10750 ] final   18.55 input  -60.55 | X-H torsion
[ 11005 11000 10999 10996 ] final  117.69 input  -57.11 | X-H torsion

> <Gold.Protein.ActiveResidues>
 VAL166  LYS551  ARG553  GLY616  TRP617  ASP618  TYR619  PRO620  LYS621  CYS622 
 ASP623  PHE694  ASN695  SER759  ASP760  ASP761  ALA762  ILE779  LEU786  VAL792 
 PHE793  MET794  SER795  GLU796  ALA797  LYS798  CYS799  TRP800  GLU811  SER814 

> <Gold.Protein.RotatedAtoms>
  151.6957  133.3311  159.3253 H   0  0  0  0  0  0  0  0  0  0  0  0  # atno 6907 bound_to 6896
  150.7759  134.6660  159.6375 H   0  0  0  0  0  0  0  0  0  0  0  0  # atno 6908 bound_to 6896
  152.3800  134.6607  160.0198 H   0  0  0  0  0  0  0  0  0  0  0  0  # atno 6909 bound_to 6896
  145.9216  140.7829  142.9644 H   0  0  0  0  0  0  0  0  0  0  0  0  # atno 7974 bound_to 7965
  154.4678  140.2022  156.0074 H   0  0  0  0  0  0  0  0  0  0  0  0  # atno 8008 bound_to 7997
  156.0957  140.3251  155.7845 H   0  0  0  0  0  0  0  0  0  0  0  0  # atno 8009 bound_to 7997
  155.4882  140.0544  157.2948 H   0  0  0  0  0  0  0  0  0  0  0  0  # atno 8010 bound_to 7997
  139.5965  144.1101  152.1695 H   0  0  0  0  0  0  0  0  0  0  0  0  # atno 10167 bound_to 10162
  156.9557  131.0045  151.2939 H   0  0  0  0  0  0  0  0  0  0  0  0  # atno 10718 bound_to 10713
  153.1239  135.6725  153.9289 H   0  0  0  0  0  0  0  0  0  0  0  0  # atno 10763 bound_to 10752
  153.8796  135.3060  155.3446 H   0  0  0  0  0  0  0  0  0  0  0  0  # atno 10764 bound_to 10752
  154.7647  135.4970  153.9611 H   0  0  0  0  0  0  0  0  0  0  0  0  # atno 10765 bound_to 10752
  139.9083  134.9613  156.7390 H   0  0  0  0  0  0  0  0  0  0  0  0  # atno 11005 bound_to 11000
  144.6753  140.1984  143.7389 LP  0  0  0  0  0  0  0  0  0  0  0  0  # atno 17320 bound_to 7965
  145.8543  139.2191  143.1754 LP  0  0  0  0  0  0  0  0  0  0  0  0  # atno 17321 bound_to 7965
  140.0688  144.5796  150.7207 LP  0  0  0  0  0  0  0  0  0  0  0  0  # atno 17342 bound_to 10162
  140.7216  143.2594  151.4260 LP  0  0  0  0  0  0  0  0  0  0  0  0  # atno 17343 bound_to 10162
  157.5692  130.8299  149.8368 LP  0  0  0  0  0  0  0  0  0  0  0  0  # atno 17370 bound_to 10713
  156.0344  130.3755  150.1601 LP  0  0  0  0  0  0  0  0  0  0  0  0  # atno 17371 bound_to 10713
  140.6865  133.9428  155.7941 LP  0  0  0  0  0  0  0  0  0  0  0  0  # atno 17394 bound_to 11000
  141.0473  134.0536  157.3828 LP  0  0  0  0  0  0  0  0  0  0  0  0  # atno 17395 bound_to 11000

$$$$
