AV-unprocessed.smi:3300|AV-procd|sdf|12651|dock10
  -GOLD-   2272018583D 1   1.00000     0.00000
 Structure written by MMmdl.
 36 37  0  0  0  0  0  0  0  0  1 V2000
  149.6506  134.3083  154.3332 C   0  0  0  0  0  0  0  0  0  0  0  0
  150.6264  135.0469  155.2565 C   0  0  0  0  0  0  0  0  0  0  0  0
  150.6830  136.5344  154.9623 C   0  0  0  0  0  0  0  0  0  0  0  0
  151.8729  137.0272  154.5513 N   0  0  0  0  0  0  0  0  0  0  0  0
  151.9233  138.3345  154.2858 C   0  0  0  0  0  0  0  0  0  0  0  0
  150.9183  139.2082  154.3811 N   0  0  0  0  0  0  0  0  0  0  0  0
  149.7136  138.7291  154.7787 C   0  0  0  0  0  0  0  0  0  0  0  0
  148.6309  139.6191  154.9103 N   0  0  0  0  0  0  0  0  0  0  0  0
  149.0251  140.7353  155.7639 C   0  0  0  0  0  0  0  0  0  0  0  0
  147.8263  141.6466  156.0537 C   0  0  0  0  0  0  0  0  0  0  0  0
  147.2820  142.0921  154.8200 O   0  0  0  0  0  0  0  0  0  0  0  0
  146.7920  141.0077  154.0411 C   0  0  0  0  0  0  0  0  0  0  0  0
  147.9332  140.0248  153.6806 C   0  0  2  0  0  0  0  0  0  0  0  0
  147.3779  138.8062  152.8971 C   0  0  0  0  0  0  0  0  0  0  0  0
  146.7603  139.1666  151.5361 C   0  0  0  0  0  0  0  0  0  0  0  0
  146.6279  138.0030  150.7484 O   0  0  0  0  0  0  0  0  0  0  0  0
  149.5469  137.3619  155.0962 C   0  0  0  0  0  0  0  0  0  0  0  0
  148.3514  136.8679  155.5018 F   0  0  0  0  0  0  0  0  0  0  0  0
  149.6276  133.2433  154.5647 H   0  0  0  0  0  0  0  0  0  0  0  0
  149.9391  134.4152  153.2872 H   0  0  0  0  0  0  0  0  0  0  0  0
  148.6374  134.6958  154.4429 H   0  0  0  0  0  0  0  0  0  0  0  0
  150.3417  134.8902  156.2973 H   0  0  0  0  0  0  0  0  0  0  0  0
  151.6265  134.6252  155.1482 H   0  0  0  0  0  0  0  0  0  0  0  0
  152.8762  138.7266  153.9622 H   0  0  0  0  0  0  0  0  0  0  0  0
  149.4364  140.3653  156.7042 H   0  0  0  0  0  0  0  0  0  0  0  0
  149.8139  141.3062  155.2712 H   0  0  0  0  0  0  0  0  0  0  0  0
  147.0675  141.1255  156.6400 H   0  0  0  0  0  0  0  0  0  0  0  0
  148.1433  142.5118  156.6361 H   0  0  0  0  0  0  0  0  0  0  0  0
  145.9921  140.4981  154.5811 H   0  0  0  0  0  0  0  0  0  0  0  0
  146.3464  141.4288  153.1406 H   0  0  0  0  0  0  0  0  0  0  0  0
  148.6478  140.5543  153.0487 H   0  0  0  0  0  0  0  0  0  0  0  0
  148.1712  138.0828  152.7096 H   0  0  0  0  0  0  0  0  0  0  0  0
  146.6404  138.2849  153.5091 H   0  0  0  0  0  0  0  0  0  0  0  0
  145.7747  139.6167  151.6502 H   0  0  0  0  0  0  0  0  0  0  0  0
  147.3903  139.8818  151.0063 H   0  0  0  0  0  0  0  0  0  0  0  0
  145.7689  138.0020  150.3542 H   0  0  0  0  0  0  0  0  0  0  0  0
  1  2  1  0  0  0  0
  1 19  1  0  0  0  0
  1 20  1  0  0  0  0
  1 21  1  0  0  0  0
  2  3  1  0  0  0  0
  2 22  1  0  0  0  0
  2 23  1  0  0  0  0
  3 17  1  0  0  0  0
  3  4  2  0  0  0  0
  4  5  1  0  0  0  0
  5  6  2  0  0  0  0
  5 24  1  0  0  0  0
  6  7  1  0  0  0  0
  7  8  1  0  0  0  0
  7 17  2  0  0  0  0
  8 13  1  0  0  0  0
  8  9  1  0  0  0  0
  9 10  1  0  0  0  0
  9 25  1  0  0  0  0
  9 26  1  0  0  0  0
 10 11  1  0  0  0  0
 10 27  1  0  0  0  0
 10 28  1  0  0  0  0
 11 12  1  0  0  0  0
 12 13  1  0  0  0  0
 12 29  1  0  0  0  0
 12 30  1  0  0  0  0
 13 14  1  0  0  0  0
 13 31  1  0  0  0  0
 14 15  1  0  0  0  0
 14 32  1  0  0  0  0
 14 33  1  0  0  0  0
 15 16  1  0  0  0  0
 15 34  1  0  0  0  0
 15 35  1  0  0  0  0
 16 36  1  0  0  0  0
 17 18  1  0  0  0  0
M  END
> <s_m_source_file>
AV-unprocessed.smi

> <i_m_source_file_index>
3300

> <i_lp_mmshare_version>
43012

> <i_f3d_flags>
0

> <s_epik_input>
W0NIM11bQ0gyXWMxbltjSF1uYyhjMUYpTjJbQ0gyXVtDSDJdT1tDSDJdW0NASF0yW0NIMl1bQ0gyXVtPSF0=

> <s_epik_cmdline>
J2VwaWtfcHl0aG9uJywgJy1waCcsICc3LjAnLCAnLXRuJywgJzgnLCAnLW1hJywgJzIwMCcsICctbWV0YWxfYmluZGluZycsICctaW1hZScsICc8aW5maWxlLm1hZT4nLCAnLW9tYWUnLCAnPG91dGZpbGUubWFlPic=

> <r_lp_tautomer_probability>
1

> <r_epik_Ionization_Penalty>
2.51351e-05

> <r_epik_Ionization_Penalty_Charging>
0

> <r_epik_Ionization_Penalty_Neutral>
2.51351e-05

> <r_epik_State_Penalty>
-0

> <r_epik_Charging_Adjusted_Penalty>
0

> <i_epik_Tot_Q>
0

> <i_epik_Tot_abs_Q>
0

> <r_epik_Metal_State_Penalty>
-0

> <b_epik_Metal_Only>
0

> <s_lp_Force_Field>
OPLS_2005

> <r_lp_Energy>
16.3992

> <b_lp_Chiralities_Consistent>
1

> <s_lp_Variant>
AV-unprocessed.smi:3300-2

> <Gold.Version>
5.8.1

> <Gold.Id.Protein>
6NUR|6NUR_protein|mol2

> <Gold.PLP.Fitness>
39.8706

> <Gold.PLP.PLP>
-28.4714

> <Gold.PLP.part.hbond>
-4.7849

> <Gold.PLP.part.metal>
0.0000

> <Gold.PLP.part.buried>
-0.2039

> <Gold.PLP.part.nonpolar>
-23.5019

> <Gold.PLP.part.repulsive>
0.6111

> <Gold.PLP.ligand.clash>
0.0000

> <Gold.PLP.ligand.torsion>
0.3733

> <Gold.PLP.Chemscore.Hbond>
4.0000

> <Gold.PLP.Chemscore.CHOScore>
0.0000

> <Gold.PLP.Chemscore.Metal>
0.0000

> <Gold.Chemscore.Hbonds>
donor molecule, donor type, donor heavy atom, donor atom, acceptor molecule, acceptor atom, score
      L1  H    16    36       P1 10171  0.96
      P1  H  7954  7966       L1    16  1.00
      P1  H  7989  7998       L1     6  1.00
      P1  H 10752 10764       L1     4  1.00

> <Gold.PLP.Chemscore.Internal.Correction>
0.1458

> <Gold.Rescore>
     Score         DG    S(hbond)    S(metal)    S(lipo)     H(rot)  DE(clash)    DE(int)     intcor
     15.35     -17.04       3.18        0.00      59.42       2.35       1.34       0.34       ----

> <Gold.Chemscore.Fitness>
15.3537

> <Gold.Chemscore.DG>
-17.0358

> <Gold.Chemscore.ZeroCoef>
-5.4800

> <Gold.Chemscore.Hbond>
3.1764

> <Gold.Chemscore.Metal>
0.0000

> <Gold.Chemscore.Lipo>
59.4162

> <Gold.Chemscore.Internal_Hbond>
0.0000

> <Gold.Chemscore.DEClash>
1.3432

> <Gold.Chemscore.DEInternal>
0.3388

> <Gold.Chemscore.Rot>
2.3458

> <Gold.Chemscore.Internal.Correction>
   9.000000E+99

> <Gold.Chemscore.Hbonds>
donor molecule, donor type, donor heavy atom, donor atom, acceptor molecule, acceptor atom, score
      L1  H    16    36       P1 10171  0.91
      P1  H  7954  7966       L1    16  0.49
      P1  H  7989  7998       L1     6  0.38
      P1  H 10752 10764       L1     4  0.66

> <Gold.Chemscore.Hbond.Weighted>
-10.6092

> <Gold.Chemscore.Metal.Weighted>
-0.0000

> <Gold.Chemscore.Lipo.Weighted>
-6.9517

> <Gold.Chemscore.Internal_Hbond.Weighted>
0.0000

> <Gold.Chemscore.DEClash.Weighted>
1.3432

> <Gold.Chemscore.DEInternal.Weighted>
0.3388

> <Gold.Chemscore.Rot.Weighted>
6.0051

> <Gold.Chemscore.Internal.Correction.Weighted>
   9.000000E+99

> <Gold.Protein.RotatedTorsions>
[ 6907 6896 6895 6894 ] final  -74.55 input  -60.11 | X-H torsion
[ 7974 7965 7964 7962 ] final -154.74 input  175.53 | X-H torsion
[ 8008 7997 7996 7995 ] final   47.99 input   59.86 | X-H torsion
[ 10167 10162 10161 10158 ] final   34.61 input  -65.29 | X-H torsion
[ 10718 10713 10712 10709 ] final   85.24 input   66.30 | X-H torsion
[ 10763 10752 10751 10750 ] final  -82.77 input  -60.55 | X-H torsion
[ 11005 11000 10999 10996 ] final  -95.50 input  -57.11 | X-H torsion

> <Gold.Protein.ActiveResidues>
 VAL166  LYS551  ARG553  GLY616  TRP617  ASP618  TYR619  PRO620  LYS621  CYS622 
 ASP623  PHE694  ASN695  SER759  ASP760  ASP761  ALA762  ILE779  LEU786  VAL792 
 PHE793  MET794  SER795  GLU796  ALA797  LYS798  CYS799  TRP800  GLU811  SER814 

> <Gold.Protein.RotatedAtoms>
  150.7089  134.4853  159.5489 H   0  0  0  0  0  0  0  0  0  0  0  0  # atno 6907 bound_to 6896
  152.2482  134.8157  160.0459 H   0  0  0  0  0  0  0  0  0  0  0  0  # atno 6908 bound_to 6896
  151.8914  133.3482  159.3836 H   0  0  0  0  0  0  0  0  0  0  0  0  # atno 6909 bound_to 6896
  144.7674  140.4346  143.5932 H   0  0  0  0  0  0  0  0  0  0  0  0  # atno 7974 bound_to 7965
  155.3781  140.3427  155.4245 H   0  0  0  0  0  0  0  0  0  0  0  0  # atno 8008 bound_to 7997
  156.1625  140.1605  156.8621 H   0  0  0  0  0  0  0  0  0  0  0  0  # atno 8009 bound_to 7997
  154.5153  140.0780  156.8052 H   0  0  0  0  0  0  0  0  0  0  0  0  # atno 8010 bound_to 7997
  140.4299  144.1340  150.6158 H   0  0  0  0  0  0  0  0  0  0  0  0  # atno 10167 bound_to 10162
  157.6911  131.0167  150.2793 H   0  0  0  0  0  0  0  0  0  0  0  0  # atno 10718 bound_to 10713
  154.5797  135.5579  153.7174 H   0  0  0  0  0  0  0  0  0  0  0  0  # atno 10763 bound_to 10752
  153.0077  135.6317  154.1999 H   0  0  0  0  0  0  0  0  0  0  0  0  # atno 10764 bound_to 10752
  154.1939  135.2881  155.2993 H   0  0  0  0  0  0  0  0  0  0  0  0  # atno 10765 bound_to 10752
  141.1440  133.8031  157.0444 H   0  0  0  0  0  0  0  0  0  0  0  0  # atno 11005 bound_to 11000
  145.6428  139.1552  143.2906 LP  0  0  0  0  0  0  0  0  0  0  0  0  # atno 17320 bound_to 7965
  146.1793  140.6523  142.9196 LP  0  0  0  0  0  0  0  0  0  0  0  0  # atno 17321 bound_to 7965
  140.4439  143.2515  151.9437 LP  0  0  0  0  0  0  0  0  0  0  0  0  # atno 17342 bound_to 10162
  139.4784  144.5628  151.8213 LP  0  0  0  0  0  0  0  0  0  0  0  0  # atno 17343 bound_to 10162
  156.3343  130.3805  149.7464 LP  0  0  0  0  0  0  0  0  0  0  0  0  # atno 17370 bound_to 10713
  156.4994  130.8121  151.3126 LP  0  0  0  0  0  0  0  0  0  0  0  0  # atno 17371 bound_to 10713
  140.0672  134.9722  157.1406 LP  0  0  0  0  0  0  0  0  0  0  0  0  # atno 17394 bound_to 11000
  140.3763  134.2335  155.7174 LP  0  0  0  0  0  0  0  0  0  0  0  0  # atno 17395 bound_to 11000

$$$$
