AV-unprocessed.smi:12|AV-procd|sdf|63|dock4
  -GOLD-   2262015183D 1   1.00000     0.00000
 Structure written by MMmdl.
 41 44  0  0  0  0  0  0  0  0  1 V2000
  145.1387  143.2283  156.1560 C   0  0  0  0  0  0  0  0  0  0  0  0
  145.7807  141.9338  155.6901 C   0  0  0  0  0  0  0  0  0  0  0  0
  147.0310  141.9061  155.1713 C   0  0  0  0  0  0  0  0  0  0  0  0
  147.5641  140.7133  154.7700 N   0  0  0  0  0  0  0  0  0  0  0  0
  146.8018  139.5308  154.8851 C   0  0  0  0  0  0  0  0  0  0  0  0
  145.6006  139.4748  155.3706 N   0  0  0  0  0  0  0  0  0  0  0  0
  145.0071  140.6726  155.8137 C   0  0  0  0  0  0  0  0  0  0  0  0
  143.8725  140.6682  156.2889 O   0  0  0  0  0  0  0  0  0  0  0  0
  147.5260  138.4879  154.3935 O   0  0  0  0  0  0  0  0  0  0  0  0
  148.7956  138.9580  153.9207 C   0  0  2  0  0  0  0  0  0  0  0  0
  149.9404  138.3863  154.7524 C   0  0  1  0  0  0  0  0  0  0  0  0
  150.6774  137.4386  154.0062 O   0  0  0  0  0  0  0  0  0  0  0  0
  150.7908  139.6160  155.0858 C   0  0  2  0  0  0  0  0  0  0  0  0
  151.5788  139.5066  156.3971 C   0  0  0  0  0  0  0  0  0  0  0  0
  151.5329  140.7505  157.0769 O   0  0  0  0  0  0  0  0  0  0  0  0
  152.2795  140.9465  158.1807 C   0  0  0  0  0  0  0  0  0  0  0  0
  153.0913  140.1244  158.6102 O   0  0  0  0  0  0  0  0  0  0  0  0
  152.0172  142.2630  158.8310 C   0  0  0  0  0  0  0  0  0  0  0  0
  152.3595  142.4449  160.1916 C   0  0  0  0  0  0  0  0  0  0  0  0
  152.1195  143.6753  160.8334 C   0  0  0  0  0  0  0  0  0  0  0  0
  151.5351  144.7398  160.1225 C   0  0  0  0  0  0  0  0  0  0  0  0
  151.1927  144.5727  158.7679 C   0  0  0  0  0  0  0  0  0  0  0  0
  151.4313  143.3426  158.1245 C   0  0  0  0  0  0  0  0  0  0  0  0
  149.8391  140.6633  155.1822 O   0  0  0  0  0  0  0  0  0  0  0  0
  148.8839  140.4725  154.1894 C   0  0  2  0  0  0  0  0  0  0  0  0
  145.8098  144.0763  156.0157 H   0  0  0  0  0  0  0  0  0  0  0  0
  144.8864  143.1700  157.2153 H   0  0  0  0  0  0  0  0  0  0  0  0
  144.2249  143.4251  155.5944 H   0  0  0  0  0  0  0  0  0  0  0  0
  147.6142  142.8104  155.0744 H   0  0  0  0  0  0  0  0  0  0  0  0
  148.9104  138.7804  152.8501 H   0  0  0  0  0  0  0  0  0  0  0  0
  149.5547  137.9299  155.6654 H   0  0  0  0  0  0  0  0  0  0  0  0
  150.0991  137.0404  153.3734 H   0  0  0  0  0  0  0  0  0  0  0  0
  151.4607  139.8566  154.2576 H   0  0  0  0  0  0  0  0  0  0  0  0
  151.1367  138.7350  157.0290 H   0  0  0  0  0  0  0  0  0  0  0  0
  152.6123  139.2178  156.2008 H   0  0  0  0  0  0  0  0  0  0  0  0
  152.8083  141.6419  160.7585 H   0  0  0  0  0  0  0  0  0  0  0  0
  152.3838  143.8018  161.8732 H   0  0  0  0  0  0  0  0  0  0  0  0
  151.3501  145.6830  160.6152 H   0  0  0  0  0  0  0  0  0  0  0  0
  150.7453  145.3892  158.2205 H   0  0  0  0  0  0  0  0  0  0  0  0
  151.1558  143.2487  157.0841 H   0  0  0  0  0  0  0  0  0  0  0  0
  148.9724  141.1134  153.3115 H   0  0  0  0  0  0  0  0  0  0  0  0
  1  2  1  0  0  0  0
  1 26  1  0  0  0  0
  1 27  1  0  0  0  0
  1 28  1  0  0  0  0
  2  7  1  0  0  0  0
  2  3  2  0  0  0  0
  3  4  1  0  0  0  0
  3 29  1  0  0  0  0
  4 25  1  0  0  0  0
  4  5  1  0  0  0  0
  5  6  2  0  0  0  0
  5  9  1  0  0  0  0
  6  7  1  0  0  0  0
  7  8  2  0  0  0  0
  9 10  1  0  0  0  0
 10 25  1  0  0  0  0
 10 11  1  0  0  0  0
 10 30  1  0  0  0  0
 11 12  1  0  0  0  0
 11 13  1  0  0  0  0
 11 31  1  0  0  0  0
 12 32  1  0  0  0  0
 13 14  1  0  0  0  0
 13 24  1  0  0  0  0
 13 33  1  0  0  0  0
 14 15  1  0  0  0  0
 14 34  1  0  0  0  0
 14 35  1  0  0  0  0
 15 16  1  0  0  0  0
 16 17  2  0  0  0  0
 16 18  1  0  0  0  0
 18 23  1  0  0  0  0
 18 19  2  0  0  0  0
 19 20  1  0  0  0  0
 19 36  1  0  0  0  0
 20 21  2  0  0  0  0
 20 37  1  0  0  0  0
 21 22  1  0  0  0  0
 21 38  1  0  0  0  0
 22 23  2  0  0  0  0
 22 39  1  0  0  0  0
 23 40  1  0  0  0  0
 24 25  1  0  0  0  0
 25 41  1  0  0  0  0
M  END
> <s_m_source_file>
AV-unprocessed.smi

> <i_m_source_file_index>
12

> <i_lp_mmshare_version>
43012

> <i_f3d_flags>
0

> <s_epik_input>
W0NIM11jKFtjSF0xKWMoPU8pbmMobjEyKU9bQ0BIXTNbQ0BASF0yT1tDQEBIXShbQ0BASF0zW09IXSlbQ0gyXU9DKD1PKWM0W2NIXVtjSF1bY0hdW2NIXVtjSF00

> <s_epik_cmdline>
J2VwaWtfcHl0aG9uJywgJy1waCcsICc3LjAnLCAnLXRuJywgJzgnLCAnLW1hJywgJzIwMCcsICctbWV0YWxfYmluZGluZycsICctaW1hZScsICc8aW5maWxlLm1hZT4nLCAnLW9tYWUnLCAnPG91dGZpbGUubWFlPic=

> <r_lp_tautomer_probability>
0.933681

> <r_epik_Ionization_Penalty>
0.00399549

> <r_epik_Ionization_Penalty_Charging>
3.09373e-09

> <r_epik_Ionization_Penalty_Neutral>
0.00399549

> <r_epik_State_Penalty>
0.00284953

> <r_epik_Charging_Adjusted_Penalty>
0.00284953

> <i_epik_Tot_Q>
0

> <i_epik_Tot_abs_Q>
0

> <r_epik_Metal_State_Penalty>
-0

> <b_epik_Metal_Only>
0

> <s_epik_Chemistry_Notes>
This compound has an ester and may undergo hydrolysis at high or low pH. This compound contains an acetal/aminal-like group ( X-CH(R)-Y where X, Y are N, S, or O) that may be acid/base labile, releasing an aldehyde.

> <s_lp_Force_Field>
OPLS_2005

> <r_lp_Energy>
41.0284

> <b_lp_Chiralities_Consistent>
1

> <s_lp_Variant>
AV-unprocessed.smi:12-3

> <Gold.Version>
5.8.1

> <Gold.Id.Protein>
6NUR|6NUR_protein|mol2

> <Gold.PLP.Fitness>
50.9493

> <Gold.PLP.PLP>
-43.5241

> <Gold.PLP.part.hbond>
-3.5010

> <Gold.PLP.part.metal>
0.0000

> <Gold.PLP.part.buried>
-2.4948

> <Gold.PLP.part.nonpolar>
-36.8798

> <Gold.PLP.part.repulsive>
0.3644

> <Gold.PLP.ligand.clash>
0.0000

> <Gold.PLP.ligand.torsion>
0.7614

> <Gold.PLP.Chemscore.Hbond>
1.9760

> <Gold.PLP.Chemscore.CHOScore>
1.0000

> <Gold.PLP.Chemscore.Metal>
0.0000

> <Gold.Chemscore.Hbonds>
donor molecule, donor type, donor heavy atom, donor atom, acceptor molecule, acceptor atom, score
      L1  H    12    32       P1  7948  0.85
      P1  H  7997  8008       L1    17  0.61
      L1  C     3    29       P1  8028  1.00

> <Gold.PLP.Chemscore.Internal.Correction>
0.0200

> <Gold.Rescore>
     Score         DG    S(hbond)    S(metal)    S(lipo)     H(rot)  DE(clash)    DE(int)     intcor
     16.49     -17.41       1.68        0.00     101.78       2.18       0.08       0.84       ----

> <Gold.Chemscore.Fitness>
16.4935

> <Gold.Chemscore.DG>
-17.4120

> <Gold.Chemscore.ZeroCoef>
-5.4800

> <Gold.Chemscore.Hbond>
1.6780

> <Gold.Chemscore.Metal>
0.0000

> <Gold.Chemscore.Lipo>
101.7794

> <Gold.Chemscore.Internal_Hbond>
0.0000

> <Gold.Chemscore.DEClash>
0.0828

> <Gold.Chemscore.DEInternal>
0.8356

> <Gold.Chemscore.Rot>
2.1800

> <Gold.Chemscore.Internal.Correction>
   9.000000E+99

> <Gold.Chemscore.Hbonds>
donor molecule, donor type, donor heavy atom, donor atom, acceptor molecule, acceptor atom, score
      L1  H    12    32       P1  7948  0.14
      P1  H  7997  8008       L1    17  0.32

> <Gold.Chemscore.Hbond.Weighted>
-5.6045

> <Gold.Chemscore.Metal.Weighted>
-0.0000

> <Gold.Chemscore.Lipo.Weighted>
-11.9082

> <Gold.Chemscore.Internal_Hbond.Weighted>
0.0000

> <Gold.Chemscore.DEClash.Weighted>
0.0828

> <Gold.Chemscore.DEInternal.Weighted>
0.8356

> <Gold.Chemscore.Rot.Weighted>
5.5807

> <Gold.Chemscore.Internal.Correction.Weighted>
   9.000000E+99

> <Gold.Protein.RotatedTorsions>
[ 6907 6896 6895 6894 ] final  -86.98 input  -60.11 | X-H torsion
[ 7974 7965 7964 7962 ] final  -17.22 input  175.53 | X-H torsion
[ 8008 7997 7996 7995 ] final  -94.41 input   59.86 | X-H torsion
[ 10167 10162 10161 10158 ] final  -18.74 input  -65.29 | X-H torsion
[ 10718 10713 10712 10709 ] final   84.61 input   66.30 | X-H torsion
[ 10763 10752 10751 10750 ] final   28.41 input  -60.55 | X-H torsion
[ 11005 11000 10999 10996 ] final  -22.62 input  -57.11 | X-H torsion

> <Gold.Protein.ActiveResidues>
 VAL166  LYS551  ARG553  GLY616  TRP617  ASP618  TYR619  PRO620  LYS621  CYS622 
 ASP623  PHE694  ASN695  SER759  ASP760  ASP761  ALA762  ILE779  LEU786  VAL792 
 PHE793  MET794  SER795  GLU796  ALA797  LYS798  CYS799  TRP800  GLU811  SER814 

> <Gold.Protein.RotatedAtoms>
  150.6866  134.2967  159.4688 H   0  0  0  0  0  0  0  0  0  0  0  0  # atno 6907 bound_to 6896
  152.0866  134.9432  160.0582 H   0  0  0  0  0  0  0  0  0  0  0  0  # atno 6908 bound_to 6896
  152.0764  133.4097  159.4519 H   0  0  0  0  0  0  0  0  0  0  0  0  # atno 6909 bound_to 6896
  146.1951  140.3748  142.8443 H   0  0  0  0  0  0  0  0  0  0  0  0  # atno 7974 bound_to 7965
  154.7480  140.0489  157.0869 H   0  0  0  0  0  0  0  0  0  0  0  0  # atno 8008 bound_to 7997
  155.0093  140.3134  155.4817 H   0  0  0  0  0  0  0  0  0  0  0  0  # atno 8009 bound_to 7997
  156.2879  140.2187  156.5207 H   0  0  0  0  0  0  0  0  0  0  0  0  # atno 8010 bound_to 7997
  140.7262  143.4886  151.0021 H   0  0  0  0  0  0  0  0  0  0  0  0  # atno 10167 bound_to 10162
  157.6901  131.0140  150.2699 H   0  0  0  0  0  0  0  0  0  0  0  0  # atno 10718 bound_to 10713
  153.0494  135.6514  154.0733 H   0  0  0  0  0  0  0  0  0  0  0  0  # atno 10763 bound_to 10752
  154.0424  135.2902  155.3354 H   0  0  0  0  0  0  0  0  0  0  0  0  # atno 10764 bound_to 10752
  154.6772  135.5333  153.8282 H   0  0  0  0  0  0  0  0  0  0  0  0  # atno 10765 bound_to 10752
  140.8674  133.7745  156.0146 H   0  0  0  0  0  0  0  0  0  0  0  0  # atno 11005 bound_to 11000
  144.8564  140.7076  143.6135 LP  0  0  0  0  0  0  0  0  0  0  0  0  # atno 17320 bound_to 7965
  145.3669  139.1668  143.4353 LP  0  0  0  0  0  0  0  0  0  0  0  0  # atno 17321 bound_to 7965
  139.8589  143.7340  152.3174 LP  0  0  0  0  0  0  0  0  0  0  0  0  # atno 17342 bound_to 10162
  139.7549  144.7524  151.0451 LP  0  0  0  0  0  0  0  0  0  0  0  0  # atno 17343 bound_to 10162
  156.3264  130.3793  149.7530 LP  0  0  0  0  0  0  0  0  0  0  0  0  # atno 17370 bound_to 10713
  156.5084  130.8160  151.3159 LP  0  0  0  0  0  0  0  0  0  0  0  0  # atno 17371 bound_to 10713
  140.8613  134.2837  157.5233 LP  0  0  0  0  0  0  0  0  0  0  0  0  # atno 17394 bound_to 11000
  139.8710  134.9519  156.4100 LP  0  0  0  0  0  0  0  0  0  0  0  0  # atno 17395 bound_to 11000

$$$$
