AV-unprocessed.smi:435|AV-procd|sdf|2556|dock5
  -GOLD-   2262022523D 1   1.00000     0.00000
 Structure written by MMmdl.
 44 45  0  0  0  0  0  0  0  0  1 V2000
  146.7948  138.8525  154.3182 C   0  0  0  0  0  0  0  0  0  0  0  0
  148.1645  138.2783  154.5612 C   0  0  0  0  0  0  0  0  0  0  0  0
  148.2373  136.9967  154.7122 N   0  0  0  0  0  0  0  0  0  0  0  0
  149.4452  136.3665  154.9408 N   0  0  0  0  0  0  0  0  0  0  0  0
  149.3454  134.9045  155.0632 C   0  0  0  0  0  0  0  0  0  0  0  0
  147.9852  134.3459  154.6192 C   0  0  0  0  0  0  0  0  0  0  0  0
  147.2002  133.8679  155.4396 O   0  0  0  0  0  0  0  0  0  0  0  0
  147.7313  134.3989  153.3029 N   0  0  0  0  0  0  0  0  0  0  0  0
  146.5062  133.9348  152.6590 C   0  0  2  0  0  0  0  0  0  0  0  0
  146.7031  132.5289  152.0569 C   0  0  0  0  0  0  0  0  0  0  0  0
  145.4469  132.0581  151.3062 C   0  0  0  0  0  0  0  0  0  0  0  0
  145.0289  133.0600  150.2132 C   0  0  1  0  0  0  0  0  0  0  0  0
  143.7722  132.5876  149.4688 C   0  0  0  0  0  0  0  0  0  0  0  0
  144.8310  134.4621  150.8199 C   0  0  0  0  0  0  0  0  0  0  0  0
  146.0864  134.9372  151.5689 C   0  0  0  0  0  0  0  0  0  0  0  0
  150.6462  137.0051  155.0485 C   0  0  0  0  0  0  0  0  0  0  0  0
  151.6982  136.4043  155.2722 O   0  0  0  0  0  0  0  0  0  0  0  0
  150.5570  138.4560  154.8709 C   0  0  0  0  0  0  0  0  0  0  0  0
  151.7932  139.1628  154.9672 C   0  0  0  0  0  0  0  0  0  0  0  0
  152.8058  139.7181  155.0480 N   0  0  0  0  0  0  0  0  0  0  0  0
  149.3792  139.0847  154.6311 C   0  0  0  0  0  0  0  0  0  0  0  0
  149.2358  140.5888  154.4416 C   0  0  0  0  0  0  0  0  0  0  0  0
  146.5771  139.6521  155.0262 H   0  0  0  0  0  0  0  0  0  0  0  0
  146.0133  138.0989  154.4256 H   0  0  0  0  0  0  0  0  0  0  0  0
  146.7217  139.2625  153.3110 H   0  0  0  0  0  0  0  0  0  0  0  0
  150.1411  134.4291  154.4864 H   0  0  0  0  0  0  0  0  0  0  0  0
  149.5125  134.5992  156.0977 H   0  0  0  0  0  0  0  0  0  0  0  0
  148.4361  134.8005  152.7014 H   0  0  0  0  0  0  0  0  0  0  0  0
  145.7093  133.8919  153.4041 H   0  0  0  0  0  0  0  0  0  0  0  0
  147.5522  132.5353  151.3722 H   0  0  0  0  0  0  0  0  0  0  0  0
  146.9460  131.8119  152.8421 H   0  0  0  0  0  0  0  0  0  0  0  0
  145.6326  131.0788  150.8636 H   0  0  0  0  0  0  0  0  0  0  0  0
  144.6298  131.9249  152.0167 H   0  0  0  0  0  0  0  0  0  0  0  0
  145.8387  133.1200  149.4845 H   0  0  0  0  0  0  0  0  0  0  0  0
  142.9186  132.5068  150.1425 H   0  0  0  0  0  0  0  0  0  0  0  0
  143.9298  131.6097  149.0128 H   0  0  0  0  0  0  0  0  0  0  0  0
  143.5035  133.2822  148.6727 H   0  0  0  0  0  0  0  0  0  0  0  0
  144.5833  135.1768  150.0344 H   0  0  0  0  0  0  0  0  0  0  0  0
  143.9825  134.4514  151.5056 H   0  0  0  0  0  0  0  0  0  0  0  0
  145.8989  135.9154  152.0132 H   0  0  0  0  0  0  0  0  0  0  0  0
  146.9013  135.0728  150.8563 H   0  0  0  0  0  0  0  0  0  0  0  0
  150.2014  141.0845  154.3466 H   0  0  0  0  0  0  0  0  0  0  0  0
  148.7181  141.0299  155.2935 H   0  0  0  0  0  0  0  0  0  0  0  0
  148.6684  140.8154  153.5387 H   0  0  0  0  0  0  0  0  0  0  0  0
  1  2  1  0  0  0  0
  1 23  1  0  0  0  0
  1 24  1  0  0  0  0
  1 25  1  0  0  0  0
  2 21  1  0  0  0  0
  2  3  2  0  0  0  0
  3  4  1  0  0  0  0
  4  5  1  0  0  0  0
  4 16  1  0  0  0  0
  5  6  1  0  0  0  0
  5 26  1  0  0  0  0
  5 27  1  0  0  0  0
  6  7  2  0  0  0  0
  6  8  1  0  0  0  0
  8  9  1  0  0  0  0
  8 28  1  0  0  0  0
  9 15  1  0  0  0  0
  9 10  1  0  0  0  0
  9 29  1  0  0  0  0
 10 11  1  0  0  0  0
 10 30  1  0  0  0  0
 10 31  1  0  0  0  0
 11 12  1  0  0  0  0
 11 32  1  0  0  0  0
 11 33  1  0  0  0  0
 12 13  1  0  0  0  0
 12 14  1  0  0  0  0
 12 34  1  0  0  0  0
 13 35  1  0  0  0  0
 13 36  1  0  0  0  0
 13 37  1  0  0  0  0
 14 15  1  0  0  0  0
 14 38  1  0  0  0  0
 14 39  1  0  0  0  0
 15 40  1  0  0  0  0
 15 41  1  0  0  0  0
 16 17  2  0  0  0  0
 16 18  1  0  0  0  0
 18 19  1  0  0  0  0
 18 21  2  0  0  0  0
 19 20  3  0  0  0  0
 21 22  1  0  0  0  0
 22 42  1  0  0  0  0
 22 43  1  0  0  0  0
 22 44  1  0  0  0  0
M  END
> <s_m_source_file>
AV-unprocessed.smi

> <i_m_source_file_index>
435

> <i_lp_mmshare_version>
43012

> <i_f3d_flags>
0

> <s_epik_input>
TiNDYyhjMVtDSDNdKWMoPU8pbihuYzFbQ0gzXSlbQ0gyXUMoPU8pW05IXVtDQEBIXTJbQ0gyXVtDSDJdW0NAQEhdKFtDSDNdKVtDSDJdW0NIMl0y

> <s_epik_cmdline>
J2VwaWtfcHl0aG9uJywgJy1waCcsICc3LjAnLCAnLXRuJywgJzgnLCAnLW1hJywgJzIwMCcsICctbWV0YWxfYmluZGluZycsICctaW1hZScsICc8aW5maWxlLm1hZT4nLCAnLW9tYWUnLCAnPG91dGZpbGUubWFlPic=

> <r_lp_tautomer_probability>
1

> <r_epik_Ionization_Penalty>
1.90703e-08

> <r_epik_Ionization_Penalty_Charging>
2.32563e-11

> <r_epik_Ionization_Penalty_Neutral>
1.90471e-08

> <r_epik_State_Penalty>
-0

> <r_epik_Charging_Adjusted_Penalty>
2.32563e-11

> <i_epik_Tot_Q>
0

> <i_epik_Tot_abs_Q>
0

> <r_epik_Metal_State_Penalty>
-0

> <b_epik_Metal_Only>
0

> <s_lp_Force_Field>
OPLS_2005

> <r_lp_Energy>
23.1706

> <b_lp_Chiralities_Consistent>
1

> <s_lp_Variant>
AV-unprocessed.smi:435-1

> <Gold.Version>
5.8.1

> <Gold.Id.Protein>
6NUR|6NUR_protein|mol2

> <Gold.PLP.Fitness>
44.4437

> <Gold.PLP.PLP>
-36.6663

> <Gold.PLP.part.hbond>
-4.0000

> <Gold.PLP.part.metal>
0.0000

> <Gold.PLP.part.buried>
-3.0536

> <Gold.PLP.part.nonpolar>
-30.8242

> <Gold.PLP.part.repulsive>
1.0060

> <Gold.PLP.ligand.clash>
0.0000

> <Gold.PLP.ligand.torsion>
0.5054

> <Gold.PLP.Chemscore.Hbond>
2.9280

> <Gold.PLP.Chemscore.CHOScore>
0.0000

> <Gold.PLP.Chemscore.Metal>
0.0000

> <Gold.Chemscore.Hbonds>
donor molecule, donor type, donor heavy atom, donor atom, acceptor molecule, acceptor atom, score
      L1  H     8    28       P1  7948  0.94
      P1  H  7997  8008       L1    20  1.00
      P1  H 10752 10765       L1    17  1.00

> <Gold.PLP.Chemscore.Internal.Correction>
0.0041

> <Gold.Rescore>
     Score         DG    S(hbond)    S(metal)    S(lipo)     H(rot)  DE(clash)    DE(int)     intcor
     18.58     -19.09       2.46        0.00      78.10       1.46       0.17       0.35       ----

> <Gold.Chemscore.Fitness>
18.5806

> <Gold.Chemscore.DG>
-19.0941

> <Gold.Chemscore.ZeroCoef>
-5.4800

> <Gold.Chemscore.Hbond>
2.4603

> <Gold.Chemscore.Metal>
0.0000

> <Gold.Chemscore.Lipo>
78.1041

> <Gold.Chemscore.Internal_Hbond>
0.0000

> <Gold.Chemscore.DEClash>
0.1654

> <Gold.Chemscore.DEInternal>
0.3480

> <Gold.Chemscore.Rot>
1.4615

> <Gold.Chemscore.Internal.Correction>
   9.000000E+99

> <Gold.Chemscore.Hbonds>
donor molecule, donor type, donor heavy atom, donor atom, acceptor molecule, acceptor atom, score
      L1  H     8    28       P1  7948  0.32
      P1  H  7997  8008       L1    20  1.00
      P1  H 10752 10765       L1    17  0.99

> <Gold.Chemscore.Hbond.Weighted>
-8.2172

> <Gold.Chemscore.Metal.Weighted>
-0.0000

> <Gold.Chemscore.Lipo.Weighted>
-9.1382

> <Gold.Chemscore.Internal_Hbond.Weighted>
0.0000

> <Gold.Chemscore.DEClash.Weighted>
0.1654

> <Gold.Chemscore.DEInternal.Weighted>
0.3480

> <Gold.Chemscore.Rot.Weighted>
3.7414

> <Gold.Chemscore.Internal.Correction.Weighted>
   9.000000E+99

> <Gold.Protein.RotatedTorsions>
[ 6907 6896 6895 6894 ] final -171.19 input  -60.11 | X-H torsion
[ 7974 7965 7964 7962 ] final  -72.23 input  175.53 | X-H torsion
[ 8008 7997 7996 7995 ] final  -26.90 input   59.86 | X-H torsion
[ 10167 10162 10161 10158 ] final  -92.10 input  -65.29 | X-H torsion
[ 10718 10713 10712 10709 ] final    4.04 input   66.30 | X-H torsion
[ 10763 10752 10751 10750 ] final -158.47 input  -60.55 | X-H torsion
[ 11005 11000 10999 10996 ] final  156.15 input  -57.11 | X-H torsion

> <Gold.Protein.ActiveResidues>
 VAL166  LYS551  ARG553  GLY616  TRP617  ASP618  TYR619  PRO620  LYS621  CYS622 
 ASP623  PHE694  ASN695  SER759  ASP760  ASP761  ALA762  ILE779  LEU786  VAL792 
 PHE793  MET794  SER795  GLU796  ALA797  LYS798  CYS799  TRP800  GLU811  SER814 

> <Gold.Protein.RotatedAtoms>
  151.5198  133.3469  159.2899 H   0  0  0  0  0  0  0  0  0  0  0  0  # atno 6907 bound_to 6896
  150.8660  134.8025  159.7130 H   0  0  0  0  0  0  0  0  0  0  0  0  # atno 6908 bound_to 6896
  152.4664  134.5074  159.9795 H   0  0  0  0  0  0  0  0  0  0  0  0  # atno 6909 bound_to 6896
  145.6678  140.9231  143.0899 H   0  0  0  0  0  0  0  0  0  0  0  0  # atno 7974 bound_to 7965
  154.4403  140.1887  156.0848 H   0  0  0  0  0  0  0  0  0  0  0  0  # atno 8008 bound_to 7997
  156.0411  140.3319  155.7219 H   0  0  0  0  0  0  0  0  0  0  0  0  # atno 8009 bound_to 7997
  155.5698  140.0611  157.2800 H   0  0  0  0  0  0  0  0  0  0  0  0  # atno 8010 bound_to 7997
  140.3383  143.2956  151.9865 H   0  0  0  0  0  0  0  0  0  0  0  0  # atno 10167 bound_to 10162
  156.8867  130.5673  149.5651 H   0  0  0  0  0  0  0  0  0  0  0  0  # atno 10718 bound_to 10713
  154.7554  135.3103  154.8480 H   0  0  0  0  0  0  0  0  0  0  0  0  # atno 10763 bound_to 10752
  153.9256  135.6791  153.4751 H   0  0  0  0  0  0  0  0  0  0  0  0  # atno 10764 bound_to 10752
  153.1151  135.4848  154.9031 H   0  0  0  0  0  0  0  0  0  0  0  0  # atno 10765 bound_to 10752
  140.1648  134.8584  157.2619 H   0  0  0  0  0  0  0  0  0  0  0  0  # atno 11005 bound_to 11000
  144.7067  139.8533  143.7428 LP  0  0  0  0  0  0  0  0  0  0  0  0  # atno 17320 bound_to 7965
  146.1071  139.4071  143.0311 LP  0  0  0  0  0  0  0  0  0  0  0  0  # atno 17321 bound_to 7965
  139.4845  144.6178  151.7312 LP  0  0  0  0  0  0  0  0  0  0  0  0  # atno 17342 bound_to 10162
  140.5333  144.0695  150.6061 LP  0  0  0  0  0  0  0  0  0  0  0  0  # atno 17343 bound_to 10162
  156.0650  130.5695  150.9269 LP  0  0  0  0  0  0  0  0  0  0  0  0  # atno 17370 bound_to 10713
  157.6108  131.0936  150.8798 LP  0  0  0  0  0  0  0  0  0  0  0  0  # atno 17371 bound_to 10713
  140.2447  134.3754  155.7466 LP  0  0  0  0  0  0  0  0  0  0  0  0  # atno 17394 bound_to 11000
  141.2212  133.7284  156.8843 LP  0  0  0  0  0  0  0  0  0  0  0  0  # atno 17395 bound_to 11000

$$$$
