AV-unprocessed.smi:1602|AV-procd|sdf|6439|dock5
  -GOLD-   22720 7 83D 1   1.00000     0.00000
 Structure written by MMmdl.
 36 37  0  0  0  0  0  0  0  0  1 V2000
  149.8409  141.5262  155.5197 C   0  0  0  0  0  0  0  0  0  0  0  0
  150.5258  141.2190  156.8573 C   0  0  2  0  0  0  0  0  0  0  0  0
  150.7702  142.4871  157.6975 C   0  0  0  0  0  0  0  0  0  0  0  0
  151.6606  142.2418  158.8183 N   0  0  0  0  0  0  0  0  0  0  0  0
  152.1543  143.1464  159.7347 C   0  0  0  0  0  0  0  0  0  0  0  0
  152.9681  142.4577  160.5876 C   0  0  0  0  0  0  0  0  0  0  0  0
  152.9050  141.1196  160.1073 C   0  0  0  0  0  0  0  0  0  0  0  0
  152.1189  140.9929  159.0504 N   0  0  0  0  0  0  0  0  0  0  0  0
  151.7964  140.5346  156.6049 N   0  0  0  0  0  0  0  0  0  0  0  0
  151.7958  139.0845  155.6729 S   0  0  0  0  0  0  0  0  0  0  0  0
  151.0737  139.3292  154.4150 O   0  0  0  0  0  0  0  0  0  0  0  0
  153.1656  138.5485  155.6689 O   0  0  0  0  0  0  0  0  0  0  0  0
  150.8057  138.0943  156.6897 N   0  0  0  0  0  0  0  0  0  0  0  0
  150.5114  136.7274  156.2214 C   0  0  0  0  0  0  0  0  0  0  0  0
  149.4588  136.0485  157.1123 C   0  0  0  0  0  0  0  0  0  0  0  0
  149.8686  136.0892  158.4703 O   0  0  0  0  0  0  0  0  0  0  0  0
  149.9830  137.4249  158.9356 C   0  0  0  0  0  0  0  0  0  0  0  0
  151.0629  138.1730  158.1370 C   0  0  0  0  0  0  0  0  0  0  0  0
  148.8753  142.0074  155.6765 H   0  0  0  0  0  0  0  0  0  0  0  0
  149.6644  140.6130  154.9501 H   0  0  0  0  0  0  0  0  0  0  0  0
  150.4483  142.1917  154.9053 H   0  0  0  0  0  0  0  0  0  0  0  0
  149.8733  140.5496  157.4204 H   0  0  0  0  0  0  0  0  0  0  0  0
  151.1944  143.2808  157.0810 H   0  0  0  0  0  0  0  0  0  0  0  0
  149.8257  142.8676  158.0892 H   0  0  0  0  0  0  0  0  0  0  0  0
  151.8941  144.1939  159.6987 H   0  0  0  0  0  0  0  0  0  0  0  0
  153.5256  142.8499  161.4250 H   0  0  0  0  0  0  0  0  0  0  0  0
  153.4041  140.2428  160.4926 H   0  0  0  0  0  0  0  0  0  0  0  0
  152.5417  141.1722  156.3264 H   0  0  0  0  0  0  0  0  0  0  0  0
  150.1577  136.7511  155.1913 H   0  0  0  0  0  0  0  0  0  0  0  0
  151.4348  136.1470  156.2270 H   0  0  0  0  0  0  0  0  0  0  0  0
  148.4861  136.5301  156.9985 H   0  0  0  0  0  0  0  0  0  0  0  0
  149.3323  135.0079  156.8135 H   0  0  0  0  0  0  0  0  0  0  0  0
  149.0208  137.9338  158.8576 H   0  0  0  0  0  0  0  0  0  0  0  0
  150.2461  137.4084  159.9935 H   0  0  0  0  0  0  0  0  0  0  0  0
  152.0451  137.7459  158.3432 H   0  0  0  0  0  0  0  0  0  0  0  0
  151.0955  139.2170  158.4493 H   0  0  0  0  0  0  0  0  0  0  0  0
  1  2  1  0  0  0  0
  1 19  1  0  0  0  0
  1 20  1  0  0  0  0
  1 21  1  0  0  0  0
  2  3  1  0  0  0  0
  2  9  1  0  0  0  0
  2 22  1  0  0  0  0
  3  4  1  0  0  0  0
  3 23  1  0  0  0  0
  3 24  1  0  0  0  0
  4  8  1  0  0  0  0
  4  5  1  0  0  0  0
  5  6  2  0  0  0  0
  5 25  1  0  0  0  0
  6  7  1  0  0  0  0
  6 26  1  0  0  0  0
  7  8  2  0  0  0  0
  7 27  1  0  0  0  0
  9 10  1  0  0  0  0
  9 28  1  0  0  0  0
 10 11  2  0  0  0  0
 10 12  2  0  0  0  0
 10 13  1  0  0  0  0
 13 18  1  0  0  0  0
 13 14  1  0  0  0  0
 14 15  1  0  0  0  0
 14 29  1  0  0  0  0
 14 30  1  0  0  0  0
 15 16  1  0  0  0  0
 15 31  1  0  0  0  0
 15 32  1  0  0  0  0
 16 17  1  0  0  0  0
 17 18  1  0  0  0  0
 17 33  1  0  0  0  0
 17 34  1  0  0  0  0
 18 35  1  0  0  0  0
 18 36  1  0  0  0  0
M  END
> <s_m_source_file>
AV-unprocessed.smi

> <i_m_source_file_index>
1602

> <i_lp_mmshare_version>
43012

> <i_f3d_flags>
0

> <s_epik_input>
bjFbY0hdW2NIXVtjSF1uMVtDSDJdW0NAQEhdKFtDSDNdKVtOSF1TKD1PKSg9TylOMltDSDJdW0NIMl1PW0NIMl1bQ0gyXTI=

> <s_epik_cmdline>
J2VwaWtfcHl0aG9uJywgJy1waCcsICc3LjAnLCAnLXRuJywgJzgnLCAnLW1hJywgJzIwMCcsICctbWV0YWxfYmluZGluZycsICctaW1hZScsICc8aW5maWxlLm1hZT4nLCAnLW9tYWUnLCAnPG91dGZpbGUubWFlPic=

> <r_lp_tautomer_probability>
1

> <r_epik_Ionization_Penalty>
0.114248

> <r_epik_Ionization_Penalty_Charging>
0

> <r_epik_Ionization_Penalty_Neutral>
0.114248

> <r_epik_State_Penalty>
0.103909

> <r_epik_Charging_Adjusted_Penalty>
0.103909

> <i_epik_Tot_Q>
0

> <i_epik_Tot_abs_Q>
0

> <r_epik_Metal_State_Penalty>
0.436178

> <b_epik_Metal_Only>
0

> <s_lp_Force_Field>
OPLS_2005

> <r_lp_Energy>
7.48288

> <b_lp_Chiralities_Consistent>
1

> <s_lp_Variant>
AV-unprocessed.smi:1602-1

> <Gold.Version>
5.8.1

> <Gold.Id.Protein>
6NUR|6NUR_protein|mol2

> <Gold.PLP.Fitness>
40.1046

> <Gold.PLP.PLP>
-31.4231

> <Gold.PLP.part.hbond>
-3.0000

> <Gold.PLP.part.metal>
0.0000

> <Gold.PLP.part.buried>
-4.0802

> <Gold.PLP.part.nonpolar>
-24.5303

> <Gold.PLP.part.repulsive>
0.1365

> <Gold.PLP.ligand.clash>
0.0000

> <Gold.PLP.ligand.torsion>
0.5338

> <Gold.PLP.Chemscore.Hbond>
3.0000

> <Gold.PLP.Chemscore.CHOScore>
0.0000

> <Gold.PLP.Chemscore.Metal>
0.0000

> <Gold.Chemscore.Hbonds>
donor molecule, donor type, donor heavy atom, donor atom, acceptor molecule, acceptor atom, score
      P1  H  6896  6907       L1    16  1.00
      P1  H  7989  7998       L1    11  1.00
      P1  H  7997  8008       L1    12  0.95

> <Gold.PLP.Chemscore.Internal.Correction>
0.7491

> <Gold.Rescore>
     Score         DG    S(hbond)    S(metal)    S(lipo)     H(rot)  DE(clash)    DE(int)     intcor
     15.83     -17.95       2.84        0.00      68.54       1.97       0.04       2.07       ----

> <Gold.Chemscore.Fitness>
15.8319

> <Gold.Chemscore.DG>
-17.9466

> <Gold.Chemscore.ZeroCoef>
-5.4800

> <Gold.Chemscore.Hbond>
2.8378

> <Gold.Chemscore.Metal>
0.0000

> <Gold.Chemscore.Lipo>
68.5443

> <Gold.Chemscore.Internal_Hbond>
0.0000

> <Gold.Chemscore.DEClash>
0.0419

> <Gold.Chemscore.DEInternal>
2.0728

> <Gold.Chemscore.Rot>
1.9654

> <Gold.Chemscore.Internal.Correction>
   9.000000E+99

> <Gold.Chemscore.Hbonds>
donor molecule, donor type, donor heavy atom, donor atom, acceptor molecule, acceptor atom, score
      P1  H  6896  6907       L1    16  0.76
      P1  H  7989  7998       L1    11  0.88
      P1  H  7997  8008       L1    12  0.47

> <Gold.Chemscore.Hbond.Weighted>
-9.4784

> <Gold.Chemscore.Metal.Weighted>
-0.0000

> <Gold.Chemscore.Lipo.Weighted>
-8.0197

> <Gold.Chemscore.Internal_Hbond.Weighted>
0.0000

> <Gold.Chemscore.DEClash.Weighted>
0.0419

> <Gold.Chemscore.DEInternal.Weighted>
2.0728

> <Gold.Chemscore.Rot.Weighted>
5.0315

> <Gold.Chemscore.Internal.Correction.Weighted>
   9.000000E+99

> <Gold.Protein.RotatedTorsions>
[ 6907 6896 6895 6894 ] final  -51.16 input  -60.11 | X-H torsion
[ 7974 7965 7964 7962 ] final  -93.47 input  175.53 | X-H torsion
[ 8008 7997 7996 7995 ] final  -28.84 input   59.86 | X-H torsion
[ 10167 10162 10161 10158 ] final  -37.78 input  -65.29 | X-H torsion
[ 10718 10713 10712 10709 ] final  -90.41 input   66.30 | X-H torsion
[ 10763 10752 10751 10750 ] final  -25.12 input  -60.55 | X-H torsion
[ 11005 11000 10999 10996 ] final  106.44 input  -57.11 | X-H torsion

> <Gold.Protein.ActiveResidues>
 VAL166  LYS551  ARG553  GLY616  TRP617  ASP618  TYR619  PRO620  LYS621  CYS622 
 ASP623  PHE694  ASN695  SER759  ASP760  ASP761  ALA762  ILE779  LEU786  VAL792 
 PHE793  MET794  SER795  GLU796  ALA797  LYS798  CYS799  TRP800  GLU811  SER814 

> <Gold.Protein.RotatedAtoms>
  150.8638  134.7996  159.7102 H   0  0  0  0  0  0  0  0  0  0  0  0  # atno 6907 bound_to 6896
  152.4666  134.5057  159.9748 H   0  0  0  0  0  0  0  0  0  0  0  0  # atno 6908 bound_to 6896
  151.5157  133.3438  159.2928 H   0  0  0  0  0  0  0  0  0  0  0  0  # atno 6909 bound_to 6896
  145.3861  140.9523  143.2366 H   0  0  0  0  0  0  0  0  0  0  0  0  # atno 7974 bound_to 7965
  154.4315  140.1834  156.1152 H   0  0  0  0  0  0  0  0  0  0  0  0  # atno 8008 bound_to 7997
  156.0186  140.3343  155.6989 H   0  0  0  0  0  0  0  0  0  0  0  0  # atno 8009 bound_to 7997
  155.6009  140.0640  157.2724 H   0  0  0  0  0  0  0  0  0  0  0  0  # atno 8010 bound_to 7997
  140.7109  143.3319  151.2549 H   0  0  0  0  0  0  0  0  0  0  0  0  # atno 10167 bound_to 10162
  155.9988  130.4909  150.5319 H   0  0  0  0  0  0  0  0  0  0  0  0  # atno 10718 bound_to 10713
  153.6947  135.6959  153.5080 H   0  0  0  0  0  0  0  0  0  0  0  0  # atno 10763 bound_to 10752
  153.2386  135.4313  155.0673 H   0  0  0  0  0  0  0  0  0  0  0  0  # atno 10764 bound_to 10752
  154.8362  135.3502  154.6488 H   0  0  0  0  0  0  0  0  0  0  0  0  # atno 10765 bound_to 10752
  139.8814  134.9369  156.5667 H   0  0  0  0  0  0  0  0  0  0  0  0  # atno 11005 bound_to 11000
  144.8473  139.5377  143.6872 LP  0  0  0  0  0  0  0  0  0  0  0  0  # atno 17320 bound_to 7965
  146.2819  139.6901  142.9223 LP  0  0  0  0  0  0  0  0  0  0  0  0  # atno 17321 bound_to 7965
  139.6804  143.9865  152.2805 LP  0  0  0  0  0  0  0  0  0  0  0  0  # atno 17342 bound_to 10162
  139.9493  144.6631  150.8188 LP  0  0  0  0  0  0  0  0  0  0  0  0  # atno 17343 bound_to 10162
  157.3267  131.0692  151.1891 LP  0  0  0  0  0  0  0  0  0  0  0  0  # atno 17370 bound_to 10713
  157.2786  130.6739  149.6055 LP  0  0  0  0  0  0  0  0  0  0  0  0  # atno 17371 bound_to 10713
  140.8129  133.8415  155.8826 LP  0  0  0  0  0  0  0  0  0  0  0  0  # atno 17394 bound_to 11000
  140.9489  134.1804  157.4742 LP  0  0  0  0  0  0  0  0  0  0  0  0  # atno 17395 bound_to 11000

$$$$
