AV-unprocessed.smi:3336|AV-procd|sdf|12859|dock5
  -GOLD-   2272019253D 1   1.00000     0.00000
 Structure written by MMmdl.
 41 42  0  0  0  0  0  0  0  0  1 V2000
  152.1940  144.7599  157.7665 C   0  0  0  0  0  0  0  0  0  0  0  0
  151.3502  143.5177  158.0959 C   0  0  2  0  0  0  0  0  0  0  0  0
  152.1497  142.5089  158.9442 C   0  0  0  0  0  0  0  0  0  0  0  0
  152.2736  142.9304  160.3286 N   0  0  0  0  0  0  0  0  0  0  0  0
  151.8443  144.1052  160.9099 C   0  0  0  0  0  0  0  0  0  0  0  0
  152.1965  144.0581  162.2283 C   0  0  0  0  0  0  0  0  0  0  0  0
  152.8455  142.7985  162.3598 C   0  0  0  0  0  0  0  0  0  0  0  0
  152.8876  142.1242  161.2220 N   0  0  0  0  0  0  0  0  0  0  0  0
  150.9476  142.8683  156.8473 N   0  0  0  0  0  0  0  0  0  0  0  0
  150.5064  141.4667  156.9887 C   0  0  1  0  0  0  0  0  0  0  0  0
  149.0190  141.4451  157.3771 C   0  0  0  0  0  0  0  0  0  0  0  0
  150.7301  140.6245  155.7093 C   0  0  0  0  0  0  0  0  0  0  0  0
  150.1700  140.9852  154.6722 O   0  0  0  0  0  0  0  0  0  0  0  0
  151.5212  139.5222  155.7433 N   0  0  0  0  0  0  0  0  0  0  0  0
  151.8030  138.7134  154.5519 C   0  0  0  0  0  0  0  0  0  0  0  0
  151.2110  137.3085  154.7576 C   0  0  0  0  0  0  0  0  0  0  0  0
  151.7774  136.7219  155.9259 O   0  0  0  0  0  0  0  0  0  0  0  0
  151.5418  137.4913  157.1014 C   0  0  0  0  0  0  0  0  0  0  0  0
  152.1268  138.9056  156.9302 C   0  0  0  0  0  0  0  0  0  0  0  0
  152.5311  145.2526  158.6790 H   0  0  0  0  0  0  0  0  0  0  0  0
  151.6266  145.4948  157.1957 H   0  0  0  0  0  0  0  0  0  0  0  0
  153.0798  144.4979  157.1868 H   0  0  0  0  0  0  0  0  0  0  0  0
  150.4820  143.8334  158.6754 H   0  0  0  0  0  0  0  0  0  0  0  0
  151.6868  141.5213  158.9164 H   0  0  0  0  0  0  0  0  0  0  0  0
  153.1551  142.3903  158.5376 H   0  0  0  0  0  0  0  0  0  0  0  0
  151.3358  144.8701  160.3415 H   0  0  0  0  0  0  0  0  0  0  0  0
  152.0210  144.8106  162.9827 H   0  0  0  0  0  0  0  0  0  0  0  0
  153.2842  142.3571  163.2425 H   0  0  0  0  0  0  0  0  0  0  0  0
  150.2613  143.4374  156.3735 H   0  0  0  0  0  0  0  0  0  0  0  0
  151.0811  141.0447  157.8104 H   0  0  0  0  0  0  0  0  0  0  0  0
  148.6573  140.4289  157.5353 H   0  0  0  0  0  0  0  0  0  0  0  0
  148.3982  141.8992  156.6032 H   0  0  0  0  0  0  0  0  0  0  0  0
  148.8488  141.9963  158.3024 H   0  0  0  0  0  0  0  0  0  0  0  0
  151.4062  139.1476  153.6334 H   0  0  0  0  0  0  0  0  0  0  0  0
  152.8827  138.6481  154.4088 H   0  0  0  0  0  0  0  0  0  0  0  0
  150.1245  137.3520  154.8489 H   0  0  0  0  0  0  0  0  0  0  0  0
  151.4356  136.6747  153.8997 H   0  0  0  0  0  0  0  0  0  0  0  0
  150.4713  137.5365  157.3079 H   0  0  0  0  0  0  0  0  0  0  0  0
  152.0091  136.9898  157.9491 H   0  0  0  0  0  0  0  0  0  0  0  0
  153.2078  138.8516  156.7942 H   0  0  0  0  0  0  0  0  0  0  0  0
  151.9683  139.4555  157.8542 H   0  0  0  0  0  0  0  0  0  0  0  0
  1  2  1  0  0  0  0
  1 20  1  0  0  0  0
  1 21  1  0  0  0  0
  1 22  1  0  0  0  0
  2  3  1  0  0  0  0
  2  9  1  0  0  0  0
  2 23  1  0  0  0  0
  3  4  1  0  0  0  0
  3 24  1  0  0  0  0
  3 25  1  0  0  0  0
  4  8  1  0  0  0  0
  4  5  1  0  0  0  0
  5  6  2  0  0  0  0
  5 26  1  0  0  0  0
  6  7  1  0  0  0  0
  6 27  1  0  0  0  0
  7  8  2  0  0  0  0
  7 28  1  0  0  0  0
  9 10  1  0  0  0  0
  9 29  1  0  0  0  0
 10 11  1  0  0  0  0
 10 12  1  0  0  0  0
 10 30  1  0  0  0  0
 11 31  1  0  0  0  0
 11 32  1  0  0  0  0
 11 33  1  0  0  0  0
 12 13  2  0  0  0  0
 12 14  1  0  0  0  0
 14 19  1  0  0  0  0
 14 15  1  0  0  0  0
 15 16  1  0  0  0  0
 15 34  1  0  0  0  0
 15 35  1  0  0  0  0
 16 17  1  0  0  0  0
 16 36  1  0  0  0  0
 16 37  1  0  0  0  0
 17 18  1  0  0  0  0
 18 19  1  0  0  0  0
 18 38  1  0  0  0  0
 18 39  1  0  0  0  0
 19 40  1  0  0  0  0
 19 41  1  0  0  0  0
M  END
> <s_m_source_file>
AV-unprocessed.smi

> <i_m_source_file_index>
3336

> <i_lp_mmshare_version>
43012

> <i_f3d_flags>
0

> <s_epik_input>
bjFbY0hdW2NIXVtjSF1uMVtDSDJdW0NAQEhdKFtDSDNdKVtOSF1bQ0BIXShbQ0gzXSlDKD1PKU4yW0NIMl1bQ0gyXU9bQ0gyXVtDSDJdMg==

> <s_epik_cmdline>
J2VwaWtfcHl0aG9uJywgJy1waCcsICc3LjAnLCAnLXRuJywgJzgnLCAnLW1hJywgJzIwMCcsICctbWV0YWxfYmluZGluZycsICctaW1hZScsICc8aW5maWxlLm1hZT4nLCAnLW9tYWUnLCAnPG91dGZpbGUubWFlPic=

> <r_lp_tautomer_probability>
1

> <r_epik_Ionization_Penalty>
0.739958

> <r_epik_Ionization_Penalty_Charging>
0

> <r_epik_Ionization_Penalty_Neutral>
0.739958

> <r_epik_State_Penalty>
0.765967

> <r_epik_Charging_Adjusted_Penalty>
0.765967

> <i_epik_Tot_Q>
0

> <i_epik_Tot_abs_Q>
0

> <r_epik_Metal_State_Penalty>
0.765947

> <b_epik_Metal_Only>
0

> <s_lp_Force_Field>
OPLS_2005

> <r_lp_Energy>
28.023

> <b_lp_Chiralities_Consistent>
1

> <s_lp_Variant>
AV-unprocessed.smi:3336-7

> <Gold.Version>
5.8.1

> <Gold.Id.Protein>
6NUR|6NUR_protein|mol2

> <Gold.PLP.Fitness>
51.8094

> <Gold.PLP.PLP>
-45.6170

> <Gold.PLP.part.hbond>
-2.8708

> <Gold.PLP.part.metal>
0.0000

> <Gold.PLP.part.buried>
-4.8453

> <Gold.PLP.part.nonpolar>
-37.4441

> <Gold.PLP.part.repulsive>
0.1800

> <Gold.PLP.ligand.clash>
0.0000

> <Gold.PLP.ligand.torsion>
0.6159

> <Gold.PLP.Chemscore.Hbond>
2.4511

> <Gold.PLP.Chemscore.CHOScore>
0.0000

> <Gold.PLP.Chemscore.Metal>
0.0000

> <Gold.Chemscore.Hbonds>
donor molecule, donor type, donor heavy atom, donor atom, acceptor molecule, acceptor atom, score
      L1  H     9    29       P1  8028  1.00
      P1  H  7989  7998       L1    13  0.67
      P1  H 10752 10765       L1    17  0.94

> <Gold.PLP.Chemscore.Internal.Correction>
0.0710

> <Gold.Rescore>
     Score         DG    S(hbond)    S(metal)    S(lipo)     H(rot)  DE(clash)    DE(int)     intcor
     18.61     -19.16       1.76        0.00     105.95       1.79       0.04       0.50       ----

> <Gold.Chemscore.Fitness>
18.6117

> <Gold.Chemscore.DG>
-19.1612

> <Gold.Chemscore.ZeroCoef>
-5.4800

> <Gold.Chemscore.Hbond>
1.7595

> <Gold.Chemscore.Metal>
0.0000

> <Gold.Chemscore.Lipo>
105.9470

> <Gold.Chemscore.Internal_Hbond>
0.0000

> <Gold.Chemscore.DEClash>
0.0448

> <Gold.Chemscore.DEInternal>
0.5047

> <Gold.Chemscore.Rot>
1.7935

> <Gold.Chemscore.Internal.Correction>
   9.000000E+99

> <Gold.Chemscore.Hbonds>
donor molecule, donor type, donor heavy atom, donor atom, acceptor molecule, acceptor atom, score
      L1  H     9    29       P1  8028  0.96
      P1  H  7989  7998       L1    13  0.17
      P1  H 10752 10765       L1    17  0.20

> <Gold.Chemscore.Hbond.Weighted>
-5.8766

> <Gold.Chemscore.Metal.Weighted>
-0.0000

> <Gold.Chemscore.Lipo.Weighted>
-12.3958

> <Gold.Chemscore.Internal_Hbond.Weighted>
0.0000

> <Gold.Chemscore.DEClash.Weighted>
0.0448

> <Gold.Chemscore.DEInternal.Weighted>
0.5047

> <Gold.Chemscore.Rot.Weighted>
4.5912

> <Gold.Chemscore.Internal.Correction.Weighted>
   9.000000E+99

> <Gold.Protein.RotatedTorsions>
[ 6907 6896 6895 6894 ] final   34.16 input  -60.11 | X-H torsion
[ 7974 7965 7964 7962 ] final -120.58 input  175.53 | X-H torsion
[ 8008 7997 7996 7995 ] final   56.44 input   59.86 | X-H torsion
[ 10167 10162 10161 10158 ] final  125.99 input  -65.29 | X-H torsion
[ 10718 10713 10712 10709 ] final  -22.45 input   66.30 | X-H torsion
[ 10763 10752 10751 10750 ] final -151.60 input  -60.55 | X-H torsion
[ 11005 11000 10999 10996 ] final   90.80 input  -57.11 | X-H torsion

> <Gold.Protein.ActiveResidues>
 VAL166  LYS551  ARG553  GLY616  TRP617  ASP618  TYR619  PRO620  LYS621  CYS622 
 ASP623  PHE694  ASN695  SER759  ASP760  ASP761  ALA762  ILE779  LEU786  VAL792 
 PHE793  MET794  SER795  GLU796  ALA797  LYS798  CYS799  TRP800  GLU811  SER814 

> <Gold.Protein.RotatedAtoms>
  152.0986  134.9358  160.0569 H   0  0  0  0  0  0  0  0  0  0  0  0  # atno 6907 bound_to 6896
  152.0581  133.4044  159.4414 H   0  0  0  0  0  0  0  0  0  0  0  0  # atno 6908 bound_to 6896
  150.6838  134.3152  159.4806 H   0  0  0  0  0  0  0  0  0  0  0  0  # atno 6909 bound_to 6896
  145.0498  140.8210  143.4216 H   0  0  0  0  0  0  0  0  0  0  0  0  # atno 7974 bound_to 7965
  155.5176  140.3479  155.4400 H   0  0  0  0  0  0  0  0  0  0  0  0  # atno 8008 bound_to 7997
  156.0807  140.1386  156.9743 H   0  0  0  0  0  0  0  0  0  0  0  0  # atno 8009 bound_to 7997
  154.4578  140.0946  156.6783 H   0  0  0  0  0  0  0  0  0  0  0  0  # atno 8010 bound_to 7997
  139.5655  144.6908  151.3922 H   0  0  0  0  0  0  0  0  0  0  0  0  # atno 10167 bound_to 10162
  156.5044  130.4595  149.6683 H   0  0  0  0  0  0  0  0  0  0  0  0  # atno 10718 bound_to 10713
  154.8048  135.3256  154.7460 H   0  0  0  0  0  0  0  0  0  0  0  0  # atno 10763 bound_to 10752
  153.8121  135.6895  153.4844 H   0  0  0  0  0  0  0  0  0  0  0  0  # atno 10764 bound_to 10752
  153.1786  135.4595  154.9942 H   0  0  0  0  0  0  0  0  0  0  0  0  # atno 10765 bound_to 10752
  139.8849  134.8636  156.3337 H   0  0  0  0  0  0  0  0  0  0  0  0  # atno 11005 bound_to 11000
  145.1541  139.2497  143.5425 LP  0  0  0  0  0  0  0  0  0  0  0  0  # atno 17320 bound_to 7965
  146.3517  140.1251  142.8599 LP  0  0  0  0  0  0  0  0  0  0  0  0  # atno 17321 bound_to 7965
  140.6938  143.7798  150.7295 LP  0  0  0  0  0  0  0  0  0  0  0  0  # atno 17342 bound_to 10162
  140.1288  143.4545  152.2267 LP  0  0  0  0  0  0  0  0  0  0  0  0  # atno 17343 bound_to 10162
  156.3301  130.7327  151.2255 LP  0  0  0  0  0  0  0  0  0  0  0  0  # atno 17370 bound_to 10713
  157.7459  131.0432  150.4732 LP  0  0  0  0  0  0  0  0  0  0  0  0  # atno 17371 bound_to 10713
  140.9706  133.7330  156.0529 LP  0  0  0  0  0  0  0  0  0  0  0  0  # atno 17394 bound_to 11000
  140.7876  134.3654  157.5472 LP  0  0  0  0  0  0  0  0  0  0  0  0  # atno 17395 bound_to 11000

$$$$
