#       Name:                AV-unprocessed.smi:79
#       Creating user name   scv26
#       Creation time:       Thu Mar 26 17:14:29 2020


#       File generated by GOLD software.
#

@<TRIPOS>MOLECULE
AV-unprocessed.smi:79
    66    69     1
SMALL
NO_CHARGES


@<TRIPOS>ATOM
      1 ****        -3.9351  -1.1674   6.0859 C.3            1 S1                 0.0000
      2 ****        -3.9615  -0.9949   4.5619 C.3            1 S1                 0.0000
      3 ****        -5.2384  -0.5139   4.1940 O.3            1 S1                 0.0000
      4 ****        -2.8879  -0.0034   4.0721 C.3            1 S1                 0.0000
      5 ****        -2.8200   0.0791   2.5904 N.4            1 S1                 1.0000
      6 ****        -2.1193  -1.0759   1.9659 C.3            1 S1                 0.0000
      7 ****        -2.1241  -0.9700   0.4292 C.3            1 S1                 0.0000
      8 ****        -1.5669   0.3067  -0.0052 N.3            1 S1                 0.0000
      9 ****        -0.2144   0.2749  -0.1261 C.ar           1 S1                 0.0000
     10 ****         0.5812   0.8427   0.8181 N.ar           1 S1                 0.0000
     11 ****         1.9113   0.7814   0.7042 C.ar           1 S1                 0.0000
     12 ****         2.6404   0.2032  -0.2520 N.ar           1 S1                 0.0000
     13 ****         1.8468  -0.3765  -1.1975 C.ar           1 S1                 0.0000
     14 ****         0.4242  -0.3888  -1.2088 C.ar           1 S1                 0.0000
     15 ****        -0.0365  -1.0761  -2.3244 N.2            1 S1                 0.0000
     16 ****         1.0529  -1.4489  -2.9394 C.2            1 S1                 0.0000
     17 ****         2.2299  -1.0643  -2.3362 N.pl3          1 S1                 0.0000
     18 ****         3.5809  -1.3445  -2.7985 C.3            1 S1                 0.0000
     19 ****         4.0747  -0.3876  -3.8996 C.3            1 S1                 0.0000
     20 ****         4.0844   1.0480  -3.3362 C.3            1 S1                 0.0000
     21 ****         4.6244   1.9839  -4.2480 O.3            1 S1                 0.0000
     22 ****         5.3495  -0.8411  -4.6256 C.3            1 S1                 0.0000
     23 ****         4.7252  -0.7207  -5.9228 O.3            1 S1                 0.0000
     24 ****         3.4382  -0.5639  -5.2857 C.3            1 S1                 0.0000
     25 ****        -2.2517   1.4647   0.5824 C.3            1 S1                 0.0000
     26 ****        -1.7608   2.8240   0.0480 C.3            1 S1                 0.0000
     27 ****        -2.2823   1.3850   2.1250 C.3            1 S1                 0.0000
     28 ****        -2.9699  -1.5505   6.4186 H              1 S1                 0.0000
     29 ****        -4.6984  -1.8735   6.4148 H              1 S1                 0.0000
     30 ****        -4.1117  -0.2215   6.5993 H              1 S1                 0.0000
     31 ****        -3.8208  -1.9741   4.1056 H              1 S1                 0.0000
     32 ****        -5.4104   0.2854   4.6689 H              1 S1                 0.0000
     33 ****        -3.1108   0.9809   4.4875 H              1 S1                 0.0000
     34 ****        -1.9059  -0.2788   4.4604 H              1 S1                 0.0000
     35 ****        -1.0924  -1.1177   2.3327 H              1 S1                 0.0000
     36 ****        -2.5935  -2.0126   2.2555 H              1 S1                 0.0000
     37 ****        -1.5770  -1.8078  -0.0052 H              1 S1                 0.0000
     38 ****        -3.1454  -1.0469   0.0546 H              1 S1                 0.0000
     39 ****         2.4713   1.2619   1.4930 H              1 S1                 0.0000
     40 ****         1.0252  -2.0194  -3.8559 H              1 S1                 0.0000
     41 ****         4.2532  -1.3172  -1.9402 H              1 S1                 0.0000
     42 ****         3.5993  -2.3761  -3.1523 H              1 S1                 0.0000
     43 ****         3.0759   1.3825  -3.0928 H              1 S1                 0.0000
     44 ****         4.6659   1.0992  -2.4153 H              1 S1                 0.0000
     45 ****         4.6041   2.8399  -3.8479 H              1 S1                 0.0000
     46 ****         6.2014  -0.1710  -4.5050 H              1 S1                 0.0000
     47 ****         5.6386  -1.8713  -4.4126 H              1 S1                 0.0000
     48 ****         2.8316  -1.4643  -5.3876 H              1 S1                 0.0000
     49 ****         2.8953   0.3112  -5.6440 H              1 S1                 0.0000
     50 ****        -3.2859   1.3766   0.2463 H              1 S1                 0.0000
     51 ****        -2.4140   3.6281   0.3875 H              1 S1                 0.0000
     52 ****        -1.7640   2.8400  -1.0423 H              1 S1                 0.0000
     53 ****        -0.7536   3.0682   0.3837 H              1 S1                 0.0000
     54 ****        -2.9098   2.1885   2.5130 H              1 S1                 0.0000
     55 ****        -1.2884   1.5380   2.5460 H              1 S1                 0.0000
     56 ****        -3.7755   0.0453   2.2640 H              1 S1                 0.0000
     57 ****        -5.9332  -1.1963   4.4213 LP             1 S1                 0.0000
     58 ****        -5.2589  -0.3320   3.2109 LP             1 S1                 0.0000
     59 ****        -1.7987   0.4790  -0.9626 LP             1 S1                 0.0000
     60 ****         0.1696   1.3084   1.6015 LP             1 S1                 0.0000
     61 ****         3.6402   0.1959  -0.2727 LP             1 S1                 0.0000
     62 ****        -0.9843  -1.2461  -2.5943 LP             1 S1                 0.0000
     63 ****         4.0794   1.9907  -5.0864 LP             1 S1                 0.0000
     64 ****         5.5684   1.7361  -4.4661 LP             1 S1                 0.0000
     65 ****         4.8027  -1.5397  -6.4913 LP             1 S1                 0.0000
     66 ****         5.0219   0.0778  -6.4466 LP             1 S1                 0.0000
@<TRIPOS>BOND
    1    1    2 1     
    2    1   28 1     
    3    1   29 1     
    4    1   30 1     
    5    2    3 1     
    6    2    4 1     
    7    2   31 1     
    8    3   32 1     
    9    4    5 1     
   10    4   33 1     
   11    4   34 1     
   12    5   27 1     
   13    5    6 1     
   14    5   56 1     
   15    6    7 1     
   16    6   35 1     
   17    6   36 1     
   18    7    8 1     
   19    7   37 1     
   20    7   38 1     
   21    8    9 1     
   22    8   25 1     
   23    9   14 ar    
   24    9   10 ar    
   25   10   11 ar    
   26   11   12 ar    
   27   11   39 1     
   28   12   13 ar    
   29   13   17 1     
   30   13   14 ar    
   31   14   15 1     
   32   15   16 2     
   33   16   17 1     
   34   16   40 1     
   35   17   18 1     
   36   18   19 1     
   37   18   41 1     
   38   18   42 1     
   39   19   24 1     
   40   19   20 1     
   41   19   22 1     
   42   20   21 1     
   43   20   43 1     
   44   20   44 1     
   45   21   45 1     
   46   22   23 1     
   47   22   46 1     
   48   22   47 1     
   49   23   24 1     
   50   24   48 1     
   51   24   49 1     
   52   25   26 1     
   53   25   27 1     
   54   25   50 1     
   55   26   51 1     
   56   26   52 1     
   57   26   53 1     
   58   27   54 1     
   59   27   55 1     
   60    3   57 1     
   61    3   58 1     
   62    8   59 1     
   63   10   60 1     
   64   12   61 1     
   65   15   62 1     
   66   21   63 1     
   67   21   64 1     
   68   23   65 1     
   69   23   66 1     
@<TRIPOS>SUBSTRUCTURE
      1 S1             1
@<TRIPOS>SET
LONE_PAIRS      STATIC     ATOMS    <user>   **** ""
10 57 58 59 60 61 62 63 64 65 66
DONOR_HYDROGENS      STATIC     ATOMS    <user>   **** ""
3 32 56 45
ATOM$BLUE        STATIC     ATOMS    COLORGROUP SYSTEM
10 57 58 59 60 61 62 63 64 65 66
ATOM$RED        STATIC     ATOMS    COLORGROUP SYSTEM
3 32 56 45
