#       Name:                AV-unprocessed.smi:2368
#       Creating user name   scv26
#       Creation time:       Fri Mar 27 13:06:14 2020


#       File generated by GOLD software.
#

@<TRIPOS>MOLECULE
AV-unprocessed.smi:2368
    40    41     1
SMALL
NO_CHARGES


@<TRIPOS>ATOM
      1 ****        -5.7657   1.9456   2.2324 C.3            1 S1                 0.0000
      2 ****        -4.5586   2.0785   1.3228 C.ar           1 S1                 0.0000
      3 ****        -4.5856   3.1214   0.4646 N.ar           1 S1                 0.0000
      4 ****        -3.5396   3.2823  -0.3714 C.ar           1 S1                 0.0000
      5 ****        -2.4237   2.4240  -0.3905 C.ar           1 S1                 0.0000
      6 ****        -2.3841   1.3398   0.5188 C.ar           1 S1                 0.0000
      7 ****        -1.3150   0.4021   0.5720 N.am           1 S1                 0.0000
      8 ****        -0.0333   0.5675   0.2025 C.2            1 S1                 0.0000
      9 ****         0.4465   1.5982  -0.2694 O.2            1 S1                 0.0000
     10 ****         0.6830  -0.5422   0.4315 N.am           1 S1                 0.0000
     11 ****         2.1099  -0.6833   0.1639 C.3            1 S1                 0.0000
     12 ****         2.6502  -1.9259   0.8192 C.2            1 S1                 0.0000
     13 ****         3.2220  -2.7590  -0.0477 C.2            1 S1                 0.0000
     14 ****         3.1624  -2.2512  -1.4651 C.3            1 S1                 0.0000
     15 ****         4.5453  -2.1695  -2.1393 C.3            1 S1                 0.0000
     16 ****         5.4367  -1.3498  -1.4093 O.3            1 S1                 0.0000
     17 ****         2.4248  -0.8924  -1.3415 C.3            1 S1                 0.0000
     18 ****        -3.4865   1.1575   1.3869 C.ar           1 S1                 0.0000
     19 ****        -3.5204  -0.1601   2.5110 Cl             1 S1                 0.0000
     20 ****         2.6549   0.1765   0.5578 H              1 S1                 0.0000
     21 ****         2.5393  -2.9443  -2.0316 H              1 S1                 0.0000
     22 ****        -6.2495   0.9805   2.0821 H              1 S1                 0.0000
     23 ****        -6.5034   2.7253   2.0378 H              1 S1                 0.0000
     24 ****        -5.4625   2.0211   3.2769 H              1 S1                 0.0000
     25 ****        -3.5962   4.1189  -1.0519 H              1 S1                 0.0000
     26 ****        -1.6345   2.6060  -1.1034 H              1 S1                 0.0000
     27 ****        -1.5362  -0.4748   1.0205 H              1 S1                 0.0000
     28 ****         0.2116  -1.3438   0.8243 H              1 S1                 0.0000
     29 ****         2.5807  -2.0907   1.8843 H              1 S1                 0.0000
     30 ****         3.6780  -3.7046   0.2062 H              1 S1                 0.0000
     31 ****         4.9809  -3.1653  -2.2264 H              1 S1                 0.0000
     32 ****         4.4497  -1.7742  -3.1508 H              1 S1                 0.0000
     33 ****         6.2704  -1.3403  -1.8543 H              1 S1                 0.0000
     34 ****         1.5168  -0.9045  -1.9463 H              1 S1                 0.0000
     35 ****         3.0326  -0.0678  -1.7158 H              1 S1                 0.0000
     36 ****        -5.3586   3.7556   0.4496 LP             1 S1                 0.0000
     37 ****        -0.1321   2.4024  -0.4053 LP             1 S1                 0.0000
     38 ****         1.4148   1.6312  -0.5169 LP             1 S1                 0.0000
     39 ****         5.5518  -1.7161  -0.4860 LP             1 S1                 0.0000
     40 ****         5.0725  -0.4200  -1.3561 LP             1 S1                 0.0000
@<TRIPOS>BOND
    1    1    2 1     
    2    1   22 1     
    3    1   23 1     
    4    1   24 1     
    5    2   18 ar    
    6    2    3 ar    
    7    3    4 ar    
    8    4    5 ar    
    9    4   25 1     
   10    5    6 ar    
   11    5   26 1     
   12    6    7 1     
   13    6   18 ar    
   14    7    8 am    
   15    7   27 1     
   16    8    9 2     
   17    8   10 am    
   18   10   11 1     
   19   10   28 1     
   20   11   20 1     
   21   11   17 1     
   22   11   12 1     
   23   12   13 2     
   24   12   29 1     
   25   13   14 1     
   26   13   30 1     
   27   14   21 1     
   28   14   15 1     
   29   14   17 1     
   30   15   16 1     
   31   15   31 1     
   32   15   32 1     
   33   16   33 1     
   34   17   34 1     
   35   17   35 1     
   36   18   19 1     
   37    3   36 1     
   38    9   37 1     
   39    9   38 1     
   40   16   39 1     
   41   16   40 1     
@<TRIPOS>SUBSTRUCTURE
      1 S1             1
@<TRIPOS>SET
LONE_PAIRS      STATIC     ATOMS    <user>   **** ""
5 36 37 38 39 40
DONOR_HYDROGENS      STATIC     ATOMS    <user>   **** ""
3 27 28 33
ATOM$BLUE        STATIC     ATOMS    COLORGROUP SYSTEM
5 36 37 38 39 40
ATOM$RED        STATIC     ATOMS    COLORGROUP SYSTEM
3 27 28 33
