AV-unprocessed.smi:91|AV-procd|sdf|834|dock2
  -GOLD-   2262017263D 1   1.00000     0.00000
 Structure written by MMmdl.
 60 63  0  0  0  0  0  0  0  0  1 V2000
  145.7334  143.4582  161.6194 C   0  0  0  0  0  0  0  0  0  0  0  0
  145.7565  142.5207  160.5546 O   0  0  0  0  0  0  0  0  0  0  0  0
  144.6586  142.6283  159.6577 C   0  0  0  0  0  0  0  0  0  0  0  0
  145.0937  143.0075  158.2309 C   0  0  1  0  0  0  0  0  0  0  0  0
  146.0402  141.9598  157.6178 C   0  0  0  0  0  0  0  0  0  0  0  0
  146.2892  142.2661  156.2137 N   0  0  0  0  0  0  0  0  0  0  0  0
  147.3817  141.6807  155.6584 C   0  0  0  0  0  0  0  0  0  0  0  0
  147.2126  141.0737  154.4546 N   0  0  0  0  0  0  0  0  0  0  0  0
  148.2366  140.4661  153.8496 C   0  0  0  0  0  0  0  0  0  0  0  0
  149.4990  140.3510  154.2626 N   0  0  0  0  0  0  0  0  0  0  0  0
  149.6826  140.9638  155.4663 C   0  0  0  0  0  0  0  0  0  0  0  0
  148.6894  141.6419  156.2317 C   0  0  0  0  0  0  0  0  0  0  0  0
  149.2631  142.1338  157.4004 N   0  0  0  0  0  0  0  0  0  0  0  0
  150.5120  141.7648  157.3325 C   0  0  0  0  0  0  0  0  0  0  0  0
  150.8552  141.0745  156.1934 N   0  0  0  0  0  0  0  0  0  0  0  0
  152.1671  140.5475  155.8610 C   0  0  0  0  0  0  0  0  0  0  0  0
  152.2958  139.0025  155.9402 C   0  0  2  0  0  0  0  0  0  0  0  0
  151.6681  138.4137  154.6532 C   0  0  0  0  0  0  0  0  0  0  0  0
  152.2118  137.1515  154.3262 O   0  0  0  0  0  0  0  0  0  0  0  0
  151.6738  138.4007  157.2385 C   0  0  2  0  0  0  0  0  0  0  0  0
  152.0966  139.0674  158.5496 C   0  0  0  0  0  0  0  0  0  0  0  0
  152.1514  137.9348  159.5790 C   0  0  0  0  0  0  0  0  0  0  0  0
  151.6799  136.7854  158.8953 O   0  0  0  0  0  0  0  0  0  0  0  0
  152.0293  136.9401  157.5325 C   0  0  0  0  0  0  0  0  0  0  0  0
  145.0718  142.3993  155.4238 C   0  0  0  0  0  0  0  0  0  0  0  0
  144.1094  143.4288  156.0551 C   0  0  0  0  0  0  0  0  0  0  0  0
  144.6232  144.8753  155.8893 C   0  0  0  0  0  0  0  0  0  0  0  0
  142.7235  143.3091  155.4031 C   0  0  0  0  0  0  0  0  0  0  0  0
  143.9110  143.1027  157.4354 O   0  0  0  0  0  0  0  0  0  0  0  0
  146.5696  143.2627  162.2905 H   0  0  0  0  0  0  0  0  0  0  0  0
  144.8139  143.3756  162.2003 H   0  0  0  0  0  0  0  0  0  0  0  0
  145.8322  144.4827  161.2615 H   0  0  0  0  0  0  0  0  0  0  0  0
  144.1577  141.6601  159.6327 H   0  0  0  0  0  0  0  0  0  0  0  0
  143.9252  143.3398  160.0405 H   0  0  0  0  0  0  0  0  0  0  0  0
  145.5845  143.9789  158.2558 H   0  0  0  0  0  0  0  0  0  0  0  0
  146.9666  141.9300  158.1916 H   0  0  0  0  0  0  0  0  0  0  0  0
  145.5957  140.9658  157.6837 H   0  0  0  0  0  0  0  0  0  0  0  0
  148.0115  140.0069  152.8984 H   0  0  0  0  0  0  0  0  0  0  0  0
  151.2243  142.0009  158.1099 H   0  0  0  0  0  0  0  0  0  0  0  0
  152.4335  140.8900  154.8601 H   0  0  0  0  0  0  0  0  0  0  0  0
  152.8779  141.0170  156.5423 H   0  0  0  0  0  0  0  0  0  0  0  0
  153.3589  138.7585  155.9223 H   0  0  0  0  0  0  0  0  0  0  0  0
  150.5844  138.3372  154.7474 H   0  0  0  0  0  0  0  0  0  0  0  0
  151.8625  139.0613  153.7978 H   0  0  0  0  0  0  0  0  0  0  0  0
  152.0335  136.9738  153.4154 H   0  0  0  0  0  0  0  0  0  0  0  0
  150.5866  138.4567  157.1638 H   0  0  0  0  0  0  0  0  0  0  0  0
  153.0794  139.5326  158.4674 H   0  0  0  0  0  0  0  0  0  0  0  0
  151.3862  139.8352  158.8539 H   0  0  0  0  0  0  0  0  0  0  0  0
  153.1773  137.7651  159.9089 H   0  0  0  0  0  0  0  0  0  0  0  0
  151.5408  138.1395  160.4586 H   0  0  0  0  0  0  0  0  0  0  0  0
  151.4804  136.2354  156.9075 H   0  0  0  0  0  0  0  0  0  0  0  0
  153.0982  136.7556  157.4113 H   0  0  0  0  0  0  0  0  0  0  0  0
  145.3115  142.6990  154.4027 H   0  0  0  0  0  0  0  0  0  0  0  0
  144.5865  141.4237  155.3724 H   0  0  0  0  0  0  0  0  0  0  0  0
  144.6524  145.1595  154.8371 H   0  0  0  0  0  0  0  0  0  0  0  0
  145.6324  145.0078  156.2783 H   0  0  0  0  0  0  0  0  0  0  0  0
  143.9740  145.5842  156.4037 H   0  0  0  0  0  0  0  0  0  0  0  0
  142.7687  143.5168  154.3335 H   0  0  0  0  0  0  0  0  0  0  0  0
  142.0159  144.0097  155.8479 H   0  0  0  0  0  0  0  0  0  0  0  0
  142.3135  142.3063  155.5278 H   0  0  0  0  0  0  0  0  0  0  0  0
  1  2  1  0  0  0  0
  1 30  1  0  0  0  0
  1 31  1  0  0  0  0
  1 32  1  0  0  0  0
  2  3  1  0  0  0  0
  3  4  1  0  0  0  0
  3 33  1  0  0  0  0
  3 34  1  0  0  0  0
  4 29  1  0  0  0  0
  4  5  1  0  0  0  0
  4 35  1  0  0  0  0
  5  6  1  0  0  0  0
  5 36  1  0  0  0  0
  5 37  1  0  0  0  0
  6  7  1  0  0  0  0
  6 25  1  0  0  0  0
  7 12  1  0  0  0  0
  7  8  2  0  0  0  0
  8  9  1  0  0  0  0
  9 10  2  0  0  0  0
  9 38  1  0  0  0  0
 10 11  1  0  0  0  0
 11 15  1  0  0  0  0
 11 12  2  0  0  0  0
 12 13  1  0  0  0  0
 13 14  2  0  0  0  0
 14 15  1  0  0  0  0
 14 39  1  0  0  0  0
 15 16  1  0  0  0  0
 16 17  1  0  0  0  0
 16 40  1  0  0  0  0
 16 41  1  0  0  0  0
 17 18  1  0  0  0  0
 17 20  1  0  0  0  0
 17 42  1  0  0  0  0
 18 19  1  0  0  0  0
 18 43  1  0  0  0  0
 18 44  1  0  0  0  0
 19 45  1  0  0  0  0
 20 24  1  0  0  0  0
 20 21  1  0  0  0  0
 20 46  1  0  0  0  0
 21 22  1  0  0  0  0
 21 47  1  0  0  0  0
 21 48  1  0  0  0  0
 22 23  1  0  0  0  0
 22 49  1  0  0  0  0
 22 50  1  0  0  0  0
 23 24  1  0  0  0  0
 24 51  1  0  0  0  0
 24 52  1  0  0  0  0
 25 26  1  0  0  0  0
 25 53  1  0  0  0  0
 25 54  1  0  0  0  0
 26 27  1  0  0  0  0
 26 28  1  0  0  0  0
 26 29  1  0  0  0  0
 27 55  1  0  0  0  0
 27 56  1  0  0  0  0
 27 57  1  0  0  0  0
 28 58  1  0  0  0  0
 28 59  1  0  0  0  0
 28 60  1  0  0  0  0
M  END
> <s_m_source_file>
AV-unprocessed.smi

> <i_m_source_file_index>
91

> <i_lp_mmshare_version>
43012

> <i_f3d_flags>
0

> <s_epik_input>
W0NIM11PW0NIMl1bQ0BASF0oTzEpW0NIMl1OKFtDSDJdQzEoW0NIM10pW0NIM10pYyhuW2NIXW4yKWMoYzIzKW5bY0hdbjNbQ0gyXVtDQEhdKFtDSDJdW09IXSlbQ0BASF00W0NIMl1bQ0gyXU9bQ0gyXTQ=

> <s_epik_cmdline>
J2VwaWtfcHl0aG9uJywgJy1waCcsICc3LjAnLCAnLXRuJywgJzgnLCAnLW1hJywgJzIwMCcsICctbWV0YWxfYmluZGluZycsICctaW1hZScsICc8aW5maWxlLm1hZT4nLCAnLW9tYWUnLCAnPG91dGZpbGUubWFlPic=

> <r_lp_tautomer_probability>
1

> <r_epik_Ionization_Penalty>
8.63591e-05

> <r_epik_Ionization_Penalty_Charging>
0

> <r_epik_Ionization_Penalty_Neutral>
8.63591e-05

> <r_epik_State_Penalty>
-0

> <r_epik_Charging_Adjusted_Penalty>
0

> <i_epik_Tot_Q>
0

> <i_epik_Tot_abs_Q>
0

> <r_epik_Metal_State_Penalty>
-0

> <b_epik_Metal_Only>
0

> <s_lp_Force_Field>
OPLS_2005

> <r_lp_Energy>
49.706

> <b_lp_Chiralities_Consistent>
1

> <s_lp_Variant>
AV-unprocessed.smi:91-2

> <Gold.Version>
5.8.1

> <Gold.Id.Protein>
6NUR|6NUR_protein|mol2

> <Gold.PLP.Fitness>
47.6855

> <Gold.PLP.PLP>
-36.2028

> <Gold.PLP.part.hbond>
-4.0000

> <Gold.PLP.part.metal>
0.0000

> <Gold.PLP.part.buried>
-6.0513

> <Gold.PLP.part.nonpolar>
-26.6556

> <Gold.PLP.part.repulsive>
1.4400

> <Gold.PLP.ligand.clash>
0.0000

> <Gold.PLP.ligand.torsion>
1.1929

> <Gold.PLP.Chemscore.Hbond>
3.8080

> <Gold.PLP.Chemscore.CHOScore>
0.6030

> <Gold.PLP.Chemscore.Metal>
0.0000

> <Gold.Chemscore.Hbonds>
donor molecule, donor type, donor heavy atom, donor atom, acceptor molecule, acceptor atom, score
      L1  H    19    45       P1  7949  0.26
      P1  H  6896  6907       L1    23  0.90
      P1  H  6934  6946       L1     2  1.00
      P1  H  7989  7998       L1    10  0.16
      P1  H 10752 10764       L1    19  0.39
      L1  C     9    38       P1  7957  0.82

> <Gold.PLP.Chemscore.Internal.Correction>
0.6355

> <Gold.Rescore>
     Score         DG    S(hbond)    S(metal)    S(lipo)     H(rot)  DE(clash)    DE(int)     intcor
     12.56     -15.38       3.03        0.00      64.38       3.03       1.36       1.45       ----

> <Gold.Chemscore.Fitness>
12.5643

> <Gold.Chemscore.DG>
-15.3823

> <Gold.Chemscore.ZeroCoef>
-5.4800

> <Gold.Chemscore.Hbond>
3.0308

> <Gold.Chemscore.Metal>
0.0000

> <Gold.Chemscore.Lipo>
64.3774

> <Gold.Chemscore.Internal_Hbond>
0.0000

> <Gold.Chemscore.DEClash>
1.3646

> <Gold.Chemscore.DEInternal>
1.4533

> <Gold.Chemscore.Rot>
3.0284

> <Gold.Chemscore.Internal.Correction>
   9.000000E+99

> <Gold.Chemscore.Hbonds>
donor molecule, donor type, donor heavy atom, donor atom, acceptor molecule, acceptor atom, score
      L1  H    19    45       P1  7949  0.27
      P1  H  6896  6907       L1    23  0.82
      P1  H  6934  6946       L1     2  0.91
      P1  H  7989  7998       L1    10  0.02
      P1  H 10752 10764       L1    19  0.02

> <Gold.Chemscore.Hbond.Weighted>
-10.1230

> <Gold.Chemscore.Metal.Weighted>
-0.0000

> <Gold.Chemscore.Lipo.Weighted>
-7.5322

> <Gold.Chemscore.Internal_Hbond.Weighted>
0.0000

> <Gold.Chemscore.DEClash.Weighted>
1.3646

> <Gold.Chemscore.DEInternal.Weighted>
1.4533

> <Gold.Chemscore.Rot.Weighted>
7.7528

> <Gold.Chemscore.Internal.Correction.Weighted>
   9.000000E+99

> <Gold.Protein.RotatedTorsions>
[ 6907 6896 6895 6894 ] final   -7.81 input  -60.11 | X-H torsion
[ 7974 7965 7964 7962 ] final  -81.16 input  175.53 | X-H torsion
[ 8008 7997 7996 7995 ] final -115.80 input   59.86 | X-H torsion
[ 10167 10162 10161 10158 ] final   -1.08 input  -65.29 | X-H torsion
[ 10718 10713 10712 10709 ] final  104.95 input   66.30 | X-H torsion
[ 10763 10752 10751 10750 ] final  -66.26 input  -60.55 | X-H torsion
[ 11005 11000 10999 10996 ] final  154.59 input  -57.11 | X-H torsion

> <Gold.Protein.ActiveResidues>
 VAL166  LYS551  ARG553  GLY616  TRP617  ASP618  TYR619  PRO620  LYS621  CYS622 
 ASP623  PHE694  ASN695  SER759  ASP760  ASP761  ALA762  ILE779  LEU786  VAL792 
 PHE793  MET794  SER795  GLU796  ALA797  LYS798  CYS799  TRP800  GLU811  SER814 

> <Gold.Protein.RotatedAtoms>
  151.4436  135.1023  159.9677 H   0  0  0  0  0  0  0  0  0  0  0  0  # atno 6907 bound_to 6896
  152.4913  133.8505  159.7209 H   0  0  0  0  0  0  0  0  0  0  0  0  # atno 6908 bound_to 6896
  150.9070  133.6986  159.2891 H   0  0  0  0  0  0  0  0  0  0  0  0  # atno 6909 bound_to 6896
  145.5503  140.9497  143.1502 H   0  0  0  0  0  0  0  0  0  0  0  0  # atno 7974 bound_to 7965
  155.0578  140.0393  157.2566 H   0  0  0  0  0  0  0  0  0  0  0  0  # atno 8008 bound_to 7997
  154.7084  140.2688  155.6628 H   0  0  0  0  0  0  0  0  0  0  0  0  # atno 8009 bound_to 7997
  156.2782  140.2726  156.1718 H   0  0  0  0  0  0  0  0  0  0  0  0  # atno 8010 bound_to 7997
  140.6795  143.6818  150.8099 H   0  0  0  0  0  0  0  0  0  0  0  0  # atno 10167 bound_to 10162
  157.6722  131.0816  150.5783 H   0  0  0  0  0  0  0  0  0  0  0  0  # atno 10718 bound_to 10713
  154.3571  135.6124  153.5672 H   0  0  0  0  0  0  0  0  0  0  0  0  # atno 10763 bound_to 10752
  152.9795  135.5806  154.4676 H   0  0  0  0  0  0  0  0  0  0  0  0  # atno 10764 bound_to 10752
  154.4407  135.2850  155.1827 H   0  0  0  0  0  0  0  0  0  0  0  0  # atno 10765 bound_to 10752
  140.1503  134.8679  157.2445 H   0  0  0  0  0  0  0  0  0  0  0  0  # atno 11005 bound_to 11000
  144.7532  139.7139  143.7264 LP  0  0  0  0  0  0  0  0  0  0  0  0  # atno 17320 bound_to 7965
  146.1921  139.5167  142.9798 LP  0  0  0  0  0  0  0  0  0  0  0  0  # atno 17321 bound_to 7965
  140.0516  143.5244  152.2671 LP  0  0  0  0  0  0  0  0  0  0  0  0  # atno 17342 bound_to 10162
  139.6108  144.7608  151.2957 LP  0  0  0  0  0  0  0  0  0  0  0  0  # atno 17343 bound_to 10162
  156.6084  130.4373  149.5869 LP  0  0  0  0  0  0  0  0  0  0  0  0  # atno 17370 bound_to 10713
  156.2450  130.6873  151.1591 LP  0  0  0  0  0  0  0  0  0  0  0  0  # atno 17371 bound_to 10713
  140.2613  134.3568  155.7405 LP  0  0  0  0  0  0  0  0  0  0  0  0  # atno 17394 bound_to 11000
  141.2198  133.7371  156.9084 LP  0  0  0  0  0  0  0  0  0  0  0  0  # atno 17395 bound_to 11000

$$$$
