AV-unprocessed.smi:79|AV-procd|sdf|784|dock9
  -GOLD-   2262017153D 1   1.00000     0.00000
 Structure written by MMmdl.
 56 59  0  0  0  0  0  0  0  0  2 V2000
  143.4657  132.3764  150.5658 C   0  0  0  0  0  0  0  0  0  0  0  0
  144.4476  133.3553  149.9092 C   0  0  1  0  0  0  0  0  0  0  0  0
  143.6999  134.2986  149.1684 O   0  0  0  0  0  0  0  0  0  0  0  0
  145.3100  134.0960  150.9504 C   0  0  0  0  0  0  0  0  0  0  0  0
  144.5585  134.4186  152.1905 N   0  3  1  0  0  0  0  0  0  0  0  0
  145.4434  134.5104  153.3800 C   0  0  0  0  0  0  0  0  0  0  0  0
  144.6282  134.7320  154.6657 C   0  0  0  0  0  0  0  0  0  0  0  0
  143.7417  135.8848  154.5226 N   0  0  0  0  0  0  0  0  0  0  0  0
  144.2516  137.0695  154.9505 C   0  0  0  0  0  0  0  0  0  0  0  0
  143.4420  138.1552  155.0721 N   0  0  0  0  0  0  0  0  0  0  0  0
  143.9365  139.3243  155.4893 C   0  0  0  0  0  0  0  0  0  0  0  0
  145.1898  139.6239  155.8342 N   0  0  0  0  0  0  0  0  0  0  0  0
  146.0081  138.5397  155.7165 C   0  0  0  0  0  0  0  0  0  0  0  0
  145.6250  137.2384  155.2847 C   0  0  0  0  0  0  0  0  0  0  0  0
  146.7267  136.3918  155.3027 N   0  0  0  0  0  0  0  0  0  0  0  0
  147.7055  137.1502  155.7156 C   0  0  0  0  0  0  0  0  0  0  0  0
  147.3646  138.4576  155.9805 N   0  0  0  0  0  0  0  0  0  0  0  0
  148.2489  139.5091  156.4602 C   0  0  0  0  0  0  0  0  0  0  0  0
  149.1951  140.0687  155.3817 C   0  0  0  0  0  0  0  0  0  0  0  0
  148.3479  140.7808  154.3082 C   0  0  0  0  0  0  0  0  0  0  0  0
  149.1230  141.2241  153.2121 O   0  0  0  0  0  0  0  0  0  0  0  0
  150.4031  140.8483  155.9201 C   0  0  0  0  0  0  0  0  0  0  0  0
  151.3333  140.0482  155.1575 O   0  0  0  0  0  0  0  0  0  0  0  0
  150.2754  139.1103  154.8602 C   0  0  0  0  0  0  0  0  0  0  0  0
  142.8639  135.8655  153.3477 C   0  0  2  0  0  0  0  0  0  0  0  0
  141.7285  134.8407  153.5130 C   0  0  0  0  0  0  0  0  0  0  0  0
  143.6796  135.6127  152.0594 C   0  0  0  0  0  0  0  0  0  0  0  0
  143.9965  131.6132  151.1353 H   0  0  0  0  0  0  0  0  0  0  0  0
  142.8604  131.8645  149.8168 H   0  0  0  0  0  0  0  0  0  0  0  0
  142.7874  132.8886  151.2490 H   0  0  0  0  0  0  0  0  0  0  0  0
  145.0741  132.7954  149.2159 H   0  0  0  0  0  0  0  0  0  0  0  0
  142.8103  134.3000  149.4882 H   0  0  0  0  0  0  0  0  0  0  0  0
  146.1694  133.4691  151.1943 H   0  0  0  0  0  0  0  0  0  0  0  0
  145.7167  135.0159  150.5274 H   0  0  0  0  0  0  0  0  0  0  0  0
  146.0286  133.5957  153.4804 H   0  0  0  0  0  0  0  0  0  0  0  0
  146.1519  135.3287  153.2406 H   0  0  0  0  0  0  0  0  0  0  0  0
  144.0260  133.8499  154.8834 H   0  0  0  0  0  0  0  0  0  0  0  0
  145.3081  134.8466  155.5095 H   0  0  0  0  0  0  0  0  0  0  0  0
  143.2263  140.1353  155.5575 H   0  0  0  0  0  0  0  0  0  0  0  0
  148.7089  136.7708  155.8429 H   0  0  0  0  0  0  0  0  0  0  0  0
  147.6391  140.3062  156.8878 H   0  0  0  0  0  0  0  0  0  0  0  0
  148.8209  139.0999  157.2937 H   0  0  0  0  0  0  0  0  0  0  0  0
  147.5796  140.1188  153.9097 H   0  0  0  0  0  0  0  0  0  0  0  0
  147.8348  141.6457  154.7296 H   0  0  0  0  0  0  0  0  0  0  0  0
  149.1291  140.5462  152.5539 H   0  0  0  0  0  0  0  0  0  0  0  0
  150.4231  141.9015  155.6383 H   0  0  0  0  0  0  0  0  0  0  0  0
  150.5621  140.7353  156.9935 H   0  0  0  0  0  0  0  0  0  0  0  0
  150.3801  138.1948  155.4430 H   0  0  0  0  0  0  0  0  0  0  0  0
  150.1985  138.8859  153.7958 H   0  0  0  0  0  0  0  0  0  0  0  0
  142.3753  136.8364  153.2536 H   0  0  0  0  0  0  0  0  0  0  0  0
  141.0386  134.8854  152.6700 H   0  0  0  0  0  0  0  0  0  0  0  0
  141.1522  135.0405  154.4167 H   0  0  0  0  0  0  0  0  0  0  0  0
  142.1021  133.8185  153.5761 H   0  0  0  0  0  0  0  0  0  0  0  0
  144.3012  136.4812  151.8378 H   0  0  0  0  0  0  0  0  0  0  0  0
  142.9977  135.5034  151.2172 H   0  0  0  0  0  0  0  0  0  0  0  0
  143.9499  133.6303  152.3604 H   0  0  0  0  0  0  0  0  0  0  0  0
  1  2  1  0  0  0  0
  1 28  1  0  0  0  0
  1 29  1  0  0  0  0
  1 30  1  0  0  0  0
  2  3  1  0  0  0  0
  2  4  1  0  0  0  0
  2 31  1  0  0  0  0
  3 32  1  0  0  0  0
  4  5  1  0  0  0  0
  4 33  1  0  0  0  0
  4 34  1  0  0  0  0
  5 27  1  0  0  0  0
  5  6  1  0  0  0  0
  5 56  1  0  0  0  0
  6  7  1  0  0  0  0
  6 35  1  0  0  0  0
  6 36  1  0  0  0  0
  7  8  1  0  0  0  0
  7 37  1  0  0  0  0
  7 38  1  0  0  0  0
  8  9  1  0  0  0  0
  8 25  1  0  0  0  0
  9 14  1  0  0  0  0
  9 10  2  0  0  0  0
 10 11  1  0  0  0  0
 11 12  2  0  0  0  0
 11 39  1  0  0  0  0
 12 13  1  0  0  0  0
 13 17  1  0  0  0  0
 13 14  2  0  0  0  0
 14 15  1  0  0  0  0
 15 16  2  0  0  0  0
 16 17  1  0  0  0  0
 16 40  1  0  0  0  0
 17 18  1  0  0  0  0
 18 19  1  0  0  0  0
 18 41  1  0  0  0  0
 18 42  1  0  0  0  0
 19 24  1  0  0  0  0
 19 20  1  0  0  0  0
 19 22  1  0  0  0  0
 20 21  1  0  0  0  0
 20 43  1  0  0  0  0
 20 44  1  0  0  0  0
 21 45  1  0  0  0  0
 22 23  1  0  0  0  0
 22 46  1  0  0  0  0
 22 47  1  0  0  0  0
 23 24  1  0  0  0  0
 24 48  1  0  0  0  0
 24 49  1  0  0  0  0
 25 26  1  0  0  0  0
 25 27  1  0  0  0  0
 25 50  1  0  0  0  0
 26 51  1  0  0  0  0
 26 52  1  0  0  0  0
 26 53  1  0  0  0  0
 27 54  1  0  0  0  0
 27 55  1  0  0  0  0
M  CHG  1   5   1
M  END
> <s_m_source_file>
AV-unprocessed.smi

> <i_m_source_file_index>
79

> <i_lp_mmshare_version>
43012

> <i_f3d_flags>
0

> <s_epik_input>
W0NIM11bQ0BIXShbT0hdKVtDSDJdTjFbQ0gyXVtDSDJdTihbQ0BASF0oW0NIM10pW0NIMl0xKWMobltjSF1uMiljKGMyMyluW2NIXW4zW0NIMl1DNChbQ0gyXVtPSF0pW0NIMl1PW0NIMl00

> <s_epik_cmdline>
J2VwaWtfcHl0aG9uJywgJy1waCcsICc3LjAnLCAnLXRuJywgJzgnLCAnLW1hJywgJzIwMCcsICctbWV0YWxfYmluZGluZycsICctaW1hZScsICc8aW5maWxlLm1hZT4nLCAnLW9tYWUnLCAnPG91dGZpbGUubWFlPic=

> <r_lp_tautomer_probability>
1

> <r_epik_Ionization_Penalty>
0.00515943

> <r_epik_Ionization_Penalty_Charging>
0.00509693

> <r_epik_Ionization_Penalty_Neutral>
6.25007e-05

> <r_epik_State_Penalty>
-0

> <r_epik_Charging_Adjusted_Penalty>
0.00509693

> <i_epik_Tot_Q>
1

> <i_epik_Tot_abs_Q>
1

> <r_epik_Metal_State_Penalty>
-0

> <b_epik_Metal_Only>
0

> <s_lp_Force_Field>
OPLS_2005

> <r_lp_Energy>
50.645

> <b_lp_Chiralities_Consistent>
1

> <s_lp_Variant>
AV-unprocessed.smi:79-8

> <Gold.Version>
5.8.1

> <Gold.Id.Protein>
6NUR|6NUR_protein|mol2

> <Gold.PLP.Fitness>
42.9437

> <Gold.PLP.PLP>
-32.8767

> <Gold.PLP.part.hbond>
-5.5012

> <Gold.PLP.part.metal>
0.0000

> <Gold.PLP.part.buried>
-6.0862

> <Gold.PLP.part.nonpolar>
-21.7736

> <Gold.PLP.part.repulsive>
0.2328

> <Gold.PLP.ligand.clash>
0.0000

> <Gold.PLP.ligand.torsion>
1.2970

> <Gold.PLP.Chemscore.Hbond>
3.9675

> <Gold.PLP.Chemscore.CHOScore>
0.0001

> <Gold.PLP.Chemscore.Metal>
0.0000

> <Gold.Chemscore.Hbonds>
donor molecule, donor type, donor heavy atom, donor atom, acceptor molecule, acceptor atom, score
      L1  H     3    32       P1 10186  1.00
      L1  H    21    45       P1  7957  0.98
      P1  H  7989  7998       L1    23  1.00
      P1  H  8011  8017       L1    21  0.90

> <Gold.PLP.Chemscore.Internal.Correction>
0.7582

> <Gold.Rescore>
     Score         DG    S(hbond)    S(metal)    S(lipo)     H(rot)  DE(clash)    DE(int)     intcor
     10.47     -14.34       2.82        0.00      69.25       3.39       0.07       3.79       ----

> <Gold.Chemscore.Fitness>
10.4746

> <Gold.Chemscore.DG>
-14.3421

> <Gold.Chemscore.ZeroCoef>
-5.4800

> <Gold.Chemscore.Hbond>
2.8234

> <Gold.Chemscore.Metal>
0.0000

> <Gold.Chemscore.Lipo>
69.2481

> <Gold.Chemscore.Internal_Hbond>
0.0000

> <Gold.Chemscore.DEClash>
0.0750

> <Gold.Chemscore.DEInternal>
3.7925

> <Gold.Chemscore.Rot>
3.3868

> <Gold.Chemscore.Internal.Correction>
   9.000000E+99

> <Gold.Chemscore.Hbonds>
donor molecule, donor type, donor heavy atom, donor atom, acceptor molecule, acceptor atom, score
      L1  H     3    32       P1 10186  1.00
      L1  H    21    45       P1  7957  0.88
      P1  H  7989  7998       L1    23  0.27
      P1  H  8011  8017       L1    21  0.17

> <Gold.Chemscore.Hbond.Weighted>
-9.4302

> <Gold.Chemscore.Metal.Weighted>
-0.0000

> <Gold.Chemscore.Lipo.Weighted>
-8.1020

> <Gold.Chemscore.Internal_Hbond.Weighted>
0.0000

> <Gold.Chemscore.DEClash.Weighted>
0.0750

> <Gold.Chemscore.DEInternal.Weighted>
3.7925

> <Gold.Chemscore.Rot.Weighted>
8.6701

> <Gold.Chemscore.Internal.Correction.Weighted>
   9.000000E+99

> <Gold.Protein.RotatedTorsions>
[ 6907 6896 6895 6894 ] final  -29.94 input  -60.11 | X-H torsion
[ 7974 7965 7964 7962 ] final   71.18 input  175.53 | X-H torsion
[ 8008 7997 7996 7995 ] final   75.14 input   59.86 | X-H torsion
[ 10167 10162 10161 10158 ] final   -2.82 input  -65.29 | X-H torsion
[ 10718 10713 10712 10709 ] final -117.73 input   66.30 | X-H torsion
[ 10763 10752 10751 10750 ] final  -45.05 input  -60.55 | X-H torsion
[ 11005 11000 10999 10996 ] final   -3.55 input  -57.11 | X-H torsion

> <Gold.Protein.ActiveResidues>
 VAL166  LYS551  ARG553  GLY616  TRP617  ASP618  TYR619  PRO620  LYS621  CYS622 
 ASP623  PHE694  ASN695  SER759  ASP760  ASP761  ALA762  ILE779  LEU786  VAL792 
 PHE793  MET794  SER795  GLU796  ALA797  LYS798  CYS799  TRP800  GLU811  SER814 

> <Gold.Protein.RotatedAtoms>
  151.1123  135.0034  159.8499 H   0  0  0  0  0  0  0  0  0  0  0  0  # atno 6907 bound_to 6896
  152.5444  134.1821  159.8649 H   0  0  0  0  0  0  0  0  0  0  0  0  # atno 6908 bound_to 6896
  151.1872  133.4644  159.2627 H   0  0  0  0  0  0  0  0  0  0  0  0  # atno 6909 bound_to 6896
  145.7689  139.2834  143.1332 H   0  0  0  0  0  0  0  0  0  0  0  0  # atno 7974 bound_to 7965
  155.8085  140.3474  155.5444 H   0  0  0  0  0  0  0  0  0  0  0  0  # atno 8008 bound_to 7997
  155.8465  140.0949  157.1722 H   0  0  0  0  0  0  0  0  0  0  0  0  # atno 8009 bound_to 7997
  154.4006  140.1384  156.3779 H   0  0  0  0  0  0  0  0  0  0  0  0  # atno 8010 bound_to 7997
  140.6866  143.6612  150.8265 H   0  0  0  0  0  0  0  0  0  0  0  0  # atno 10167 bound_to 10162
  156.1055  130.6207  150.9202 H   0  0  0  0  0  0  0  0  0  0  0  0  # atno 10718 bound_to 10713
  154.0221  135.6668  153.4773 H   0  0  0  0  0  0  0  0  0  0  0  0  # atno 10763 bound_to 10752
  153.0575  135.5047  154.8013 H   0  0  0  0  0  0  0  0  0  0  0  0  # atno 10764 bound_to 10752
  154.6931  135.3065  154.9416 H   0  0  0  0  0  0  0  0  0  0  0  0  # atno 10765 bound_to 10752
  140.6706  133.9240  155.8492 H   0  0  0  0  0  0  0  0  0  0  0  0  # atno 11005 bound_to 11000
  146.0189  140.8366  142.9933 LP  0  0  0  0  0  0  0  0  0  0  0  0  # atno 17320 bound_to 7965
  144.6816  140.2600  143.7320 LP  0  0  0  0  0  0  0  0  0  0  0  0  # atno 17321 bound_to 7965
  140.0319  143.5434  152.2756 LP  0  0  0  0  0  0  0  0  0  0  0  0  # atno 17342 bound_to 10162
  139.6230  144.7632  151.2699 LP  0  0  0  0  0  0  0  0  0  0  0  0  # atno 17343 bound_to 10162
  157.6231  131.0928  150.8585 LP  0  0  0  0  0  0  0  0  0  0  0  0  # atno 17370 bound_to 10713
  156.8705  130.5144  149.5297 LP  0  0  0  0  0  0  0  0  0  0  0  0  # atno 17371 bound_to 10713
  141.0395  134.0642  157.3919 LP  0  0  0  0  0  0  0  0  0  0  0  0  # atno 17394 bound_to 11000
  139.8983  135.0154  156.7141 LP  0  0  0  0  0  0  0  0  0  0  0  0  # atno 17395 bound_to 11000

$$$$
