AV-unprocessed.smi:1286|AV-procd|sdf|5376|dock2
  -GOLD-   22720 4523D 1   1.00000     0.00000
 Structure written by MMmdl.
 36 37  0  0  0  0  0  0  0  0  1 V2000
  151.2560  137.1978  158.4590 C   0  0  0  0  0  0  0  0  0  0  0  0
  152.5350  138.0504  158.4877 C   0  0  1  0  0  0  0  0  0  0  0  0
  153.0495  138.4260  157.0805 C   0  0  0  0  0  0  0  0  0  0  0  0
  152.0675  138.1795  156.0400 N   0  0  0  0  0  0  0  0  0  0  0  0
  151.2723  139.0949  155.3836 C   0  0  0  0  0  0  0  0  0  0  0  0
  150.5057  138.4014  154.4917 C   0  0  0  0  0  0  0  0  0  0  0  0
  150.9069  137.0494  154.6811 C   0  0  0  0  0  0  0  0  0  0  0  0
  151.8409  136.9193  155.6095 N   0  0  0  0  0  0  0  0  0  0  0  0
  152.2872  139.2578  159.2705 N   0  0  0  0  0  0  0  0  0  0  0  0
  153.1919  140.2139  159.5327 C   0  0  0  0  0  0  0  0  0  0  0  0
  154.3532  140.1762  159.1252 O   0  0  0  0  0  0  0  0  0  0  0  0
  152.7073  141.3972  160.3785 C   0  0  0  0  0  0  0  0  0  0  0  0
  152.8799  142.7689  159.6897 C   0  0  2  0  0  0  0  0  0  0  0  0
  152.3396  143.9251  160.4968 C   0  0  0  0  0  0  0  0  0  0  0  0
  151.4757  144.6709  159.8124 C   0  0  0  0  0  0  0  0  0  0  0  0
  151.2611  144.1659  158.4127 C   0  0  0  0  0  0  0  0  0  0  0  0
  152.1107  142.8770  158.3479 C   0  0  0  0  0  0  0  0  0  0  0  0
  151.4218  136.2436  157.9584 H   0  0  0  0  0  0  0  0  0  0  0  0
  150.4489  137.7120  157.9358 H   0  0  0  0  0  0  0  0  0  0  0  0
  150.9107  136.9761  159.4694 H   0  0  0  0  0  0  0  0  0  0  0  0
  153.3036  137.4623  158.9928 H   0  0  0  0  0  0  0  0  0  0  0  0
  153.3409  139.4775  157.0519 H   0  0  0  0  0  0  0  0  0  0  0  0
  153.9436  137.8509  156.8365 H   0  0  0  0  0  0  0  0  0  0  0  0
  151.3201  140.1514  155.6035 H   0  0  0  0  0  0  0  0  0  0  0  0
  149.7702  138.7991  153.8085 H   0  0  0  0  0  0  0  0  0  0  0  0
  150.5493  136.1647  154.1753 H   0  0  0  0  0  0  0  0  0  0  0  0
  151.3557  139.3738  159.6428 H   0  0  0  0  0  0  0  0  0  0  0  0
  151.6538  141.2348  160.6084 H   0  0  0  0  0  0  0  0  0  0  0  0
  153.2335  141.3994  161.3346 H   0  0  0  0  0  0  0  0  0  0  0  0
  153.9389  142.9618  159.5115 H   0  0  0  0  0  0  0  0  0  0  0  0
  152.6503  144.1155  161.5137 H   0  0  0  0  0  0  0  0  0  0  0  0
  150.9785  145.5524  160.1894 H   0  0  0  0  0  0  0  0  0  0  0  0
  150.2041  143.9651  158.2350 H   0  0  0  0  0  0  0  0  0  0  0  0
  151.6017  144.9103  157.6925 H   0  0  0  0  0  0  0  0  0  0  0  0
  152.7992  142.9014  157.5024 H   0  0  0  0  0  0  0  0  0  0  0  0
  151.4588  142.0150  158.2002 H   0  0  0  0  0  0  0  0  0  0  0  0
  1  2  1  0  0  0  0
  1 18  1  0  0  0  0
  1 19  1  0  0  0  0
  1 20  1  0  0  0  0
  2  3  1  0  0  0  0
  2  9  1  0  0  0  0
  2 21  1  0  0  0  0
  3  4  1  0  0  0  0
  3 22  1  0  0  0  0
  3 23  1  0  0  0  0
  4  8  1  0  0  0  0
  4  5  1  0  0  0  0
  5  6  2  0  0  0  0
  5 24  1  0  0  0  0
  6  7  1  0  0  0  0
  6 25  1  0  0  0  0
  7  8  2  0  0  0  0
  7 26  1  0  0  0  0
  9 10  1  0  0  0  0
  9 27  1  0  0  0  0
 10 11  2  0  0  0  0
 10 12  1  0  0  0  0
 12 13  1  0  0  0  0
 12 28  1  0  0  0  0
 12 29  1  0  0  0  0
 13 17  1  0  0  0  0
 13 14  1  0  0  0  0
 13 30  1  0  0  0  0
 14 15  2  0  0  0  0
 14 31  1  0  0  0  0
 15 16  1  0  0  0  0
 15 32  1  0  0  0  0
 16 17  1  0  0  0  0
 16 33  1  0  0  0  0
 16 34  1  0  0  0  0
 17 35  1  0  0  0  0
 17 36  1  0  0  0  0
M  END
> <s_m_source_file>
AV-unprocessed.smi

> <i_m_source_file_index>
1286

> <i_lp_mmshare_version>
43012

> <i_f3d_flags>
0

> <s_epik_input>
bjFbY0hdW2NIXVtjSF1uMVtDSDJdW0NAQEhdKFtDSDNdKVtOSF1DKD1PKVtDSDJdW0NAQEhdMltDSF09W0NIXVtDSDJdW0NIMl0y

> <s_epik_cmdline>
J2VwaWtfcHl0aG9uJywgJy1waCcsICc3LjAnLCAnLXRuJywgJzgnLCAnLW1hJywgJzIwMCcsICctbWV0YWxfYmluZGluZycsICctaW1hZScsICc8aW5maWxlLm1hZT4nLCAnLW9tYWUnLCAnPG91dGZpbGUubWFlPic=

> <r_lp_tautomer_probability>
1

> <r_epik_Ionization_Penalty>
0.000301761

> <r_epik_Ionization_Penalty_Charging>
0

> <r_epik_Ionization_Penalty_Neutral>
0.000301761

> <r_epik_State_Penalty>
-0

> <r_epik_Charging_Adjusted_Penalty>
0

> <i_epik_Tot_Q>
0

> <i_epik_Tot_abs_Q>
0

> <r_epik_Metal_State_Penalty>
-0

> <b_epik_Metal_Only>
0

> <s_lp_Force_Field>
OPLS_2005

> <r_lp_Energy>
16.2902

> <b_lp_Chiralities_Consistent>
1

> <s_lp_Variant>
AV-unprocessed.smi:1286-2

> <Gold.Version>
5.8.1

> <Gold.Id.Protein>
6NUR|6NUR_protein|mol2

> <Gold.PLP.Fitness>
44.3446

> <Gold.PLP.PLP>
-37.4701

> <Gold.PLP.part.hbond>
-2.0000

> <Gold.PLP.part.metal>
0.0000

> <Gold.PLP.part.buried>
-2.2240

> <Gold.PLP.part.nonpolar>
-32.7904

> <Gold.PLP.part.repulsive>
0.1755

> <Gold.PLP.ligand.clash>
0.0000

> <Gold.PLP.ligand.torsion>
0.9106

> <Gold.PLP.Chemscore.Hbond>
1.9593

> <Gold.PLP.Chemscore.CHOScore>
0.9295

> <Gold.PLP.Chemscore.Metal>
0.0000

> <Gold.Chemscore.Hbonds>
donor molecule, donor type, donor heavy atom, donor atom, acceptor molecule, acceptor atom, score
      P1  H  7997  8009       L1    11  0.93
      P1  H 10752 10765       L1     8  0.80
      L1  C     7    26       P1  7948  0.19
      L1  C     7    26       P1  7949  0.17

> <Gold.PLP.Chemscore.Internal.Correction>
0.0293

> <Gold.Rescore>
     Score         DG    S(hbond)    S(metal)    S(lipo)     H(rot)  DE(clash)    DE(int)     intcor
     18.30     -19.80       1.89        0.00     104.40       1.64       0.37       1.13       ----

> <Gold.Chemscore.Fitness>
18.2982

> <Gold.Chemscore.DG>
-19.7964

> <Gold.Chemscore.ZeroCoef>
-5.4800

> <Gold.Chemscore.Hbond>
1.8859

> <Gold.Chemscore.Metal>
0.0000

> <Gold.Chemscore.Lipo>
104.3975

> <Gold.Chemscore.Internal_Hbond>
0.0000

> <Gold.Chemscore.DEClash>
0.3657

> <Gold.Chemscore.DEInternal>
1.1326

> <Gold.Chemscore.Rot>
1.6394

> <Gold.Chemscore.Internal.Correction>
   9.000000E+99

> <Gold.Chemscore.Hbonds>
donor molecule, donor type, donor heavy atom, donor atom, acceptor molecule, acceptor atom, score
      P1  H  7997  8009       L1    11  0.90
      P1  H 10752 10765       L1     8  0.11

> <Gold.Chemscore.Hbond.Weighted>
-6.2988

> <Gold.Chemscore.Metal.Weighted>
-0.0000

> <Gold.Chemscore.Lipo.Weighted>
-12.2145

> <Gold.Chemscore.Internal_Hbond.Weighted>
0.0000

> <Gold.Chemscore.DEClash.Weighted>
0.3657

> <Gold.Chemscore.DEInternal.Weighted>
1.1326

> <Gold.Chemscore.Rot.Weighted>
4.1969

> <Gold.Chemscore.Internal.Correction.Weighted>
   9.000000E+99

> <Gold.Protein.RotatedTorsions>
[ 6907 6896 6895 6894 ] final  -50.98 input  -60.11 | X-H torsion
[ 7974 7965 7964 7962 ] final -122.23 input  175.53 | X-H torsion
[ 8008 7997 7996 7995 ] final  122.19 input   59.86 | X-H torsion
[ 10167 10162 10161 10158 ] final -171.92 input  -65.29 | X-H torsion
[ 10718 10713 10712 10709 ] final  -41.56 input   66.30 | X-H torsion
[ 10763 10752 10751 10750 ] final -179.45 input  -60.55 | X-H torsion
[ 11005 11000 10999 10996 ] final  130.75 input  -57.11 | X-H torsion

> <Gold.Protein.ActiveResidues>
 VAL166  LYS551  ARG553  GLY616  TRP617  ASP618  TYR619  PRO620  LYS621  CYS622 
 ASP623  PHE694  ASN695  SER759  ASP760  ASP761  ALA762  ILE779  LEU786  VAL792 
 PHE793  MET794  SER795  GLU796  ALA797  LYS798  CYS799  TRP800  GLU811  SER814 

> <Gold.Protein.RotatedAtoms>
  150.8654  134.8017  159.7114 H   0  0  0  0  0  0  0  0  0  0  0  0  # atno 6907 bound_to 6896
  152.4677  134.5031  159.9741 H   0  0  0  0  0  0  0  0  0  0  0  0  # atno 6908 bound_to 6896
  151.5128  133.3443  159.2923 H   0  0  0  0  0  0  0  0  0  0  0  0  # atno 6909 bound_to 6896
  145.0317  140.8073  143.4320 H   0  0  0  0  0  0  0  0  0  0  0  0  # atno 7974 bound_to 7965
  156.2717  140.2791  156.1428 H   0  0  0  0  0  0  0  0  0  0  0  0  # atno 8008 bound_to 7997
  155.0936  140.0389  157.2693 H   0  0  0  0  0  0  0  0  0  0  0  0  # atno 8009 bound_to 7997
  154.6870  140.2621  155.6856 H   0  0  0  0  0  0  0  0  0  0  0  0  # atno 8010 bound_to 7997
  139.5774  144.1501  152.1469 H   0  0  0  0  0  0  0  0  0  0  0  0  # atno 10167 bound_to 10162
  156.2690  130.4205  149.8458 H   0  0  0  0  0  0  0  0  0  0  0  0  # atno 10718 bound_to 10713
  154.5350  135.2802  155.1147 H   0  0  0  0  0  0  0  0  0  0  0  0  # atno 10763 bound_to 10752
  154.2652  135.6314  153.5293 H   0  0  0  0  0  0  0  0  0  0  0  0  # atno 10764 bound_to 10752
  152.9965  135.5615  154.5873 H   0  0  0  0  0  0  0  0  0  0  0  0  # atno 10765 bound_to 10752
  139.9690  134.9583  156.9338 H   0  0  0  0  0  0  0  0  0  0  0  0  # atno 11005 bound_to 11000
  145.1762  139.2377  143.5316 LP  0  0  0  0  0  0  0  0  0  0  0  0  # atno 17320 bound_to 7965
  146.3499  140.1525  142.8592 LP  0  0  0  0  0  0  0  0  0  0  0  0  # atno 17321 bound_to 7965
  140.1047  144.5509  150.6965 LP  0  0  0  0  0  0  0  0  0  0  0  0  # atno 17342 bound_to 10162
  140.7055  143.2465  151.4738 LP  0  0  0  0  0  0  0  0  0  0  0  0  # atno 17343 bound_to 10162
  156.5946  130.8521  151.3417 LP  0  0  0  0  0  0  0  0  0  0  0  0  # atno 17370 bound_to 10713
  157.7277  130.9647  150.1712 LP  0  0  0  0  0  0  0  0  0  0  0  0  # atno 17371 bound_to 10713
  140.5335  134.0790  155.7322 LP  0  0  0  0  0  0  0  0  0  0  0  0  # atno 17394 bound_to 11000
  141.1369  133.9205  157.2412 LP  0  0  0  0  0  0  0  0  0  0  0  0  # atno 17395 bound_to 11000

$$$$
