AV-unprocessed.smi:2999|AV-procd|sdf|11420|dock10
  -GOLD-   2272016343D 1   1.00000     0.00000
 Structure written by MMmdl.
 38 40  0  0  0  0  0  0  0  0  2 V2000
  149.7013  137.3250  156.3178 O   0  0  0  0  0  0  0  0  0  0  0  0
  149.5523  137.1814  155.1043 C   0  0  0  0  0  0  0  0  0  0  0  0
  149.7436  136.0164  154.4693 N   0  0  0  0  0  0  0  0  0  0  0  0
  150.1523  134.7673  155.1066 C   0  0  0  0  0  0  0  0  0  0  0  0
  149.2618  133.5674  154.7230 C   0  0  1  0  0  0  0  0  0  0  0  0
  149.2124  133.2920  153.2019 C   0  0  0  0  0  0  0  0  0  0  0  0
  148.3859  132.1012  152.8931 N   0  3  2  0  0  0  0  0  0  0  0  0
  146.9288  132.3590  152.9644 C   0  0  0  0  0  0  0  0  0  0  0  0
  146.0995  131.3371  152.2228 C   0  0  0  0  0  0  0  0  0  0  0  0
  146.3105  132.7135  151.6322 C   0  0  0  0  0  0  0  0  0  0  0  0
  148.8172  130.9336  153.6976 C   0  0  0  0  0  0  0  0  0  0  0  0
  148.8777  131.2781  155.1971 C   0  0  0  0  0  0  0  0  0  0  0  0
  149.7253  132.4020  155.3975 O   0  0  0  0  0  0  0  0  0  0  0  0
  149.1867  138.1488  154.2453 N   0  0  0  0  0  0  0  0  0  0  0  0
  148.9044  139.5113  154.5271 C   0  0  0  0  0  0  0  0  0  0  0  0
  149.8329  140.4292  154.8205 N   0  0  0  0  0  0  0  0  0  0  0  0
  149.2710  141.6872  155.0520 C   0  0  0  0  0  0  0  0  0  0  0  0
  147.9041  141.7092  154.9280 C   0  0  0  0  0  0  0  0  0  0  0  0
  147.2639  140.1414  154.5140 S   0  0  0  0  0  0  0  0  0  0  0  0
  149.5917  135.9894  153.4716 H   0  0  0  0  0  0  0  0  0  0  0  0
  151.1986  134.5506  154.8854 H   0  0  0  0  0  0  0  0  0  0  0  0
  150.0982  134.9225  156.1844 H   0  0  0  0  0  0  0  0  0  0  0  0
  148.2563  133.7888  155.0838 H   0  0  0  0  0  0  0  0  0  0  0  0
  148.8363  134.1621  152.6627 H   0  0  0  0  0  0  0  0  0  0  0  0
  150.2166  133.1018  152.8215 H   0  0  0  0  0  0  0  0  0  0  0  0
  146.5516  132.8095  153.8803 H   0  0  0  0  0  0  0  0  0  0  0  0
  146.6135  130.5027  151.7485 H   0  0  0  0  0  0  0  0  0  0  0  0
  145.1112  131.1104  152.6175 H   0  0  0  0  0  0  0  0  0  0  0  0
  145.4612  133.3938  151.6385 H   0  0  0  0  0  0  0  0  0  0  0  0
  146.9627  132.7927  150.7643 H   0  0  0  0  0  0  0  0  0  0  0  0
  148.1537  130.0863  153.5214 H   0  0  0  0  0  0  0  0  0  0  0  0
  149.8076  130.6286  153.3570 H   0  0  0  0  0  0  0  0  0  0  0  0
  147.8840  131.4791  155.5996 H   0  0  0  0  0  0  0  0  0  0  0  0
  149.2781  130.4333  155.7580 H   0  0  0  0  0  0  0  0  0  0  0  0
  149.0995  137.8808  153.2764 H   0  0  0  0  0  0  0  0  0  0  0  0
  149.9196  142.5143  155.2997 H   0  0  0  0  0  0  0  0  0  0  0  0
  147.2382  142.5497  155.0546 H   0  0  0  0  0  0  0  0  0  0  0  0
  148.5691  131.8672  151.9278 H   0  0  0  0  0  0  0  0  0  0  0  0
  1  2  2  0  0  0  0
  2  3  1  0  0  0  0
  2 14  1  0  0  0  0
  3  4  1  0  0  0  0
  3 20  1  0  0  0  0
  4  5  1  0  0  0  0
  4 21  1  0  0  0  0
  4 22  1  0  0  0  0
  5 13  1  0  0  0  0
  5  6  1  0  0  0  0
  5 23  1  0  0  0  0
  6  7  1  0  0  0  0
  6 24  1  0  0  0  0
  6 25  1  0  0  0  0
  7  8  1  0  0  0  0
  7 11  1  0  0  0  0
  7 38  1  0  0  0  0
  8 10  1  0  0  0  0
  8  9  1  0  0  0  0
  8 26  1  0  0  0  0
  9 10  1  0  0  0  0
  9 27  1  0  0  0  0
  9 28  1  0  0  0  0
 10 29  1  0  0  0  0
 10 30  1  0  0  0  0
 11 12  1  0  0  0  0
 11 31  1  0  0  0  0
 11 32  1  0  0  0  0
 12 13  1  0  0  0  0
 12 33  1  0  0  0  0
 12 34  1  0  0  0  0
 14 15  1  0  0  0  0
 14 35  1  0  0  0  0
 15 19  1  0  0  0  0
 15 16  2  0  0  0  0
 16 17  1  0  0  0  0
 17 18  2  0  0  0  0
 17 36  1  0  0  0  0
 18 19  1  0  0  0  0
 18 37  1  0  0  0  0
M  CHG  1   7   1
M  END
> <s_m_source_file>
AV-unprocessed.smi

> <i_m_source_file_index>
2999

> <i_lp_mmshare_version>
43012

> <i_f3d_flags>
0

> <s_epik_input>
czFbY0hdW2NIXW5jMVtOSF1DKD1PKVtOSF1bQ0gyXVtDQEBIXTJbQ0gyXU4oW0NIMl1bQ0gyXU8yKVtDSF0zW0NIMl1bQ0gyXTM=

> <s_epik_cmdline>
J2VwaWtfcHl0aG9uJywgJy1waCcsICc3LjAnLCAnLXRuJywgJzgnLCAnLW1hJywgJzIwMCcsICctbWV0YWxfYmluZGluZycsICctaW1hZScsICc8aW5maWxlLm1hZT4nLCAnLW9tYWUnLCAnPG91dGZpbGUubWFlPic=

> <r_lp_tautomer_probability>
0.999

> <r_epik_Ionization_Penalty>
1.55235

> <r_epik_Ionization_Penalty_Charging>
1.55221

> <r_epik_Ionization_Penalty_Neutral>
0.000139685

> <r_epik_State_Penalty>
1.64652

> <r_epik_Charging_Adjusted_Penalty>
3.19873

> <i_epik_Tot_Q>
1

> <i_epik_Tot_abs_Q>
1

> <r_epik_Metal_State_Penalty>
1.68612

> <b_epik_Metal_Only>
0

> <s_lp_Force_Field>
OPLS_2005

> <r_lp_Energy>
24.3861

> <b_lp_Chiralities_Consistent>
1

> <s_lp_Variant>
AV-unprocessed.smi:2999-4

> <Gold.Version>
5.8.1

> <Gold.Id.Protein>
6NUR|6NUR_protein|mol2

> <Gold.PLP.Fitness>
42.9949

> <Gold.PLP.PLP>
-30.5738

> <Gold.PLP.part.hbond>
-4.3502

> <Gold.PLP.part.metal>
0.0000

> <Gold.PLP.part.buried>
-1.0192

> <Gold.PLP.part.nonpolar>
-23.7386

> <Gold.PLP.part.repulsive>
0.1928

> <Gold.PLP.ligand.clash>
0.0000

> <Gold.PLP.ligand.torsion>
1.3900

> <Gold.PLP.Chemscore.Hbond>
3.7240

> <Gold.PLP.Chemscore.CHOScore>
0.9179

> <Gold.PLP.Chemscore.Metal>
0.0000

> <Gold.Chemscore.Hbonds>
donor molecule, donor type, donor heavy atom, donor atom, acceptor molecule, acceptor atom, score
      L1  H     3    20       P1  7948  1.00
      L1  H     7    38       P1 10747  1.00
      L1  H    14    35       P1  7948  0.66
      P1  H  7989  7998       L1    16  0.37
      L1  C    17    36       P1  8028  0.76
      L1  C    18    37       P1  8028  0.23

> <Gold.PLP.Chemscore.Internal.Correction>
1.2754

> <Gold.Rescore>
     Score         DG    S(hbond)    S(metal)    S(lipo)     H(rot)  DE(clash)    DE(int)     intcor
     15.66     -17.15       2.49        0.00      63.24       1.58       0.03       1.46       ----

> <Gold.Chemscore.Fitness>
15.6602

> <Gold.Chemscore.DG>
-17.1505

> <Gold.Chemscore.ZeroCoef>
-5.4800

> <Gold.Chemscore.Hbond>
2.4896

> <Gold.Chemscore.Metal>
0.0000

> <Gold.Chemscore.Lipo>
63.2363

> <Gold.Chemscore.Internal_Hbond>
0.0000

> <Gold.Chemscore.DEClash>
0.0262

> <Gold.Chemscore.DEInternal>
1.4641

> <Gold.Chemscore.Rot>
1.5795

> <Gold.Chemscore.Internal.Correction>
   9.000000E+99

> <Gold.Chemscore.Hbonds>
donor molecule, donor type, donor heavy atom, donor atom, acceptor molecule, acceptor atom, score
      L1  H     3    20       P1  7948  0.26
      L1  H     7    38       P1 10747  0.98
      L1  H    14    35       P1  7948  0.62
      P1  H  7989  7998       L1    16  0.15

> <Gold.Chemscore.Hbond.Weighted>
-8.3153

> <Gold.Chemscore.Metal.Weighted>
-0.0000

> <Gold.Chemscore.Lipo.Weighted>
-7.3987

> <Gold.Chemscore.Internal_Hbond.Weighted>
0.0000

> <Gold.Chemscore.DEClash.Weighted>
0.0262

> <Gold.Chemscore.DEInternal.Weighted>
1.4641

> <Gold.Chemscore.Rot.Weighted>
4.0434

> <Gold.Chemscore.Internal.Correction.Weighted>
   9.000000E+99

> <Gold.Protein.RotatedTorsions>
[ 6907 6896 6895 6894 ] final   10.77 input  -60.11 | X-H torsion
[ 7974 7965 7964 7962 ] final   -5.94 input  175.53 | X-H torsion
[ 8008 7997 7996 7995 ] final -171.66 input   59.86 | X-H torsion
[ 10167 10162 10161 10158 ] final -158.63 input  -65.29 | X-H torsion
[ 10718 10713 10712 10709 ] final -131.35 input   66.30 | X-H torsion
[ 10763 10752 10751 10750 ] final -141.81 input  -60.55 | X-H torsion
[ 11005 11000 10999 10996 ] final  166.00 input  -57.11 | X-H torsion

> <Gold.Protein.ActiveResidues>
 VAL166  LYS551  ARG553  GLY616  TRP617  ASP618  TYR619  PRO620  LYS621  CYS622 
 ASP623  PHE694  ASN695  SER759  ASP760  ASP761  ALA762  ILE779  LEU786  VAL792 
 PHE793  MET794  SER795  GLU796  ALA797  LYS798  CYS799  TRP800  GLU811  SER814 

> <Gold.Protein.RotatedAtoms>
  151.7436  135.0848  160.0319 H   0  0  0  0  0  0  0  0  0  0  0  0  # atno 6907 bound_to 6896
  152.3463  133.6122  159.5921 H   0  0  0  0  0  0  0  0  0  0  0  0  # atno 6908 bound_to 6896
  150.7511  133.9560  159.3542 H   0  0  0  0  0  0  0  0  0  0  0  0  # atno 6909 bound_to 6896
  146.2342  140.2096  142.8335 H   0  0  0  0  0  0  0  0  0  0  0  0  # atno 7974 bound_to 7965
  155.9344  140.1097  157.1106 H   0  0  0  0  0  0  0  0  0  0  0  0  # atno 8008 bound_to 7997
  154.4077  140.1231  156.4911 H   0  0  0  0  0  0  0  0  0  0  0  0  # atno 8009 bound_to 7997
  155.7039  140.3471  155.4947 H   0  0  0  0  0  0  0  0  0  0  0  0  # atno 8010 bound_to 7997
  139.6677  143.9800  152.2265 H   0  0  0  0  0  0  0  0  0  0  0  0  # atno 10167 bound_to 10162
  156.2235  130.6993  151.0782 H   0  0  0  0  0  0  0  0  0  0  0  0  # atno 10718 bound_to 10713
  154.8532  135.3514  154.5927 H   0  0  0  0  0  0  0  0  0  0  0  0  # atno 10763 bound_to 10752
  153.6536  135.6993  153.5205 H   0  0  0  0  0  0  0  0  0  0  0  0  # atno 10764 bound_to 10752
  153.2874  135.4245  155.1093 H   0  0  0  0  0  0  0  0  0  0  0  0  # atno 10765 bound_to 10752
  140.2620  134.7895  157.3598 H   0  0  0  0  0  0  0  0  0  0  0  0  # atno 11005 bound_to 11000
  144.9717  140.8375  143.5451 LP  0  0  0  0  0  0  0  0  0  0  0  0  # atno 17320 bound_to 7965
  145.2078  139.2219  143.5159 LP  0  0  0  0  0  0  0  0  0  0  0  0  # atno 17321 bound_to 7965
  139.9556  144.6592  150.8129 LP  0  0  0  0  0  0  0  0  0  0  0  0  # atno 17342 bound_to 10162
  140.7606  143.3155  151.2744 LP  0  0  0  0  0  0  0  0  0  0  0  0  # atno 17343 bound_to 10162
  157.7099  131.0739  150.6537 LP  0  0  0  0  0  0  0  0  0  0  0  0  # atno 17370 bound_to 10713
  156.6601  130.4509  149.5690 LP  0  0  0  0  0  0  0  0  0  0  0  0  # atno 17371 bound_to 10713
  140.1456  134.4916  155.7999 LP  0  0  0  0  0  0  0  0  0  0  0  0  # atno 17394 bound_to 11000
  141.2189  133.6842  156.7287 LP  0  0  0  0  0  0  0  0  0  0  0  0  # atno 17395 bound_to 11000

$$$$
