AV-unprocessed.smi:283|AV-procd|sdf|2132|dock5
  -GOLD-   2262021443D 1   1.00000     0.00000
 Structure written by MMmdl.
 48 51  0  0  0  0  0  0  0  0  1 V2000
  150.7610  138.1688  154.0944 C   0  0  0  0  0  0  0  0  0  0  0  0
  150.2000  138.1893  155.5224 C   0  0  1  0  0  0  0  0  0  0  0  0
  150.5176  136.9318  156.1973 N   0  0  0  0  0  0  0  0  0  0  0  0
  150.0174  135.7644  155.7357 C   0  0  0  0  0  0  0  0  0  0  0  0
  150.8008  134.6748  155.9167 N   0  0  0  0  0  0  0  0  0  0  0  0
  150.3727  133.4705  155.5293 C   0  0  0  0  0  0  0  0  0  0  0  0
  149.2174  133.1440  154.9484 N   0  0  0  0  0  0  0  0  0  0  0  0
  148.4292  134.2385  154.7419 C   0  0  0  0  0  0  0  0  0  0  0  0
  148.7549  135.5785  155.0993 C   0  0  0  0  0  0  0  0  0  0  0  0
  147.7148  136.4198  154.7224 N   0  0  0  0  0  0  0  0  0  0  0  0
  146.8265  135.6226  154.1963 C   0  0  0  0  0  0  0  0  0  0  0  0
  147.1714  134.2912  154.1728 N   0  0  0  0  0  0  0  0  0  0  0  0
  146.3501  133.1548  153.6473 C   0  0  1  0  0  0  0  0  0  0  0  0
  145.1930  133.6466  153.0401 O   0  0  0  0  0  0  0  0  0  0  0  0
  144.8860  132.9093  151.8538 C   0  0  1  0  0  0  0  0  0  0  0  0
  144.9285  133.8896  150.6637 C   0  0  0  0  0  0  0  0  0  0  0  0
  144.6857  133.2114  149.4487 O   0  0  0  0  0  0  0  0  0  0  0  0
  145.9116  131.7602  151.8226 C   0  0  1  0  0  0  0  0  0  0  0  0
  146.2673  131.2817  150.5388 O   0  0  0  0  0  0  0  0  0  0  0  0
  147.0921  132.3056  152.6084 C   0  0  1  0  0  0  0  0  0  0  0  0
  147.9956  133.0520  151.8088 O   0  0  0  0  0  0  0  0  0  0  0  0
  150.6689  139.4469  156.2613 C   0  0  0  0  0  0  0  0  0  0  0  0
  151.5133  139.3253  157.3898 C   0  0  0  0  0  0  0  0  0  0  0  0
  151.9434  140.4661  158.0924 C   0  0  0  0  0  0  0  0  0  0  0  0
  151.5414  141.7451  157.6682 C   0  0  0  0  0  0  0  0  0  0  0  0
  150.7166  141.8800  156.5364 C   0  0  0  0  0  0  0  0  0  0  0  0
  150.2831  140.7409  155.8286 C   0  0  0  0  0  0  0  0  0  0  0  0
  149.2833  140.9705  154.4364 Cl  0  0  0  0  0  0  0  0  0  0  0  0
  146.0671  132.5796  154.5301 H   0  0  0  0  0  0  0  0  0  0  0  0
  143.8757  132.5103  151.9543 H   0  0  0  0  0  0  0  0  0  0  0  0
  145.4918  130.9219  152.3806 H   0  0  0  0  0  0  0  0  0  0  0  0
  147.6506  131.5159  153.1117 H   0  0  0  0  0  0  0  0  0  0  0  0
  150.4600  139.0601  153.5432 H   0  0  0  0  0  0  0  0  0  0  0  0
  150.3972  137.3025  153.5412 H   0  0  0  0  0  0  0  0  0  0  0  0
  151.8508  138.1308  154.0958 H   0  0  0  0  0  0  0  0  0  0  0  0
  149.1158  138.2134  155.4298 H   0  0  0  0  0  0  0  0  0  0  0  0
  150.8093  137.0370  157.1581 H   0  0  0  0  0  0  0  0  0  0  0  0
  151.0500  132.6501  155.7157 H   0  0  0  0  0  0  0  0  0  0  0  0
  145.8848  135.9877  153.8127 H   0  0  0  0  0  0  0  0  0  0  0  0
  144.1481  134.6426  150.7768 H   0  0  0  0  0  0  0  0  0  0  0  0
  145.8778  134.4222  150.6110 H   0  0  0  0  0  0  0  0  0  0  0  0
  145.0945  133.6967  148.7480 H   0  0  0  0  0  0  0  0  0  0  0  0
  147.2039  131.1534  150.5209 H   0  0  0  0  0  0  0  0  0  0  0  0
  148.2583  132.5161  151.0758 H   0  0  0  0  0  0  0  0  0  0  0  0
  151.8328  138.3507  157.7285 H   0  0  0  0  0  0  0  0  0  0  0  0
  152.5819  140.3587  158.9569 H   0  0  0  0  0  0  0  0  0  0  0  0
  151.8695  142.6218  158.2067 H   0  0  0  0  0  0  0  0  0  0  0  0
  150.4163  142.8644  156.2089 H   0  0  0  0  0  0  0  0  0  0  0  0
  1  2  1  0  0  0  0
  1 33  1  0  0  0  0
  1 34  1  0  0  0  0
  1 35  1  0  0  0  0
  2  3  1  0  0  0  0
  2 22  1  0  0  0  0
  2 36  1  0  0  0  0
  3  4  1  0  0  0  0
  3 37  1  0  0  0  0
  4  9  1  0  0  0  0
  4  5  2  0  0  0  0
  5  6  1  0  0  0  0
  6  7  2  0  0  0  0
  6 38  1  0  0  0  0
  7  8  1  0  0  0  0
  8 12  1  0  0  0  0
  8  9  2  0  0  0  0
  9 10  1  0  0  0  0
 10 11  2  0  0  0  0
 11 12  1  0  0  0  0
 11 39  1  0  0  0  0
 12 13  1  0  0  0  0
 13 29  1  0  0  0  0
 13 20  1  0  0  0  0
 13 14  1  0  0  0  0
 14 15  1  0  0  0  0
 15 30  1  0  0  0  0
 15 16  1  0  0  0  0
 15 18  1  0  0  0  0
 16 17  1  0  0  0  0
 16 40  1  0  0  0  0
 16 41  1  0  0  0  0
 17 42  1  0  0  0  0
 18 31  1  0  0  0  0
 18 19  1  0  0  0  0
 18 20  1  0  0  0  0
 19 43  1  0  0  0  0
 20 32  1  0  0  0  0
 20 21  1  0  0  0  0
 21 44  1  0  0  0  0
 22 27  1  0  0  0  0
 22 23  2  0  0  0  0
 23 24  1  0  0  0  0
 23 45  1  0  0  0  0
 24 25  2  0  0  0  0
 24 46  1  0  0  0  0
 25 26  1  0  0  0  0
 25 47  1  0  0  0  0
 26 27  2  0  0  0  0
 26 48  1  0  0  0  0
 27 28  1  0  0  0  0
M  END
> <s_m_source_file>
AV-unprocessed.smi

> <i_m_source_file_index>
283

> <i_lp_mmshare_version>
43012

> <i_f3d_flags>
0

> <s_epik_input>
Q2xjMVtjSF1bY0hdW2NIXVtjSF1jMVtDQEhdKFtDSDNdKVtOSF1jKG5bY0hdbjIpYyhjMjMpbltjSF1uM1tDQEBIXTRPW0NASF0oW0NIMl1bT0hdKVtDQEBIXShbT0hdKVtDQEhdNFtPSF0=

> <s_epik_cmdline>
J2VwaWtfcHl0aG9uJywgJy1waCcsICc3LjAnLCAnLXRuJywgJzgnLCAnLW1hJywgJzIwMCcsICctbWV0YWxfYmluZGluZycsICctaW1hZScsICc8aW5maWxlLm1hZT4nLCAnLW9tYWUnLCAnPG91dGZpbGUubWFlPic=

> <r_lp_tautomer_probability>
1

> <r_epik_Ionization_Penalty>
0.000266407

> <r_epik_Ionization_Penalty_Charging>
0

> <r_epik_Ionization_Penalty_Neutral>
0.000266407

> <r_epik_State_Penalty>
-0

> <r_epik_Charging_Adjusted_Penalty>
0

> <i_epik_Tot_Q>
0

> <i_epik_Tot_abs_Q>
0

> <r_epik_Metal_State_Penalty>
-0

> <b_epik_Metal_Only>
0

> <s_epik_Chemistry_Notes>
This compound contains an acetal/aminal-like group ( X-CH(R)-Y where X, Y are N, S, or O) that may be acid/base labile, releasing an aldehyde.

> <s_lp_Force_Field>
OPLS_2005

> <r_lp_Energy>
55.3457

> <b_lp_Chiralities_Consistent>
1

> <s_lp_Variant>
AV-unprocessed.smi:283-8

> <Gold.Version>
5.8.1

> <Gold.Id.Protein>
6NUR|6NUR_protein|mol2

> <Gold.PLP.Fitness>
45.9498

> <Gold.PLP.PLP>
-37.6777

> <Gold.PLP.part.hbond>
-3.1634

> <Gold.PLP.part.metal>
0.0000

> <Gold.PLP.part.buried>
-5.7038

> <Gold.PLP.part.nonpolar>
-29.5283

> <Gold.PLP.part.repulsive>
0.4527

> <Gold.PLP.ligand.clash>
0.0000

> <Gold.PLP.ligand.torsion>
0.4099

> <Gold.PLP.Chemscore.Hbond>
3.0000

> <Gold.PLP.Chemscore.CHOScore>
0.0000

> <Gold.PLP.Chemscore.Metal>
0.0000

> <Gold.Chemscore.Hbonds>
donor molecule, donor type, donor heavy atom, donor atom, acceptor molecule, acceptor atom, score
      L1  H    17    42       P1  7921  1.00
      L1  H    19    43       P1 10747  1.00
      L1  H    21    44       P1 10747  1.00

> <Gold.PLP.Chemscore.Internal.Correction>
0.0920

> <Gold.Rescore>
     Score         DG    S(hbond)    S(metal)    S(lipo)     H(rot)  DE(clash)    DE(int)     intcor
     13.86     -14.31       2.81        0.00      84.76       4.10       0.03       0.42       ----

> <Gold.Chemscore.Fitness>
13.8559

> <Gold.Chemscore.DG>
-14.3064

> <Gold.Chemscore.ZeroCoef>
-5.4800

> <Gold.Chemscore.Hbond>
2.8136

> <Gold.Chemscore.Metal>
0.0000

> <Gold.Chemscore.Lipo>
84.7584

> <Gold.Chemscore.Internal_Hbond>
0.0000

> <Gold.Chemscore.DEClash>
0.0313

> <Gold.Chemscore.DEInternal>
0.4192

> <Gold.Chemscore.Rot>
4.0968

> <Gold.Chemscore.Internal.Correction>
   9.000000E+99

> <Gold.Chemscore.Hbonds>
donor molecule, donor type, donor heavy atom, donor atom, acceptor molecule, acceptor atom, score
      L1  H    17    42       P1  7921  0.85
      L1  H    19    43       P1 10747  1.00
      L1  H    21    44       P1 10747  0.95

> <Gold.Chemscore.Hbond.Weighted>
-9.3976

> <Gold.Chemscore.Metal.Weighted>
-0.0000

> <Gold.Chemscore.Lipo.Weighted>
-9.9167

> <Gold.Chemscore.Internal_Hbond.Weighted>
0.0000

> <Gold.Chemscore.DEClash.Weighted>
0.0313

> <Gold.Chemscore.DEInternal.Weighted>
0.4192

> <Gold.Chemscore.Rot.Weighted>
10.4879

> <Gold.Chemscore.Internal.Correction.Weighted>
   9.000000E+99

> <Gold.Protein.RotatedTorsions>
[ 6907 6896 6895 6894 ] final  -21.23 input  -60.11 | X-H torsion
[ 7974 7965 7964 7962 ] final   57.53 input  175.53 | X-H torsion
[ 8008 7997 7996 7995 ] final  -35.07 input   59.86 | X-H torsion
[ 10167 10162 10161 10158 ] final  128.62 input  -65.29 | X-H torsion
[ 10718 10713 10712 10709 ] final   -8.97 input   66.30 | X-H torsion
[ 10763 10752 10751 10750 ] final   80.72 input  -60.55 | X-H torsion
[ 11005 11000 10999 10996 ] final  116.14 input  -57.11 | X-H torsion

> <Gold.Protein.ActiveResidues>
 VAL166  LYS551  ARG553  GLY616  TRP617  ASP618  TYR619  PRO620  LYS621  CYS622 
 ASP623  PHE694  ASN695  SER759  ASP760  ASP761  ALA762  ILE779  LEU786  VAL792 
 PHE793  MET794  SER795  GLU796  ALA797  LYS798  CYS799  TRP800  GLU811  SER814 

> <Gold.Protein.RotatedAtoms>
  151.2364  135.0573  159.9007 H   0  0  0  0  0  0  0  0  0  0  0  0  # atno 6907 bound_to 6896
  152.5398  134.0482  159.8108 H   0  0  0  0  0  0  0  0  0  0  0  0  # atno 6908 bound_to 6896
  151.0669  133.5449  159.2661 H   0  0  0  0  0  0  0  0  0  0  0  0  # atno 6909 bound_to 6896
  145.9280  139.3784  143.0438 H   0  0  0  0  0  0  0  0  0  0  0  0  # atno 7974 bound_to 7965
  154.4105  140.1667  156.2151 H   0  0  0  0  0  0  0  0  0  0  0  0  # atno 8008 bound_to 7997
  155.9411  140.3408  155.6305 H   0  0  0  0  0  0  0  0  0  0  0  0  # atno 8009 bound_to 7997
  155.6988  140.0742  157.2409 H   0  0  0  0  0  0  0  0  0  0  0  0  # atno 8010 bound_to 7997
  139.5518  144.6819  151.4301 H   0  0  0  0  0  0  0  0  0  0  0  0  # atno 10167 bound_to 10162
  156.6949  130.5076  149.5933 H   0  0  0  0  0  0  0  0  0  0  0  0  # atno 10718 bound_to 10713
  153.1057  135.4792  154.8946 H   0  0  0  0  0  0  0  0  0  0  0  0  # atno 10763 bound_to 10752
  154.7427  135.3086  154.8702 H   0  0  0  0  0  0  0  0  0  0  0  0  # atno 10764 bound_to 10752
  153.9305  135.6845  153.4799 H   0  0  0  0  0  0  0  0  0  0  0  0  # atno 10765 bound_to 10752
  139.9032  134.9594  156.7153 H   0  0  0  0  0  0  0  0  0  0  0  0  # atno 11005 bound_to 11000
  145.8463  140.9553  143.0773 LP  0  0  0  0  0  0  0  0  0  0  0  0  # atno 17320 bound_to 7965
  144.6761  140.0349  143.7482 LP  0  0  0  0  0  0  0  0  0  0  0  0  # atno 17321 bound_to 7965
  140.6782  143.8141  150.7086 LP  0  0  0  0  0  0  0  0  0  0  0  0  # atno 17342 bound_to 10162
  140.1587  143.4295  152.2082 LP  0  0  0  0  0  0  0  0  0  0  0  0  # atno 17343 bound_to 10162
  156.1771  130.6475  151.0907 LP  0  0  0  0  0  0  0  0  0  0  0  0  # atno 17370 bound_to 10713
  157.6995  131.0781  150.6865 LP  0  0  0  0  0  0  0  0  0  0  0  0  # atno 17371 bound_to 10713
  140.7043  133.9278  155.8044 LP  0  0  0  0  0  0  0  0  0  0  0  0  # atno 17394 bound_to 11000
  141.0348  134.0705  157.3972 LP  0  0  0  0  0  0  0  0  0  0  0  0  # atno 17395 bound_to 11000

$$$$
