AV-unprocessed.smi:2975|AV-procd|sdf|11358|dock6
  -GOLD-   2272016273D 1   1.00000     0.00000
 Structure written by MMmdl.
 40 42  0  0  0  0  0  0  0  0  2 V2000
  151.9265  137.7559  156.3494 C   0  0  0  0  0  0  0  0  0  0  0  0
  151.8062  137.9519  154.8324 C   0  0  1  0  0  0  0  0  0  0  0  0
  151.7374  136.6815  154.2192 O   0  0  0  0  0  0  0  0  0  0  0  0
  150.6173  138.7998  154.4993 C   0  0  0  0  0  0  0  0  0  0  0  0
  149.5672  138.4159  153.7185 N   0  3  0  0  0  0  0  0  0  0  0  0
  148.6241  139.4408  153.6520 C   0  0  0  0  0  0  0  0  0  0  0  0
  147.4036  139.5135  152.9878 C   0  0  0  0  0  0  0  0  0  0  0  0
  146.6736  140.7111  153.1351 C   0  0  0  0  0  0  0  0  0  0  0  0
  147.1621  141.7764  153.9191 C   0  0  0  0  0  0  0  0  0  0  0  0
  148.4018  141.6909  154.5870 C   0  0  0  0  0  0  0  0  0  0  0  0
  149.1194  140.5045  154.4333 C   0  0  0  0  0  0  0  0  0  0  0  0
  150.3538  140.0689  154.9308 N   0  0  0  0  0  0  0  0  0  0  0  0
  151.1296  140.9667  155.7990 C   0  0  0  0  0  0  0  0  0  0  0  0
  151.1016  140.5109  157.2624 C   0  0  0  0  0  0  0  0  0  0  0  0
  151.3708  141.6333  158.0900 O   0  0  0  0  0  0  0  0  0  0  0  0
  152.2248  141.4663  159.1598 C   0  0  0  0  0  0  0  0  0  0  0  0
  152.8589  140.2405  159.4872 C   0  0  0  0  0  0  0  0  0  0  0  0
  153.7225  140.1575  160.5970 C   0  0  0  0  0  0  0  0  0  0  0  0
  153.9613  141.2924  161.3933 C   0  0  0  0  0  0  0  0  0  0  0  0
  153.3343  142.5119  161.0789 C   0  0  0  0  0  0  0  0  0  0  0  0
  152.4717  142.5966  159.9686 C   0  0  0  0  0  0  0  0  0  0  0  0
  151.8753  143.7772  159.6765 F   0  0  0  0  0  0  0  0  0  0  0  0
  152.0259  138.7124  156.8627 H   0  0  0  0  0  0  0  0  0  0  0  0
  152.8021  137.1565  156.6007 H   0  0  0  0  0  0  0  0  0  0  0  0
  151.0499  137.2511  156.7568 H   0  0  0  0  0  0  0  0  0  0  0  0
  152.7101  138.4372  154.4657 H   0  0  0  0  0  0  0  0  0  0  0  0
  151.4907  136.7974  153.3142 H   0  0  0  0  0  0  0  0  0  0  0  0
  147.0264  138.6970  152.3894 H   0  0  0  0  0  0  0  0  0  0  0  0
  145.7196  140.8139  152.6383 H   0  0  0  0  0  0  0  0  0  0  0  0
  146.5736  142.6778  154.0110 H   0  0  0  0  0  0  0  0  0  0  0  0
  148.7634  142.5127  155.1868 H   0  0  0  0  0  0  0  0  0  0  0  0
  152.1548  140.9936  155.4307 H   0  0  0  0  0  0  0  0  0  0  0  0
  150.7466  141.9823  155.6978 H   0  0  0  0  0  0  0  0  0  0  0  0
  150.1235  140.0914  157.5032 H   0  0  0  0  0  0  0  0  0  0  0  0
  151.8546  139.7376  157.4199 H   0  0  0  0  0  0  0  0  0  0  0  0
  152.7001  139.3473  158.9024 H   0  0  0  0  0  0  0  0  0  0  0  0
  154.2028  139.2204  160.8374 H   0  0  0  0  0  0  0  0  0  0  0  0
  154.6236  141.2277  162.2442 H   0  0  0  0  0  0  0  0  0  0  0  0
  153.5152  143.3844  161.6890 H   0  0  0  0  0  0  0  0  0  0  0  0
  149.5050  137.5116  153.2685 H   0  0  0  0  0  0  0  0  0  0  0  0
  1  2  1  0  0  0  0
  1 23  1  0  0  0  0
  1 24  1  0  0  0  0
  1 25  1  0  0  0  0
  2  3  1  0  0  0  0
  2  4  1  0  0  0  0
  2 26  1  0  0  0  0
  3 27  1  0  0  0  0
  4 12  1  0  0  0  0
  4  5  2  0  0  0  0
  5  6  1  0  0  0  0
  5 40  1  0  0  0  0
  6 11  2  0  0  0  0
  6  7  1  0  0  0  0
  7  8  2  0  0  0  0
  7 28  1  0  0  0  0
  8  9  1  0  0  0  0
  8 29  1  0  0  0  0
  9 10  2  0  0  0  0
  9 30  1  0  0  0  0
 10 11  1  0  0  0  0
 10 31  1  0  0  0  0
 11 12  1  0  0  0  0
 12 13  1  0  0  0  0
 13 14  1  0  0  0  0
 13 32  1  0  0  0  0
 13 33  1  0  0  0  0
 14 15  1  0  0  0  0
 14 34  1  0  0  0  0
 14 35  1  0  0  0  0
 15 16  1  0  0  0  0
 16 21  1  0  0  0  0
 16 17  2  0  0  0  0
 17 18  1  0  0  0  0
 17 36  1  0  0  0  0
 18 19  2  0  0  0  0
 18 37  1  0  0  0  0
 19 20  1  0  0  0  0
 19 38  1  0  0  0  0
 20 21  2  0  0  0  0
 20 39  1  0  0  0  0
 21 22  1  0  0  0  0
M  CHG  1   5   1
M  END
> <s_m_source_file>
AV-unprocessed.smi

> <i_m_source_file_index>
2975

> <i_lp_mmshare_version>
43012

> <i_f3d_flags>
0

> <s_epik_input>
W2NIXTFbY0hdW2NIXVtjSF1jKGMxMiluKGMobjIpW0NASF0oW0NIM10pW09IXSlbQ0gyXVtDSDJdT2MzW2NIXVtjSF1bY0hdW2NIXWMzRg==

> <s_epik_cmdline>
J2VwaWtfcHl0aG9uJywgJy1waCcsICc3LjAnLCAnLXRuJywgJzgnLCAnLW1hJywgJzIwMCcsICctbWV0YWxfYmluZGluZycsICctaW1hZScsICc8aW5maWxlLm1hZT4nLCAnLW9tYWUnLCAnPG91dGZpbGUubWFlPic=

> <r_lp_tautomer_probability>
1

> <r_epik_Ionization_Penalty>
1.61121

> <r_epik_Ionization_Penalty_Charging>
1.61119

> <r_epik_Ionization_Penalty_Neutral>
2.92192e-05

> <r_epik_State_Penalty>
1.71016

> <r_epik_Charging_Adjusted_Penalty>
3.32134

> <i_epik_Tot_Q>
1

> <i_epik_Tot_abs_Q>
1

> <r_epik_Metal_State_Penalty>
5.76893

> <b_epik_Metal_Only>
0

> <s_lp_Force_Field>
OPLS_2005

> <r_lp_Energy>
20.882

> <b_lp_Chiralities_Consistent>
1

> <s_lp_Variant>
AV-unprocessed.smi:2975-4

> <Gold.Version>
5.8.1

> <Gold.Id.Protein>
6NUR|6NUR_protein|mol2

> <Gold.PLP.Fitness>
60.4650

> <Gold.PLP.PLP>
-49.6074

> <Gold.PLP.part.hbond>
-4.0000

> <Gold.PLP.part.metal>
0.0000

> <Gold.PLP.part.buried>
2.2022

> <Gold.PLP.part.nonpolar>
-47.8656

> <Gold.PLP.part.repulsive>
0.0765

> <Gold.PLP.ligand.clash>
0.0000

> <Gold.PLP.ligand.torsion>
0.5725

> <Gold.PLP.Chemscore.Hbond>
3.9920

> <Gold.PLP.Chemscore.CHOScore>
0.0000

> <Gold.PLP.Chemscore.Metal>
0.0000

> <Gold.Chemscore.Hbonds>
donor molecule, donor type, donor heavy atom, donor atom, acceptor molecule, acceptor atom, score
      L1  H     3    27       P1  7949  0.98
      L1  H     5    40       P1  7948  2.00
      P1  H 10752 10763       L1     3  1.00

> <Gold.PLP.Chemscore.Internal.Correction>
0.0266

> <Gold.Rescore>
     Score         DG    S(hbond)    S(metal)    S(lipo)     H(rot)  DE(clash)    DE(int)     intcor
     20.92     -22.84       2.52        0.00     126.32       2.28       1.20       0.72       ----

> <Gold.Chemscore.Fitness>
20.9181

> <Gold.Chemscore.DG>
-22.8390

> <Gold.Chemscore.ZeroCoef>
-5.4800

> <Gold.Chemscore.Hbond>
2.5181

> <Gold.Chemscore.Metal>
0.0000

> <Gold.Chemscore.Lipo>
126.3156

> <Gold.Chemscore.Internal_Hbond>
0.0000

> <Gold.Chemscore.DEClash>
1.2037

> <Gold.Chemscore.DEInternal>
0.7173

> <Gold.Chemscore.Rot>
2.2774

> <Gold.Chemscore.Internal.Correction>
   9.000000E+99

> <Gold.Chemscore.Hbonds>
donor molecule, donor type, donor heavy atom, donor atom, acceptor molecule, acceptor atom, score
      L1  H     3    27       P1  7949  0.78
      L1  H     5    40       P1  7948  0.86
      P1  H 10752 10763       L1     3  0.53

> <Gold.Chemscore.Hbond.Weighted>
-8.4103

> <Gold.Chemscore.Metal.Weighted>
-0.0000

> <Gold.Chemscore.Lipo.Weighted>
-14.7789

> <Gold.Chemscore.Internal_Hbond.Weighted>
0.0000

> <Gold.Chemscore.DEClash.Weighted>
1.2037

> <Gold.Chemscore.DEInternal.Weighted>
0.7173

> <Gold.Chemscore.Rot.Weighted>
5.8302

> <Gold.Chemscore.Internal.Correction.Weighted>
   9.000000E+99

> <Gold.Protein.RotatedTorsions>
[ 6907 6896 6895 6894 ] final  170.91 input  -60.11 | X-H torsion
[ 7974 7965 7964 7962 ] final  -75.06 input  175.53 | X-H torsion
[ 8008 7997 7996 7995 ] final  -86.80 input   59.86 | X-H torsion
[ 10167 10162 10161 10158 ] final -176.57 input  -65.29 | X-H torsion
[ 10718 10713 10712 10709 ] final  -27.78 input   66.30 | X-H torsion
[ 10763 10752 10751 10750 ] final   36.73 input  -60.55 | X-H torsion
[ 11005 11000 10999 10996 ] final -170.59 input  -57.11 | X-H torsion

> <Gold.Protein.ActiveResidues>
 VAL166  LYS551  ARG553  GLY616  TRP617  ASP618  TYR619  PRO620  LYS621  CYS622 
 ASP623  PHE694  ASN695  SER759  ASP760  ASP761  ALA762  ILE779  LEU786  VAL792 
 PHE793  MET794  SER795  GLU796  ALA797  LYS798  CYS799  TRP800  GLU811  SER814 

> <Gold.Protein.RotatedAtoms>
  151.8085  133.3379  159.3548 H   0  0  0  0  0  0  0  0  0  0  0  0  # atno 6907 bound_to 6896
  150.7334  134.5686  159.5888 H   0  0  0  0  0  0  0  0  0  0  0  0  # atno 6908 bound_to 6896
  152.3092  134.7519  160.0391 H   0  0  0  0  0  0  0  0  0  0  0  0  # atno 6909 bound_to 6896
  145.6309  140.9338  143.1087 H   0  0  0  0  0  0  0  0  0  0  0  0  # atno 7974 bound_to 7965
  154.6560  140.0574  157.0009 H   0  0  0  0  0  0  0  0  0  0  0  0  # atno 8008 bound_to 7997
  155.1300  140.3255  155.4458 H   0  0  0  0  0  0  0  0  0  0  0  0  # atno 8009 bound_to 7997
  156.2597  140.1982  156.6419 H   0  0  0  0  0  0  0  0  0  0  0  0  # atno 8010 bound_to 7997
  139.5523  144.2078  152.1099 H   0  0  0  0  0  0  0  0  0  0  0  0  # atno 10167 bound_to 10162
  156.4338  130.4450  149.7099 H   0  0  0  0  0  0  0  0  0  0  0  0  # atno 10718 bound_to 10713
  153.0065  135.6297  154.2032 H   0  0  0  0  0  0  0  0  0  0  0  0  # atno 10763 bound_to 10752
  154.1775  135.2815  155.3064 H   0  0  0  0  0  0  0  0  0  0  0  0  # atno 10764 bound_to 10752
  154.5860  135.5632  153.7292 H   0  0  0  0  0  0  0  0  0  0  0  0  # atno 10765 bound_to 10752
  140.5178  134.5739  157.5038 H   0  0  0  0  0  0  0  0  0  0  0  0  # atno 11005 bound_to 11000
  144.7194  139.8083  143.7387 LP  0  0  0  0  0  0  0  0  0  0  0  0  # atno 17320 bound_to 7965
  146.1357  139.4402  143.0140 LP  0  0  0  0  0  0  0  0  0  0  0  0  # atno 17321 bound_to 7965
  140.1575  144.5057  150.6651 LP  0  0  0  0  0  0  0  0  0  0  0  0  # atno 17342 bound_to 10162
  140.6788  143.2317  151.5437 LP  0  0  0  0  0  0  0  0  0  0  0  0  # atno 17343 bound_to 10162
  156.3992  130.7666  151.2672 LP  0  0  0  0  0  0  0  0  0  0  0  0  # atno 17370 bound_to 10713
  157.7508  131.0245  150.3879 LP  0  0  0  0  0  0  0  0  0  0  0  0  # atno 17371 bound_to 10713
  139.9623  134.7432  156.0212 LP  0  0  0  0  0  0  0  0  0  0  0  0  # atno 17394 bound_to 11000
  141.1351  133.6577  156.3570 LP  0  0  0  0  0  0  0  0  0  0  0  0  # atno 17395 bound_to 11000

$$$$
