AV-unprocessed.smi:1864|AV-procd|sdf|7552|dock5
  -GOLD-   22720 9263D 1   1.00000     0.00000
 Structure written by MMmdl.
 34 35  0  0  0  0  0  0  0  0  1 V2000
  147.1174  133.7955  162.2942 C   0  0  0  0  0  0  0  0  0  0  0  0
  147.3647  135.0904  161.5994 C   0  0  0  0  0  0  0  0  0  0  0  0
  147.1133  136.2478  162.1983 N   0  0  0  0  0  0  0  0  0  0  0  0
  147.4795  137.1972  161.2333 O   0  0  0  0  0  0  0  0  0  0  0  0
  147.8932  136.4882  160.1555 C   0  0  0  0  0  0  0  0  0  0  0  0
  148.4019  137.2227  158.9606 C   0  0  0  0  0  0  0  0  0  0  0  0
  149.9370  137.2276  158.8874 C   0  0  0  0  0  0  0  0  0  0  0  0
  150.4715  138.5841  158.8541 N   0  0  0  0  0  0  0  0  0  0  0  0
  150.9228  139.2123  157.7531 C   0  0  0  0  0  0  0  0  0  0  0  0
  150.9338  138.6857  156.6401 O   0  0  0  0  0  0  0  0  0  0  0  0
  151.4165  140.6017  157.9506 C   0  0  0  0  0  0  0  0  0  0  0  0
  151.9649  140.9424  159.0749 N   0  0  0  0  0  0  0  0  0  0  0  0
  152.4470  142.2162  159.2983 N   0  0  0  0  0  0  0  0  0  0  0  0
  153.2700  142.3592  160.4977 C   0  0  0  0  0  0  0  0  0  0  0  0
  152.1782  143.2911  158.5156 C   0  0  0  0  0  0  0  0  0  0  0  0
  152.6251  144.4188  158.7245 O   0  0  0  0  0  0  0  0  0  0  0  0
  151.2356  143.0543  157.3321 C   0  0  0  0  0  0  0  0  0  0  0  0
  151.2979  141.6021  156.8179 C   0  0  0  0  0  0  0  0  0  0  0  0
  147.8599  135.1697  160.3337 N   0  0  0  0  0  0  0  0  0  0  0  0
  146.0642  133.7049  162.5608 H   0  0  0  0  0  0  0  0  0  0  0  0
  147.7136  133.7357  163.2051 H   0  0  0  0  0  0  0  0  0  0  0  0
  147.3840  132.9554  161.6521 H   0  0  0  0  0  0  0  0  0  0  0  0
  147.9844  136.7615  158.0647 H   0  0  0  0  0  0  0  0  0  0  0  0
  148.0184  138.2432  158.9946 H   0  0  0  0  0  0  0  0  0  0  0  0
  150.3622  136.6783  159.7292 H   0  0  0  0  0  0  0  0  0  0  0  0
  150.2662  136.7138  157.9836 H   0  0  0  0  0  0  0  0  0  0  0  0
  150.4970  139.0879  159.7293 H   0  0  0  0  0  0  0  0  0  0  0  0
  154.2642  142.7279  160.2404 H   0  0  0  0  0  0  0  0  0  0  0  0
  153.3968  141.4108  161.0230 H   0  0  0  0  0  0  0  0  0  0  0  0
  152.8137  143.0630  161.1955 H   0  0  0  0  0  0  0  0  0  0  0  0
  150.2236  143.2812  157.6698 H   0  0  0  0  0  0  0  0  0  0  0  0
  151.4619  143.7526  156.5256 H   0  0  0  0  0  0  0  0  0  0  0  0
  152.1465  141.4825  156.1434 H   0  0  0  0  0  0  0  0  0  0  0  0
  150.4036  141.4080  156.2245 H   0  0  0  0  0  0  0  0  0  0  0  0
  1  2  1  0  0  0  0
  1 20  1  0  0  0  0
  1 21  1  0  0  0  0
  1 22  1  0  0  0  0
  2 19  1  0  0  0  0
  2  3  2  0  0  0  0
  3  4  1  0  0  0  0
  4  5  1  0  0  0  0
  5  6  1  0  0  0  0
  5 19  2  0  0  0  0
  6  7  1  0  0  0  0
  6 23  1  0  0  0  0
  6 24  1  0  0  0  0
  7  8  1  0  0  0  0
  7 25  1  0  0  0  0
  7 26  1  0  0  0  0
  8  9  1  0  0  0  0
  8 27  1  0  0  0  0
  9 10  2  0  0  0  0
  9 11  1  0  0  0  0
 11 18  1  0  0  0  0
 11 12  2  0  0  0  0
 12 13  1  0  0  0  0
 13 14  1  0  0  0  0
 13 15  1  0  0  0  0
 14 28  1  0  0  0  0
 14 29  1  0  0  0  0
 14 30  1  0  0  0  0
 15 16  2  0  0  0  0
 15 17  1  0  0  0  0
 17 18  1  0  0  0  0
 17 31  1  0  0  0  0
 17 32  1  0  0  0  0
 18 33  1  0  0  0  0
 18 34  1  0  0  0  0
M  END
> <s_m_source_file>
AV-unprocessed.smi

> <i_m_source_file_index>
1864

> <i_lp_mmshare_version>
43012

> <i_f3d_flags>
0

> <s_epik_input>
W0NIM11jMW5vYyhuMSlbQ0gyXVtDSDJdW05IXUMoPU8pQzI9Tk4oW0NIM10pQyg9TylbQ0gyXVtDSDJdMg==

> <s_epik_cmdline>
J2VwaWtfcHl0aG9uJywgJy1waCcsICc3LjAnLCAnLXRuJywgJzgnLCAnLW1hJywgJzIwMCcsICctbWV0YWxfYmluZGluZycsICctaW1hZScsICc8aW5maWxlLm1hZT4nLCAnLW9tYWUnLCAnPG91dGZpbGUubWFlPic=

> <r_lp_tautomer_probability>
1

> <r_epik_Ionization_Penalty>
0.00011851

> <r_epik_Ionization_Penalty_Charging>
0

> <r_epik_Ionization_Penalty_Neutral>
0.00011851

> <r_epik_State_Penalty>
-0

> <r_epik_Charging_Adjusted_Penalty>
0

> <i_epik_Tot_Q>
0

> <i_epik_Tot_abs_Q>
0

> <r_epik_Metal_State_Penalty>
0.091363

> <b_epik_Metal_Only>
0

> <s_epik_Chemistry_Notes>
This compound has an imine and may undergo hydrolysis.

> <s_lp_Force_Field>
OPLS_2005

> <r_lp_Energy>
12.468

> <b_lp_Chiralities_Consistent>
1

> <s_lp_Variant>
AV-unprocessed.smi:1864-1

> <Gold.Version>
5.8.1

> <Gold.Id.Protein>
6NUR|6NUR_protein|mol2

> <Gold.PLP.Fitness>
38.8830

> <Gold.PLP.PLP>
-35.6481

> <Gold.PLP.part.hbond>
-2.0000

> <Gold.PLP.part.metal>
0.0000

> <Gold.PLP.part.buried>
-6.4380

> <Gold.PLP.part.nonpolar>
-27.3433

> <Gold.PLP.part.repulsive>
0.2074

> <Gold.PLP.ligand.clash>
0.0000

> <Gold.PLP.ligand.torsion>
1.1013

> <Gold.PLP.Chemscore.Hbond>
1.8080

> <Gold.PLP.Chemscore.CHOScore>
0.0000

> <Gold.PLP.Chemscore.Metal>
0.0000

> <Gold.Chemscore.Hbonds>
donor molecule, donor type, donor heavy atom, donor atom, acceptor molecule, acceptor atom, score
      P1  H  6931  6943       L1     4  0.90
      P1  H  6934  6947       L1     4  0.94

> <Gold.PLP.Chemscore.Internal.Correction>
0.0135

> <Gold.Rescore>
     Score         DG    S(hbond)    S(metal)    S(lipo)     H(rot)  DE(clash)    DE(int)     intcor
     10.50     -11.70       1.54        0.00      48.71       1.80       0.03       1.17       ----

> <Gold.Chemscore.Fitness>
10.5000

> <Gold.Chemscore.DG>
-11.6978

> <Gold.Chemscore.ZeroCoef>
-5.4800

> <Gold.Chemscore.Hbond>
1.5376

> <Gold.Chemscore.Metal>
0.0000

> <Gold.Chemscore.Lipo>
48.7086

> <Gold.Chemscore.Internal_Hbond>
0.0000

> <Gold.Chemscore.DEClash>
0.0279

> <Gold.Chemscore.DEInternal>
1.1699

> <Gold.Chemscore.Rot>
1.8034

> <Gold.Chemscore.Internal.Correction>
   9.000000E+99

> <Gold.Chemscore.Hbonds>
donor molecule, donor type, donor heavy atom, donor atom, acceptor molecule, acceptor atom, score
      P1  H  6931  6943       L1     4  0.39
      P1  H  6934  6947       L1     4  0.85

> <Gold.Chemscore.Hbond.Weighted>
-5.1357

> <Gold.Chemscore.Metal.Weighted>
-0.0000

> <Gold.Chemscore.Lipo.Weighted>
-5.6989

> <Gold.Chemscore.Internal_Hbond.Weighted>
0.0000

> <Gold.Chemscore.DEClash.Weighted>
0.0279

> <Gold.Chemscore.DEInternal.Weighted>
1.1699

> <Gold.Chemscore.Rot.Weighted>
4.6167

> <Gold.Chemscore.Internal.Correction.Weighted>
   9.000000E+99

> <Gold.Protein.RotatedTorsions>
[ 6907 6896 6895 6894 ] final  -53.34 input  -60.11 | X-H torsion
[ 7974 7965 7964 7962 ] final  143.80 input  175.53 | X-H torsion
[ 8008 7997 7996 7995 ] final  -31.67 input   59.86 | X-H torsion
[ 10167 10162 10161 10158 ] final  -98.83 input  -65.29 | X-H torsion
[ 10718 10713 10712 10709 ] final  -24.39 input   66.30 | X-H torsion
[ 10763 10752 10751 10750 ] final   40.52 input  -60.55 | X-H torsion
[ 11005 11000 10999 10996 ] final   54.32 input  -57.11 | X-H torsion

> <Gold.Protein.ActiveResidues>
 VAL166  LYS551  ARG553  GLY616  TRP617  ASP618  TYR619  PRO620  LYS621  CYS622 
 ASP623  PHE694  ASN695  SER759  ASP760  ASP761  ALA762  ILE779  LEU786  VAL792 
 PHE793  MET794  SER795  GLU796  ALA797  LYS798  CYS799  TRP800  GLU811  SER814 

> <Gold.Protein.RotatedAtoms>
  150.8435  134.7736  159.6951 H   0  0  0  0  0  0  0  0  0  0  0  0  # atno 6907 bound_to 6896
  152.4517  134.5375  159.9839 H   0  0  0  0  0  0  0  0  0  0  0  0  # atno 6908 bound_to 6896
  151.5510  133.3379  159.2989 H   0  0  0  0  0  0  0  0  0  0  0  0  # atno 6909 bound_to 6896
  144.8890  139.5587  143.5807 H   0  0  0  0  0  0  0  0  0  0  0  0  # atno 7974 bound_to 7965
  154.4206  140.1758  156.1603 H   0  0  0  0  0  0  0  0  0  0  0  0  # atno 8008 bound_to 7997
  155.9843  140.3374  155.6668 H   0  0  0  0  0  0  0  0  0  0  0  0  # atno 8009 bound_to 7997
  155.6458  140.0685  157.2594 H   0  0  0  0  0  0  0  0  0  0  0  0  # atno 8010 bound_to 7997
  140.2688  143.3357  152.0554 H   0  0  0  0  0  0  0  0  0  0  0  0  # atno 10167 bound_to 10162
  156.4782  130.4539  149.6827 H   0  0  0  0  0  0  0  0  0  0  0  0  # atno 10718 bound_to 10713
  152.9934  135.6189  154.2639 H   0  0  0  0  0  0  0  0  0  0  0  0  # atno 10763 bound_to 10752
  154.2374  135.2790  155.2868 H   0  0  0  0  0  0  0  0  0  0  0  0  # atno 10764 bound_to 10752
  154.5398  135.5764  153.6887 H   0  0  0  0  0  0  0  0  0  0  0  0  # atno 10765 bound_to 10752
  140.0696  134.5489  155.9061 H   0  0  0  0  0  0  0  0  0  0  0  0  # atno 11005 bound_to 11000
  146.3042  139.7525  142.9069 LP  0  0  0  0  0  0  0  0  0  0  0  0  # atno 17320 bound_to 7965
  145.3818  141.0359  143.3173 LP  0  0  0  0  0  0  0  0  0  0  0  0  # atno 17321 bound_to 7965
  139.4995  144.6670  151.6333 LP  0  0  0  0  0  0  0  0  0  0  0  0  # atno 17342 bound_to 10162
  140.5906  143.9786  150.6322 LP  0  0  0  0  0  0  0  0  0  0  0  0  # atno 17343 bound_to 10162
  156.3548  130.7451  151.2415 LP  0  0  0  0  0  0  0  0  0  0  0  0  # atno 17370 bound_to 10713
  157.7485  131.0367  150.4421 LP  0  0  0  0  0  0  0  0  0  0  0  0  # atno 17371 bound_to 10713
  141.2006  133.6613  156.5907 LP  0  0  0  0  0  0  0  0  0  0  0  0  # atno 17394 bound_to 11000
  140.3647  134.7657  157.4558 LP  0  0  0  0  0  0  0  0  0  0  0  0  # atno 17395 bound_to 11000

$$$$
