#       Name:                AV-unprocessed.smi:577
#       Creating user name   scv26
#       Creation time:       Thu Mar 26 23:49:05 2020


#       File generated by GOLD software.
#

@<TRIPOS>MOLECULE
AV-unprocessed.smi:577
    45    46     1
SMALL
NO_CHARGES


@<TRIPOS>ATOM
      1 ****        -3.8095   2.3185   1.6982 C.3            1 S1                 0.0000
      2 ****        -4.4797   0.9552   1.7128 C.2            1 S1                 0.0000
      3 ****        -5.7989   0.7388   1.7346 C.2            1 S1                 0.0000
      4 ****        -6.2063  -0.9594   1.7054 S.3            1 S1                 0.0000
      5 ****        -4.4584  -1.3865   1.6553 C.2            1 S1                 0.0000
      6 ****        -4.0569  -2.5485   1.6164 O.2            1 S1                 0.0000
      7 ****        -3.7051  -0.2130   1.6731 N.am           1 S1                 0.0000
      8 ****        -2.2362  -0.2134   1.6584 C.3            1 S1                 0.0000
      9 ****        -1.6415  -0.2079   0.2436 C.2            1 S1                 0.0000
     10 ****        -2.3682  -0.1686  -0.7503 O.2            1 S1                 0.0000
     11 ****        -0.3015  -0.2394   0.1794 N.am           1 S1                 0.0000
     12 ****         0.5061  -0.2309  -1.0395 C.3            1 S1                 0.0000
     13 ****         1.3303  -1.5337  -1.1010 C.3            1 S1                 0.0000
     14 ****         2.4085  -1.5588  -2.2005 C.3            1 S1                 0.0000
     15 ****         3.8568  -1.5957  -1.6781 C.3            1 S1                 0.0000
     16 ****         4.2072  -0.6563  -0.5049 C.3            1 S1                 0.0000
     17 ****         3.8587   0.8310  -0.6923 C.3            1 S1                 0.0000
     18 ****         2.4789   1.2615  -0.1485 C.3            1 S1                 0.0000
     19 ****         1.3040   1.0915  -1.1300 C.3            1 S1                 0.0000
     20 ****        -4.5134   3.0806   1.3630 H              1 S1                 0.0000
     21 ****        -2.9560   2.3462   1.0213 H              1 S1                 0.0000
     22 ****        -3.4731   2.5855   2.6999 H              1 S1                 0.0000
     23 ****        -6.5715   1.4932   1.7551 H              1 S1                 0.0000
     24 ****        -1.8435   0.6333   2.2216 H              1 S1                 0.0000
     25 ****        -1.8693  -1.0993   2.1798 H              1 S1                 0.0000
     26 ****         0.2066  -0.2669   1.0515 H              1 S1                 0.0000
     27 ****        -0.1527  -0.2401  -1.9095 H              1 S1                 0.0000
     28 ****         1.7648  -1.7561  -0.1272 H              1 S1                 0.0000
     29 ****         0.6376  -2.3575  -1.2799 H              1 S1                 0.0000
     30 ****         2.2545  -2.4423  -2.8211 H              1 S1                 0.0000
     31 ****         2.2861  -0.7236  -2.8883 H              1 S1                 0.0000
     32 ****         4.0862  -2.6155  -1.3668 H              1 S1                 0.0000
     33 ****         4.5273  -1.3889  -2.5131 H              1 S1                 0.0000
     34 ****         3.7832  -1.0237   0.4293 H              1 S1                 0.0000
     35 ****         5.2857  -0.7287  -0.3594 H              1 S1                 0.0000
     36 ****         4.6039   1.4001  -0.1348 H              1 S1                 0.0000
     37 ****         3.9889   1.1348  -1.7316 H              1 S1                 0.0000
     38 ****         2.2663   0.7895   0.8111 H              1 S1                 0.0000
     39 ****         2.5507   2.3274   0.0707 H              1 S1                 0.0000
     40 ****         1.6502   1.2621  -2.1491 H              1 S1                 0.0000
     41 ****         0.5998   1.9060  -0.9533 H              1 S1                 0.0000
     42 ****        -4.7121  -3.3040   1.6116 LP             1 S1                 0.0000
     43 ****        -3.0753  -2.7377   1.5895 LP             1 S1                 0.0000
     44 ****        -3.3619  -0.1397  -0.6423 LP             1 S1                 0.0000
     45 ****        -1.9644  -0.1657  -1.6652 LP             1 S1                 0.0000
@<TRIPOS>BOND
    1    1    2 1     
    2    1   20 1     
    3    1   21 1     
    4    1   22 1     
    5    2    7 1     
    6    2    3 2     
    7    3    4 1     
    8    3   23 1     
    9    4    5 1     
   10    5    6 2     
   11    5    7 am    
   12    7    8 1     
   13    8    9 1     
   14    8   24 1     
   15    8   25 1     
   16    9   10 2     
   17    9   11 am    
   18   11   12 1     
   19   11   26 1     
   20   12   19 1     
   21   12   13 1     
   22   12   27 1     
   23   13   14 1     
   24   13   28 1     
   25   13   29 1     
   26   14   15 1     
   27   14   30 1     
   28   14   31 1     
   29   15   16 1     
   30   15   32 1     
   31   15   33 1     
   32   16   17 1     
   33   16   34 1     
   34   16   35 1     
   35   17   18 1     
   36   17   36 1     
   37   17   37 1     
   38   18   19 1     
   39   18   38 1     
   40   18   39 1     
   41   19   40 1     
   42   19   41 1     
   43    6   42 1     
   44    6   43 1     
   45   10   44 1     
   46   10   45 1     
@<TRIPOS>SUBSTRUCTURE
      1 S1             1
@<TRIPOS>SET
LONE_PAIRS      STATIC     ATOMS    <user>   **** ""
4 42 43 44 45
DONOR_HYDROGENS      STATIC     ATOMS    <user>   **** ""
1 26
ATOM$BLUE        STATIC     ATOMS    COLORGROUP SYSTEM
4 42 43 44 45
ATOM$RED        STATIC     ATOMS    COLORGROUP SYSTEM
1 26
