#       Name:                AV-unprocessed.smi:72
#       Creating user name   scv26
#       Creation time:       Thu Mar 26 16:57:02 2020


#       File generated by GOLD software.
#

@<TRIPOS>MOLECULE
AV-unprocessed.smi:72
    41    42     1
SMALL
NO_CHARGES


@<TRIPOS>ATOM
      1 ****        -3.8818   2.8807   1.8773 N.2            1 S1                 0.0000
      2 ****        -2.8859   2.2751   1.3354 C.2            1 S1                 0.0000
      3 ****        -1.7637   1.7863   2.0210 N.2            1 S1                 0.0000
      4 ****        -0.8286   1.1938   1.3442 C.2            1 S1                 0.0000
      5 ****        -0.9093   1.0161  -0.0994 N.am           1 S1                 0.0000
      6 ****         0.1820   0.3254  -0.8992 C.3            1 S1                 0.0000
      7 ****         1.3769   0.3147  -0.1722 O.3            1 S1                 0.0000
      8 ****         1.6529  -1.0011   0.2987 C.3            1 S1                 0.0000
      9 ****         3.1478  -1.1758   0.6168 C.3            1 S1                 0.0000
     10 ****         3.4270  -0.6762   1.9071 O.3            1 S1                 0.0000
     11 ****         1.1041  -1.8870  -0.8259 C.3            1 S1                 0.0000
     12 ****         2.0209  -1.9739  -1.9019 O.3            1 S1                 0.0000
     13 ****        -0.1533  -1.1440  -1.2588 C.3            1 S1                 0.0000
     14 ****        -1.2757  -1.6648  -0.5674 O.3            1 S1                 0.0000
     15 ****        -2.0364   1.5040  -0.8045 C.2            1 S1                 0.0000
     16 ****        -2.1588   1.3718  -2.0221 O.2            1 S1                 0.0000
     17 ****        -2.9773   2.1159  -0.0537 N.am           1 S1                 0.0000
     18 ****         0.3401   0.9546  -1.7769 H              1 S1                 0.0000
     19 ****         1.0583  -1.1932   1.1936 H              1 S1                 0.0000
     20 ****         0.8958  -2.9007  -0.4803 H              1 S1                 0.0000
     21 ****        -0.3395  -1.2295  -2.3302 H              1 S1                 0.0000
     22 ****        -4.5641   3.1359   1.1786 H              1 S1                 0.0000
     23 ****         0.0689   0.7972   1.8179 H              1 S1                 0.0000
     24 ****         3.4121  -2.2336   0.6124 H              1 S1                 0.0000
     25 ****         3.7740  -0.6786  -0.1247 H              1 S1                 0.0000
     26 ****         4.3489  -0.7896   2.0810 H              1 S1                 0.0000
     27 ****         2.7997  -2.4144  -1.5987 H              1 S1                 0.0000
     28 ****        -2.0422  -1.1832  -0.8386 H              1 S1                 0.0000
     29 ****        -3.7926   2.4728  -0.5298 H              1 S1                 0.0000
     30 ****        -3.9686   3.0724   2.8549 LP             1 S1                 0.0000
     31 ****        -1.6860   1.8925   3.0123 LP             1 S1                 0.0000
     32 ****         1.2946   0.9346   0.6082 LP             1 S1                 0.0000
     33 ****         2.1253   0.6186  -0.7618 LP             1 S1                 0.0000
     34 ****         2.8917  -1.1786   2.5861 LP             1 S1                 0.0000
     35 ****         3.1929   0.2951   1.9503 LP             1 S1                 0.0000
     36 ****         2.2554  -1.0552  -2.2199 LP             1 S1                 0.0000
     37 ****         1.6113  -2.4920  -2.6527 LP             1 S1                 0.0000
     38 ****        -1.1431  -1.5615   0.4184 LP             1 S1                 0.0000
     39 ****        -1.3894  -2.6333  -0.7888 LP             1 S1                 0.0000
     40 ****        -1.4474   0.9062  -2.5485 LP             1 S1                 0.0000
     41 ****        -2.9697   1.7301  -2.4849 LP             1 S1                 0.0000
@<TRIPOS>BOND
    1    1    2 2     
    2    1   22 1     
    3    2   17 1     
    4    2    3 1     
    5    3    4 2     
    6    4    5 1     
    7    4   23 1     
    8    5    6 1     
    9    5   15 am    
   10    6   18 1     
   11    6   13 1     
   12    6    7 1     
   13    7    8 1     
   14    8   19 1     
   15    8    9 1     
   16    8   11 1     
   17    9   10 1     
   18    9   24 1     
   19    9   25 1     
   20   10   26 1     
   21   11   20 1     
   22   11   12 1     
   23   11   13 1     
   24   12   27 1     
   25   13   21 1     
   26   13   14 1     
   27   14   28 1     
   28   15   16 2     
   29   15   17 am    
   30   17   29 1     
   31    1   30 1     
   32    3   31 1     
   33    7   32 1     
   34    7   33 1     
   35   10   34 1     
   36   10   35 1     
   37   12   36 1     
   38   12   37 1     
   39   14   38 1     
   40   14   39 1     
   41   16   40 1     
   42   16   41 1     
@<TRIPOS>SUBSTRUCTURE
      1 S1             1
@<TRIPOS>SET
LONE_PAIRS      STATIC     ATOMS    <user>   **** ""
12 30 31 32 33 34 35 36 37 38 39 40 41
DONOR_HYDROGENS      STATIC     ATOMS    <user>   **** ""
5 22 26 27 28 29
ATOM$BLUE        STATIC     ATOMS    COLORGROUP SYSTEM
12 30 31 32 33 34 35 36 37 38 39 40 41
ATOM$RED        STATIC     ATOMS    COLORGROUP SYSTEM
5 22 26 27 28 29
