AV-unprocessed.smi:1505|AV-procd|sdf|6075|dock5
  -GOLD-   22720 6193D 1   1.00000     0.00000
 Structure written by MMmdl.
 44 45  0  0  0  0  0  0  0  0  1 V2000
  152.8134  142.8560  162.1857 C   0  0  0  0  0  0  0  0  0  0  0  0
  152.4595  143.6074  160.9003 C   0  0  0  0  0  0  0  0  0  0  0  0
  151.8835  144.6905  161.0036 O   0  0  0  0  0  0  0  0  0  0  0  0
  152.7830  143.0611  159.7035 N   0  0  0  0  0  0  0  0  0  0  0  0
  153.4051  141.7458  159.5112 C   0  0  0  0  0  0  0  0  0  0  0  0
  152.3579  140.7858  158.9221 C   0  0  0  0  0  0  0  0  0  0  0  0
  151.7572  141.3430  157.6077 C   0  0  0  0  0  0  0  0  0  0  0  0
  150.6268  140.5268  157.1769 N   0  0  0  0  0  0  0  0  0  0  0  0
  150.4998  139.9785  155.9611 C   0  0  0  0  0  0  0  0  0  0  0  0
  151.2807  140.1799  155.0302 O   0  0  0  0  0  0  0  0  0  0  0  0
  149.4592  139.1344  155.9021 N   0  0  0  0  0  0  0  0  0  0  0  0
  149.1878  138.2124  154.8007 C   0  0  0  0  0  0  0  0  0  0  0  0
  147.8985  138.5856  154.0397 C   0  0  0  0  0  0  0  0  0  0  0  0
  147.6673  140.0732  153.9684 C   0  0  0  0  0  0  0  0  0  0  0  0
  148.6392  141.0989  153.7874 C   0  0  0  0  0  0  0  0  0  0  0  0
  148.1187  142.3144  153.8234 N   0  0  0  0  0  0  0  0  0  0  0  0
  146.8007  142.1083  154.0212 N   0  0  0  0  0  0  0  0  0  0  0  0
  145.9108  143.2439  154.1287 C   0  0  0  0  0  0  0  0  0  0  0  0
  146.4972  140.7662  154.1024 C   0  0  0  0  0  0  0  0  0  0  0  0
  151.3035  142.8097  157.7727 C   0  0  0  0  0  0  0  0  0  0  0  0
  152.4026  143.6695  158.4235 C   0  0  0  0  0  0  0  0  0  0  0  0
  152.3487  141.8695  162.1985 H   0  0  0  0  0  0  0  0  0  0  0  0
  152.4573  143.4019  163.0600 H   0  0  0  0  0  0  0  0  0  0  0  0
  153.8933  142.7418  162.2814 H   0  0  0  0  0  0  0  0  0  0  0  0
  154.2464  141.8442  158.8236 H   0  0  0  0  0  0  0  0  0  0  0  0
  153.8252  141.3226  160.4223 H   0  0  0  0  0  0  0  0  0  0  0  0
  152.8116  139.8089  158.7495 H   0  0  0  0  0  0  0  0  0  0  0  0
  151.5648  140.6289  159.6552 H   0  0  0  0  0  0  0  0  0  0  0  0
  152.5288  141.3175  156.8358 H   0  0  0  0  0  0  0  0  0  0  0  0
  149.9352  140.3010  157.8766 H   0  0  0  0  0  0  0  0  0  0  0  0
  148.8735  139.0475  156.7197 H   0  0  0  0  0  0  0  0  0  0  0  0
  150.0368  138.2285  154.1172 H   0  0  0  0  0  0  0  0  0  0  0  0
  149.1167  137.1875  155.1692 H   0  0  0  0  0  0  0  0  0  0  0  0
  147.9535  138.1667  153.0343 H   0  0  0  0  0  0  0  0  0  0  0  0
  147.0515  138.0891  154.5139 H   0  0  0  0  0  0  0  0  0  0  0  0
  149.7056  140.9959  153.6511 H   0  0  0  0  0  0  0  0  0  0  0  0
  144.8860  142.9032  154.2782 H   0  0  0  0  0  0  0  0  0  0  0  0
  145.9576  143.8379  153.2156 H   0  0  0  0  0  0  0  0  0  0  0  0
  146.2054  143.8632  154.9765 H   0  0  0  0  0  0  0  0  0  0  0  0
  145.4883  140.4185  154.2693 H   0  0  0  0  0  0  0  0  0  0  0  0
  151.0284  143.2280  156.8039 H   0  0  0  0  0  0  0  0  0  0  0  0
  150.4069  142.8521  158.3934 H   0  0  0  0  0  0  0  0  0  0  0  0
  152.0546  144.6977  158.5313 H   0  0  0  0  0  0  0  0  0  0  0  0
  153.2760  143.7194  157.7716 H   0  0  0  0  0  0  0  0  0  0  0  0
  1  2  1  0  0  0  0
  1 22  1  0  0  0  0
  1 23  1  0  0  0  0
  1 24  1  0  0  0  0
  2  3  2  0  0  0  0
  2  4  1  0  0  0  0
  4 21  1  0  0  0  0
  4  5  1  0  0  0  0
  5  6  1  0  0  0  0
  5 25  1  0  0  0  0
  5 26  1  0  0  0  0
  6  7  1  0  0  0  0
  6 27  1  0  0  0  0
  6 28  1  0  0  0  0
  7  8  1  0  0  0  0
  7 20  1  0  0  0  0
  7 29  1  0  0  0  0
  8  9  1  0  0  0  0
  8 30  1  0  0  0  0
  9 10  2  0  0  0  0
  9 11  1  0  0  0  0
 11 12  1  0  0  0  0
 11 31  1  0  0  0  0
 12 13  1  0  0  0  0
 12 32  1  0  0  0  0
 12 33  1  0  0  0  0
 13 14  1  0  0  0  0
 13 34  1  0  0  0  0
 13 35  1  0  0  0  0
 14 19  2  0  0  0  0
 14 15  1  0  0  0  0
 15 16  2  0  0  0  0
 15 36  1  0  0  0  0
 16 17  1  0  0  0  0
 17 18  1  0  0  0  0
 17 19  1  0  0  0  0
 18 37  1  0  0  0  0
 18 38  1  0  0  0  0
 18 39  1  0  0  0  0
 19 40  1  0  0  0  0
 20 21  1  0  0  0  0
 20 41  1  0  0  0  0
 20 42  1  0  0  0  0
 21 43  1  0  0  0  0
 21 44  1  0  0  0  0
M  END
> <s_m_source_file>
AV-unprocessed.smi

> <i_m_source_file_index>
1505

> <i_lp_mmshare_version>
43012

> <i_f3d_flags>
0

> <s_epik_input>
W0NIM11DKD1PKU4xW0NIMl1bQ0gyXVtDSF0oW0NIMl1bQ0gyXTEpW05IXUMoPU8pW05IXVtDSDJdW0NIMl1jMltjSF1ubihbQ0gzXSlbY0hdMg==

> <s_epik_cmdline>
J2VwaWtfcHl0aG9uJywgJy1waCcsICc3LjAnLCAnLXRuJywgJzgnLCAnLW1hJywgJzIwMCcsICctbWV0YWxfYmluZGluZycsICctaW1hZScsICc8aW5maWxlLm1hZT4nLCAnLW9tYWUnLCAnPG91dGZpbGUubWFlPic=

> <r_lp_tautomer_probability>
1

> <r_epik_Ionization_Penalty>
0.000559595

> <r_epik_Ionization_Penalty_Charging>
0

> <r_epik_Ionization_Penalty_Neutral>
0.000559595

> <r_epik_State_Penalty>
-0

> <r_epik_Charging_Adjusted_Penalty>
0

> <i_epik_Tot_Q>
0

> <i_epik_Tot_abs_Q>
0

> <r_epik_Metal_State_Penalty>
-0

> <b_epik_Metal_Only>
0

> <s_lp_Force_Field>
OPLS_2005

> <r_lp_Energy>
17.177

> <b_lp_Chiralities_Consistent>
1

> <s_lp_Variant>
AV-unprocessed.smi:1505-1

> <Gold.Version>
5.8.1

> <Gold.Id.Protein>
6NUR|6NUR_protein|mol2

> <Gold.PLP.Fitness>
49.2051

> <Gold.PLP.PLP>
-43.9515

> <Gold.PLP.part.hbond>
-2.0000

> <Gold.PLP.part.metal>
0.0000

> <Gold.PLP.part.buried>
-2.6866

> <Gold.PLP.part.nonpolar>
-38.4594

> <Gold.PLP.part.repulsive>
0.7059

> <Gold.PLP.ligand.clash>
0.0000

> <Gold.PLP.ligand.torsion>
0.5311

> <Gold.PLP.Chemscore.Hbond>
1.0000

> <Gold.PLP.Chemscore.CHOScore>
1.0948

> <Gold.PLP.Chemscore.Metal>
0.0000

> <Gold.Chemscore.Hbonds>
donor molecule, donor type, donor heavy atom, donor atom, acceptor molecule, acceptor atom, score
      P1  H  7989  7998       L1    10  1.00
      L1  C    15    36       P1  7957  0.23
      L1  C    19    40       P1 10175  0.84

> <Gold.PLP.Chemscore.Internal.Correction>
0.0314

> <Gold.Rescore>
     Score         DG    S(hbond)    S(metal)    S(lipo)     H(rot)  DE(clash)    DE(int)     intcor
     14.42     -14.86       0.99        0.00      88.96       1.69       0.04       0.41       ----

> <Gold.Chemscore.Fitness>
14.4158

> <Gold.Chemscore.DG>
-14.8642

> <Gold.Chemscore.ZeroCoef>
-5.4800

> <Gold.Chemscore.Hbond>
0.9886

> <Gold.Chemscore.Metal>
0.0000

> <Gold.Chemscore.Lipo>
88.9558

> <Gold.Chemscore.Internal_Hbond>
0.0000

> <Gold.Chemscore.DEClash>
0.0427

> <Gold.Chemscore.DEInternal>
0.4057

> <Gold.Chemscore.Rot>
1.6896

> <Gold.Chemscore.Internal.Correction>
   9.000000E+99

> <Gold.Chemscore.Hbonds>
donor molecule, donor type, donor heavy atom, donor atom, acceptor molecule, acceptor atom, score
      P1  H  7989  7998       L1    10  0.98
      P1  H  8022  8030       L1    16  0.01

> <Gold.Chemscore.Hbond.Weighted>
-3.3019

> <Gold.Chemscore.Metal.Weighted>
-0.0000

> <Gold.Chemscore.Lipo.Weighted>
-10.4078

> <Gold.Chemscore.Internal_Hbond.Weighted>
0.0000

> <Gold.Chemscore.DEClash.Weighted>
0.0427

> <Gold.Chemscore.DEInternal.Weighted>
0.4057

> <Gold.Chemscore.Rot.Weighted>
4.3255

> <Gold.Chemscore.Internal.Correction.Weighted>
   9.000000E+99

> <Gold.Protein.RotatedTorsions>
[ 6907 6896 6895 6894 ] final   40.86 input  -60.11 | X-H torsion
[ 7974 7965 7964 7962 ] final -136.45 input  175.53 | X-H torsion
[ 8008 7997 7996 7995 ] final -136.41 input   59.86 | X-H torsion
[ 10167 10162 10161 10158 ] final  122.70 input  -65.29 | X-H torsion
[ 10718 10713 10712 10709 ] final  166.56 input   66.30 | X-H torsion
[ 10763 10752 10751 10750 ] final  -13.04 input  -60.55 | X-H torsion
[ 11005 11000 10999 10996 ] final -148.42 input  -57.11 | X-H torsion

> <Gold.Protein.ActiveResidues>
 VAL166  LYS551  ARG553  GLY616  TRP617  ASP618  TYR619  PRO620  LYS621  CYS622 
 ASP623  PHE694  ASN695  SER759  ASP760  ASP761  ALA762  ILE779  LEU786  VAL792 
 PHE793  MET794  SER795  GLU796  ALA797  LYS798  CYS799  TRP800  GLU811  SER814 

> <Gold.Protein.RotatedAtoms>
  152.1879  134.8697  160.0520 H   0  0  0  0  0  0  0  0  0  0  0  0  # atno 6907 bound_to 6896
  151.9597  133.3686  159.4039 H   0  0  0  0  0  0  0  0  0  0  0  0  # atno 6908 bound_to 6896
  150.6929  134.4177  159.5235 H   0  0  0  0  0  0  0  0  0  0  0  0  # atno 6909 bound_to 6896
  144.8926  140.6663  143.5135 H   0  0  0  0  0  0  0  0  0  0  0  0  # atno 7974 bound_to 7965
  155.3947  140.0502  157.3039 H   0  0  0  0  0  0  0  0  0  0  0  0  # atno 8008 bound_to 7997
  154.5019  140.2160  155.9290 H   0  0  0  0  0  0  0  0  0  0  0  0  # atno 8009 bound_to 7997
  156.1478  140.3142  155.8603 H   0  0  0  0  0  0  0  0  0  0  0  0  # atno 8010 bound_to 7997
  139.5843  144.7000  151.3448 H   0  0  0  0  0  0  0  0  0  0  0  0  # atno 10167 bound_to 10162
  157.0641  131.0348  151.2636 H   0  0  0  0  0  0  0  0  0  0  0  0  # atno 10718 bound_to 10713
  153.5074  135.7016  153.5799 H   0  0  0  0  0  0  0  0  0  0  0  0  # atno 10763 bound_to 10752
  153.3904  135.3897  155.1919 H   0  0  0  0  0  0  0  0  0  0  0  0  # atno 10764 bound_to 10752
  154.8706  135.3857  154.4550 H   0  0  0  0  0  0  0  0  0  0  0  0  # atno 10765 bound_to 10752
  140.7614  134.3294  157.5100 H   0  0  0  0  0  0  0  0  0  0  0  0  # atno 11005 bound_to 11000
  145.3756  139.1648  143.4308 LP  0  0  0  0  0  0  0  0  0  0  0  0  # atno 17320 bound_to 7965
  146.3063  140.3832  142.8686 LP  0  0  0  0  0  0  0  0  0  0  0  0  # atno 17321 bound_to 7965
  140.7117  143.7373  150.7579 LP  0  0  0  0  0  0  0  0  0  0  0  0  # atno 17342 bound_to 10162
  140.0913  143.4875  152.2477 LP  0  0  0  0  0  0  0  0  0  0  0  0  # atno 17343 bound_to 10162
  157.4931  130.7834  149.7528 LP  0  0  0  0  0  0  0  0  0  0  0  0  # atno 17370 bound_to 10713
  155.9970  130.3903  150.2758 LP  0  0  0  0  0  0  0  0  0  0  0  0  # atno 17371 bound_to 10713
  139.8770  134.9204  156.3251 LP  0  0  0  0  0  0  0  0  0  0  0  0  # atno 17394 bound_to 11000
  140.9659  133.7358  156.0466 LP  0  0  0  0  0  0  0  0  0  0  0  0  # atno 17395 bound_to 11000

$$$$
