#       Name:                AV-unprocessed.smi:1718
#       Creating user name   scv26
#       Creation time:       Fri Mar 27 08:13:29 2020


#       File generated by GOLD software.
#

@<TRIPOS>MOLECULE
AV-unprocessed.smi:1718
    48    49     1
SMALL
NO_CHARGES


@<TRIPOS>ATOM
      1 ****        -0.9379  -2.5499   1.8031 C.3            1 S1                 0.0000
      2 ****        -0.5649  -1.7275   0.5602 C.3            1 S1                 0.0000
      3 ****         0.8576  -1.6583   0.5033 O.3            1 S1                 0.0000
      4 ****         1.4021  -1.1698  -0.7191 C.3            1 S1                 0.0000
      5 ****         2.9332  -1.2620  -0.6722 C.3            1 S1                 0.0000
      6 ****         3.4956  -2.6601  -0.3722 C.3            1 S1                 0.0000
      7 ****         4.5055  -2.4206   0.7396 C.3            1 S1                 0.0000
      8 ****         4.7283  -0.9131   0.7006 C.3            1 S1                 0.0000
      9 ****         3.4524  -0.4113   0.3417 O.3            1 S1                 0.0000
     10 ****        -1.1698  -0.3147   0.6138 C.2            1 S1                 0.0000
     11 ****        -1.0368   0.3618   1.6332 O.2            1 S1                 0.0000
     12 ****        -1.7888   0.0855  -0.5145 N.am           1 S1                 0.0000
     13 ****        -2.4149   1.3068  -0.8178 C.2            1 S1                 0.0000
     14 ****        -2.7288   2.2734   0.0892 C.2            1 S1                 0.0000
     15 ****        -3.3831   3.5187  -0.2928 C.2            1 S1                 0.0000
     16 ****        -3.6542   4.6594   0.6721 C.3            1 S1                 0.0000
     17 ****        -3.5005   5.8408   0.0734 F              1 S1                 0.0000
     18 ****        -4.9049   4.5830   1.1246 F              1 S1                 0.0000
     19 ****        -2.8294   4.6078   1.7182 F              1 S1                 0.0000
     20 ****        -3.6264   3.5884  -1.6506 C.2            1 S1                 0.0000
     21 ****        -3.3751   2.6692  -2.6082 N.pl3          1 S1                -1.0000
     22 ****        -2.7613   1.5094  -2.2402 C.2            1 S1                 0.0000
     23 ****        -2.4933   0.6337  -3.0639 O.2            1 S1                 0.0000
     24 ****        -2.0198  -2.6256   1.9190 H              1 S1                 0.0000
     25 ****        -0.5318  -2.1086   2.7142 H              1 S1                 0.0000
     26 ****        -0.5436  -3.5633   1.7262 H              1 S1                 0.0000
     27 ****        -0.9358  -2.2562  -0.3202 H              1 S1                 0.0000
     28 ****         1.0262  -1.7641  -1.5529 H              1 S1                 0.0000
     29 ****         1.1081  -0.1351  -0.8978 H              1 S1                 0.0000
     30 ****         3.3409  -0.9158  -1.6235 H              1 S1                 0.0000
     31 ****         2.7289  -3.3673  -0.0539 H              1 S1                 0.0000
     32 ****         3.9769  -3.0731  -1.2594 H              1 S1                 0.0000
     33 ****         4.0689  -2.7018   1.6988 H              1 S1                 0.0000
     34 ****         5.4276  -2.9876   0.6082 H              1 S1                 0.0000
     35 ****         5.0662  -0.5112   1.6562 H              1 S1                 0.0000
     36 ****         5.4572  -0.6445  -0.0658 H              1 S1                 0.0000
     37 ****        -1.7711  -0.5683  -1.2838 H              1 S1                 0.0000
     38 ****        -2.5153   2.1442   1.1367 H              1 S1                 0.0000
     39 ****        -4.0873   4.5273  -2.0250 H              1 S1                 0.0000
     40 ****         1.2166  -2.5794   0.6536 LP             1 S1                 0.0000
     41 ****         1.1659  -1.0561   1.2398 LP             1 S1                 0.0000
     42 ****         2.8462  -0.4174   1.1370 LP             1 S1                 0.0000
     43 ****         3.5373   0.5226  -0.0055 LP             1 S1                 0.0000
     44 ****        -0.5388  -0.0083   2.4175 LP             1 S1                 0.0000
     45 ****        -1.4267   1.2816   1.6773 LP             1 S1                 0.0000
     46 ****        -3.6322   2.8351  -3.5602 LP             1 S1                 0.0000
     47 ****        -2.0435  -0.2093  -2.7689 LP             1 S1                 0.0000
     48 ****        -2.7256   0.7658  -4.0275 LP             1 S1                 0.0000
@<TRIPOS>BOND
    1    1    2 1     
    2    1   24 1     
    3    1   25 1     
    4    1   26 1     
    5    2    3 1     
    6    2   10 1     
    7    2   27 1     
    8    3    4 1     
    9    4    5 1     
   10    4   28 1     
   11    4   29 1     
   12    5    9 1     
   13    5    6 1     
   14    5   30 1     
   15    6    7 1     
   16    6   31 1     
   17    6   32 1     
   18    7    8 1     
   19    7   33 1     
   20    7   34 1     
   21    8    9 1     
   22    8   35 1     
   23    8   36 1     
   24   10   11 2     
   25   10   12 am    
   26   12   13 1     
   27   12   37 1     
   28   13   22 1     
   29   13   14 2     
   30   14   15 1     
   31   14   38 1     
   32   15   16 1     
   33   15   20 2     
   34   16   17 1     
   35   16   18 1     
   36   16   19 1     
   37   20   21 1     
   38   20   39 1     
   39   21   22 1     
   40   22   23 2     
   41    3   40 1     
   42    3   41 1     
   43    9   42 1     
   44    9   43 1     
   45   11   44 1     
   46   11   45 1     
   47   21   46 1     
   48   23   47 1     
   49   23   48 1     
@<TRIPOS>SUBSTRUCTURE
      1 S1             1
@<TRIPOS>SET
LONE_PAIRS      STATIC     ATOMS    <user>   **** ""
9 40 41 42 43 44 45 46 47 48
DONOR_HYDROGENS      STATIC     ATOMS    <user>   **** ""
1 37
ATOM$BLUE        STATIC     ATOMS    COLORGROUP SYSTEM
9 40 41 42 43 44 45 46 47 48
ATOM$RED        STATIC     ATOMS    COLORGROUP SYSTEM
1 37
