AV-unprocessed.smi:2160|AV-procd|sdf|8799|dock1
  -GOLD-   2272011583D 1   1.00000     0.00000
 Structure written by MMmdl.
 44 46  0  0  0  0  0  0  0  0  2 V2000
  149.8021  129.6979  153.9797 C   0  0  0  0  0  0  0  0  0  0  0  0
  150.3880  130.5159  154.9817 O   0  0  0  0  0  0  0  0  0  0  0  0
  150.2612  131.8831  154.8591 C   0  0  0  0  0  0  0  0  0  0  0  0
  149.4614  132.5252  153.8805 C   0  0  0  0  0  0  0  0  0  0  0  0
  149.3912  133.9311  153.8269 C   0  0  0  0  0  0  0  0  0  0  0  0
  150.1094  134.7169  154.7504 C   0  0  0  0  0  0  0  0  0  0  0  0
  150.0405  136.2305  154.6717 C   0  0  0  0  0  0  0  0  0  0  0  0
  151.3120  136.8347  154.8455 O   0  0  0  0  0  0  0  0  0  0  0  0
  151.5158  137.3208  156.1618 C   0  0  0  0  0  0  0  0  0  0  0  0
  151.7821  138.8311  156.0977 C   0  0  2  0  0  0  0  0  0  0  0  0
  153.1537  139.0397  155.8266 O   0  0  0  0  0  0  0  0  0  0  0  0
  151.3974  139.5520  157.4050 C   0  0  0  0  0  0  0  0  0  0  0  0
  151.1608  140.9880  157.2118 N   0  0  0  0  0  0  0  0  0  0  0  0
  150.4188  141.6372  156.2741 C   0  0  0  0  0  0  0  0  0  0  0  0
  150.5154  142.9723  156.5261 N   0  3  0  0  0  0  0  0  0  0  0  0
  151.3308  143.1789  157.6410 C   0  0  0  0  0  0  0  0  0  0  0  0
  151.7243  144.3510  158.2791 C   0  0  0  0  0  0  0  0  0  0  0  0
  152.5666  144.2082  159.4016 C   0  0  0  0  0  0  0  0  0  0  0  0
  152.9857  142.9383  159.8495 C   0  0  0  0  0  0  0  0  0  0  0  0
  152.5813  141.7564  159.1943 C   0  0  0  0  0  0  0  0  0  0  0  0
  151.7488  141.9072  158.0862 C   0  0  0  0  0  0  0  0  0  0  0  0
  150.9145  134.0831  155.7191 C   0  0  0  0  0  0  0  0  0  0  0  0
  150.9841  132.6778  155.7721 C   0  0  0  0  0  0  0  0  0  0  0  0
  149.9855  128.6503  154.2185 H   0  0  0  0  0  0  0  0  0  0  0  0
  150.2385  129.8937  152.9992 H   0  0  0  0  0  0  0  0  0  0  0  0
  148.7219  129.8411  153.9303 H   0  0  0  0  0  0  0  0  0  0  0  0
  148.8928  131.9615  153.1567 H   0  0  0  0  0  0  0  0  0  0  0  0
  148.7810  134.4051  153.0720 H   0  0  0  0  0  0  0  0  0  0  0  0
  149.6275  136.5047  153.7000 H   0  0  0  0  0  0  0  0  0  0  0  0
  149.3532  136.6001  155.4345 H   0  0  0  0  0  0  0  0  0  0  0  0
  150.6459  137.1131  156.7873 H   0  0  0  0  0  0  0  0  0  0  0  0
  152.3706  136.8077  156.6057 H   0  0  0  0  0  0  0  0  0  0  0  0
  151.2185  139.2521  155.2645 H   0  0  0  0  0  0  0  0  0  0  0  0
  153.2287  139.5458  155.0321 H   0  0  0  0  0  0  0  0  0  0  0  0
  150.5009  139.1144  157.8463 H   0  0  0  0  0  0  0  0  0  0  0  0
  152.1905  139.4455  158.1466 H   0  0  0  0  0  0  0  0  0  0  0  0
  149.8525  141.1770  155.4773 H   0  0  0  0  0  0  0  0  0  0  0  0
  151.4045  145.3250  157.9382 H   0  0  0  0  0  0  0  0  0  0  0  0
  152.8975  145.0908  159.9297 H   0  0  0  0  0  0  0  0  0  0  0  0
  153.6306  142.8685  160.7136 H   0  0  0  0  0  0  0  0  0  0  0  0
  152.9056  140.7874  159.5447 H   0  0  0  0  0  0  0  0  0  0  0  0
  151.4829  134.6697  156.4258 H   0  0  0  0  0  0  0  0  0  0  0  0
  151.6019  132.2041  156.5208 H   0  0  0  0  0  0  0  0  0  0  0  0
  150.0558  143.6873  155.9772 H   0  0  0  0  0  0  0  0  0  0  0  0
  1  2  1  0  0  0  0
  1 24  1  0  0  0  0
  1 25  1  0  0  0  0
  1 26  1  0  0  0  0
  2  3  1  0  0  0  0
  3 23  1  0  0  0  0
  3  4  2  0  0  0  0
  4  5  1  0  0  0  0
  4 27  1  0  0  0  0
  5  6  2  0  0  0  0
  5 28  1  0  0  0  0
  6  7  1  0  0  0  0
  6 22  1  0  0  0  0
  7  8  1  0  0  0  0
  7 29  1  0  0  0  0
  7 30  1  0  0  0  0
  8  9  1  0  0  0  0
  9 10  1  0  0  0  0
  9 31  1  0  0  0  0
  9 32  1  0  0  0  0
 10 11  1  0  0  0  0
 10 12  1  0  0  0  0
 10 33  1  0  0  0  0
 11 34  1  0  0  0  0
 12 13  1  0  0  0  0
 12 35  1  0  0  0  0
 12 36  1  0  0  0  0
 13 21  1  0  0  0  0
 13 14  1  0  0  0  0
 14 15  2  0  0  0  0
 14 37  1  0  0  0  0
 15 16  1  0  0  0  0
 15 44  1  0  0  0  0
 16 21  2  0  0  0  0
 16 17  1  0  0  0  0
 17 18  2  0  0  0  0
 17 38  1  0  0  0  0
 18 19  1  0  0  0  0
 18 39  1  0  0  0  0
 19 20  2  0  0  0  0
 19 40  1  0  0  0  0
 20 21  1  0  0  0  0
 20 41  1  0  0  0  0
 22 23  2  0  0  0  0
 22 42  1  0  0  0  0
 23 43  1  0  0  0  0
M  CHG  1  15   1
M  END
> <s_m_source_file>
AV-unprocessed.smi

> <i_m_source_file_index>
2160

> <i_lp_mmshare_version>
43012

> <i_f3d_flags>
0

> <s_epik_input>
W0NIM11PYzFbY0hdW2NIXWMoW2NIXVtjSF0xKVtDSDJdT1tDSDJdW0NASF0oW09IXSlbQ0gyXW4oW2NIXW4yKWMoYzIzKVtjSF1bY0hdW2NIXVtjSF0z

> <s_epik_cmdline>
J2VwaWtfcHl0aG9uJywgJy1waCcsICc3LjAnLCAnLXRuJywgJzgnLCAnLW1hJywgJzIwMCcsICctbWV0YWxfYmluZGluZycsICctaW1hZScsICc8aW5maWxlLm1hZT4nLCAnLW9tYWUnLCAnPG91dGZpbGUubWFlPic=

> <r_lp_tautomer_probability>
1

> <r_epik_Ionization_Penalty>
1.28975

> <r_epik_Ionization_Penalty_Charging>
1.28975

> <r_epik_Ionization_Penalty_Neutral>
9.74819e-07

> <r_epik_State_Penalty>
1.36276

> <r_epik_Charging_Adjusted_Penalty>
2.65251

> <i_epik_Tot_Q>
1

> <i_epik_Tot_abs_Q>
1

> <r_epik_Metal_State_Penalty>
5.39298

> <b_epik_Metal_Only>
0

> <s_lp_Force_Field>
OPLS_2005

> <r_lp_Energy>
21.665

> <b_lp_Chiralities_Consistent>
1

> <s_lp_Variant>
AV-unprocessed.smi:2160-3

> <Gold.Version>
5.8.1

> <Gold.Id.Protein>
6NUR|6NUR_protein|mol2

> <Gold.PLP.Fitness>
55.6184

> <Gold.PLP.PLP>
-49.1659

> <Gold.PLP.part.hbond>
-2.8777

> <Gold.PLP.part.metal>
0.0000

> <Gold.PLP.part.buried>
-7.0694

> <Gold.PLP.part.nonpolar>
-40.9085

> <Gold.PLP.part.repulsive>
0.2075

> <Gold.PLP.ligand.clash>
0.0000

> <Gold.PLP.ligand.torsion>
1.5666

> <Gold.PLP.Chemscore.Hbond>
3.0000

> <Gold.PLP.Chemscore.CHOScore>
0.0000

> <Gold.PLP.Chemscore.Metal>
0.0000

> <Gold.Chemscore.Hbonds>
donor molecule, donor type, donor heavy atom, donor atom, acceptor molecule, acceptor atom, score
      L1  H    15    44       P1  8028  2.00
      P1  H 10752 10764       L1     8  0.93

> <Gold.PLP.Chemscore.Internal.Correction>
0.5857

> <Gold.Rescore>
     Score         DG    S(hbond)    S(metal)    S(lipo)     H(rot)  DE(clash)    DE(int)     intcor
     18.00     -19.32       1.90        0.00     123.93       2.74       0.01       1.30       ----

> <Gold.Chemscore.Fitness>
18.0021

> <Gold.Chemscore.DG>
-19.3153

> <Gold.Chemscore.ZeroCoef>
-5.4800

> <Gold.Chemscore.Hbond>
1.9004

> <Gold.Chemscore.Metal>
0.0000

> <Gold.Chemscore.Lipo>
123.9283

> <Gold.Chemscore.Internal_Hbond>
0.0000

> <Gold.Chemscore.DEClash>
0.0147

> <Gold.Chemscore.DEInternal>
1.2984

> <Gold.Chemscore.Rot>
2.7390

> <Gold.Chemscore.Internal.Correction>
   9.000000E+99

> <Gold.Chemscore.Hbonds>
donor molecule, donor type, donor heavy atom, donor atom, acceptor molecule, acceptor atom, score
      L1  H    15    44       P1  8028  0.96
      P1  H 10752 10764       L1     8  0.28

> <Gold.Chemscore.Hbond.Weighted>
-6.3475

> <Gold.Chemscore.Metal.Weighted>
-0.0000

> <Gold.Chemscore.Lipo.Weighted>
-14.4996

> <Gold.Chemscore.Internal_Hbond.Weighted>
0.0000

> <Gold.Chemscore.DEClash.Weighted>
0.0147

> <Gold.Chemscore.DEInternal.Weighted>
1.2984

> <Gold.Chemscore.Rot.Weighted>
7.0118

> <Gold.Chemscore.Internal.Correction.Weighted>
   9.000000E+99

> <Gold.Protein.RotatedTorsions>
[ 6907 6896 6895 6894 ] final   23.76 input  -60.11 | X-H torsion
[ 7974 7965 7964 7962 ] final  -51.62 input  175.53 | X-H torsion
[ 8008 7997 7996 7995 ] final  133.86 input   59.86 | X-H torsion
[ 10167 10162 10161 10158 ] final -171.84 input  -65.29 | X-H torsion
[ 10718 10713 10712 10709 ] final  178.05 input   66.30 | X-H torsion
[ 10763 10752 10751 10750 ] final  -58.15 input  -60.55 | X-H torsion
[ 11005 11000 10999 10996 ] final   85.33 input  -57.11 | X-H torsion

> <Gold.Protein.ActiveResidues>
 VAL166  LYS551  ARG553  GLY616  TRP617  ASP618  TYR619  PRO620  LYS621  CYS622 
 ASP623  PHE694  ASN695  SER759  ASP760  ASP761  ALA762  ILE779  LEU786  VAL792 
 PHE793  MET794  SER795  GLU796  ALA797  LYS798  CYS799  TRP800  GLU811  SER814 

> <Gold.Protein.RotatedAtoms>
  151.9472  135.0186  160.0539 H   0  0  0  0  0  0  0  0  0  0  0  0  # atno 6907 bound_to 6896
  152.1985  133.4819  159.5054 H   0  0  0  0  0  0  0  0  0  0  0  0  # atno 6908 bound_to 6896
  150.6949  134.1538  159.4193 H   0  0  0  0  0  0  0  0  0  0  0  0  # atno 6909 bound_to 6896
  145.9170  140.7867  142.9666 H   0  0  0  0  0  0  0  0  0  0  0  0  # atno 7974 bound_to 7965
  156.2995  140.2511  156.3322 H   0  0  0  0  0  0  0  0  0  0  0  0  # atno 8008 bound_to 7997
  154.9134  140.0402  157.1978 H   0  0  0  0  0  0  0  0  0  0  0  0  # atno 8009 bound_to 7997
  154.8382  140.2886  155.5681 H   0  0  0  0  0  0  0  0  0  0  0  0  # atno 8010 bound_to 7997
  139.5779  144.1491  152.1475 H   0  0  0  0  0  0  0  0  0  0  0  0  # atno 10167 bound_to 10162
  156.8962  130.9864  151.3042 H   0  0  0  0  0  0  0  0  0  0  0  0  # atno 10718 bound_to 10713
  154.2335  135.6356  153.5183 H   0  0  0  0  0  0  0  0  0  0  0  0  # atno 10763 bound_to 10752
  152.9944  135.5525  154.5987 H   0  0  0  0  0  0  0  0  0  0  0  0  # atno 10764 bound_to 10752
  154.5475  135.2899  155.1013 H   0  0  0  0  0  0  0  0  0  0  0  0  # atno 10765 bound_to 10752
  139.8974  134.8279  156.2567 H   0  0  0  0  0  0  0  0  0  0  0  0  # atno 11005 bound_to 11000
  144.6749  140.1915  143.7396 LP  0  0  0  0  0  0  0  0  0  0  0  0  # atno 17320 bound_to 7965
  145.8599  139.2217  143.1723 LP  0  0  0  0  0  0  0  0  0  0  0  0  # atno 17321 bound_to 7965
  140.1038  144.5517  150.6971 LP  0  0  0  0  0  0  0  0  0  0  0  0  # atno 17342 bound_to 10162
  140.7060  143.2468  151.4725 LP  0  0  0  0  0  0  0  0  0  0  0  0  # atno 17343 bound_to 10162
  157.6054  130.8543  149.8866 LP  0  0  0  0  0  0  0  0  0  0  0  0  # atno 17370 bound_to 10713
  156.0604  130.3701  150.0995 LP  0  0  0  0  0  0  0  0  0  0  0  0  # atno 17371 bound_to 10713
  141.0189  133.7053  156.1234 LP  0  0  0  0  0  0  0  0  0  0  0  0  # atno 17394 bound_to 11000
  140.7262  134.4304  157.5570 LP  0  0  0  0  0  0  0  0  0  0  0  0  # atno 17395 bound_to 11000

$$$$
