#       Name:                AV-unprocessed.smi:2931
#       Creating user name   scv26
#       Creation time:       Fri Mar 27 16:14:12 2020


#       File generated by GOLD software.
#

@<TRIPOS>MOLECULE
AV-unprocessed.smi:2931
    45    46     1
SMALL
NO_CHARGES


@<TRIPOS>ATOM
      1 ****        -3.4069   0.6021  -2.7402 C.3            1 S1                 0.0000
      2 ****        -3.3192   0.4839  -1.2689 N.4            1 S1                 1.0000
      3 ****        -4.6185   0.1165  -0.6519 C.3            1 S1                 0.0000
      4 ****        -4.4657  -0.1239   0.8599 C.3            1 S1                 0.0000
      5 ****        -3.8274   1.0896   1.5571 C.3            1 S1                 0.0000
      6 ****        -2.5050   1.4864   0.8759 C.3            1 S1                 0.0000
      7 ****        -1.4842   0.4721   1.1405 N.am           1 S1                 0.0000
      8 ****        -0.1635   0.6481   0.9943 C.2            1 S1                 0.0000
      9 ****         0.3521   1.6880   0.5847 O.2            1 S1                 0.0000
     10 ****         0.5282  -0.4453   1.3436 N.am           1 S1                 0.0000
     11 ****         1.9819  -0.5576   1.3075 C.3            1 S1                 0.0000
     12 ****         2.4987  -0.8128  -0.1180 C.3            1 S1                 0.0000
     13 ****         4.0085  -0.9478  -0.1614 C.ar           1 S1                 0.0000
     14 ****         4.8225   0.1845  -0.3856 C.ar           1 S1                 0.0000
     15 ****         6.2235   0.0293  -0.4164 C.ar           1 S1                 0.0000
     16 ****         6.7694  -1.1928  -0.2311 N.pl3          1 S1                 1.0000
     17 ****         6.0271  -2.3003  -0.0125 C.ar           1 S1                 0.0000
     18 ****         4.6208  -2.2064   0.0284 C.ar           1 S1                 0.0000
     19 ****        -2.7331   1.6935  -0.6385 C.3            1 S1                 0.0000
     20 ****        -4.0780   1.4119  -3.0290 H              1 S1                 0.0000
     21 ****        -3.7785  -0.3242  -3.1794 H              1 S1                 0.0000
     22 ****        -2.4245   0.8015  -3.1693 H              1 S1                 0.0000
     23 ****        -5.3459   0.9091  -0.8343 H              1 S1                 0.0000
     24 ****        -5.0071  -0.7857  -1.1258 H              1 S1                 0.0000
     25 ****        -5.4395  -0.3356   1.3023 H              1 S1                 0.0000
     26 ****        -3.8546  -1.0114   1.0283 H              1 S1                 0.0000
     27 ****        -4.5200   1.9313   1.5162 H              1 S1                 0.0000
     28 ****        -3.6666   0.8780   2.6150 H              1 S1                 0.0000
     29 ****        -2.1662   2.4273   1.3133 H              1 S1                 0.0000
     30 ****        -1.8077  -0.4173   1.4928 H              1 S1                 0.0000
     31 ****         0.0166  -1.2511   1.6732 H              1 S1                 0.0000
     32 ****         2.4349   0.3443   1.7231 H              1 S1                 0.0000
     33 ****         2.2728  -1.3802   1.9613 H              1 S1                 0.0000
     34 ****         2.0485  -1.7203  -0.5224 H              1 S1                 0.0000
     35 ****         2.1995  -0.0004  -0.7817 H              1 S1                 0.0000
     36 ****         4.3811   1.1602  -0.5302 H              1 S1                 0.0000
     37 ****         6.9183   0.8398  -0.5810 H              1 S1                 0.0000
     38 ****         6.5760  -3.2208   0.1230 H              1 S1                 0.0000
     39 ****         4.0227  -3.0887   0.2049 H              1 S1                 0.0000
     40 ****        -1.7925   1.9440  -1.1304 H              1 S1                 0.0000
     41 ****        -3.3999   2.5421  -0.8003 H              1 S1                 0.0000
     42 ****        -2.6821  -0.2767  -1.0800 H              1 S1                 0.0000
     43 ****         7.7855  -1.2828  -0.2570 H              1 S1                 0.0000
     44 ****        -0.2232   2.4677   0.3375 LP             1 S1                 0.0000
     45 ****         1.3462   1.7531   0.4991 LP             1 S1                 0.0000
@<TRIPOS>BOND
    1    1    2 1     
    2    1   20 1     
    3    1   21 1     
    4    1   22 1     
    5    2   19 1     
    6    2    3 1     
    7    2   42 1     
    8    3    4 1     
    9    3   23 1     
   10    3   24 1     
   11    4    5 1     
   12    4   25 1     
   13    4   26 1     
   14    5    6 1     
   15    5   27 1     
   16    5   28 1     
   17    6    7 1     
   18    6   19 1     
   19    6   29 1     
   20    7    8 am    
   21    7   30 1     
   22    8    9 2     
   23    8   10 am    
   24   10   11 1     
   25   10   31 1     
   26   11   12 1     
   27   11   32 1     
   28   11   33 1     
   29   12   13 1     
   30   12   34 1     
   31   12   35 1     
   32   13   18 ar    
   33   13   14 ar    
   34   14   15 ar    
   35   14   36 1     
   36   15   16 ar    
   37   15   37 1     
   38   16   17 ar    
   39   16   43 1     
   40   17   18 ar    
   41   17   38 1     
   42   18   39 1     
   43   19   40 1     
   44   19   41 1     
   45    9   44 1     
   46    9   45 1     
@<TRIPOS>SUBSTRUCTURE
      1 S1             1
@<TRIPOS>SET
LONE_PAIRS      STATIC     ATOMS    <user>   **** ""
2 44 45
DONOR_HYDROGENS      STATIC     ATOMS    <user>   **** ""
4 42 30 31 43
ATOM$BLUE        STATIC     ATOMS    COLORGROUP SYSTEM
2 44 45
ATOM$RED        STATIC     ATOMS    COLORGROUP SYSTEM
4 42 30 31 43
