AV-unprocessed.smi:2119|AV-procd|sdf|8634|dock2
  -GOLD-   2272011383D 1   1.00000     0.00000
 Structure written by MMmdl.
 48 50  0  0  0  0  0  0  0  0  2 V2000
  145.0972  135.9955  154.0422 O   0  0  0  0  0  0  0  0  0  0  0  0
  146.0945  135.9791  153.3210 C   0  0  0  0  0  0  0  0  0  0  0  0
  147.1603  136.7664  153.5209 N   0  0  0  0  0  0  0  0  0  0  0  0
  147.2787  137.7490  154.5918 C   0  0  0  0  0  0  0  0  0  0  0  0
  148.4543  138.7496  154.3981 C   0  0  2  0  0  0  0  0  0  0  0  0
  149.7696  138.3226  155.1099 C   0  0  2  0  0  0  0  0  0  0  0  0
  150.9769  139.1738  154.7477 C   0  0  0  0  0  0  0  0  0  0  0  0
  152.1391  138.2994  155.2005 C   0  0  0  0  0  0  0  0  0  0  0  0
  151.7123  136.9625  154.9740 O   0  0  0  0  0  0  0  0  0  0  0  0
  150.3070  136.9317  154.7456 C   0  0  0  0  0  0  0  0  0  0  0  0
  148.0760  140.1332  154.8141 N   0  3  0  0  0  0  0  0  0  0  0  0
  147.1972  140.8380  153.8492 C   0  0  0  0  0  0  0  0  0  0  0  0
  147.0331  142.3094  154.2654 C   0  0  0  0  0  0  0  0  0  0  0  0
  146.5207  142.3790  155.5912 O   0  0  0  0  0  0  0  0  0  0  0  0
  147.3942  141.7728  156.5369 C   0  0  0  0  0  0  0  0  0  0  0  0
  147.5625  140.2822  156.1994 C   0  0  0  0  0  0  0  0  0  0  0  0
  146.2713  135.1832  152.2531 N   0  0  0  0  0  0  0  0  0  0  0  0
  145.3584  134.2542  151.6860 C   0  0  0  0  0  0  0  0  0  0  0  0
  145.7272  133.2274  150.7833 C   0  0  0  0  0  0  0  0  0  0  0  0
  144.7324  132.3526  150.3062 C   0  0  0  0  0  0  0  0  0  0  0  0
  143.4090  132.5308  150.7536 C   0  0  0  0  0  0  0  0  0  0  0  0
  143.0458  133.4960  151.6242 N   0  0  0  0  0  0  0  0  0  0  0  0
  144.0050  134.3305  152.0782 C   0  0  0  0  0  0  0  0  0  0  0  0
  147.9419  136.6831  152.8871 H   0  0  0  0  0  0  0  0  0  0  0  0
  146.3276  138.2752  154.6789 H   0  0  0  0  0  0  0  0  0  0  0  0
  147.4055  137.1923  155.5204 H   0  0  0  0  0  0  0  0  0  0  0  0
  148.6830  138.8057  153.3330 H   0  0  0  0  0  0  0  0  0  0  0  0
  149.6346  138.3616  156.1915 H   0  0  0  0  0  0  0  0  0  0  0  0
  151.0254  139.3290  153.6687 H   0  0  0  0  0  0  0  0  0  0  0  0
  150.9791  140.1499  155.2338 H   0  0  0  0  0  0  0  0  0  0  0  0
  153.0636  138.5217  154.6670 H   0  0  0  0  0  0  0  0  0  0  0  0
  152.3215  138.4313  156.2678 H   0  0  0  0  0  0  0  0  0  0  0  0
  149.8440  136.1370  155.3306 H   0  0  0  0  0  0  0  0  0  0  0  0
  150.1425  136.7142  153.6894 H   0  0  0  0  0  0  0  0  0  0  0  0
  147.6245  140.7894  152.8471 H   0  0  0  0  0  0  0  0  0  0  0  0
  146.2200  140.3563  153.8051 H   0  0  0  0  0  0  0  0  0  0  0  0
  147.9851  142.8391  154.2032 H   0  0  0  0  0  0  0  0  0  0  0  0
  146.3425  142.8163  153.5913 H   0  0  0  0  0  0  0  0  0  0  0  0
  148.3588  142.2831  156.5406 H   0  0  0  0  0  0  0  0  0  0  0  0
  146.9693  141.8869  157.5342 H   0  0  0  0  0  0  0  0  0  0  0  0
  146.5997  139.7808  156.3039 H   0  0  0  0  0  0  0  0  0  0  0  0
  148.2466  139.8232  156.9127 H   0  0  0  0  0  0  0  0  0  0  0  0
  147.1812  135.2160  151.8171 H   0  0  0  0  0  0  0  0  0  0  0  0
  146.7472  133.0846  150.4615 H   0  0  0  0  0  0  0  0  0  0  0  0
  144.9798  131.5593  149.6163 H   0  0  0  0  0  0  0  0  0  0  0  0
  142.6225  131.8764  150.4076 H   0  0  0  0  0  0  0  0  0  0  0  0
  143.6787  135.0881  152.7760 H   0  0  0  0  0  0  0  0  0  0  0  0
  148.9441  140.6494  154.7919 H   0  0  0  0  0  0  0  0  0  0  0  0
  1  2  2  0  0  0  0
  2  3  1  0  0  0  0
  2 17  1  0  0  0  0
  3  4  1  0  0  0  0
  3 24  1  0  0  0  0
  4  5  1  0  0  0  0
  4 25  1  0  0  0  0
  4 26  1  0  0  0  0
  5  6  1  0  0  0  0
  5 11  1  0  0  0  0
  5 27  1  0  0  0  0
  6 10  1  0  0  0  0
  6  7  1  0  0  0  0
  6 28  1  0  0  0  0
  7  8  1  0  0  0  0
  7 29  1  0  0  0  0
  7 30  1  0  0  0  0
  8  9  1  0  0  0  0
  8 31  1  0  0  0  0
  8 32  1  0  0  0  0
  9 10  1  0  0  0  0
 10 33  1  0  0  0  0
 10 34  1  0  0  0  0
 11 16  1  0  0  0  0
 11 12  1  0  0  0  0
 11 48  1  0  0  0  0
 12 13  1  0  0  0  0
 12 35  1  0  0  0  0
 12 36  1  0  0  0  0
 13 14  1  0  0  0  0
 13 37  1  0  0  0  0
 13 38  1  0  0  0  0
 14 15  1  0  0  0  0
 15 16  1  0  0  0  0
 15 39  1  0  0  0  0
 15 40  1  0  0  0  0
 16 41  1  0  0  0  0
 16 42  1  0  0  0  0
 17 18  1  0  0  0  0
 17 43  1  0  0  0  0
 18 23  1  0  0  0  0
 18 19  2  0  0  0  0
 19 20  1  0  0  0  0
 19 44  1  0  0  0  0
 20 21  2  0  0  0  0
 20 45  1  0  0  0  0
 21 22  1  0  0  0  0
 21 46  1  0  0  0  0
 22 23  2  0  0  0  0
 23 47  1  0  0  0  0
M  CHG  1  11   1
M  END
> <s_m_source_file>
AV-unprocessed.smi

> <i_m_source_file_index>
2119

> <i_lp_mmshare_version>
43012

> <i_f3d_flags>
0

> <s_epik_input>
W2NIXTFuW2NIXVtjSF1bY0hdYzFbTkhdQyg9TylbTkhdW0NIMl1bQ0BIXShbQ0BASF0yW0NIMl1bQ0gyXU9bQ0gyXTIpTjNbQ0gyXVtDSDJdT1tDSDJdW0NIMl0z

> <s_epik_cmdline>
J2VwaWtfcHl0aG9uJywgJy1waCcsICc3LjAnLCAnLXRuJywgJzgnLCAnLW1hJywgJzIwMCcsICctbWV0YWxfYmluZGluZycsICctaW1hZScsICc8aW5maWxlLm1hZT4nLCAnLW9tYWUnLCAnPG91dGZpbGUubWFlPic=

> <r_epik_Ionization_Penalty>
0.987463

> <r_epik_Ionization_Penalty_Charging>
0.98326

> <r_epik_Ionization_Penalty_Neutral>
0.00420251

> <r_epik_State_Penalty>
1.01721

> <r_epik_Charging_Adjusted_Penalty>
2.00047

> <i_epik_Tot_Q>
1

> <i_epik_Tot_abs_Q>
1

> <r_epik_Metal_State_Penalty>
1.01439

> <b_epik_Metal_Only>
0

> <s_lp_Force_Field>
OPLS_2005

> <r_lp_Energy>
39.8774

> <b_lp_Chiralities_Consistent>
1

> <s_lp_Variant>
AV-unprocessed.smi:2119-5

> <Gold.Version>
5.8.1

> <Gold.Id.Protein>
6NUR|6NUR_protein|mol2

> <Gold.PLP.Fitness>
44.2567

> <Gold.PLP.PLP>
-34.2974

> <Gold.PLP.part.hbond>
-2.8857

> <Gold.PLP.part.metal>
0.0000

> <Gold.PLP.part.buried>
-5.7634

> <Gold.PLP.part.nonpolar>
-27.2567

> <Gold.PLP.part.repulsive>
0.5951

> <Gold.PLP.ligand.clash>
0.0000

> <Gold.PLP.ligand.torsion>
0.8862

> <Gold.PLP.Chemscore.Hbond>
2.8225

> <Gold.PLP.Chemscore.CHOScore>
1.0000

> <Gold.PLP.Chemscore.Metal>
0.0000

> <Gold.Chemscore.Hbonds>
donor molecule, donor type, donor heavy atom, donor atom, acceptor molecule, acceptor atom, score
      L1  H     3    24       P1  7948  0.94
      L1  H    17    43       P1  7948  0.88
      P1  H 10752 10765       L1     9  1.00
      L1  C    21    46       P1 10952  1.00

> <Gold.PLP.Chemscore.Internal.Correction>
0.2642

> <Gold.Rescore>
     Score         DG    S(hbond)    S(metal)    S(lipo)     H(rot)  DE(clash)    DE(int)     intcor
     17.72     -19.88       2.71        0.00      82.86       1.70       0.03       2.14       ----

> <Gold.Chemscore.Fitness>
17.7183

> <Gold.Chemscore.DG>
-19.8831

> <Gold.Chemscore.ZeroCoef>
-5.4800

> <Gold.Chemscore.Hbond>
2.7144

> <Gold.Chemscore.Metal>
0.0000

> <Gold.Chemscore.Lipo>
82.8584

> <Gold.Chemscore.Internal_Hbond>
0.0000

> <Gold.Chemscore.DEClash>
0.0270

> <Gold.Chemscore.DEInternal>
2.1378

> <Gold.Chemscore.Rot>
1.7021

> <Gold.Chemscore.Internal.Correction>
   9.000000E+99

> <Gold.Chemscore.Hbonds>
donor molecule, donor type, donor heavy atom, donor atom, acceptor molecule, acceptor atom, score
      L1  H     3    24       P1  7948  0.90
      L1  H    17    43       P1  7948  0.81
      P1  H 10752 10765       L1     9  0.96

> <Gold.Chemscore.Hbond.Weighted>
-9.0661

> <Gold.Chemscore.Metal.Weighted>
-0.0000

> <Gold.Chemscore.Lipo.Weighted>
-9.6944

> <Gold.Chemscore.Internal_Hbond.Weighted>
0.0000

> <Gold.Chemscore.DEClash.Weighted>
0.0270

> <Gold.Chemscore.DEInternal.Weighted>
2.1378

> <Gold.Chemscore.Rot.Weighted>
4.3575

> <Gold.Chemscore.Internal.Correction.Weighted>
   9.000000E+99

> <Gold.Protein.RotatedTorsions>
[ 6907 6896 6895 6894 ] final   10.90 input  -60.11 | X-H torsion
[ 7974 7965 7964 7962 ] final   19.46 input  175.53 | X-H torsion
[ 8008 7997 7996 7995 ] final  161.27 input   59.86 | X-H torsion
[ 10167 10162 10161 10158 ] final  144.41 input  -65.29 | X-H torsion
[ 10718 10713 10712 10709 ] final  -35.21 input   66.30 | X-H torsion
[ 10763 10752 10751 10750 ] final -173.37 input  -60.55 | X-H torsion
[ 11005 11000 10999 10996 ] final  -64.78 input  -57.11 | X-H torsion

> <Gold.Protein.ActiveResidues>
 VAL166  LYS551  ARG553  GLY616  TRP617  ASP618  TYR619  PRO620  LYS621  CYS622 
 ASP623  PHE694  ASN695  SER759  ASP760  ASP761  ALA762  ILE779  LEU786  VAL792 
 PHE793  MET794  SER795  GLU796  ALA797  LYS798  CYS799  TRP800  GLU811  SER814 

> <Gold.Protein.RotatedAtoms>
  151.7457  135.0844  160.0322 H   0  0  0  0  0  0  0  0  0  0  0  0  # atno 6907 bound_to 6896
  152.3450  133.6107  159.5912 H   0  0  0  0  0  0  0  0  0  0  0  0  # atno 6908 bound_to 6896
  150.7503  133.9579  159.3548 H   0  0  0  0  0  0  0  0  0  0  0  0  # atno 6909 bound_to 6896
  146.2148  139.8310  142.8660 H   0  0  0  0  0  0  0  0  0  0  0  0  # atno 7974 bound_to 7965
  156.2115  140.1782  156.7685 H   0  0  0  0  0  0  0  0  0  0  0  0  # atno 8008 bound_to 7997
  154.5729  140.0679  156.9020 H   0  0  0  0  0  0  0  0  0  0  0  0  # atno 8009 bound_to 7997
  155.2641  140.3338  155.4273 H   0  0  0  0  0  0  0  0  0  0  0  0  # atno 8010 bound_to 7997
  139.4947  144.5974  151.6554 H   0  0  0  0  0  0  0  0  0  0  0  0  # atno 10167 bound_to 10162
  156.3414  130.4294  149.7784 H   0  0  0  0  0  0  0  0  0  0  0  0  # atno 10718 bound_to 10713
  154.6086  135.2862  155.0457 H   0  0  0  0  0  0  0  0  0  0  0  0  # atno 10763 bound_to 10752
  154.1695  135.6475  153.5010 H   0  0  0  0  0  0  0  0  0  0  0  0  # atno 10764 bound_to 10752
  153.0185  135.5397  154.6831 H   0  0  0  0  0  0  0  0  0  0  0  0  # atno 10765 bound_to 10752
  141.1435  133.6671  156.5885 H   0  0  0  0  0  0  0  0  0  0  0  0  # atno 11005 bound_to 11000
  145.2997  141.0191  143.3616 LP  0  0  0  0  0  0  0  0  0  0  0  0  # atno 17320 bound_to 7965
  144.9015  139.4643  143.6630 LP  0  0  0  0  0  0  0  0  0  0  0  0  # atno 17321 bound_to 7965
  140.5615  144.0261  150.6172 LP  0  0  0  0  0  0  0  0  0  0  0  0  # atno 17342 bound_to 10162
  140.3348  143.3055  152.0650 LP  0  0  0  0  0  0  0  0  0  0  0  0  # atno 17343 bound_to 10162
  156.5019  130.8132  151.3136 LP  0  0  0  0  0  0  0  0  0  0  0  0  # atno 17370 bound_to 10713
  157.7447  130.9942  150.2699 LP  0  0  0  0  0  0  0  0  0  0  0  0  # atno 17371 bound_to 10713
  140.3782  134.7546  157.4644 LP  0  0  0  0  0  0  0  0  0  0  0  0  # atno 17394 bound_to 11000
  140.0658  134.5932  155.8697 LP  0  0  0  0  0  0  0  0  0  0  0  0  # atno 17395 bound_to 11000

$$$$
