AV-unprocessed.smi:2282|AV-procd|sdf|9196|dock2
  -GOLD-   2272012413D 1   1.00000     0.00000
 Structure written by MMmdl.
 32 33  0  0  0  0  0  0  0  0  1 V2000
  152.0357  144.6276  160.3590 C   0  0  0  0  0  0  0  0  0  0  0  0
  152.3677  143.1916  159.9981 C   0  0  0  0  0  0  0  0  0  0  0  0
  153.0633  142.5010  160.9277 N   0  0  0  0  0  0  0  0  0  0  0  0
  153.3786  141.2173  160.6595 C   0  0  0  0  0  0  0  0  0  0  0  0
  153.0261  140.5665  159.4618 C   0  0  0  0  0  0  0  0  0  0  0  0
  152.3116  141.2922  158.4786 C   0  0  0  0  0  0  0  0  0  0  0  0
  151.8859  140.7280  157.2437 N   0  0  0  0  0  0  0  0  0  0  0  0
  152.3313  139.6219  156.6203 C   0  0  0  0  0  0  0  0  0  0  0  0
  153.2242  138.8886  157.0457 O   0  0  0  0  0  0  0  0  0  0  0  0
  151.6506  139.2979  155.2851 C   0  0  1  0  0  0  0  0  0  0  0  0
  150.7710  138.0342  155.3176 C   0  0  0  0  0  0  0  0  0  0  0  0
  149.3592  138.5792  155.2312 C   0  0  0  0  0  0  0  0  0  0  0  0
  149.5667  139.8562  154.4251 C   0  0  1  0  0  0  0  0  0  0  0  0
  148.4310  140.8753  154.5634 C   0  0  0  0  0  0  0  0  0  0  0  0
  150.7737  140.3758  154.9619 O   0  0  0  0  0  0  0  0  0  0  0  0
  151.9640  142.6339  158.7622 C   0  0  0  0  0  0  0  0  0  0  0  0
  151.0690  143.5780  157.6183 Cl  0  0  0  0  0  0  0  0  0  0  0  0
  150.9560  144.7792  160.3574 H   0  0  0  0  0  0  0  0  0  0  0  0
  152.4817  145.3119  159.6364 H   0  0  0  0  0  0  0  0  0  0  0  0
  152.4108  144.8904  161.3491 H   0  0  0  0  0  0  0  0  0  0  0  0
  153.9238  140.6886  161.4274 H   0  0  0  0  0  0  0  0  0  0  0  0
  153.2961  139.5302  159.3297 H   0  0  0  0  0  0  0  0  0  0  0  0
  151.2041  141.2725  156.7356 H   0  0  0  0  0  0  0  0  0  0  0  0
  152.3978  139.2003  154.4957 H   0  0  0  0  0  0  0  0  0  0  0  0
  150.9854  137.4167  154.4445 H   0  0  0  0  0  0  0  0  0  0  0  0
  150.9162  137.4093  156.2003 H   0  0  0  0  0  0  0  0  0  0  0  0
  148.6611  137.8859  154.7613 H   0  0  0  0  0  0  0  0  0  0  0  0
  148.9895  138.8145  156.2304 H   0  0  0  0  0  0  0  0  0  0  0  0
  149.7282  139.6111  153.3739 H   0  0  0  0  0  0  0  0  0  0  0  0
  147.4937  140.4686  154.1832 H   0  0  0  0  0  0  0  0  0  0  0  0
  148.6526  141.7834  154.0024 H   0  0  0  0  0  0  0  0  0  0  0  0
  148.2770  141.1566  155.6057 H   0  0  0  0  0  0  0  0  0  0  0  0
  1  2  1  0  0  0  0
  1 18  1  0  0  0  0
  1 19  1  0  0  0  0
  1 20  1  0  0  0  0
  2 16  1  0  0  0  0
  2  3  2  0  0  0  0
  3  4  1  0  0  0  0
  4  5  2  0  0  0  0
  4 21  1  0  0  0  0
  5  6  1  0  0  0  0
  5 22  1  0  0  0  0
  6  7  1  0  0  0  0
  6 16  2  0  0  0  0
  7  8  1  0  0  0  0
  7 23  1  0  0  0  0
  8  9  2  0  0  0  0
  8 10  1  0  0  0  0
 10 15  1  0  0  0  0
 10 11  1  0  0  0  0
 10 24  1  0  0  0  0
 11 12  1  0  0  0  0
 11 25  1  0  0  0  0
 11 26  1  0  0  0  0
 12 13  1  0  0  0  0
 12 27  1  0  0  0  0
 12 28  1  0  0  0  0
 13 14  1  0  0  0  0
 13 15  1  0  0  0  0
 13 29  1  0  0  0  0
 14 30  1  0  0  0  0
 14 31  1  0  0  0  0
 14 32  1  0  0  0  0
 16 17  1  0  0  0  0
M  END
> <s_m_source_file>
AV-unprocessed.smi

> <i_m_source_file_index>
2282

> <i_lp_mmshare_version>
43012

> <i_f3d_flags>
0

> <s_epik_input>
W0NIM11jMW5bY0hdW2NIXWMoYzFDbClbTkhdQyg9TylbQ0BASF0yW0NIMl1bQ0gyXVtDQEhdKE8yKVtDSDNd

> <s_epik_cmdline>
J2VwaWtfcHl0aG9uJywgJy1waCcsICc3LjAnLCAnLXRuJywgJzgnLCAnLW1hJywgJzIwMCcsICctbWV0YWxfYmluZGluZycsICctaW1hZScsICc8aW5maWxlLm1hZT4nLCAnLW9tYWUnLCAnPG91dGZpbGUubWFlPic=

> <r_epik_Ionization_Penalty>
0.00037231

> <r_epik_Ionization_Penalty_Charging>
0

> <r_epik_Ionization_Penalty_Neutral>
0.00037231

> <r_epik_State_Penalty>
0.000225113

> <r_epik_Charging_Adjusted_Penalty>
0.000225113

> <i_epik_Tot_Q>
0

> <i_epik_Tot_abs_Q>
0

> <r_epik_Metal_State_Penalty>
-0

> <b_epik_Metal_Only>
0

> <s_lp_Force_Field>
OPLS_2005

> <r_lp_Energy>
24.1331

> <b_lp_Chiralities_Consistent>
1

> <s_lp_Variant>
AV-unprocessed.smi:2282-2

> <Gold.Version>
5.8.1

> <Gold.Id.Protein>
6NUR|6NUR_protein|mol2

> <Gold.PLP.Fitness>
39.8199

> <Gold.PLP.PLP>
-34.8890

> <Gold.PLP.part.hbond>
-2.0000

> <Gold.PLP.part.metal>
0.0000

> <Gold.PLP.part.buried>
-3.0913

> <Gold.PLP.part.nonpolar>
-30.0287

> <Gold.PLP.part.repulsive>
0.1867

> <Gold.PLP.ligand.clash>
0.0000

> <Gold.PLP.ligand.torsion>
0.1829

> <Gold.PLP.Chemscore.Hbond>
1.7632

> <Gold.PLP.Chemscore.CHOScore>
0.0000

> <Gold.PLP.Chemscore.Metal>
0.0000

> <Gold.Chemscore.Hbonds>
donor molecule, donor type, donor heavy atom, donor atom, acceptor molecule, acceptor atom, score
      P1  H  7989  7998       L1    15  0.80
      P1  H  7997  8008       L1     9  0.80

> <Gold.PLP.Chemscore.Internal.Correction>
0.0071

> <Gold.Rescore>
     Score         DG    S(hbond)    S(metal)    S(lipo)     H(rot)  DE(clash)    DE(int)     intcor
     15.35     -18.59       1.13        0.00     101.80       1.00       1.89       1.35       ----

> <Gold.Chemscore.Fitness>
15.3512

> <Gold.Chemscore.DG>
-18.5932

> <Gold.Chemscore.ZeroCoef>
-5.4800

> <Gold.Chemscore.Hbond>
1.1264

> <Gold.Chemscore.Metal>
0.0000

> <Gold.Chemscore.Lipo>
101.8040

> <Gold.Chemscore.Internal_Hbond>
0.0000

> <Gold.Chemscore.DEClash>
1.8914

> <Gold.Chemscore.DEInternal>
1.3506

> <Gold.Chemscore.Rot>
1.0000

> <Gold.Chemscore.Internal.Correction>
   9.000000E+99

> <Gold.Chemscore.Hbonds>
donor molecule, donor type, donor heavy atom, donor atom, acceptor molecule, acceptor atom, score
      P1  H  7989  7998       L1    15  0.04
      P1  H  7997  8008       L1     9  0.28

> <Gold.Chemscore.Hbond.Weighted>
-3.7622

> <Gold.Chemscore.Metal.Weighted>
-0.0000

> <Gold.Chemscore.Lipo.Weighted>
-11.9111

> <Gold.Chemscore.Internal_Hbond.Weighted>
0.0000

> <Gold.Chemscore.DEClash.Weighted>
1.8914

> <Gold.Chemscore.DEInternal.Weighted>
1.3506

> <Gold.Chemscore.Rot.Weighted>
2.5600

> <Gold.Chemscore.Internal.Correction.Weighted>
   9.000000E+99

> <Gold.Protein.RotatedTorsions>
[ 6907 6896 6895 6894 ] final   46.91 input  -60.11 | X-H torsion
[ 7974 7965 7964 7962 ] final  144.63 input  175.53 | X-H torsion
[ 8008 7997 7996 7995 ] final  -91.98 input   59.86 | X-H torsion
[ 10167 10162 10161 10158 ] final   58.42 input  -65.29 | X-H torsion
[ 10718 10713 10712 10709 ] final  -82.40 input   66.30 | X-H torsion
[ 10763 10752 10751 10750 ] final  144.13 input  -60.55 | X-H torsion
[ 11005 11000 10999 10996 ] final  -53.61 input  -57.11 | X-H torsion

> <Gold.Protein.ActiveResidues>
 VAL166  LYS551  ARG553  GLY616  TRP617  ASP618  TYR619  PRO620  LYS621  CYS622 
 ASP623  PHE694  ASN695  SER759  ASP760  ASP761  ALA762  ILE779  LEU786  VAL792 
 PHE793  MET794  SER795  GLU796  ALA797  LYS798  CYS799  TRP800  GLU811  SER814 

> <Gold.Protein.RotatedAtoms>
  152.2619  134.8025  160.0428 H   0  0  0  0  0  0  0  0  0  0  0  0  # atno 6907 bound_to 6896
  151.8668  133.3462  159.3730 H   0  0  0  0  0  0  0  0  0  0  0  0  # atno 6908 bound_to 6896
  150.7120  134.5079  159.5637 H   0  0  0  0  0  0  0  0  0  0  0  0  # atno 6909 bound_to 6896
  144.8819  139.5686  143.5839 H   0  0  0  0  0  0  0  0  0  0  0  0  # atno 7974 bound_to 7965
  154.7174  140.0514  157.0608 H   0  0  0  0  0  0  0  0  0  0  0  0  # atno 8008 bound_to 7997
  155.0473  140.3175  155.4685 H   0  0  0  0  0  0  0  0  0  0  0  0  # atno 8009 bound_to 7997
  156.2807  140.2122  156.5598 H   0  0  0  0  0  0  0  0  0  0  0  0  # atno 8010 bound_to 7997
  140.1874  144.4120  150.6587 H   0  0  0  0  0  0  0  0  0  0  0  0  # atno 10167 bound_to 10162
  156.0034  130.4633  150.4100 H   0  0  0  0  0  0  0  0  0  0  0  0  # atno 10718 bound_to 10713
  153.9839  135.2938  155.3418 H   0  0  0  0  0  0  0  0  0  0  0  0  # atno 10763 bound_to 10752
  154.7253  135.5091  153.8880 H   0  0  0  0  0  0  0  0  0  0  0  0  # atno 10764 bound_to 10752
  153.0841  135.6688  154.0099 H   0  0  0  0  0  0  0  0  0  0  0  0  # atno 10765 bound_to 10752
  141.0984  133.6621  156.4197 H   0  0  0  0  0  0  0  0  0  0  0  0  # atno 11005 bound_to 11000
  146.3000  139.7397  142.9098 LP  0  0  0  0  0  0  0  0  0  0  0  0  # atno 17320 bound_to 7965
  145.3938  141.0376  143.3109 LP  0  0  0  0  0  0  0  0  0  0  0  0  # atno 17321 bound_to 7965
  140.6479  143.2218  151.6144 LP  0  0  0  0  0  0  0  0  0  0  0  0  # atno 17342 bound_to 10162
  139.5270  144.3029  152.1058 LP  0  0  0  0  0  0  0  0  0  0  0  0  # atno 17343 bound_to 10162
  157.2163  131.0472  151.2571 LP  0  0  0  0  0  0  0  0  0  0  0  0  # atno 17370 bound_to 10713
  157.3842  130.7247  149.6651 LP  0  0  0  0  0  0  0  0  0  0  0  0  # atno 17371 bound_to 10713
  140.5082  134.6420  157.5274 LP  0  0  0  0  0  0  0  0  0  0  0  0  # atno 17394 bound_to 11000
  139.9828  134.7110  155.9828 LP  0  0  0  0  0  0  0  0  0  0  0  0  # atno 17395 bound_to 11000

$$$$
