AV-unprocessed.smi:2867|AV-procd|sdf|11026|dock10
  -GOLD-   2272015493D 1   1.00000     0.00000
 Structure written by MMmdl.
 40 42  0  0  0  0  0  0  0  0  3 V2000
  148.2573  140.9890  153.8554 C   0  0  0  0  0  0  0  0  0  0  0  0
  149.2397  140.4099  154.6949 O   0  0  0  0  0  0  0  0  0  0  0  0
  149.5937  141.2492  155.7829 C   0  0  0  0  0  0  0  0  0  0  0  0
  150.6609  140.5525  156.6381 C   0  0  0  0  0  0  0  0  0  0  0  0
  150.1297  140.1253  157.9424 N   0  0  0  0  0  0  0  0  0  0  0  0
  150.4152  140.5370  159.2105 C   0  0  0  0  0  0  0  0  0  0  0  0
  151.3746  141.5806  159.6020 C   0  0  0  0  0  0  0  0  0  0  0  0
  151.7951  141.6902  160.9455 C   0  0  0  0  0  0  0  0  0  0  0  0
  152.7166  142.6824  161.3327 C   0  0  0  0  0  0  0  0  0  0  0  0
  153.2243  143.5820  160.3772 C   0  0  0  0  0  0  0  0  0  0  0  0
  152.8076  143.4872  159.0365 C   0  0  0  0  0  0  0  0  0  0  0  0
  153.2913  144.3522  158.1139 F   0  0  0  0  0  0  0  0  0  0  0  0
  151.8862  142.4935  158.6541 C   0  0  0  0  0  0  0  0  0  0  0  0
  149.6908  139.7886  160.0844 N   0  3  0  0  0  0  0  0  0  0  0  0
  148.9153  138.8780  159.3649 C   0  0  0  0  0  0  0  0  0  0  0  0
  148.0182  137.9098  159.8012 C   0  0  0  0  0  0  0  0  0  0  0  0
  147.3987  137.1323  158.8005 C   0  0  0  0  0  0  0  0  0  0  0  0
  146.2364  135.8622  159.2904 S   0  0  0  0  0  0  0  0  0  0  0  0
  145.2323  136.8197  160.1118 N   0  5  0  0  0  0  0  0  0  0  0  0
  145.6426  135.3363  158.0516 O   0  0  0  0  0  0  0  0  0  0  0  0
  146.9771  134.9327  160.1575 O   0  0  0  0  0  0  0  0  0  0  0  0
  147.6747  137.3261  157.4302 C   0  0  0  0  0  0  0  0  0  0  0  0
  148.5865  138.3132  157.0016 C   0  0  0  0  0  0  0  0  0  0  0  0
  149.1949  139.0829  157.9936 C   0  0  0  0  0  0  0  0  0  0  0  0
  148.0252  140.3044  153.0397 H   0  0  0  0  0  0  0  0  0  0  0  0
  148.6114  141.9243  153.4200 H   0  0  0  0  0  0  0  0  0  0  0  0
  147.3354  141.1841  154.4048 H   0  0  0  0  0  0  0  0  0  0  0  0
  149.9797  142.1998  155.4119 H   0  0  0  0  0  0  0  0  0  0  0  0
  148.7131  141.4673  156.3896 H   0  0  0  0  0  0  0  0  0  0  0  0
  151.0374  139.6738  156.1174 H   0  0  0  0  0  0  0  0  0  0  0  0
  151.5221  141.2019  156.7958 H   0  0  0  0  0  0  0  0  0  0  0  0
  151.4151  141.0017  161.6864 H   0  0  0  0  0  0  0  0  0  0  0  0
  153.0343  142.7526  162.3625 H   0  0  0  0  0  0  0  0  0  0  0  0
  153.9308  144.3439  160.6722 H   0  0  0  0  0  0  0  0  0  0  0  0
  151.5681  142.4361  157.6234 H   0  0  0  0  0  0  0  0  0  0  0  0
  147.8012  137.7548  160.8478 H   0  0  0  0  0  0  0  0  0  0  0  0
  144.6517  137.3222  159.4300 H   0  0  0  0  0  0  0  0  0  0  0  0
  147.1783  136.7115  156.6935 H   0  0  0  0  0  0  0  0  0  0  0  0
  148.7929  138.4531  155.9511 H   0  0  0  0  0  0  0  0  0  0  0  0
  149.7263  139.8918  161.0903 H   0  0  0  0  0  0  0  0  0  0  0  0
  1  2  1  0  0  0  0
  1 25  1  0  0  0  0
  1 26  1  0  0  0  0
  1 27  1  0  0  0  0
  2  3  1  0  0  0  0
  3  4  1  0  0  0  0
  3 28  1  0  0  0  0
  3 29  1  0  0  0  0
  4  5  1  0  0  0  0
  4 30  1  0  0  0  0
  4 31  1  0  0  0  0
  5 24  1  0  0  0  0
  5  6  1  0  0  0  0
  6  7  1  0  0  0  0
  6 14  2  0  0  0  0
  7 13  1  0  0  0  0
  7  8  2  0  0  0  0
  8  9  1  0  0  0  0
  8 32  1  0  0  0  0
  9 10  2  0  0  0  0
  9 33  1  0  0  0  0
 10 11  1  0  0  0  0
 10 34  1  0  0  0  0
 11 12  1  0  0  0  0
 11 13  2  0  0  0  0
 13 35  1  0  0  0  0
 14 15  1  0  0  0  0
 14 40  1  0  0  0  0
 15 24  2  0  0  0  0
 15 16  1  0  0  0  0
 16 17  2  0  0  0  0
 16 36  1  0  0  0  0
 17 18  1  0  0  0  0
 17 22  1  0  0  0  0
 18 19  1  0  0  0  0
 18 20  2  0  0  0  0
 18 21  2  0  0  0  0
 19 37  1  0  0  0  0
 22 23  2  0  0  0  0
 22 38  1  0  0  0  0
 23 24  1  0  0  0  0
 23 39  1  0  0  0  0
M  CHG  1  14   1
M  CHG  1  19  -1
M  END
> <s_m_source_file>
AV-unprocessed.smi

> <i_m_source_file_index>
2867

> <i_lp_mmshare_version>
43012

> <i_f3d_flags>
0

> <s_epik_input>
W05IMl1TKD1PKSg9TyljKFtjSF0xKVtjSF1bY0hdYyhjMTIpbihbQ0gyXVtDSDJdT1tDSDNdKWMobjIpLWMzW2NIXVtjSF1bY0hdYyhGKVtjSF0z

> <s_epik_cmdline>
J2VwaWtfcHl0aG9uJywgJy1waCcsICc3LjAnLCAnLXRuJywgJzgnLCAnLW1hJywgJzIwMCcsICctbWV0YWxfYmluZGluZycsICctaW1hZScsICc8aW5maWxlLm1hZT4nLCAnLW9tYWUnLCAnPG91dGZpbGUubWFlPic=

> <r_epik_Ionization_Penalty>
2.60795

> <r_epik_Ionization_Penalty_Charging>
2.60795

> <r_epik_Ionization_Penalty_Neutral>
2.51e-12

> <r_epik_State_Penalty>
3.58678

> <r_epik_Charging_Adjusted_Penalty>
6.19473

> <i_epik_Tot_Q>
0

> <i_epik_Tot_abs_Q>
2

> <r_epik_Metal_State_Penalty>
1.73828

> <b_epik_Metal_Only>
1

> <s_lp_Force_Field>
OPLS_2005

> <r_lp_Energy>
13.6429

> <b_lp_Chiralities_Consistent>
1

> <s_lp_Variant>
AV-unprocessed.smi:2867-4

> <Gold.Version>
5.8.1

> <Gold.Id.Protein>
6NUR|6NUR_protein|mol2

> <Gold.PLP.Fitness>
49.5573

> <Gold.PLP.PLP>
-43.2144

> <Gold.PLP.part.hbond>
-3.3257

> <Gold.PLP.part.metal>
0.0000

> <Gold.PLP.part.buried>
-3.8085

> <Gold.PLP.part.nonpolar>
-35.2781

> <Gold.PLP.part.repulsive>
0.5861

> <Gold.PLP.ligand.clash>
0.0000

> <Gold.PLP.ligand.torsion>
1.5854

> <Gold.PLP.Chemscore.Hbond>
2.4659

> <Gold.PLP.Chemscore.CHOScore>
0.0000

> <Gold.PLP.Chemscore.Metal>
0.0000

> <Gold.PLP.Chemscore.Internal.Correction>
2.1160

> <Gold.Rescore>
     Score         DG    S(hbond)    S(metal)    S(lipo)     H(rot)  DE(clash)    DE(int)     intcor
     15.00     -17.87       0.90        0.00     111.98       1.45       0.26       2.60       ----

> <Gold.Chemscore.Fitness>
15.0040

> <Gold.Chemscore.DG>
-17.8683

> <Gold.Chemscore.ZeroCoef>
-5.4800

> <Gold.Chemscore.Hbond>
0.9001

> <Gold.Chemscore.Metal>
0.0000

> <Gold.Chemscore.Lipo>
111.9811

> <Gold.Chemscore.Internal_Hbond>
0.0000

> <Gold.Chemscore.DEClash>
0.2615

> <Gold.Chemscore.DEInternal>
2.6029

> <Gold.Chemscore.Rot>
1.4530

> <Gold.Chemscore.Internal.Correction>
   9.000000E+99

> <Gold.Chemscore.Hbond.Weighted>
-3.0062

> <Gold.Chemscore.Metal.Weighted>
-0.0000

> <Gold.Chemscore.Lipo.Weighted>
-13.1018

> <Gold.Chemscore.Internal_Hbond.Weighted>
0.0000

> <Gold.Chemscore.DEClash.Weighted>
0.2615

> <Gold.Chemscore.DEInternal.Weighted>
2.6029

> <Gold.Chemscore.Rot.Weighted>
3.7196

> <Gold.Chemscore.Internal.Correction.Weighted>
   9.000000E+99

> <Gold.Protein.RotatedTorsions>
[ 6907 6896 6895 6894 ] final -100.09 input  -60.11 | X-H torsion
[ 7974 7965 7964 7962 ] final  -24.74 input  175.53 | X-H torsion
[ 8008 7997 7996 7995 ] final  148.99 input   59.86 | X-H torsion
[ 10167 10162 10161 10158 ] final   97.25 input  -65.29 | X-H torsion
[ 10718 10713 10712 10709 ] final -150.40 input   66.30 | X-H torsion
[ 10763 10752 10751 10750 ] final  -58.38 input  -60.55 | X-H torsion
[ 11005 11000 10999 10996 ] final  162.53 input  -57.11 | X-H torsion

> <Gold.Protein.ActiveResidues>
 VAL166  LYS551  ARG553  GLY616  TRP617  ASP618  TYR619  PRO620  LYS621  CYS622 
 ASP623  PHE694  ASN695  SER759  ASP760  ASP761  ALA762  ILE779  LEU786  VAL792 
 PHE793  MET794  SER795  GLU796  ALA797  LYS798  CYS799  TRP800  GLU811  SER814 

> <Gold.Protein.RotatedAtoms>
  150.7103  134.0940  159.3941 H   0  0  0  0  0  0  0  0  0  0  0  0  # atno 6907 bound_to 6896
  151.8926  135.0408  160.0508 H   0  0  0  0  0  0  0  0  0  0  0  0  # atno 6908 bound_to 6896
  152.2479  133.5155  159.5345 H   0  0  0  0  0  0  0  0  0  0  0  0  # atno 6909 bound_to 6896
  146.1535  140.4793  142.8601 H   0  0  0  0  0  0  0  0  0  0  0  0  # atno 7974 bound_to 7965
  156.2771  140.2114  156.5787 H   0  0  0  0  0  0  0  0  0  0  0  0  # atno 8008 bound_to 7997
  154.7076  140.0515  157.0542 H   0  0  0  0  0  0  0  0  0  0  0  0  # atno 8009 bound_to 7997
  155.0649  140.3170  155.4652 H   0  0  0  0  0  0  0  0  0  0  0  0  # atno 8010 bound_to 7997
  139.7818  144.6885  151.0012 H   0  0  0  0  0  0  0  0  0  0  0  0  # atno 10167 bound_to 10162
  156.4457  130.8143  151.2374 H   0  0  0  0  0  0  0  0  0  0  0  0  # atno 10718 bound_to 10713
  154.2372  135.6350  153.5195 H   0  0  0  0  0  0  0  0  0  0  0  0  # atno 10763 bound_to 10752
  152.9937  135.5533  154.5950 H   0  0  0  0  0  0  0  0  0  0  0  0  # atno 10764 bound_to 10752
  154.5446  135.2897  155.1038 H   0  0  0  0  0  0  0  0  0  0  0  0  # atno 10765 bound_to 10752
  140.2267  134.8155  157.3275 H   0  0  0  0  0  0  0  0  0  0  0  0  # atno 11005 bound_to 11000
  144.7934  140.6076  143.6526 LP  0  0  0  0  0  0  0  0  0  0  0  0  # atno 17320 bound_to 7965
  145.4765  139.1499  143.3785 LP  0  0  0  0  0  0  0  0  0  0  0  0  # atno 17321 bound_to 7965
  140.7818  143.4474  151.0462 LP  0  0  0  0  0  0  0  0  0  0  0  0  # atno 17342 bound_to 10162
  139.8155  143.7892  152.3174 LP  0  0  0  0  0  0  0  0  0  0  0  0  # atno 17343 bound_to 10162
  157.7505  131.0154  150.3502 LP  0  0  0  0  0  0  0  0  0  0  0  0  # atno 17370 bound_to 10713
  156.3870  130.3891  149.7058 LP  0  0  0  0  0  0  0  0  0  0  0  0  # atno 17371 bound_to 10713
  140.1793  134.4509  155.7782 LP  0  0  0  0  0  0  0  0  0  0  0  0  # atno 17394 bound_to 11000
  141.2220  133.6976  156.7842 LP  0  0  0  0  0  0  0  0  0  0  0  0  # atno 17395 bound_to 11000

$$$$
