AV-unprocessed.smi:2059|AV-procd|sdf|8351|dock9
  -GOLD-   2272011 23D 1   1.00000     0.00000
 Structure written by MMmdl.
 29 30  0  0  0  0  0  0  0  0  2 V2000
  144.8557  134.4118  162.9248 C   0  0  0  0  0  0  0  0  0  0  0  0
  145.8016  135.0691  161.9789 C   0  0  0  0  0  0  0  0  0  0  0  0
  146.5799  136.1875  162.0736 C   0  0  0  0  0  0  0  0  0  0  0  0
  147.2341  136.2363  160.8127 C   0  0  0  0  0  0  0  0  0  0  0  0
  148.1124  137.1752  160.4184 N   0  5  0  0  0  0  0  0  0  0  0  0
  149.0483  136.9523  159.4577 C   0  0  0  0  0  0  0  0  0  0  0  0
  149.4145  135.8271  159.1205 O   0  0  0  0  0  0  0  0  0  0  0  0
  149.5970  138.0236  158.8526 N   0  0  0  0  0  0  0  0  0  0  0  0
  150.6045  137.9955  157.7973 C   0  0  1  0  0  0  0  0  0  0  0  0
  150.0918  137.2169  156.5719 C   0  0  0  0  0  0  0  0  0  0  0  0
  151.0116  137.5129  155.3815 C   0  0  0  0  0  0  0  0  0  0  0  0
  151.6197  139.2249  155.6245 S   0  0  0  0  0  0  0  0  0  0  0  0
  153.0904  139.2096  155.6426 O   0  0  0  0  0  0  0  0  0  0  0  0
  150.8840  140.1388  154.7374 O   0  0  0  0  0  0  0  0  0  0  0  0
  150.9872  139.4105  157.3338 C   0  0  0  0  0  0  0  0  0  0  0  0
  146.8751  135.2420  160.0176 N   0  0  0  0  0  0  0  0  0  0  0  0
  145.9607  134.4855  160.7604 O   0  0  0  0  0  0  0  0  0  0  0  0
  143.9570  135.0155  163.0512 H   0  0  0  0  0  0  0  0  0  0  0  0
  145.3166  134.2820  163.9040 H   0  0  0  0  0  0  0  0  0  0  0  0
  144.5544  133.4293  162.5611 H   0  0  0  0  0  0  0  0  0  0  0  0
  146.6691  136.8634  162.9106 H   0  0  0  0  0  0  0  0  0  0  0  0
  149.2819  138.9342  159.1539 H   0  0  0  0  0  0  0  0  0  0  0  0
  151.5009  137.4909  158.1626 H   0  0  0  0  0  0  0  0  0  0  0  0
  150.0243  136.1466  156.7700 H   0  0  0  0  0  0  0  0  0  0  0  0
  149.0853  137.5586  156.3261 H   0  0  0  0  0  0  0  0  0  0  0  0
  151.8746  136.8470  155.3867 H   0  0  0  0  0  0  0  0  0  0  0  0
  150.5066  137.4229  154.4198 H   0  0  0  0  0  0  0  0  0  0  0  0
  150.1143  140.0632  157.2980 H   0  0  0  0  0  0  0  0  0  0  0  0
  151.7428  139.8749  157.9675 H   0  0  0  0  0  0  0  0  0  0  0  0
  1  2  1  0  0  0  0
  1 18  1  0  0  0  0
  1 19  1  0  0  0  0
  1 20  1  0  0  0  0
  2 17  1  0  0  0  0
  2  3  2  0  0  0  0
  3  4  1  0  0  0  0
  3 21  1  0  0  0  0
  4  5  1  0  0  0  0
  4 16  2  0  0  0  0
  5  6  1  0  0  0  0
  6  7  2  0  0  0  0
  6  8  1  0  0  0  0
  8  9  1  0  0  0  0
  8 22  1  0  0  0  0
  9 15  1  0  0  0  0
  9 10  1  0  0  0  0
  9 23  1  0  0  0  0
 10 11  1  0  0  0  0
 10 24  1  0  0  0  0
 10 25  1  0  0  0  0
 11 12  1  0  0  0  0
 11 26  1  0  0  0  0
 11 27  1  0  0  0  0
 12 13  2  0  0  0  0
 12 14  2  0  0  0  0
 12 15  1  0  0  0  0
 15 28  1  0  0  0  0
 15 29  1  0  0  0  0
 16 17  1  0  0  0  0
M  CHG  1   5  -1
M  END
> <s_m_source_file>
AV-unprocessed.smi

> <i_m_source_file_index>
2059

> <i_lp_mmshare_version>
43012

> <i_f3d_flags>
0

> <s_epik_input>
W0NIM11jMVtjSF1jKG5vMSlbTkhdQyg9TylbTkhdW0NAQEhdKFtDSDJdMilbQ0gyXVtDSDJdUzIoPU8pPU8=

> <s_epik_cmdline>
J2VwaWtfcHl0aG9uJywgJy1waCcsICc3LjAnLCAnLXRuJywgJzgnLCAnLW1hJywgJzIwMCcsICctbWV0YWxfYmluZGluZycsICctaW1hZScsICc8aW5maWxlLm1hZT4nLCAnLW9tYWUnLCAnPG91dGZpbGUubWFlPic=

> <r_lp_tautomer_probability>
1

> <r_epik_Ionization_Penalty>
6.15571

> <r_epik_Ionization_Penalty_Charging>
6.1556

> <r_epik_Ionization_Penalty_Neutral>
0.000110918

> <r_epik_State_Penalty>
6.15558

> <r_epik_Charging_Adjusted_Penalty>
12.3112

> <i_epik_Tot_Q>
-1

> <i_epik_Tot_abs_Q>
1

> <r_epik_Metal_State_Penalty>
2.1059

> <b_epik_Metal_Only>
1

> <s_lp_Force_Field>
OPLS_2005

> <r_lp_Energy>
-1.66836

> <b_lp_Chiralities_Consistent>
1

> <s_lp_Variant>
AV-unprocessed.smi:2059-4

> <Gold.Version>
5.8.1

> <Gold.Id.Protein>
6NUR|6NUR_protein|mol2

> <Gold.PLP.Fitness>
40.4126

> <Gold.PLP.PLP>
-23.8580

> <Gold.PLP.part.hbond>
-5.0000

> <Gold.PLP.part.metal>
0.0000

> <Gold.PLP.part.buried>
-5.1367

> <Gold.PLP.part.nonpolar>
-14.7512

> <Gold.PLP.part.repulsive>
0.2895

> <Gold.PLP.ligand.clash>
0.0000

> <Gold.PLP.ligand.torsion>
0.2169

> <Gold.PLP.Chemscore.Hbond>
5.6618

> <Gold.PLP.Chemscore.CHOScore>
0.0000

> <Gold.PLP.Chemscore.Metal>
0.0000

> <Gold.Chemscore.Hbonds>
donor molecule, donor type, donor heavy atom, donor atom, acceptor molecule, acceptor atom, score
      P1  H  6896  6907       L1     7  1.00
      P1  H  6931  6943       L1     5  1.41
      P1  H  6934  6947       L1     5  1.08
      P1  H  7989  7998       L1    14  1.00
      P1  H  7997  8009       L1    13  1.00

> <Gold.PLP.Chemscore.Internal.Correction>
0.0031

> <Gold.Rescore>
     Score         DG    S(hbond)    S(metal)    S(lipo)     H(rot)  DE(clash)    DE(int)     intcor
     18.12     -19.85       3.69        0.00      39.39       1.00       0.03       1.70       ----

> <Gold.Chemscore.Fitness>
18.1208

> <Gold.Chemscore.DG>
-19.8501

> <Gold.Chemscore.ZeroCoef>
-5.4800

> <Gold.Chemscore.Hbond>
3.6890

> <Gold.Chemscore.Metal>
0.0000

> <Gold.Chemscore.Lipo>
39.3921

> <Gold.Chemscore.Internal_Hbond>
0.0000

> <Gold.Chemscore.DEClash>
0.0330

> <Gold.Chemscore.DEInternal>
1.6963

> <Gold.Chemscore.Rot>
1.0000

> <Gold.Chemscore.Internal.Correction>
   9.000000E+99

> <Gold.Chemscore.Hbonds>
donor molecule, donor type, donor heavy atom, donor atom, acceptor molecule, acceptor atom, score
      P1  H  6896  6907       L1     7  1.00
      P1  H  6931  6943       L1     5  0.35
      P1  H  6934  6947       L1     5  0.28
      P1  H  7989  7998       L1    14  0.98
      P1  H  7997  8009       L1    13  1.00

> <Gold.Chemscore.Hbond.Weighted>
-12.3212

> <Gold.Chemscore.Metal.Weighted>
-0.0000

> <Gold.Chemscore.Lipo.Weighted>
-4.6089

> <Gold.Chemscore.Internal_Hbond.Weighted>
0.0000

> <Gold.Chemscore.DEClash.Weighted>
0.0330

> <Gold.Chemscore.DEInternal.Weighted>
1.6963

> <Gold.Chemscore.Rot.Weighted>
2.5600

> <Gold.Chemscore.Internal.Correction.Weighted>
   9.000000E+99

> <Gold.Protein.RotatedTorsions>
[ 6907 6896 6895 6894 ] final  -62.93 input  -60.11 | X-H torsion
[ 7974 7965 7964 7962 ] final  -12.28 input  175.53 | X-H torsion
[ 8008 7997 7996 7995 ] final -143.13 input   59.86 | X-H torsion
[ 10167 10162 10161 10158 ] final  164.87 input  -65.29 | X-H torsion
[ 10718 10713 10712 10709 ] final   46.11 input   66.30 | X-H torsion
[ 10763 10752 10751 10750 ] final  143.26 input  -60.55 | X-H torsion
[ 11005 11000 10999 10996 ] final -143.15 input  -57.11 | X-H torsion

> <Gold.Protein.ActiveResidues>
 VAL166  LYS551  ARG553  GLY616  TRP617  ASP618  TYR619  PRO620  LYS621  CYS622 
 ASP623  PHE694  ASN695  SER759  ASP760  ASP761  ALA762  ILE779  LEU786  VAL792 
 PHE793  MET794  SER795  GLU796  ALA797  LYS798  CYS799  TRP800  GLU811  SER814 

> <Gold.Protein.RotatedAtoms>
  150.7682  134.6503  159.6284 H   0  0  0  0  0  0  0  0  0  0  0  0  # atno 6907 bound_to 6896
  152.3723  134.6712  160.0180 H   0  0  0  0  0  0  0  0  0  0  0  0  # atno 6908 bound_to 6896
  151.7067  133.3275  159.3317 H   0  0  0  0  0  0  0  0  0  0  0  0  # atno 6909 bound_to 6896
  146.2157  140.3035  142.8377 H   0  0  0  0  0  0  0  0  0  0  0  0  # atno 7974 bound_to 7965
  155.5055  140.0579  157.2932 H   0  0  0  0  0  0  0  0  0  0  0  0  # atno 8008 bound_to 7997
  154.4571  140.1978  156.0298 H   0  0  0  0  0  0  0  0  0  0  0  0  # atno 8009 bound_to 7997
  156.0820  140.3245  155.7710 H   0  0  0  0  0  0  0  0  0  0  0  0  # atno 8010 bound_to 7997
  139.4896  144.4191  151.9208 H   0  0  0  0  0  0  0  0  0  0  0  0  # atno 10167 bound_to 10162
  157.4446  130.8102  149.7728 H   0  0  0  0  0  0  0  0  0  0  0  0  # atno 10718 bound_to 10713
  153.9695  135.2952  155.3428 H   0  0  0  0  0  0  0  0  0  0  0  0  # atno 10763 bound_to 10752
  154.7330  135.5059  153.8999 H   0  0  0  0  0  0  0  0  0  0  0  0  # atno 10764 bound_to 10752
  153.0907  135.6707  153.9971 H   0  0  0  0  0  0  0  0  0  0  0  0  # atno 10765 bound_to 10752
  140.8154  134.2694  157.4923 H   0  0  0  0  0  0  0  0  0  0  0  0  # atno 11005 bound_to 11000
  144.9040  140.7677  143.5849 LP  0  0  0  0  0  0  0  0  0  0  0  0  # atno 17320 bound_to 7965
  145.2962  139.1866  143.4714 LP  0  0  0  0  0  0  0  0  0  0  0  0  # atno 17321 bound_to 7965
  140.3635  144.2944  150.5930 LP  0  0  0  0  0  0  0  0  0  0  0  0  # atno 17342 bound_to 10162
  140.5382  143.2229  151.8128 LP  0  0  0  0  0  0  0  0  0  0  0  0  # atno 17343 bound_to 10162
  155.9962  130.3907  150.2787 LP  0  0  0  0  0  0  0  0  0  0  0  0  # atno 17370 bound_to 10713
  157.0954  131.0181  151.3106 LP  0  0  0  0  0  0  0  0  0  0  0  0  # atno 17371 bound_to 10713
  139.8711  134.9506  156.4060 LP  0  0  0  0  0  0  0  0  0  0  0  0  # atno 17394 bound_to 11000
  140.9154  133.7682  155.9842 LP  0  0  0  0  0  0  0  0  0  0  0  0  # atno 17395 bound_to 11000

$$$$
