AV-unprocessed.smi:2302|AV-procd|sdf|9239|dock4
  -GOLD-   2272012453D 1   1.00000     0.00000
 Structure written by MMmdl.
 40 41  0  0  0  0  0  0  0  0  2 V2000
  153.8751  141.4651  159.9701 C   0  0  0  0  0  0  0  0  0  0  0  0
  152.9521  142.5627  159.4841 C   0  0  0  0  0  0  0  0  0  0  0  0
  152.9182  143.8176  160.1232 C   0  0  0  0  0  0  0  0  0  0  0  0
  152.0416  144.7947  159.6188 C   0  0  0  0  0  0  0  0  0  0  0  0
  151.2404  144.4794  158.5044 C   0  0  0  0  0  0  0  0  0  0  0  0
  151.3335  143.1949  157.9230 C   0  0  0  0  0  0  0  0  0  0  0  0
  150.4871  142.9778  156.8036 N   0  0  0  0  0  0  0  0  0  0  0  0
  150.3646  141.8650  156.0592 C   0  0  0  0  0  0  0  0  0  0  0  0
  150.9593  140.8055  156.2575 O   0  0  0  0  0  0  0  0  0  0  0  0
  149.4979  142.0479  155.0526 N   0  0  0  0  0  0  0  0  0  0  0  0
  149.1423  141.0432  154.0541 C   0  0  0  0  0  0  0  0  0  0  0  0
  147.6703  140.5886  154.1433 C   0  0  1  0  0  0  0  0  0  0  0  0
  147.3417  139.3589  153.2682 C   0  0  0  0  0  0  0  0  0  0  0  0
  145.9202  138.9773  153.4295 N   0  3  1  0  0  0  0  0  0  0  0  0
  145.5360  137.8315  152.5778 C   0  0  0  0  0  0  0  0  0  0  0  0
  145.5920  138.7618  154.8569 C   0  0  0  0  0  0  0  0  0  0  0  0
  145.9689  140.0015  155.6844 C   0  0  0  0  0  0  0  0  0  0  0  0
  147.3470  140.3003  155.5002 O   0  0  0  0  0  0  0  0  0  0  0  0
  152.1839  142.2599  158.4155 N   0  0  0  0  0  0  0  0  0  0  0  0
  154.3698  141.7472  160.8999 H   0  0  0  0  0  0  0  0  0  0  0  0
  154.6428  141.2604  159.2234 H   0  0  0  0  0  0  0  0  0  0  0  0
  153.3148  140.5468  160.1489 H   0  0  0  0  0  0  0  0  0  0  0  0
  153.5461  144.0286  160.9763 H   0  0  0  0  0  0  0  0  0  0  0  0
  151.9842  145.7706  160.0780 H   0  0  0  0  0  0  0  0  0  0  0  0
  150.5616  145.2189  158.1052 H   0  0  0  0  0  0  0  0  0  0  0  0
  149.9142  143.7640  156.5353 H   0  0  0  0  0  0  0  0  0  0  0  0
  149.0487  142.9482  154.9713 H   0  0  0  0  0  0  0  0  0  0  0  0
  149.3674  141.4075  153.0504 H   0  0  0  0  0  0  0  0  0  0  0  0
  149.7932  140.1836  154.2160 H   0  0  0  0  0  0  0  0  0  0  0  0
  147.0515  141.4279  153.8207 H   0  0  0  0  0  0  0  0  0  0  0  0
  147.5440  139.5833  152.2203 H   0  0  0  0  0  0  0  0  0  0  0  0
  147.9695  138.5095  153.5429 H   0  0  0  0  0  0  0  0  0  0  0  0
  146.0859  136.9322  152.8587 H   0  0  0  0  0  0  0  0  0  0  0  0
  145.7425  138.0451  151.5286 H   0  0  0  0  0  0  0  0  0  0  0  0
  144.4696  137.6243  152.6721 H   0  0  0  0  0  0  0  0  0  0  0  0
  144.5265  138.5542  154.9637 H   0  0  0  0  0  0  0  0  0  0  0  0
  146.1290  137.8881  155.2298 H   0  0  0  0  0  0  0  0  0  0  0  0
  145.3574  140.8600  155.4027 H   0  0  0  0  0  0  0  0  0  0  0  0
  145.7872  139.8153  156.7431 H   0  0  0  0  0  0  0  0  0  0  0  0
  145.3707  139.7666  153.1205 H   0  0  0  0  0  0  0  0  0  0  0  0
  1  2  1  0  0  0  0
  1 20  1  0  0  0  0
  1 21  1  0  0  0  0
  1 22  1  0  0  0  0
  2 19  1  0  0  0  0
  2  3  2  0  0  0  0
  3  4  1  0  0  0  0
  3 23  1  0  0  0  0
  4  5  2  0  0  0  0
  4 24  1  0  0  0  0
  5  6  1  0  0  0  0
  5 25  1  0  0  0  0
  6  7  1  0  0  0  0
  6 19  2  0  0  0  0
  7  8  1  0  0  0  0
  7 26  1  0  0  0  0
  8  9  2  0  0  0  0
  8 10  1  0  0  0  0
 10 11  1  0  0  0  0
 10 27  1  0  0  0  0
 11 12  1  0  0  0  0
 11 28  1  0  0  0  0
 11 29  1  0  0  0  0
 12 18  1  0  0  0  0
 12 13  1  0  0  0  0
 12 30  1  0  0  0  0
 13 14  1  0  0  0  0
 13 31  1  0  0  0  0
 13 32  1  0  0  0  0
 14 15  1  0  0  0  0
 14 16  1  0  0  0  0
 14 40  1  0  0  0  0
 15 33  1  0  0  0  0
 15 34  1  0  0  0  0
 15 35  1  0  0  0  0
 16 17  1  0  0  0  0
 16 36  1  0  0  0  0
 16 37  1  0  0  0  0
 17 18  1  0  0  0  0
 17 38  1  0  0  0  0
 17 39  1  0  0  0  0
M  CHG  1  14   1
M  END
> <s_m_source_file>
AV-unprocessed.smi

> <i_m_source_file_index>
2302

> <i_lp_mmshare_version>
43012

> <i_f3d_flags>
0

> <s_epik_input>
W0NIM11jMVtjSF1bY0hdW2NIXWMobjEpW05IXUMoPU8pW05IXVtDSDJdW0NAQEhdMltDSDJdTihbQ0gzXSlbQ0gyXVtDSDJdTzI=

> <s_epik_cmdline>
J2VwaWtfcHl0aG9uJywgJy1waCcsICc3LjAnLCAnLXRuJywgJzgnLCAnLW1hJywgJzIwMCcsICctbWV0YWxfYmluZGluZycsICctaW1hZScsICc8aW5maWxlLm1hZT4nLCAnLW9tYWUnLCAnPG91dGZpbGUubWFlPic=

> <r_epik_Ionization_Penalty>
0.204647

> <r_epik_Ionization_Penalty_Charging>
0.204578

> <r_epik_Ionization_Penalty_Neutral>
6.91954e-05

> <r_epik_State_Penalty>
0.194513

> <r_epik_Charging_Adjusted_Penalty>
0.399091

> <i_epik_Tot_Q>
1

> <i_epik_Tot_abs_Q>
1

> <r_epik_Metal_State_Penalty>
0.194515

> <b_epik_Metal_Only>
0

> <s_lp_Force_Field>
OPLS_2005

> <r_lp_Energy>
15.833

> <b_lp_Chiralities_Consistent>
1

> <s_lp_Variant>
AV-unprocessed.smi:2302-4

> <Gold.Version>
5.8.1

> <Gold.Id.Protein>
6NUR|6NUR_protein|mol2

> <Gold.PLP.Fitness>
48.4466

> <Gold.PLP.PLP>
-36.7270

> <Gold.PLP.part.hbond>
-3.0000

> <Gold.PLP.part.metal>
0.0000

> <Gold.PLP.part.buried>
-3.2844

> <Gold.PLP.part.nonpolar>
-30.2706

> <Gold.PLP.part.repulsive>
0.2876

> <Gold.PLP.ligand.clash>
0.0000

> <Gold.PLP.ligand.torsion>
0.0828

> <Gold.PLP.Chemscore.Hbond>
3.9600

> <Gold.PLP.Chemscore.CHOScore>
0.0000

> <Gold.PLP.Chemscore.Metal>
0.0000

> <Gold.Chemscore.Hbonds>
donor molecule, donor type, donor heavy atom, donor atom, acceptor molecule, acceptor atom, score
      L1  H     7    26       P1  8028  1.00
      L1  H    10    27       P1  8028  0.96
      L1  H    14    40       P1 10175  1.98

> <Gold.PLP.Chemscore.Internal.Correction>
0.0052

> <Gold.Rescore>
     Score         DG    S(hbond)    S(metal)    S(lipo)     H(rot)  DE(clash)    DE(int)     intcor
     20.45     -21.82       2.86        0.00      85.74       1.27       0.03       1.34       ----

> <Gold.Chemscore.Fitness>
20.4537

> <Gold.Chemscore.DG>
-21.8172

> <Gold.Chemscore.ZeroCoef>
-5.4800

> <Gold.Chemscore.Hbond>
2.8641

> <Gold.Chemscore.Metal>
0.0000

> <Gold.Chemscore.Lipo>
85.7384

> <Gold.Chemscore.Internal_Hbond>
0.0000

> <Gold.Chemscore.DEClash>
0.0263

> <Gold.Chemscore.DEInternal>
1.3372

> <Gold.Chemscore.Rot>
1.2736

> <Gold.Chemscore.Internal.Correction>
   9.000000E+99

> <Gold.Chemscore.Hbonds>
donor molecule, donor type, donor heavy atom, donor atom, acceptor molecule, acceptor atom, score
      L1  H     7    26       P1  8028  0.99
      L1  H    10    27       P1  8028  0.92
      L1  H    14    40       P1 10175  0.93

> <Gold.Chemscore.Hbond.Weighted>
-9.5661

> <Gold.Chemscore.Metal.Weighted>
-0.0000

> <Gold.Chemscore.Lipo.Weighted>
-10.0314

> <Gold.Chemscore.Internal_Hbond.Weighted>
0.0000

> <Gold.Chemscore.DEClash.Weighted>
0.0263

> <Gold.Chemscore.DEInternal.Weighted>
1.3372

> <Gold.Chemscore.Rot.Weighted>
3.2603

> <Gold.Chemscore.Internal.Correction.Weighted>
   9.000000E+99

> <Gold.Protein.RotatedTorsions>
[ 6907 6896 6895 6894 ] final  -74.66 input  -60.11 | X-H torsion
[ 7974 7965 7964 7962 ] final  -85.92 input  175.53 | X-H torsion
[ 8008 7997 7996 7995 ] final  -76.24 input   59.86 | X-H torsion
[ 10167 10162 10161 10158 ] final -107.46 input  -65.29 | X-H torsion
[ 10718 10713 10712 10709 ] final   47.17 input   66.30 | X-H torsion
[ 10763 10752 10751 10750 ] final  156.16 input  -60.55 | X-H torsion
[ 11005 11000 10999 10996 ] final   14.33 input  -57.11 | X-H torsion

> <Gold.Protein.ActiveResidues>
 VAL166  LYS551  ARG553  GLY616  TRP617  ASP618  TYR619  PRO620  LYS621  CYS622 
 ASP623  PHE694  ASN695  SER759  ASP760  ASP761  ALA762  ILE779  LEU786  VAL792 
 PHE793  MET794  SER795  GLU796  ALA797  LYS798  CYS799  TRP800  GLU811  SER814 

> <Gold.Protein.RotatedAtoms>
  150.7085  134.4836  159.5481 H   0  0  0  0  0  0  0  0  0  0  0  0  # atno 6907 bound_to 6896
  152.2468  134.8170  160.0461 H   0  0  0  0  0  0  0  0  0  0  0  0  # atno 6908 bound_to 6896
  151.8932  133.3485  159.3842 H   0  0  0  0  0  0  0  0  0  0  0  0  # atno 6909 bound_to 6896
  145.4868  140.9554  143.1834 H   0  0  0  0  0  0  0  0  0  0  0  0  # atno 7974 bound_to 7965
  154.5487  140.0730  156.8632 H   0  0  0  0  0  0  0  0  0  0  0  0  # atno 8008 bound_to 7997
  155.3035  140.3385  155.4228 H   0  0  0  0  0  0  0  0  0  0  0  0  # atno 8009 bound_to 7997
  156.1942  140.1697  156.8018 H   0  0  0  0  0  0  0  0  0  0  0  0  # atno 8010 bound_to 7997
  140.1767  143.3999  152.1313 H   0  0  0  0  0  0  0  0  0  0  0  0  # atno 10167 bound_to 10162
  157.4557  130.8165  149.7834 H   0  0  0  0  0  0  0  0  0  0  0  0  # atno 10718 bound_to 10713
  154.1799  135.2800  155.3055 H   0  0  0  0  0  0  0  0  0  0  0  0  # atno 10763 bound_to 10752
  154.6011  135.5529  153.7378 H   0  0  0  0  0  0  0  0  0  0  0  0  # atno 10764 bound_to 10752
  153.0141  135.6392  154.1938 H   0  0  0  0  0  0  0  0  0  0  0  0  # atno 10765 bound_to 10752
  140.4708  134.1033  155.7732 H   0  0  0  0  0  0  0  0  0  0  0  0  # atno 11005 bound_to 11000
  144.7857  139.6432  143.7135 LP  0  0  0  0  0  0  0  0  0  0  0  0  # atno 17320 bound_to 7965
  146.2308  139.5810  142.9556 LP  0  0  0  0  0  0  0  0  0  0  0  0  # atno 17321 bound_to 7965
  139.5314  144.7163  151.5044 LP  0  0  0  0  0  0  0  0  0  0  0  0  # atno 17342 bound_to 10162
  140.6546  143.8625  150.6822 LP  0  0  0  0  0  0  0  0  0  0  0  0  # atno 17343 bound_to 10162
  156.0006  130.3882  150.2620 LP  0  0  0  0  0  0  0  0  0  0  0  0  # atno 17370 bound_to 10713
  157.0795  131.0139  151.3162 LP  0  0  0  0  0  0  0  0  0  0  0  0  # atno 17371 bound_to 10713
  141.1578  133.8850  157.1931 LP  0  0  0  0  0  0  0  0  0  0  0  0  # atno 17394 bound_to 11000
  139.9887  135.0073  156.9923 LP  0  0  0  0  0  0  0  0  0  0  0  0  # atno 17395 bound_to 11000

$$$$
