AV-unprocessed.smi:1053|AV-procd|sdf|4620|dock1
  -GOLD-   22720 3123D 1   1.00000     0.00000
 Structure written by MMmdl.
 38 39  0  0  0  0  0  0  0  0  2 V2000
  146.7459  138.8444  151.7652 C   0  0  0  0  0  0  0  0  0  0  0  0
  147.0624  139.7036  152.9976 C   0  0  0  0  0  0  0  0  0  0  0  0
  148.4815  139.5943  153.4182 N   0  3  2  0  0  0  0  0  0  0  0  0
  148.8525  138.2095  153.7939 C   0  0  0  0  0  0  0  0  0  0  0  0
  150.3385  138.1371  154.1797 C   0  0  0  0  0  0  0  0  0  0  0  0
  150.5971  139.0505  155.2376 O   0  0  0  0  0  0  0  0  0  0  0  0
  150.3446  140.4007  154.8609 C   0  0  2  0  0  0  0  0  0  0  0  0
  150.7257  141.3049  156.0407 C   0  0  0  0  0  0  0  0  0  0  0  0
  151.7784  140.7154  156.8539 N   0  0  0  0  0  0  0  0  0  0  0  0
  152.3037  141.3088  157.9858 C   0  0  0  0  0  0  0  0  0  0  0  0
  153.2167  140.6308  158.6904 N   0  0  0  0  0  0  0  0  0  0  0  0
  153.7198  141.2379  159.7867 C   0  0  0  0  0  0  0  0  0  0  0  0
  153.3061  142.5269  160.1767 C   0  0  0  0  0  0  0  0  0  0  0  0
  152.3346  143.1471  159.3595 C   0  0  0  0  0  0  0  0  0  0  0  0
  151.7923  144.5365  159.6599 C   0  0  0  0  0  0  0  0  0  0  0  0
  150.4683  144.4801  159.8042 F   0  0  0  0  0  0  0  0  0  0  0  0
  152.3187  145.0367  160.7785 F   0  0  0  0  0  0  0  0  0  0  0  0
  152.0811  145.3599  158.6520 F   0  0  0  0  0  0  0  0  0  0  0  0
  151.8376  142.5280  158.2629 N   0  0  0  0  0  0  0  0  0  0  0  0
  148.8523  140.5396  154.5004 C   0  0  0  0  0  0  0  0  0  0  0  0
  145.6807  138.8832  151.5357 H   0  0  0  0  0  0  0  0  0  0  0  0
  147.0084  137.7997  151.9346 H   0  0  0  0  0  0  0  0  0  0  0  0
  147.2787  139.1870  150.8786 H   0  0  0  0  0  0  0  0  0  0  0  0
  146.8039  140.7479  152.8157 H   0  0  0  0  0  0  0  0  0  0  0  0
  146.4221  139.3645  153.8131 H   0  0  0  0  0  0  0  0  0  0  0  0
  148.2334  137.8785  154.6295 H   0  0  0  0  0  0  0  0  0  0  0  0
  148.6571  137.5324  152.9615 H   0  0  0  0  0  0  0  0  0  0  0  0
  150.5915  137.1301  154.5122 H   0  0  0  0  0  0  0  0  0  0  0  0
  150.9772  138.3599  153.3234 H   0  0  0  0  0  0  0  0  0  0  0  0
  150.9538  140.6634  153.9936 H   0  0  0  0  0  0  0  0  0  0  0  0
  151.0826  142.2661  155.6685 H   0  0  0  0  0  0  0  0  0  0  0  0
  149.8502  141.5054  156.6599 H   0  0  0  0  0  0  0  0  0  0  0  0
  152.1028  139.7870  156.6257 H   0  0  0  0  0  0  0  0  0  0  0  0
  154.4576  140.6919  160.3555 H   0  0  0  0  0  0  0  0  0  0  0  0
  153.7149  143.0053  161.0542 H   0  0  0  0  0  0  0  0  0  0  0  0
  148.6530  141.5646  154.1884 H   0  0  0  0  0  0  0  0  0  0  0  0
  148.2342  140.3471  155.3791 H   0  0  0  0  0  0  0  0  0  0  0  0
  149.0421  139.8293  152.6115 H   0  0  0  0  0  0  0  0  0  0  0  0
  1  2  1  0  0  0  0
  1 21  1  0  0  0  0
  1 22  1  0  0  0  0
  1 23  1  0  0  0  0
  2  3  1  0  0  0  0
  2 24  1  0  0  0  0
  2 25  1  0  0  0  0
  3 20  1  0  0  0  0
  3  4  1  0  0  0  0
  3 38  1  0  0  0  0
  4  5  1  0  0  0  0
  4 26  1  0  0  0  0
  4 27  1  0  0  0  0
  5  6  1  0  0  0  0
  5 28  1  0  0  0  0
  5 29  1  0  0  0  0
  6  7  1  0  0  0  0
  7  8  1  0  0  0  0
  7 20  1  0  0  0  0
  7 30  1  0  0  0  0
  8  9  1  0  0  0  0
  8 31  1  0  0  0  0
  8 32  1  0  0  0  0
  9 10  1  0  0  0  0
  9 33  1  0  0  0  0
 10 19  1  0  0  0  0
 10 11  2  0  0  0  0
 11 12  1  0  0  0  0
 12 13  2  0  0  0  0
 12 34  1  0  0  0  0
 13 14  1  0  0  0  0
 13 35  1  0  0  0  0
 14 15  1  0  0  0  0
 14 19  2  0  0  0  0
 15 16  1  0  0  0  0
 15 17  1  0  0  0  0
 15 18  1  0  0  0  0
 20 36  1  0  0  0  0
 20 37  1  0  0  0  0
M  CHG  1   3   1
M  END
> <s_m_source_file>
AV-unprocessed.smi

> <i_m_source_file_index>
1053

> <i_lp_mmshare_version>
43012

> <i_f3d_flags>
0

> <s_epik_input>
W0NIM11bQ0gyXU4xW0NIMl1bQ0gyXU9bQ0BIXShbQ0gyXTEpW0NIMl1bTkhdYzJuW2NIXVtjSF1jKG4yKUMoRikoRilG

> <s_epik_cmdline>
J2VwaWtfcHl0aG9uJywgJy1waCcsICc3LjAnLCAnLXRuJywgJzgnLCAnLW1hJywgJzIwMCcsICctbWV0YWxfYmluZGluZycsICctaW1hZScsICc8aW5maWxlLm1hZT4nLCAnLW9tYWUnLCAnPG91dGZpbGUubWFlPic=

> <r_lp_tautomer_probability>
1

> <r_epik_Ionization_Penalty>
0.178506

> <r_epik_Ionization_Penalty_Charging>
0.178504

> <r_epik_Ionization_Penalty_Neutral>
2.47619e-06

> <r_epik_State_Penalty>
0.167974

> <r_epik_Charging_Adjusted_Penalty>
0.346478

> <i_epik_Tot_Q>
1

> <i_epik_Tot_abs_Q>
1

> <r_epik_Metal_State_Penalty>
0.167974

> <b_epik_Metal_Only>
0

> <s_lp_Force_Field>
OPLS_2005

> <r_lp_Energy>
10.8481

> <b_lp_Chiralities_Consistent>
1

> <s_lp_Variant>
AV-unprocessed.smi:1053-4

> <Gold.Version>
5.8.1

> <Gold.Id.Protein>
6NUR|6NUR_protein|mol2

> <Gold.PLP.Fitness>
44.9424

> <Gold.PLP.PLP>
-42.0496

> <Gold.PLP.part.hbond>
-1.5924

> <Gold.PLP.part.metal>
0.0000

> <Gold.PLP.part.buried>
1.6045

> <Gold.PLP.part.nonpolar>
-41.9185

> <Gold.PLP.part.repulsive>
0.2931

> <Gold.PLP.ligand.clash>
0.0000

> <Gold.PLP.ligand.torsion>
0.4386

> <Gold.PLP.Chemscore.Hbond>
1.2340

> <Gold.PLP.Chemscore.CHOScore>
0.0000

> <Gold.PLP.Chemscore.Metal>
0.0000

> <Gold.Chemscore.Hbonds>
donor molecule, donor type, donor heavy atom, donor atom, acceptor molecule, acceptor atom, score
      L1  H     3    38       P1  7957  1.00
      P1  H  7997  8009       L1    11  0.40

> <Gold.PLP.Chemscore.Internal.Correction>
0.0680

> <Gold.Rescore>
     Score         DG    S(hbond)    S(metal)    S(lipo)     H(rot)  DE(clash)    DE(int)     intcor
     14.88     -16.21       1.13        0.00      93.61       1.55       0.99       0.34       ----

> <Gold.Chemscore.Fitness>
14.8808

> <Gold.Chemscore.DG>
-16.2137

> <Gold.Chemscore.ZeroCoef>
-5.4800

> <Gold.Chemscore.Hbond>
1.1264

> <Gold.Chemscore.Metal>
0.0000

> <Gold.Chemscore.Lipo>
93.6068

> <Gold.Chemscore.Internal_Hbond>
0.0000

> <Gold.Chemscore.DEClash>
0.9898

> <Gold.Chemscore.DEInternal>
0.3430

> <Gold.Chemscore.Rot>
1.5549

> <Gold.Chemscore.Internal.Correction>
   9.000000E+99

> <Gold.Chemscore.Hbonds>
donor molecule, donor type, donor heavy atom, donor atom, acceptor molecule, acceptor atom, score
      L1  H     3    38       P1  7957  0.97
      P1  H  7997  8009       L1    11  0.11

> <Gold.Chemscore.Hbond.Weighted>
-3.7622

> <Gold.Chemscore.Metal.Weighted>
-0.0000

> <Gold.Chemscore.Lipo.Weighted>
-10.9520

> <Gold.Chemscore.Internal_Hbond.Weighted>
0.0000

> <Gold.Chemscore.DEClash.Weighted>
0.9898

> <Gold.Chemscore.DEInternal.Weighted>
0.3430

> <Gold.Chemscore.Rot.Weighted>
3.9806

> <Gold.Chemscore.Internal.Correction.Weighted>
   9.000000E+99

> <Gold.Protein.RotatedTorsions>
[ 6907 6896 6895 6894 ] final  -47.37 input  -60.11 | X-H torsion
[ 7974 7965 7964 7962 ] final  -16.69 input  175.53 | X-H torsion
[ 8008 7997 7996 7995 ] final  149.75 input   59.86 | X-H torsion
[ 10167 10162 10161 10158 ] final -109.11 input  -65.29 | X-H torsion
[ 10718 10713 10712 10709 ] final -146.94 input   66.30 | X-H torsion
[ 10763 10752 10751 10750 ] final  135.68 input  -60.55 | X-H torsion
[ 11005 11000 10999 10996 ] final  -64.30 input  -57.11 | X-H torsion

> <Gold.Protein.ActiveResidues>
 VAL166  LYS551  ARG553  GLY616  TRP617  ASP618  TYR619  PRO620  LYS621  CYS622 
 ASP623  PHE694  ASN695  SER759  ASP760  ASP761  ALA762  ILE779  LEU786  VAL792 
 PHE793  MET794  SER795  GLU796  ALA797  LYS798  CYS799  TRP800  GLU811  SER814 

> <Gold.Protein.RotatedAtoms>
  150.9015  134.8427  159.7362 H   0  0  0  0  0  0  0  0  0  0  0  0  # atno 6907 bound_to 6896
  152.4895  134.4496  159.9580 H   0  0  0  0  0  0  0  0  0  0  0  0  # atno 6908 bound_to 6896
  151.4547  133.3569  159.2835 H   0  0  0  0  0  0  0  0  0  0  0  0  # atno 6909 bound_to 6896
  146.1976  140.3672  142.8435 H   0  0  0  0  0  0  0  0  0  0  0  0  # atno 7974 bound_to 7965
  156.2743  140.2093  156.5908 H   0  0  0  0  0  0  0  0  0  0  0  0  # atno 8008 bound_to 7997
  154.6984  140.0523  157.0457 H   0  0  0  0  0  0  0  0  0  0  0  0  # atno 8009 bound_to 7997
  155.0769  140.3182  155.4616 H   0  0  0  0  0  0  0  0  0  0  0  0  # atno 8010 bound_to 7997
  140.1589  143.4137  152.1440 H   0  0  0  0  0  0  0  0  0  0  0  0  # atno 10167 bound_to 10162
  156.4013  130.7935  151.2146 H   0  0  0  0  0  0  0  0  0  0  0  0  # atno 10718 bound_to 10713
  153.8441  135.3087  155.3428 H   0  0  0  0  0  0  0  0  0  0  0  0  # atno 10763 bound_to 10752
  154.7920  135.4777  154.0077 H   0  0  0  0  0  0  0  0  0  0  0  0  # atno 10764 bound_to 10752
  153.1558  135.6852  153.8907 H   0  0  0  0  0  0  0  0  0  0  0  0  # atno 10765 bound_to 10752
  141.1420  133.6664  156.5811 H   0  0  0  0  0  0  0  0  0  0  0  0  # atno 11005 bound_to 11000
  144.8613  140.7144  143.6105 LP  0  0  0  0  0  0  0  0  0  0  0  0  # atno 17320 bound_to 7965
  145.3592  139.1686  143.4393 LP  0  0  0  0  0  0  0  0  0  0  0  0  # atno 17321 bound_to 7965
  139.5390  144.7238  151.4795 LP  0  0  0  0  0  0  0  0  0  0  0  0  # atno 17342 bound_to 10162
  140.6656  143.8406  150.6937 LP  0  0  0  0  0  0  0  0  0  0  0  0  # atno 17343 bound_to 10162
  157.7504  131.0286  150.4055 LP  0  0  0  0  0  0  0  0  0  0  0  0  # atno 17370 bound_to 10713
  156.4336  130.3977  149.6744 LP  0  0  0  0  0  0  0  0  0  0  0  0  # atno 17371 bound_to 10713
  140.3837  134.7501  157.4677 LP  0  0  0  0  0  0  0  0  0  0  0  0  # atno 17394 bound_to 11000
  140.0618  134.5984  155.8740 LP  0  0  0  0  0  0  0  0  0  0  0  0  # atno 17395 bound_to 11000

$$$$
