AV-unprocessed.smi:2528|AV-procd|sdf|9948|dock2
  -GOLD-   2272013593D 1   1.00000     0.00000
 Structure written by MMmdl.
 44 46  0  0  0  0  0  0  0  0  2 V2000
  150.7157  135.9124  156.1098 O   0  0  0  0  0  0  0  0  0  0  0  0
  150.1105  136.0330  155.0446 C   0  0  0  0  0  0  0  0  0  0  0  0
  149.6370  134.9928  154.3433 N   0  0  0  0  0  0  0  0  0  0  0  0
  149.7618  133.5900  154.7318 C   0  0  0  0  0  0  0  0  0  0  0  0
  148.9925  132.6295  153.8011 C   0  0  2  0  0  0  0  0  0  0  0  0
  147.9944  133.3384  152.8621 C   0  0  0  0  0  0  0  0  0  0  0  0
  147.2816  132.3504  152.0199 N   0  3  2  0  0  0  0  0  0  0  0  0
  146.3361  132.9938  151.0730 C   0  0  0  0  0  0  0  0  0  0  0  0
  145.6814  131.9523  150.1520 C   0  0  0  0  0  0  0  0  0  0  0  0
  144.9769  130.8661  150.9743 C   0  0  0  0  0  0  0  0  0  0  0  0
  145.9653  130.2338  151.9633 C   0  0  0  0  0  0  0  0  0  0  0  0
  146.6320  131.3020  152.8535 C   0  0  1  0  0  0  0  0  0  0  0  0
  147.6697  130.6674  153.8001 C   0  0  0  0  0  0  0  0  0  0  0  0
  148.2918  131.6732  154.5883 O   0  0  0  0  0  0  0  0  0  0  0  0
  149.8366  137.1987  154.4330 N   0  0  0  0  0  0  0  0  0  0  0  0
  150.1449  138.5134  154.8737 C   0  0  0  0  0  0  0  0  0  0  0  0
  151.3873  138.6478  155.5342 C   0  0  0  0  0  0  0  0  0  0  0  0
  151.7863  139.9126  156.0083 C   0  0  0  0  0  0  0  0  0  0  0  0
  150.9322  141.0119  155.8088 C   0  0  0  0  0  0  0  0  0  0  0  0
  149.7140  140.7923  155.1400 C   0  0  0  0  0  0  0  0  0  0  0  0
  149.3298  139.5812  154.6843 N   0  0  0  0  0  0  0  0  0  0  0  0
  149.1588  135.1835  153.4749 H   0  0  0  0  0  0  0  0  0  0  0  0
  150.8227  133.3402  154.7075 H   0  0  0  0  0  0  0  0  0  0  0  0
  149.4431  133.4520  155.7665 H   0  0  0  0  0  0  0  0  0  0  0  0
  149.7313  132.0983  153.1981 H   0  0  0  0  0  0  0  0  0  0  0  0
  147.2621  133.9079  153.4365 H   0  0  0  0  0  0  0  0  0  0  0  0
  148.5244  134.0471  152.2246 H   0  0  0  0  0  0  0  0  0  0  0  0
  145.5696  133.5340  151.6313 H   0  0  0  0  0  0  0  0  0  0  0  0
  146.8684  133.7307  150.4703 H   0  0  0  0  0  0  0  0  0  0  0  0
  144.9676  132.4380  149.4862 H   0  0  0  0  0  0  0  0  0  0  0  0
  146.4402  131.4970  149.5141 H   0  0  0  0  0  0  0  0  0  0  0  0
  144.1366  131.3002  151.5176 H   0  0  0  0  0  0  0  0  0  0  0  0
  144.5626  130.1026  150.3150 H   0  0  0  0  0  0  0  0  0  0  0  0
  145.4461  129.5017  152.5830 H   0  0  0  0  0  0  0  0  0  0  0  0
  146.7281  129.6839  151.4102 H   0  0  0  0  0  0  0  0  0  0  0  0
  145.8614  131.7816  153.4603 H   0  0  0  0  0  0  0  0  0  0  0  0
  147.1844  129.9553  154.4677 H   0  0  0  0  0  0  0  0  0  0  0  0
  148.4255  130.1131  153.2410 H   0  0  0  0  0  0  0  0  0  0  0  0
  149.3491  137.1408  153.5515 H   0  0  0  0  0  0  0  0  0  0  0  0
  152.0316  137.7931  155.6806 H   0  0  0  0  0  0  0  0  0  0  0  0
  152.7312  140.0357  156.5167 H   0  0  0  0  0  0  0  0  0  0  0  0
  151.2032  141.9971  156.1585 H   0  0  0  0  0  0  0  0  0  0  0  0
  149.0299  141.6096  154.9658 H   0  0  0  0  0  0  0  0  0  0  0  0
  147.9820  131.8840  151.4613 H   0  0  0  0  0  0  0  0  0  0  0  0
  1  2  2  0  0  0  0
  2  3  1  0  0  0  0
  2 15  1  0  0  0  0
  3  4  1  0  0  0  0
  3 22  1  0  0  0  0
  4  5  1  0  0  0  0
  4 23  1  0  0  0  0
  4 24  1  0  0  0  0
  5 14  1  0  0  0  0
  5  6  1  0  0  0  0
  5 25  1  0  0  0  0
  6  7  1  0  0  0  0
  6 26  1  0  0  0  0
  6 27  1  0  0  0  0
  7 12  1  0  0  0  0
  7  8  1  0  0  0  0
  7 44  1  0  0  0  0
  8  9  1  0  0  0  0
  8 28  1  0  0  0  0
  8 29  1  0  0  0  0
  9 10  1  0  0  0  0
  9 30  1  0  0  0  0
  9 31  1  0  0  0  0
 10 11  1  0  0  0  0
 10 32  1  0  0  0  0
 10 33  1  0  0  0  0
 11 12  1  0  0  0  0
 11 34  1  0  0  0  0
 11 35  1  0  0  0  0
 12 13  1  0  0  0  0
 12 36  1  0  0  0  0
 13 14  1  0  0  0  0
 13 37  1  0  0  0  0
 13 38  1  0  0  0  0
 15 16  1  0  0  0  0
 15 39  1  0  0  0  0
 16 21  1  0  0  0  0
 16 17  2  0  0  0  0
 17 18  1  0  0  0  0
 17 40  1  0  0  0  0
 18 19  2  0  0  0  0
 18 41  1  0  0  0  0
 19 20  1  0  0  0  0
 19 42  1  0  0  0  0
 20 21  2  0  0  0  0
 20 43  1  0  0  0  0
M  CHG  1   7   1
M  END
> <s_m_source_file>
AV-unprocessed.smi

> <i_m_source_file_index>
2528

> <i_lp_mmshare_version>
43012

> <i_f3d_flags>
0

> <s_epik_input>
bjFbY0hdW2NIXVtjSF1bY0hdYzFbTkhdQyg9TylbTkhdW0NIMl1bQ0BIXShbQ0gyXTIpT1tDSDJdW0NAQEhdKE4yMylbQ0gyXVtDSDJdW0NIMl1bQ0gyXTM=

> <s_epik_cmdline>
J2VwaWtfcHl0aG9uJywgJy1waCcsICc3LjAnLCAnLXRuJywgJzgnLCAnLW1hJywgJzIwMCcsICctbWV0YWxfYmluZGluZycsICctaW1hZScsICc8aW5maWxlLm1hZT4nLCAnLW9tYWUnLCAnPG91dGZpbGUubWFlPic=

> <r_epik_Ionization_Penalty>
0.0932337

> <r_epik_Ionization_Penalty_Charging>
0.0931942

> <r_epik_Ionization_Penalty_Neutral>
3.9565e-05

> <r_epik_State_Penalty>
0.0834605

> <r_epik_Charging_Adjusted_Penalty>
0.176655

> <i_epik_Tot_Q>
1

> <i_epik_Tot_abs_Q>
1

> <r_epik_Metal_State_Penalty>
0.0834607

> <b_epik_Metal_Only>
0

> <s_lp_Force_Field>
OPLS_2005

> <r_lp_Energy>
24.6959

> <b_lp_Chiralities_Consistent>
1

> <s_lp_Variant>
AV-unprocessed.smi:2528-1

> <Gold.Version>
5.8.1

> <Gold.Id.Protein>
6NUR|6NUR_protein|mol2

> <Gold.PLP.Fitness>
47.2110

> <Gold.PLP.PLP>
-40.0694

> <Gold.PLP.part.hbond>
-3.0012

> <Gold.PLP.part.metal>
0.0000

> <Gold.PLP.part.buried>
-4.3531

> <Gold.PLP.part.nonpolar>
-32.7850

> <Gold.PLP.part.repulsive>
0.2588

> <Gold.PLP.ligand.clash>
0.0000

> <Gold.PLP.ligand.torsion>
0.9317

> <Gold.PLP.Chemscore.Hbond>
3.0000

> <Gold.PLP.Chemscore.CHOScore>
0.0000

> <Gold.PLP.Chemscore.Metal>
0.0000

> <Gold.Chemscore.Hbonds>
donor molecule, donor type, donor heavy atom, donor atom, acceptor molecule, acceptor atom, score
      L1  H     3    22       P1  7948  1.00
      L1  H     7    44       P1 10747  1.00
      L1  H    15    39       P1  7948  1.00

> <Gold.PLP.Chemscore.Internal.Correction>
0.0049

> <Gold.Rescore>
     Score         DG    S(hbond)    S(metal)    S(lipo)     H(rot)  DE(clash)    DE(int)     intcor
     18.27     -20.55       2.20        0.00      94.07       1.29       0.05       2.23       ----

> <Gold.Chemscore.Fitness>
18.2704

> <Gold.Chemscore.DG>
-20.5522

> <Gold.Chemscore.ZeroCoef>
-5.4800

> <Gold.Chemscore.Hbond>
2.2039

> <Gold.Chemscore.Metal>
0.0000

> <Gold.Chemscore.Lipo>
94.0692

> <Gold.Chemscore.Internal_Hbond>
0.0000

> <Gold.Chemscore.DEClash>
0.0504

> <Gold.Chemscore.DEInternal>
2.2314

> <Gold.Chemscore.Rot>
1.2870

> <Gold.Chemscore.Internal.Correction>
   9.000000E+99

> <Gold.Chemscore.Hbonds>
donor molecule, donor type, donor heavy atom, donor atom, acceptor molecule, acceptor atom, score
      L1  H     3    22       P1  7948  0.28
      L1  H     7    44       P1 10747  1.00
      L1  H    15    39       P1  7948  0.92

> <Gold.Chemscore.Hbond.Weighted>
-7.3610

> <Gold.Chemscore.Metal.Weighted>
-0.0000

> <Gold.Chemscore.Lipo.Weighted>
-11.0061

> <Gold.Chemscore.Internal_Hbond.Weighted>
0.0000

> <Gold.Chemscore.DEClash.Weighted>
0.0504

> <Gold.Chemscore.DEInternal.Weighted>
2.2314

> <Gold.Chemscore.Rot.Weighted>
3.2948

> <Gold.Chemscore.Internal.Correction.Weighted>
   9.000000E+99

> <Gold.Protein.RotatedTorsions>
[ 6907 6896 6895 6894 ] final  -69.68 input  -60.11 | X-H torsion
[ 7974 7965 7964 7962 ] final   65.12 input  175.53 | X-H torsion
[ 8008 7997 7996 7995 ] final   12.15 input   59.86 | X-H torsion
[ 10167 10162 10161 10158 ] final  -46.06 input  -65.29 | X-H torsion
[ 10718 10713 10712 10709 ] final   90.01 input   66.30 | X-H torsion
[ 10763 10752 10751 10750 ] final -179.35 input  -60.55 | X-H torsion
[ 11005 11000 10999 10996 ] final    7.16 input  -57.11 | X-H torsion

> <Gold.Protein.ActiveResidues>
 VAL166  LYS551  ARG553  GLY616  TRP617  ASP618  TYR619  PRO620  LYS621  CYS622 
 ASP623  PHE694  ASN695  SER759  ASP760  ASP761  ALA762  ILE779  LEU786  VAL792 
 PHE793  MET794  SER795  GLU796  ALA797  LYS798  CYS799  TRP800  GLU811  SER814 

> <Gold.Protein.RotatedAtoms>
  150.7293  134.5561  159.5818 H   0  0  0  0  0  0  0  0  0  0  0  0  # atno 6907 bound_to 6896
  152.3036  134.7578  160.0361 H   0  0  0  0  0  0  0  0  0  0  0  0  # atno 6908 bound_to 6896
  151.8150  133.3351  159.3603 H   0  0  0  0  0  0  0  0  0  0  0  0  # atno 6909 bound_to 6896
  145.8422  139.3202  143.0925 H   0  0  0  0  0  0  0  0  0  0  0  0  # atno 7974 bound_to 7965
  154.8166  140.2877  155.5816 H   0  0  0  0  0  0  0  0  0  0  0  0  # atno 8008 bound_to 7997
  156.2993  140.2558  156.2995 H   0  0  0  0  0  0  0  0  0  0  0  0  # atno 8009 bound_to 7997
  154.9386  140.0382  157.2075 H   0  0  0  0  0  0  0  0  0  0  0  0  # atno 8010 bound_to 7997
  140.6833  143.2849  151.3728 H   0  0  0  0  0  0  0  0  0  0  0  0  # atno 10167 bound_to 10162
  157.6957  131.0355  150.3513 H   0  0  0  0  0  0  0  0  0  0  0  0  # atno 10718 bound_to 10713
  154.5362  135.2803  155.1136 H   0  0  0  0  0  0  0  0  0  0  0  0  # atno 10763 bound_to 10752
  154.2636  135.6317  153.5287 H   0  0  0  0  0  0  0  0  0  0  0  0  # atno 10764 bound_to 10752
  152.9968  135.5611  154.5889 H   0  0  0  0  0  0  0  0  0  0  0  0  # atno 10765 bound_to 10752
  140.5514  134.0280  155.7938 H   0  0  0  0  0  0  0  0  0  0  0  0  # atno 11005 bound_to 11000
  145.9453  140.8950  143.0287 LP  0  0  0  0  0  0  0  0  0  0  0  0  # atno 17320 bound_to 7965
  144.6733  140.1604  143.7423 LP  0  0  0  0  0  0  0  0  0  0  0  0  # atno 17321 bound_to 7965
  139.6171  144.0980  152.2356 LP  0  0  0  0  0  0  0  0  0  0  0  0  # atno 17342 bound_to 10162
  140.0413  144.6005  150.7409 LP  0  0  0  0  0  0  0  0  0  0  0  0  # atno 17343 bound_to 10162
  156.3961  130.3907  149.6994 LP  0  0  0  0  0  0  0  0  0  0  0  0  # atno 17370 bound_to 10713
  156.4327  130.7823  151.2843 LP  0  0  0  0  0  0  0  0  0  0  0  0  # atno 17371 bound_to 10713
  141.1169  133.9525  157.2804 LP  0  0  0  0  0  0  0  0  0  0  0  0  # atno 17394 bound_to 11000
  139.9453  135.0185  156.8834 LP  0  0  0  0  0  0  0  0  0  0  0  0  # atno 17395 bound_to 11000

$$$$
