AV-unprocessed.smi:265|AV-procd|sdf|2023|dock5
  -GOLD-   2262021223D 1   1.00000     0.00000
 Structure written by MMmdl.
 52 56  0  0  0  0  0  0  0  0  1 V2000
  147.7319  133.9197  154.2075 C   0  0  0  0  0  0  0  0  0  0  0  0
  149.2676  133.8826  154.2557 C   0  0  2  0  0  0  0  0  0  0  0  0
  149.6530  132.5683  154.6514 O   0  0  0  0  0  0  0  0  0  0  0  0
  150.8652  132.6446  155.3801 C   0  0  0  0  0  0  0  0  0  0  0  0
  150.6593  133.8931  156.2238 C   0  0  0  0  0  0  0  0  0  0  0  0
  149.9598  134.8476  155.2602 C   0  0  1  0  0  0  0  0  0  0  0  0
  150.9613  135.5594  154.5516 O   0  0  0  0  0  0  0  0  0  0  0  0
  149.0436  135.8837  155.9637 C   0  0  0  0  0  0  0  0  0  0  0  0
  149.7756  136.9350  156.6555 N   0  0  0  0  0  0  0  0  0  0  0  0
  150.1733  136.9269  157.9737 C   0  0  0  0  0  0  0  0  0  0  0  0
  150.8183  137.9907  158.3678 N   0  0  0  0  0  0  0  0  0  0  0  0
  150.8850  138.7882  157.2312 C   0  0  0  0  0  0  0  0  0  0  0  0
  151.4394  140.0692  156.9510 C   0  0  0  0  0  0  0  0  0  0  0  0
  152.0986  140.8016  157.8843 N   0  0  0  0  0  0  0  0  0  0  0  0
  152.3106  140.1941  159.1979 C   0  0  0  0  0  0  0  0  0  0  0  0
  153.3874  140.9591  159.9825 C   0  0  0  0  0  0  0  0  0  0  0  0
  153.0681  142.4599  160.0742 C   0  0  2  0  0  0  0  0  0  0  0  0
  151.9273  142.6690  160.8964 O   0  0  0  0  0  0  0  0  0  0  0  0
  151.6676  144.0442  161.1825 C   0  0  0  0  0  0  0  0  0  0  0  0
  151.6800  144.9180  159.9145 C   0  0  0  0  0  0  0  0  0  0  0  0
  151.1903  146.0447  159.9421 O   0  0  0  0  0  0  0  0  0  0  0  0
  152.2730  144.4279  158.8140 N   0  0  0  0  0  0  0  0  0  0  0  0
  152.7600  143.0584  158.6839 C   0  0  2  0  0  0  0  0  0  0  0  0
  151.7211  142.2131  157.9183 C   0  0  0  0  0  0  0  0  0  0  0  0
  151.2914  140.5510  155.6877 N   0  0  0  0  0  0  0  0  0  0  0  0
  150.6571  139.8291  154.7594 C   0  0  0  0  0  0  0  0  0  0  0  0
  150.0995  138.6227  154.8779 N   0  0  0  0  0  0  0  0  0  0  0  0
  150.2332  138.1378  156.1451 C   0  0  0  0  0  0  0  0  0  0  0  0
  153.9229  142.9696  160.5235 H   0  0  0  0  0  0  0  0  0  0  0  0
  153.6826  143.0845  158.1024 H   0  0  0  0  0  0  0  0  0  0  0  0
  147.3652  134.8958  153.8899 H   0  0  0  0  0  0  0  0  0  0  0  0
  147.2949  133.6894  155.1794 H   0  0  0  0  0  0  0  0  0  0  0  0
  147.3533  133.1838  153.4978 H   0  0  0  0  0  0  0  0  0  0  0  0
  149.6471  134.0478  153.2455 H   0  0  0  0  0  0  0  0  0  0  0  0
  151.0311  131.7504  155.9812 H   0  0  0  0  0  0  0  0  0  0  0  0
  151.7047  132.7643  154.6934 H   0  0  0  0  0  0  0  0  0  0  0  0
  149.9956  133.6431  157.0522 H   0  0  0  0  0  0  0  0  0  0  0  0
  151.5849  134.2872  156.6459 H   0  0  0  0  0  0  0  0  0  0  0  0
  150.7930  135.4689  153.6261 H   0  0  0  0  0  0  0  0  0  0  0  0
  148.3842  136.3590  155.2365 H   0  0  0  0  0  0  0  0  0  0  0  0
  148.3973  135.3920  156.6915 H   0  0  0  0  0  0  0  0  0  0  0  0
  149.9618  136.1034  158.6407 H   0  0  0  0  0  0  0  0  0  0  0  0
  151.3717  140.1979  159.7535 H   0  0  0  0  0  0  0  0  0  0  0  0
  152.6157  139.1528  159.0871 H   0  0  0  0  0  0  0  0  0  0  0  0
  153.4969  140.5356  160.9812 H   0  0  0  0  0  0  0  0  0  0  0  0
  154.3494  140.8286  159.4854 H   0  0  0  0  0  0  0  0  0  0  0  0
  150.7006  144.1272  161.6794 H   0  0  0  0  0  0  0  0  0  0  0  0
  152.4210  144.4188  161.8765 H   0  0  0  0  0  0  0  0  0  0  0  0
  152.3161  145.0146  157.9935 H   0  0  0  0  0  0  0  0  0  0  0  0
  151.5996  142.6157  156.9130 H   0  0  0  0  0  0  0  0  0  0  0  0
  150.7459  142.2923  158.4016 H   0  0  0  0  0  0  0  0  0  0  0  0
  150.5862  140.2827  153.7817 H   0  0  0  0  0  0  0  0  0  0  0  0
  1  2  1  0  0  0  0
  1 31  1  0  0  0  0
  1 32  1  0  0  0  0
  1 33  1  0  0  0  0
  2  6  1  0  0  0  0
  2  3  1  0  0  0  0
  2 34  1  0  0  0  0
  3  4  1  0  0  0  0
  4  5  1  0  0  0  0
  4 35  1  0  0  0  0
  4 36  1  0  0  0  0
  5  6  1  0  0  0  0
  5 37  1  0  0  0  0
  5 38  1  0  0  0  0
  6  7  1  0  0  0  0
  6  8  1  0  0  0  0
  7 39  1  0  0  0  0
  8  9  1  0  0  0  0
  8 40  1  0  0  0  0
  8 41  1  0  0  0  0
  9 28  1  0  0  0  0
  9 10  1  0  0  0  0
 10 11  2  0  0  0  0
 10 42  1  0  0  0  0
 11 12  1  0  0  0  0
 12 28  2  0  0  0  0
 12 13  1  0  0  0  0
 13 14  1  0  0  0  0
 13 25  2  0  0  0  0
 14 24  1  0  0  0  0
 14 15  1  0  0  0  0
 15 16  1  0  0  0  0
 15 43  1  0  0  0  0
 15 44  1  0  0  0  0
 16 17  1  0  0  0  0
 16 45  1  0  0  0  0
 16 46  1  0  0  0  0
 17 29  1  0  0  0  0
 17 23  1  0  0  0  0
 17 18  1  0  0  0  0
 18 19  1  0  0  0  0
 19 20  1  0  0  0  0
 19 47  1  0  0  0  0
 19 48  1  0  0  0  0
 20 21  2  0  0  0  0
 20 22  1  0  0  0  0
 22 23  1  0  0  0  0
 22 49  1  0  0  0  0
 23 30  1  0  0  0  0
 23 24  1  0  0  0  0
 24 50  1  0  0  0  0
 24 51  1  0  0  0  0
 25 26  1  0  0  0  0
 26 27  2  0  0  0  0
 26 52  1  0  0  0  0
 27 28  1  0  0  0  0
M  END
> <s_m_source_file>
AV-unprocessed.smi

> <i_m_source_file_index>
265

> <i_lp_mmshare_version>
43012

> <i_f3d_flags>
0

> <s_epik_input>
W0NIMl0xW0NIMl1PW0NAQEhdKFtDSDNdKVtDQEBdMShbT0hdKVtDSDJdbihbY0hdbjIpYyhjMjMpbltjSF1uYzNOKFtDSDJdW0NIMl00KVtDSDJdW0NAQEhdKFtDQEhdNDUpW05IXUMoPU8pW0NIMl1PNQ==

> <s_epik_cmdline>
J2VwaWtfcHl0aG9uJywgJy1waCcsICc3LjAnLCAnLXRuJywgJzgnLCAnLW1hJywgJzIwMCcsICctbWV0YWxfYmluZGluZycsICctaW1hZScsICc8aW5maWxlLm1hZT4nLCAnLW9tYWUnLCAnPG91dGZpbGUubWFlPic=

> <r_lp_tautomer_probability>
1

> <r_epik_Ionization_Penalty>
0.00221504

> <r_epik_Ionization_Penalty_Charging>
0

> <r_epik_Ionization_Penalty_Neutral>
0.00221504

> <r_epik_State_Penalty>
-0

> <r_epik_Charging_Adjusted_Penalty>
0

> <i_epik_Tot_Q>
0

> <i_epik_Tot_abs_Q>
0

> <r_epik_Metal_State_Penalty>
-0

> <b_epik_Metal_Only>
0

> <s_lp_Force_Field>
OPLS_2005

> <r_lp_Energy>
44.3548

> <b_lp_Chiralities_Consistent>
1

> <s_lp_Variant>
AV-unprocessed.smi:265-9

> <Gold.Version>
5.8.1

> <Gold.Id.Protein>
6NUR|6NUR_protein|mol2

> <Gold.PLP.Fitness>
46.8239

> <Gold.PLP.PLP>
-42.3606

> <Gold.PLP.part.hbond>
-6.0410

> <Gold.PLP.part.metal>
0.0000

> <Gold.PLP.part.buried>
-4.4304

> <Gold.PLP.part.nonpolar>
-30.2198

> <Gold.PLP.part.repulsive>
0.5454

> <Gold.PLP.ligand.clash>
0.0000

> <Gold.PLP.ligand.torsion>
0.7039

> <Gold.PLP.Chemscore.Hbond>
1.3010

> <Gold.PLP.Chemscore.CHOScore>
0.5370

> <Gold.PLP.Chemscore.Metal>
0.0000

> <Gold.Chemscore.Hbonds>
donor molecule, donor type, donor heavy atom, donor atom, acceptor molecule, acceptor atom, score
      L1  H     7    39       P1  7949  0.30
      P1  H 10752 10764       L1     7  0.80
      L1  C    26    52       P1  7957  0.33

> <Gold.PLP.Chemscore.Internal.Correction>
0.3570

> <Gold.Rescore>
     Score         DG    S(hbond)    S(metal)    S(lipo)     H(rot)  DE(clash)    DE(int)     intcor
      7.86     -10.05       0.02        0.00      87.71       2.25       0.04       2.14       ----

> <Gold.Chemscore.Fitness>
7.8648

> <Gold.Chemscore.DG>
-10.0486

> <Gold.Chemscore.ZeroCoef>
-5.4800

> <Gold.Chemscore.Hbond>
0.0163

> <Gold.Chemscore.Metal>
0.0000

> <Gold.Chemscore.Lipo>
87.7100

> <Gold.Chemscore.Internal_Hbond>
0.0000

> <Gold.Chemscore.DEClash>
0.0443

> <Gold.Chemscore.DEInternal>
2.1395

> <Gold.Chemscore.Rot>
2.2453

> <Gold.Chemscore.Internal.Correction>
   9.000000E+99

> <Gold.Chemscore.Hbonds>
donor molecule, donor type, donor heavy atom, donor atom, acceptor molecule, acceptor atom, score
      L1  H     7    39       P1  7949  0.02
      P1  H 10752 10764       L1     7  0.11

> <Gold.Chemscore.Hbond.Weighted>
-0.0544

> <Gold.Chemscore.Metal.Weighted>
-0.0000

> <Gold.Chemscore.Lipo.Weighted>
-10.2621

> <Gold.Chemscore.Internal_Hbond.Weighted>
0.0000

> <Gold.Chemscore.DEClash.Weighted>
0.0443

> <Gold.Chemscore.DEInternal.Weighted>
2.1395

> <Gold.Chemscore.Rot.Weighted>
5.7479

> <Gold.Chemscore.Internal.Correction.Weighted>
   9.000000E+99

> <Gold.Protein.RotatedTorsions>
[ 6907 6896 6895 6894 ] final -136.92 input  -60.11 | X-H torsion
[ 7974 7965 7964 7962 ] final -151.67 input  175.53 | X-H torsion
[ 8008 7997 7996 7995 ] final  -62.83 input   59.86 | X-H torsion
[ 10167 10162 10161 10158 ] final  103.15 input  -65.29 | X-H torsion
[ 10718 10713 10712 10709 ] final -118.83 input   66.30 | X-H torsion
[ 10763 10752 10751 10750 ] final  -70.61 input  -60.55 | X-H torsion
[ 11005 11000 10999 10996 ] final -166.81 input  -57.11 | X-H torsion

> <Gold.Protein.ActiveResidues>
 VAL166  LYS551  ARG553  GLY616  TRP617  ASP618  TYR619  PRO620  LYS621  CYS622 
 ASP623  PHE694  ASN695  SER759  ASP760  ASP761  ALA762  ILE779  LEU786  VAL792 
 PHE793  MET794  SER795  GLU796  ALA797  LYS798  CYS799  TRP800  GLU811  SER814 

> <Gold.Protein.RotatedAtoms>
  151.0161  133.5920  159.2676 H   0  0  0  0  0  0  0  0  0  0  0  0  # atno 6907 bound_to 6896
  151.3054  135.0779  159.9263 H   0  0  0  0  0  0  0  0  0  0  0  0  # atno 6908 bound_to 6896
  152.5311  133.9835  159.7871 H   0  0  0  0  0  0  0  0  0  0  0  0  # atno 6909 bound_to 6896
  144.7836  140.4766  143.5821 H   0  0  0  0  0  0  0  0  0  0  0  0  # atno 7974 bound_to 7965
  154.4521  140.0987  156.6649 H   0  0  0  0  0  0  0  0  0  0  0  0  # atno 8008 bound_to 7997
  155.5253  140.3480  155.4396 H   0  0  0  0  0  0  0  0  0  0  0  0  # atno 8009 bound_to 7997
  156.0702  140.1347  156.9826 H   0  0  0  0  0  0  0  0  0  0  0  0  # atno 8010 bound_to 7997
  139.7288  144.7041  151.0755 H   0  0  0  0  0  0  0  0  0  0  0  0  # atno 10167 bound_to 10162
  156.1135  130.6268  150.9340 H   0  0  0  0  0  0  0  0  0  0  0  0  # atno 10718 bound_to 10713
  154.4200  135.5989  153.6004 H   0  0  0  0  0  0  0  0  0  0  0  0  # atno 10763 bound_to 10752
  152.9793  135.5950  154.3966 H   0  0  0  0  0  0  0  0  0  0  0  0  # atno 10764 bound_to 10752
  154.3790  135.2841  155.2201 H   0  0  0  0  0  0  0  0  0  0  0  0  # atno 10765 bound_to 10752
  140.5603  134.5340  157.5141 H   0  0  0  0  0  0  0  0  0  0  0  0  # atno 11005 bound_to 11000
  145.5981  139.1501  143.3144 LP  0  0  0  0  0  0  0  0  0  0  0  0  # atno 17320 bound_to 7965
  146.2057  140.6104  142.9082 LP  0  0  0  0  0  0  0  0  0  0  0  0  # atno 17321 bound_to 7965
  140.7767  143.5070  150.9699 LP  0  0  0  0  0  0  0  0  0  0  0  0  # atno 17342 bound_to 10162
  139.8758  143.7134  152.3162 LP  0  0  0  0  0  0  0  0  0  0  0  0  # atno 17343 bound_to 10162
  157.6318  131.0920  150.8427 LP  0  0  0  0  0  0  0  0  0  0  0  0  # atno 17370 bound_to 10713
  156.8534  130.5088  149.5310 LP  0  0  0  0  0  0  0  0  0  0  0  0  # atno 17371 bound_to 10713
  139.9411  134.7785  156.0676 LP  0  0  0  0  0  0  0  0  0  0  0  0  # atno 17394 bound_to 11000
  141.1119  133.6640  156.2999 LP  0  0  0  0  0  0  0  0  0  0  0  0  # atno 17395 bound_to 11000

$$$$
