AV-unprocessed.smi:2837|AV-procd|sdf|10921|dock9
  -GOLD-   2272015373D 1   1.00000     0.00000
 Structure written by MMmdl.
 32 34  0  0  0  0  0  0  0  0  1 V2000
  140.6929  140.4430  155.6370 F   0  0  0  0  0  0  0  0  0  0  0  0
  140.8969  139.1275  155.3855 C   0  0  0  0  0  0  0  0  0  0  0  0
  140.0002  138.7473  154.4426 F   0  0  0  0  0  0  0  0  0  0  0  0
  142.1664  138.9370  154.9381 O   0  0  0  0  0  0  0  0  0  0  0  0
  142.5640  137.6735  154.5650 C   0  0  0  0  0  0  0  0  0  0  0  0
  141.9246  136.4887  154.9995 C   0  0  0  0  0  0  0  0  0  0  0  0
  142.4056  135.2457  154.5453 C   0  0  0  0  0  0  0  0  0  0  0  0
  143.5062  135.2220  153.6644 C   0  0  0  0  0  0  0  0  0  0  0  0
  143.9838  133.9802  153.2219 N   0  0  0  0  0  0  0  0  0  0  0  0
  145.0045  133.8890  152.1820 C   0  0  1  0  0  0  0  0  0  0  0  0
  145.8486  132.6164  152.2828 C   0  0  0  0  0  0  0  0  0  0  0  0
  145.7020  132.0276  150.8728 C   0  0  1  0  0  0  0  0  0  0  0  0
  144.3158  131.4037  150.6648 C   0  0  0  0  0  0  0  0  0  0  0  0
  143.4300  132.6436  150.5596 C   0  0  0  0  0  0  0  0  0  0  0  0
  144.4496  133.7801  150.7470 C   0  0  2  0  0  0  0  0  0  0  0  0
  145.5739  133.2088  150.0988 O   0  0  0  0  0  0  0  0  0  0  0  0
  144.1167  136.3521  153.2380 N   0  0  0  0  0  0  0  0  0  0  0  0
  143.6496  137.5403  153.6759 C   0  0  0  0  0  0  0  0  0  0  0  0
  140.7083  138.5788  156.3086 H   0  0  0  0  0  0  0  0  0  0  0  0
  141.0755  136.5187  155.6660 H   0  0  0  0  0  0  0  0  0  0  0  0
  141.9326  134.3293  154.8673 H   0  0  0  0  0  0  0  0  0  0  0  0
  143.4743  133.1432  153.4655 H   0  0  0  0  0  0  0  0  0  0  0  0
  145.6702  134.7507  152.2513 H   0  0  0  0  0  0  0  0  0  0  0  0
  146.8883  132.8706  152.4914 H   0  0  0  0  0  0  0  0  0  0  0  0
  145.5105  131.9215  153.0530 H   0  0  0  0  0  0  0  0  0  0  0  0
  146.5273  131.3800  150.5757 H   0  0  0  0  0  0  0  0  0  0  0  0
  144.2816  130.8295  149.7383 H   0  0  0  0  0  0  0  0  0  0  0  0
  144.0287  130.7464  151.4863 H   0  0  0  0  0  0  0  0  0  0  0  0
  142.9745  132.6993  149.5702 H   0  0  0  0  0  0  0  0  0  0  0  0
  142.6277  132.6601  151.2975 H   0  0  0  0  0  0  0  0  0  0  0  0
  144.1300  134.7318  150.3221 H   0  0  0  0  0  0  0  0  0  0  0  0
  144.1628  138.4164  153.3076 H   0  0  0  0  0  0  0  0  0  0  0  0
  1  2  1  0  0  0  0
  2  3  1  0  0  0  0
  2  4  1  0  0  0  0
  2 19  1  0  0  0  0
  4  5  1  0  0  0  0
  5 18  1  0  0  0  0
  5  6  2  0  0  0  0
  6  7  1  0  0  0  0
  6 20  1  0  0  0  0
  7  8  2  0  0  0  0
  7 21  1  0  0  0  0
  8  9  1  0  0  0  0
  8 17  1  0  0  0  0
  9 10  1  0  0  0  0
  9 22  1  0  0  0  0
 10 15  1  0  0  0  0
 10 11  1  0  0  0  0
 10 23  1  0  0  0  0
 11 12  1  0  0  0  0
 11 24  1  0  0  0  0
 11 25  1  0  0  0  0
 12 16  1  0  0  0  0
 12 13  1  0  0  0  0
 12 26  1  0  0  0  0
 13 14  1  0  0  0  0
 13 27  1  0  0  0  0
 13 28  1  0  0  0  0
 14 15  1  0  0  0  0
 14 29  1  0  0  0  0
 14 30  1  0  0  0  0
 15 16  1  0  0  0  0
 15 31  1  0  0  0  0
 17 18  2  0  0  0  0
 18 32  1  0  0  0  0
M  END
> <s_m_source_file>
AV-unprocessed.smi

> <i_m_source_file_index>
2837

> <i_lp_mmshare_version>
43012

> <i_f3d_flags>
0

> <s_epik_input>
RltDSF0oRilPYzFbY0hdW2NIXWMobltjSF0xKVtOSF1bQ0BIXShbQ0gyXVtDQEBIXTIzKVtDQEBIXShPMylbQ0gyXVtDSDJdMg==

> <s_epik_cmdline>
J2VwaWtfcHl0aG9uJywgJy1waCcsICc3LjAnLCAnLXRuJywgJzgnLCAnLW1hJywgJzIwMCcsICctbWV0YWxfYmluZGluZycsICctaW1hZScsICc8aW5maWxlLm1hZT4nLCAnLW9tYWUnLCAnPG91dGZpbGUubWFlPic=

> <r_lp_tautomer_probability>
1

> <r_epik_Ionization_Penalty>
0.0124072

> <r_epik_Ionization_Penalty_Charging>
0

> <r_epik_Ionization_Penalty_Neutral>
0.0124072

> <r_epik_State_Penalty>
0.00959565

> <r_epik_Charging_Adjusted_Penalty>
0.00959565

> <i_epik_Tot_Q>
0

> <i_epik_Tot_abs_Q>
0

> <r_epik_Metal_State_Penalty>
9.67369e-06

> <b_epik_Metal_Only>
0

> <s_lp_Force_Field>
OPLS_2005

> <r_lp_Energy>
39.9144

> <b_lp_Chiralities_Consistent>
1

> <s_lp_Variant>
AV-unprocessed.smi:2837-2

> <Gold.Version>
5.8.1

> <Gold.Id.Protein>
6NUR|6NUR_protein|mol2

> <Gold.PLP.Fitness>
39.8389

> <Gold.PLP.PLP>
-32.3723

> <Gold.PLP.part.hbond>
-1.0000

> <Gold.PLP.part.metal>
0.0000

> <Gold.PLP.part.buried>
-5.0299

> <Gold.PLP.part.nonpolar>
-27.7169

> <Gold.PLP.part.repulsive>
0.5677

> <Gold.PLP.ligand.clash>
0.0000

> <Gold.PLP.ligand.torsion>
0.6996

> <Gold.PLP.Chemscore.Hbond>
1.0000

> <Gold.PLP.Chemscore.CHOScore>
1.9490

> <Gold.PLP.Chemscore.Metal>
0.0000

> <Gold.Chemscore.Hbonds>
donor molecule, donor type, donor heavy atom, donor atom, acceptor molecule, acceptor atom, score
      L1  H     9    22       P1 10957  0.91
      L1  C    18    32       P1 10175  1.00

> <Gold.PLP.Chemscore.Internal.Correction>
0.0189

> <Gold.Rescore>
     Score         DG    S(hbond)    S(metal)    S(lipo)     H(rot)  DE(clash)    DE(int)     intcor
     13.05     -13.68       0.92        0.00      72.62       1.32       0.10       0.53       ----

> <Gold.Chemscore.Fitness>
13.0494

> <Gold.Chemscore.DG>
-13.6831

> <Gold.Chemscore.ZeroCoef>
-5.4800

> <Gold.Chemscore.Hbond>
0.9247

> <Gold.Chemscore.Metal>
0.0000

> <Gold.Chemscore.Lipo>
72.6245

> <Gold.Chemscore.Internal_Hbond>
0.0000

> <Gold.Chemscore.DEClash>
0.1013

> <Gold.Chemscore.DEInternal>
0.5325

> <Gold.Chemscore.Rot>
1.3213

> <Gold.Chemscore.Internal.Correction>
   9.000000E+99

> <Gold.Chemscore.Hbonds>
donor molecule, donor type, donor heavy atom, donor atom, acceptor molecule, acceptor atom, score
      L1  H     9    22       P1 10957  0.79

> <Gold.Chemscore.Hbond.Weighted>
-3.0886

> <Gold.Chemscore.Metal.Weighted>
-0.0000

> <Gold.Chemscore.Lipo.Weighted>
-8.4971

> <Gold.Chemscore.Internal_Hbond.Weighted>
0.0000

> <Gold.Chemscore.DEClash.Weighted>
0.1013

> <Gold.Chemscore.DEInternal.Weighted>
0.5325

> <Gold.Chemscore.Rot.Weighted>
3.3825

> <Gold.Chemscore.Internal.Correction.Weighted>
   9.000000E+99

> <Gold.Protein.RotatedTorsions>
[ 6907 6896 6895 6894 ] final   46.08 input  -60.11 | X-H torsion
[ 7974 7965 7964 7962 ] final  139.41 input  175.53 | X-H torsion
[ 8008 7997 7996 7995 ] final   58.59 input   59.86 | X-H torsion
[ 10167 10162 10161 10158 ] final  165.88 input  -65.29 | X-H torsion
[ 10718 10713 10712 10709 ] final  137.57 input   66.30 | X-H torsion
[ 10763 10752 10751 10750 ] final -111.46 input  -60.55 | X-H torsion
[ 11005 11000 10999 10996 ] final -167.65 input  -57.11 | X-H torsion

> <Gold.Protein.ActiveResidues>
 VAL166  LYS551  ARG553  GLY616  TRP617  ASP618  TYR619  PRO620  LYS621  CYS622 
 ASP623  PHE694  ASN695  SER759  ASP760  ASP761  ALA762  ILE779  LEU786  VAL792 
 PHE793  MET794  SER795  GLU796  ALA797  LYS798  CYS799  TRP800  GLU811  SER814 

> <Gold.Protein.RotatedAtoms>
  152.2521  134.8121  160.0444 H   0  0  0  0  0  0  0  0  0  0  0  0  # atno 6907 bound_to 6896
  151.8798  133.3488  159.3770 H   0  0  0  0  0  0  0  0  0  0  0  0  # atno 6908 bound_to 6896
  150.7087  134.4957  159.5581 H   0  0  0  0  0  0  0  0  0  0  0  0  # atno 6909 bound_to 6896
  144.9281  139.5081  143.5631 H   0  0  0  0  0  0  0  0  0  0  0  0  # atno 7974 bound_to 7965
  155.5524  140.3486  155.4472 H   0  0  0  0  0  0  0  0  0  0  0  0  # atno 8008 bound_to 7997
  156.0573  140.1332  157.0007 H   0  0  0  0  0  0  0  0  0  0  0  0  # atno 8009 bound_to 7997
  154.4463  140.0992  156.6450 H   0  0  0  0  0  0  0  0  0  0  0  0  # atno 8010 bound_to 7997
  139.4914  144.4086  151.9326 H   0  0  0  0  0  0  0  0  0  0  0  0  # atno 10167 bound_to 10162
  157.4347  131.1052  151.0211 H   0  0  0  0  0  0  0  0  0  0  0  0  # atno 10718 bound_to 10713
  154.8301  135.4526  154.1042 H   0  0  0  0  0  0  0  0  0  0  0  0  # atno 10763 bound_to 10752
  153.2323  135.6907  153.7882 H   0  0  0  0  0  0  0  0  0  0  0  0  # atno 10764 bound_to 10752
  153.7261  135.3334  155.3253 H   0  0  0  0  0  0  0  0  0  0  0  0  # atno 10765 bound_to 10752
  140.5509  134.5429  157.5122 H   0  0  0  0  0  0  0  0  0  0  0  0  # atno 11005 bound_to 11000
  146.3235  139.8212  142.8926 LP  0  0  0  0  0  0  0  0  0  0  0  0  # atno 17320 bound_to 7965
  145.3186  141.0238  143.3513 LP  0  0  0  0  0  0  0  0  0  0  0  0  # atno 17321 bound_to 7965
  140.3527  144.3069  150.5946 LP  0  0  0  0  0  0  0  0  0  0  0  0  # atno 17342 bound_to 10162
  140.5471  143.2213  151.7988 LP  0  0  0  0  0  0  0  0  0  0  0  0  # atno 17343 bound_to 10162
  157.1095  130.6015  149.5478 LP  0  0  0  0  0  0  0  0  0  0  0  0  # atno 17370 bound_to 10713
  155.9926  130.4984  150.7347 LP  0  0  0  0  0  0  0  0  0  0  0  0  # atno 17371 bound_to 10713
  139.9456  134.7709  156.0571 LP  0  0  0  0  0  0  0  0  0  0  0  0  # atno 17394 bound_to 11000
  141.1172  133.6624  156.3123 LP  0  0  0  0  0  0  0  0  0  0  0  0  # atno 17395 bound_to 11000

$$$$
