AV-unprocessed.smi:3131|AV-procd|sdf|11927|dock10
  -GOLD-   2272017313D 1   1.00000     0.00000
 Structure written by MMmdl.
 43 43  0  0  0  0  0  0  0  0  2 V2000
  151.1017  144.9979  159.9846 C   0  0  0  0  0  0  0  0  0  0  0  0
  151.0387  144.3272  158.6042 C   0  0  0  0  0  0  0  0  0  0  0  0
  151.2759  142.7982  158.6250 C   0  0  0  0  0  0  0  0  0  0  0  0
  152.6938  142.4593  159.1464 C   0  0  0  0  0  0  0  0  0  0  0  0
  152.9189  140.9700  159.4476 C   0  0  0  0  0  0  0  0  0  0  0  0
  151.0467  142.1797  157.2276 C   0  0  0  0  0  0  0  0  0  0  0  0
  149.6138  142.1450  156.8723 N   0  3  0  0  0  0  0  0  0  0  0  0
  149.2428  141.0530  155.9473 C   0  0  0  0  0  0  0  0  0  0  0  0
  147.9960  141.4079  155.1085 C   0  0  1  0  0  0  0  0  0  0  0  0
  146.7670  141.5832  156.0177 C   0  0  0  0  0  0  0  0  0  0  0  0
  148.2289  142.6755  154.5232 O   0  0  0  0  0  0  0  0  0  0  0  0
  147.7239  140.3453  154.0645 C   0  0  0  0  0  0  0  0  0  0  0  0
  147.4149  138.9669  154.2629 C   0  0  0  0  0  0  0  0  0  0  0  0
  147.2164  138.3122  153.1310 N   0  0  0  0  0  0  0  0  0  0  0  0
  147.3973  139.2400  152.1705 N   0  0  0  0  0  0  0  0  0  0  0  0
  147.2584  138.8641  150.7799 C   0  0  0  0  0  0  0  0  0  0  0  0
  147.7045  140.4731  152.7025 C   0  0  0  0  0  0  0  0  0  0  0  0
  151.0242  146.0811  159.8866 H   0  0  0  0  0  0  0  0  0  0  0  0
  152.0450  144.7805  160.4862 H   0  0  0  0  0  0  0  0  0  0  0  0
  150.2900  144.6767  160.6363 H   0  0  0  0  0  0  0  0  0  0  0  0
  150.0806  144.5484  158.1323 H   0  0  0  0  0  0  0  0  0  0  0  0
  151.7923  144.8097  157.9835 H   0  0  0  0  0  0  0  0  0  0  0  0
  150.5510  142.3563  159.3108 H   0  0  0  0  0  0  0  0  0  0  0  0
  153.4388  142.7501  158.4058 H   0  0  0  0  0  0  0  0  0  0  0  0
  152.9142  143.0508  160.0359 H   0  0  0  0  0  0  0  0  0  0  0  0
  153.9593  140.7874  159.7180 H   0  0  0  0  0  0  0  0  0  0  0  0
  152.6922  140.3526  158.5780 H   0  0  0  0  0  0  0  0  0  0  0  0
  152.3058  140.6208  160.2776 H   0  0  0  0  0  0  0  0  0  0  0  0
  151.5562  142.7606  156.4602 H   0  0  0  0  0  0  0  0  0  0  0  0
  151.4604  141.1711  157.1878 H   0  0  0  0  0  0  0  0  0  0  0  0
  149.0734  142.0400  157.7192 H   0  0  0  0  0  0  0  0  0  0  0  0
  150.0890  140.8578  155.2868 H   0  0  0  0  0  0  0  0  0  0  0  0
  149.0717  140.1385  156.5176 H   0  0  0  0  0  0  0  0  0  0  0  0
  146.5271  140.6596  156.5456 H   0  0  0  0  0  0  0  0  0  0  0  0
  145.8856  141.8700  155.4423 H   0  0  0  0  0  0  0  0  0  0  0  0
  146.9332  142.3542  156.7712 H   0  0  0  0  0  0  0  0  0  0  0  0
  147.9105  143.3445  155.1103 H   0  0  0  0  0  0  0  0  0  0  0  0
  147.3229  138.4260  155.1933 H   0  0  0  0  0  0  0  0  0  0  0  0
  147.3437  139.7456  150.1435 H   0  0  0  0  0  0  0  0  0  0  0  0
  146.2839  138.4025  150.6163 H   0  0  0  0  0  0  0  0  0  0  0  0
  148.0415  138.1549  150.5100 H   0  0  0  0  0  0  0  0  0  0  0  0
  147.8804  141.3339  152.0742 H   0  0  0  0  0  0  0  0  0  0  0  0
  149.3659  143.0246  156.4418 H   0  0  0  0  0  0  0  0  0  0  0  0
  1  2  1  0  0  0  0
  1 18  1  0  0  0  0
  1 19  1  0  0  0  0
  1 20  1  0  0  0  0
  2  3  1  0  0  0  0
  2 21  1  0  0  0  0
  2 22  1  0  0  0  0
  3  4  1  0  0  0  0
  3  6  1  0  0  0  0
  3 23  1  0  0  0  0
  4  5  1  0  0  0  0
  4 24  1  0  0  0  0
  4 25  1  0  0  0  0
  5 26  1  0  0  0  0
  5 27  1  0  0  0  0
  5 28  1  0  0  0  0
  6  7  1  0  0  0  0
  6 29  1  0  0  0  0
  6 30  1  0  0  0  0
  7  8  1  0  0  0  0
  7 31  1  0  0  0  0
  7 43  1  0  0  0  0
  8  9  1  0  0  0  0
  8 32  1  0  0  0  0
  8 33  1  0  0  0  0
  9 10  1  0  0  0  0
  9 11  1  0  0  0  0
  9 12  1  0  0  0  0
 10 34  1  0  0  0  0
 10 35  1  0  0  0  0
 10 36  1  0  0  0  0
 11 37  1  0  0  0  0
 12 17  2  0  0  0  0
 12 13  1  0  0  0  0
 13 14  2  0  0  0  0
 13 38  1  0  0  0  0
 14 15  1  0  0  0  0
 15 16  1  0  0  0  0
 15 17  1  0  0  0  0
 16 39  1  0  0  0  0
 16 40  1  0  0  0  0
 16 41  1  0  0  0  0
 17 42  1  0  0  0  0
M  CHG  1   7   1
M  END
> <s_m_source_file>
AV-unprocessed.smi

> <i_m_source_file_index>
3131

> <i_lp_mmshare_version>
43012

> <i_f3d_flags>
0

> <s_epik_input>
W0NIM11bQ0gyXVtDSF0oW0NIMl1bQ0gzXSlbQ0gyXVtOSF1bQ0gyXVtDQEBdKFtDSDNdKShbT0hdKWMxW2NIXW5uKFtDSDNdKVtjSF0x

> <s_epik_cmdline>
J2VwaWtfcHl0aG9uJywgJy1waCcsICc3LjAnLCAnLXRuJywgJzgnLCAnLW1hJywgJzIwMCcsICctbWV0YWxfYmluZGluZycsICctaW1hZScsICc8aW5maWxlLm1hZT4nLCAnLW9tYWUnLCAnPG91dGZpbGUubWFlPic=

> <r_lp_tautomer_probability>
1

> <r_epik_Ionization_Penalty>
0.00304809

> <r_epik_Ionization_Penalty_Charging>
0.00302982

> <r_epik_Ionization_Penalty_Neutral>
1.82731e-05

> <r_epik_State_Penalty>
0.00212874

> <r_epik_Charging_Adjusted_Penalty>
0.00515857

> <i_epik_Tot_Q>
1

> <i_epik_Tot_abs_Q>
1

> <r_epik_Metal_State_Penalty>
-0

> <b_epik_Metal_Only>
0

> <s_lp_Force_Field>
OPLS_2005

> <r_lp_Energy>
10.206

> <b_lp_Chiralities_Consistent>
1

> <s_lp_Variant>
AV-unprocessed.smi:3131-1

> <Gold.Version>
5.8.1

> <Gold.Id.Protein>
6NUR|6NUR_protein|mol2

> <Gold.PLP.Fitness>
46.5610

> <Gold.PLP.PLP>
-36.3706

> <Gold.PLP.part.hbond>
-3.2090

> <Gold.PLP.part.metal>
0.0000

> <Gold.PLP.part.buried>
-0.8091

> <Gold.PLP.part.nonpolar>
-33.3928

> <Gold.PLP.part.repulsive>
0.1692

> <Gold.PLP.ligand.clash>
0.0000

> <Gold.PLP.ligand.torsion>
0.5203

> <Gold.PLP.Chemscore.Hbond>
3.0013

> <Gold.PLP.Chemscore.CHOScore>
0.6974

> <Gold.PLP.Chemscore.Metal>
0.0000

> <Gold.Chemscore.Hbonds>
donor molecule, donor type, donor heavy atom, donor atom, acceptor molecule, acceptor atom, score
      L1  H     7    43       P1  8028  2.00
      L1  H    11    37       P1  8028  0.50
      L1  C    17    42       P1  7957  0.12

> <Gold.PLP.Chemscore.Internal.Correction>
0.1351

> <Gold.Rescore>
     Score         DG    S(hbond)    S(metal)    S(lipo)     H(rot)  DE(clash)    DE(int)     intcor
     16.73     -17.59       1.98        0.00      98.24       2.34       0.20       0.66       ----

> <Gold.Chemscore.Fitness>
16.7268

> <Gold.Chemscore.DG>
-17.5880

> <Gold.Chemscore.ZeroCoef>
-5.4800

> <Gold.Chemscore.Hbond>
1.9795

> <Gold.Chemscore.Metal>
0.0000

> <Gold.Chemscore.Lipo>
98.2371

> <Gold.Chemscore.Internal_Hbond>
0.0000

> <Gold.Chemscore.DEClash>
0.1999

> <Gold.Chemscore.DEInternal>
0.6613

> <Gold.Chemscore.Rot>
2.3426

> <Gold.Chemscore.Internal.Correction>
   9.000000E+99

> <Gold.Chemscore.Hbonds>
donor molecule, donor type, donor heavy atom, donor atom, acceptor molecule, acceptor atom, score
      L1  H     7    43       P1  8028  1.00
      L1  H    11    37       P1  8028  0.33

> <Gold.Chemscore.Hbond.Weighted>
-6.6114

> <Gold.Chemscore.Metal.Weighted>
-0.0000

> <Gold.Chemscore.Lipo.Weighted>
-11.4937

> <Gold.Chemscore.Internal_Hbond.Weighted>
0.0000

> <Gold.Chemscore.DEClash.Weighted>
0.1999

> <Gold.Chemscore.DEInternal.Weighted>
0.6613

> <Gold.Chemscore.Rot.Weighted>
5.9972

> <Gold.Chemscore.Internal.Correction.Weighted>
   9.000000E+99

> <Gold.Protein.RotatedTorsions>
[ 6907 6896 6895 6894 ] final -136.02 input  -60.11 | X-H torsion
[ 7974 7965 7964 7962 ] final   69.69 input  175.53 | X-H torsion
[ 8008 7997 7996 7995 ] final  -10.20 input   59.86 | X-H torsion
[ 10167 10162 10161 10158 ] final   81.23 input  -65.29 | X-H torsion
[ 10718 10713 10712 10709 ] final   90.50 input   66.30 | X-H torsion
[ 10763 10752 10751 10750 ] final   20.11 input  -60.55 | X-H torsion
[ 11005 11000 10999 10996 ] final -145.97 input  -57.11 | X-H torsion

> <Gold.Protein.ActiveResidues>
 VAL166  LYS551  ARG553  GLY616  TRP617  ASP618  TYR619  PRO620  LYS621  CYS622 
 ASP623  PHE694  ASN695  SER759  ASP760  ASP761  ALA762  ILE779  LEU786  VAL792 
 PHE793  MET794  SER795  GLU796  ALA797  LYS798  CYS799  TRP800  GLU811  SER814 

> <Gold.Protein.RotatedAtoms>
  151.0049  133.6020  159.2689 H   0  0  0  0  0  0  0  0  0  0  0  0  # atno 6907 bound_to 6896
  151.3193  135.0813  159.9310 H   0  0  0  0  0  0  0  0  0  0  0  0  # atno 6908 bound_to 6896
  152.5284  133.9699  159.7811 H   0  0  0  0  0  0  0  0  0  0  0  0  # atno 6909 bound_to 6896
  145.7874  139.2917  143.1230 H   0  0  0  0  0  0  0  0  0  0  0  0  # atno 7974 bound_to 7965
  154.5576  140.2335  155.8386 H   0  0  0  0  0  0  0  0  0  0  0  0  # atno 8008 bound_to 7997
  156.2001  140.3054  155.9469 H   0  0  0  0  0  0  0  0  0  0  0  0  # atno 8009 bound_to 7997
  155.2950  140.0428  157.3016 H   0  0  0  0  0  0  0  0  0  0  0  0  # atno 8010 bound_to 7997
  139.9415  144.6087  150.8248 H   0  0  0  0  0  0  0  0  0  0  0  0  # atno 10167 bound_to 10162
  157.6959  131.0373  150.3587 H   0  0  0  0  0  0  0  0  0  0  0  0  # atno 10718 bound_to 10713
  153.1105  135.6695  153.9509 H   0  0  0  0  0  0  0  0  0  0  0  0  # atno 10763 bound_to 10752
  153.9054  135.3031  155.3450 H   0  0  0  0  0  0  0  0  0  0  0  0  # atno 10764 bound_to 10752
  154.7525  135.5028  153.9391 H   0  0  0  0  0  0  0  0  0  0  0  0  # atno 10765 bound_to 10752
  140.7868  134.3015  157.5027 H   0  0  0  0  0  0  0  0  0  0  0  0  # atno 11005 bound_to 11000
  146.0012  140.8518  143.0017 LP  0  0  0  0  0  0  0  0  0  0  0  0  # atno 17320 bound_to 7965
  144.6787  140.2355  143.7350 LP  0  0  0  0  0  0  0  0  0  0  0  0  # atno 17321 bound_to 7965
  140.7609  143.3163  151.2725 LP  0  0  0  0  0  0  0  0  0  0  0  0  # atno 17342 bound_to 10162
  139.6701  144.0035  152.2747 LP  0  0  0  0  0  0  0  0  0  0  0  0  # atno 17343 bound_to 10162
  156.4026  130.3919  149.6948 LP  0  0  0  0  0  0  0  0  0  0  0  0  # atno 17370 bound_to 10713
  156.4260  130.7792  151.2810 LP  0  0  0  0  0  0  0  0  0  0  0  0  # atno 17371 bound_to 10713
  139.8736  134.9351  156.3625 LP  0  0  0  0  0  0  0  0  0  0  0  0  # atno 17394 bound_to 11000
  140.9428  133.7503  156.0169 LP  0  0  0  0  0  0  0  0  0  0  0  0  # atno 17395 bound_to 11000

$$$$
