AV-unprocessed.smi:1094|AV-procd|sdf|4746|dock1
  -GOLD-   22720 3283D 1   1.00000     0.00000
 Structure written by MMmdl.
 45 46  0  0  0  0  0  0  0  0  1 V2000
  146.0435  129.4517  152.1880 C   0  0  0  0  0  0  0  0  0  0  0  0
  145.8845  130.1921  150.8523 C   0  0  0  0  0  0  0  0  0  0  0  0
  145.6589  131.6295  151.0579 N   0  0  0  0  0  0  0  0  0  0  0  0
  146.6553  132.3373  151.7588 C   0  0  0  0  0  0  0  0  0  0  0  0
  146.5611  133.6612  152.0132 C   0  0  0  0  0  0  0  0  0  0  0  0
  147.5111  134.4317  152.7012 N   0  0  0  0  0  0  0  0  0  0  0  0
  148.2286  134.1278  153.7992 C   0  0  0  0  0  0  0  0  0  0  0  0
  148.1610  133.0799  154.4412 O   0  0  0  0  0  0  0  0  0  0  0  0
  149.0590  135.1314  154.1174 N   0  0  0  0  0  0  0  0  0  0  0  0
  149.9909  135.1442  155.2450 C   0  0  0  0  0  0  0  0  0  0  0  0
  150.7092  136.5075  155.4638 C   0  0  0  0  0  0  0  0  0  0  0  0
  151.5783  136.3364  156.7407 C   0  0  0  0  0  0  0  0  0  0  0  0
  151.2870  137.0702  157.8199 N   0  0  0  0  0  0  0  0  0  0  0  0
  152.5281  135.5548  156.7491 O   0  0  0  0  0  0  0  0  0  0  0  0
  151.5519  136.9226  154.2225 C   0  0  0  0  0  0  0  0  0  0  0  0
  152.1280  138.3478  154.3490 C   0  0  0  0  0  0  0  0  0  0  0  0
  151.0719  139.2797  154.5512 O   0  0  0  0  0  0  0  0  0  0  0  0
  150.3329  139.0364  155.7428 C   0  0  0  0  0  0  0  0  0  0  0  0
  149.6711  137.6459  155.6724 C   0  0  0  0  0  0  0  0  0  0  0  0
  145.3778  134.3367  151.5252 C   0  0  0  0  0  0  0  0  0  0  0  0
  144.4146  133.6679  150.8626 C   0  0  0  0  0  0  0  0  0  0  0  0
  144.5195  132.2305  150.6021 C   0  0  0  0  0  0  0  0  0  0  0  0
  143.6368  131.6075  150.0117 O   0  0  0  0  0  0  0  0  0  0  0  0
  146.2213  128.3889  152.0223 H   0  0  0  0  0  0  0  0  0  0  0  0
  145.1479  129.5454  152.8031 H   0  0  0  0  0  0  0  0  0  0  0  0
  146.8853  129.8441  152.7591 H   0  0  0  0  0  0  0  0  0  0  0  0
  146.7748  130.0347  150.2416 H   0  0  0  0  0  0  0  0  0  0  0  0
  145.0693  129.7480  150.2781 H   0  0  0  0  0  0  0  0  0  0  0  0
  147.4809  131.7144  152.0637 H   0  0  0  0  0  0  0  0  0  0  0  0
  147.6783  135.3438  152.3024 H   0  0  0  0  0  0  0  0  0  0  0  0
  149.0491  135.9549  153.5337 H   0  0  0  0  0  0  0  0  0  0  0  0
  149.4079  134.8873  156.1309 H   0  0  0  0  0  0  0  0  0  0  0  0
  150.7247  134.3426  155.1371 H   0  0  0  0  0  0  0  0  0  0  0  0
  151.8391  136.9736  158.6596 H   0  0  0  0  0  0  0  0  0  0  0  0
  150.5138  137.7191  157.7907 H   0  0  0  0  0  0  0  0  0  0  0  0
  152.3498  136.2059  154.0250 H   0  0  0  0  0  0  0  0  0  0  0  0
  150.9273  136.9089  153.3298 H   0  0  0  0  0  0  0  0  0  0  0  0
  152.8535  138.4233  155.1595 H   0  0  0  0  0  0  0  0  0  0  0  0
  152.6558  138.6160  153.4336 H   0  0  0  0  0  0  0  0  0  0  0  0
  150.9822  139.1310  156.6142 H   0  0  0  0  0  0  0  0  0  0  0  0
  149.5676  139.8064  155.8390 H   0  0  0  0  0  0  0  0  0  0  0  0
  148.9600  137.6606  154.8460 H   0  0  0  0  0  0  0  0  0  0  0  0
  149.0723  137.4737  156.5678 H   0  0  0  0  0  0  0  0  0  0  0  0
  145.2590  135.3973  151.6942 H   0  0  0  0  0  0  0  0  0  0  0  0
  143.5436  134.2030  150.5131 H   0  0  0  0  0  0  0  0  0  0  0  0
  1  2  1  0  0  0  0
  1 24  1  0  0  0  0
  1 25  1  0  0  0  0
  1 26  1  0  0  0  0
  2  3  1  0  0  0  0
  2 27  1  0  0  0  0
  2 28  1  0  0  0  0
  3 22  1  0  0  0  0
  3  4  1  0  0  0  0
  4  5  2  0  0  0  0
  4 29  1  0  0  0  0
  5  6  1  0  0  0  0
  5 20  1  0  0  0  0
  6  7  1  0  0  0  0
  6 30  1  0  0  0  0
  7  8  2  0  0  0  0
  7  9  1  0  0  0  0
  9 10  1  0  0  0  0
  9 31  1  0  0  0  0
 10 11  1  0  0  0  0
 10 32  1  0  0  0  0
 10 33  1  0  0  0  0
 11 19  1  0  0  0  0
 11 12  1  0  0  0  0
 11 15  1  0  0  0  0
 12 13  1  0  0  0  0
 12 14  2  0  0  0  0
 13 34  1  0  0  0  0
 13 35  1  0  0  0  0
 15 16  1  0  0  0  0
 15 36  1  0  0  0  0
 15 37  1  0  0  0  0
 16 17  1  0  0  0  0
 16 38  1  0  0  0  0
 16 39  1  0  0  0  0
 17 18  1  0  0  0  0
 18 19  1  0  0  0  0
 18 40  1  0  0  0  0
 18 41  1  0  0  0  0
 19 42  1  0  0  0  0
 19 43  1  0  0  0  0
 20 21  2  0  0  0  0
 20 44  1  0  0  0  0
 21 22  1  0  0  0  0
 21 45  1  0  0  0  0
 22 23  2  0  0  0  0
M  END
> <s_m_source_file>
AV-unprocessed.smi

> <i_m_source_file_index>
1094

> <i_lp_mmshare_version>
43012

> <i_f3d_flags>
0

> <s_epik_input>
W0NIM11bQ0gyXW4xW2NIXWMoW2NIXVtjSF1jMT1PKVtOSF1DKD1PKVtOSF1bQ0gyXUMyKEMoPU8pW05IMl0pW0NIMl1bQ0gyXU9bQ0gyXVtDSDJdMg==

> <s_epik_cmdline>
J2VwaWtfcHl0aG9uJywgJy1waCcsICc3LjAnLCAnLXRuJywgJzgnLCAnLW1hJywgJzIwMCcsICctbWV0YWxfYmluZGluZycsICctaW1hZScsICc8aW5maWxlLm1hZT4nLCAnLW9tYWUnLCAnPG91dGZpbGUubWFlPic=

> <r_lp_tautomer_probability>
1

> <r_epik_Ionization_Penalty>
2.3227e-05

> <r_epik_Ionization_Penalty_Charging>
4.44262e-06

> <r_epik_Ionization_Penalty_Neutral>
1.87844e-05

> <r_epik_State_Penalty>
-0

> <r_epik_Charging_Adjusted_Penalty>
4.44262e-06

> <i_epik_Tot_Q>
0

> <i_epik_Tot_abs_Q>
0

> <r_epik_Metal_State_Penalty>
-0

> <b_epik_Metal_Only>
0

> <s_lp_Force_Field>
OPLS_2005

> <r_lp_Energy>
26.2071

> <b_lp_Chiralities_Consistent>
1

> <s_lp_Variant>
AV-unprocessed.smi:1094-1

> <Gold.Version>
5.8.1

> <Gold.Id.Protein>
6NUR|6NUR_protein|mol2

> <Gold.PLP.Fitness>
44.8550

> <Gold.PLP.PLP>
-30.6750

> <Gold.PLP.part.hbond>
-4.7260

> <Gold.PLP.part.metal>
0.0000

> <Gold.PLP.part.buried>
0.7439

> <Gold.PLP.part.nonpolar>
-26.1991

> <Gold.PLP.part.repulsive>
0.5354

> <Gold.PLP.ligand.clash>
0.0529

> <Gold.PLP.ligand.torsion>
0.4016

> <Gold.PLP.Chemscore.Hbond>
4.3200

> <Gold.PLP.Chemscore.CHOScore>
0.6577

> <Gold.PLP.Chemscore.Metal>
0.0000

> <Gold.Chemscore.Hbonds>
donor molecule, donor type, donor heavy atom, donor atom, acceptor molecule, acceptor atom, score
      L1  H     6    30       P1  7948  0.74
      L1  H     9    31       P1  7948  0.67
      P1  H  7989  7998       L1    17  1.00
      P1  H 10752 10764       L1    14  1.00
      P1  H 10785 10796       L1    23  0.90
      L1  C     4    29       P1 10747  0.75

> <Gold.PLP.Chemscore.Internal.Correction>
0.1027

> <Gold.Rescore>
     Score         DG    S(hbond)    S(metal)    S(lipo)     H(rot)  DE(clash)    DE(int)     intcor
     18.00     -21.89       3.85        0.00      76.57       2.11       2.93       0.96       ----

> <Gold.Chemscore.Fitness>
18.0040

> <Gold.Chemscore.DG>
-21.8865

> <Gold.Chemscore.ZeroCoef>
-5.4800

> <Gold.Chemscore.Hbond>
3.8503

> <Gold.Chemscore.Metal>
0.0000

> <Gold.Chemscore.Lipo>
76.5680

> <Gold.Chemscore.Internal_Hbond>
0.0000

> <Gold.Chemscore.DEClash>
2.9254

> <Gold.Chemscore.DEInternal>
0.9570

> <Gold.Chemscore.Rot>
2.1140

> <Gold.Chemscore.Internal.Correction>
   9.000000E+99

> <Gold.Chemscore.Hbonds>
donor molecule, donor type, donor heavy atom, donor atom, acceptor molecule, acceptor atom, score
      L1  H     6    30       P1  7948  0.72
      L1  H     9    31       P1  7948  0.63
      P1  H  7989  7998       L1    17  0.39
      P1  H 10752 10764       L1    14  0.63
      P1  H 10785 10796       L1    23  0.86

> <Gold.Chemscore.Hbond.Weighted>
-12.8599

> <Gold.Chemscore.Metal.Weighted>
-0.0000

> <Gold.Chemscore.Lipo.Weighted>
-8.9585

> <Gold.Chemscore.Internal_Hbond.Weighted>
0.0000

> <Gold.Chemscore.DEClash.Weighted>
2.9254

> <Gold.Chemscore.DEInternal.Weighted>
0.9570

> <Gold.Chemscore.Rot.Weighted>
5.4119

> <Gold.Chemscore.Internal.Correction.Weighted>
   9.000000E+99

> <Gold.Protein.RotatedTorsions>
[ 6907 6896 6895 6894 ] final  144.42 input  -60.11 | X-H torsion
[ 7974 7965 7964 7962 ] final -176.96 input  175.53 | X-H torsion
[ 8008 7997 7996 7995 ] final   -0.22 input   59.86 | X-H torsion
[ 10167 10162 10161 10158 ] final -131.29 input  -65.29 | X-H torsion
[ 10718 10713 10712 10709 ] final   27.03 input   66.30 | X-H torsion
[ 10763 10752 10751 10750 ] final  -29.41 input  -60.55 | X-H torsion
[ 11005 11000 10999 10996 ] final  168.28 input  -57.11 | X-H torsion

> <Gold.Protein.ActiveResidues>
 VAL166  LYS551  ARG553  GLY616  TRP617  ASP618  TYR619  PRO620  LYS621  CYS622 
 ASP623  PHE694  ASN695  SER759  ASP760  ASP761  ALA762  ILE779  LEU786  VAL792 
 PHE793  MET794  SER795  GLU796  ALA797  LYS798  CYS799  TRP800  GLU811  SER814 

> <Gold.Protein.RotatedAtoms>
  152.1939  133.4792  159.5022 H   0  0  0  0  0  0  0  0  0  0  0  0  # atno 6907 bound_to 6896
  150.6956  134.1678  159.4209 H   0  0  0  0  0  0  0  0  0  0  0  0  # atno 6908 bound_to 6896
  151.9593  135.0131  160.0597 H   0  0  0  0  0  0  0  0  0  0  0  0  # atno 6909 bound_to 6896
  144.7127  140.1092  143.6412 H   0  0  0  0  0  0  0  0  0  0  0  0  # atno 7974 bound_to 7965
  154.6606  140.2589  155.7113 H   0  0  0  0  0  0  0  0  0  0  0  0  # atno 8008 bound_to 7997
  156.2616  140.2849  156.0998 H   0  0  0  0  0  0  0  0  0  0  0  0  # atno 8009 bound_to 7997
  155.1314  140.0378  157.2766 H   0  0  0  0  0  0  0  0  0  0  0  0  # atno 8010 bound_to 7997
  139.9204  143.6389  152.2555 H   0  0  0  0  0  0  0  0  0  0  0  0  # atno 10167 bound_to 10162
  157.2148  130.6951  149.6244 H   0  0  0  0  0  0  0  0  0  0  0  0  # atno 10718 bound_to 10713
  153.7642  135.6917  153.4919 H   0  0  0  0  0  0  0  0  0  0  0  0  # atno 10763 bound_to 10752
  153.1918  135.4468  155.0157 H   0  0  0  0  0  0  0  0  0  0  0  0  # atno 10764 bound_to 10752
  154.8142  135.3391  154.7155 H   0  0  0  0  0  0  0  0  0  0  0  0  # atno 10765 bound_to 10752
  140.2856  134.7715  157.3795 H   0  0  0  0  0  0  0  0  0  0  0  0  # atno 11005 bound_to 11000
  145.9470  139.2707  143.1235 LP  0  0  0  0  0  0  0  0  0  0  0  0  # atno 17320 bound_to 7965
  145.9364  140.9012  143.0330 LP  0  0  0  0  0  0  0  0  0  0  0  0  # atno 17321 bound_to 7965
  139.6866  144.7651  151.1512 LP  0  0  0  0  0  0  0  0  0  0  0  0  # atno 17342 bound_to 10162
  140.7663  143.5648  150.9060 LP  0  0  0  0  0  0  0  0  0  0  0  0  # atno 17343 bound_to 10162
  155.9687  130.4539  150.5830 LP  0  0  0  0  0  0  0  0  0  0  0  0  # atno 17370 bound_to 10713
  157.3636  131.0754  151.1616 LP  0  0  0  0  0  0  0  0  0  0  0  0  # atno 17371 bound_to 10713
  140.1242  134.5179  155.8158 LP  0  0  0  0  0  0  0  0  0  0  0  0  # atno 17394 bound_to 11000
  141.2155  133.6767  156.6922 LP  0  0  0  0  0  0  0  0  0  0  0  0  # atno 17395 bound_to 11000

$$$$
