AV-unprocessed.smi:171|AV-procd|sdf|1418|dock5
  -GOLD-   2262019183D 1   1.00000     0.00000
 Structure written by MMmdl.
 56 59  0  0  0  0  0  0  0  0  1 V2000
  147.3633  136.7340  162.8394 C   0  0  0  0  0  0  0  0  0  0  0  0
  147.1934  136.1448  161.4291 C   0  0  0  0  0  0  0  0  0  0  0  0
  147.9181  134.7930  161.3299 C   0  0  0  0  0  0  0  0  0  0  0  0
  147.6737  137.1103  160.3123 C   0  0  0  0  0  0  0  0  0  0  0  0
  147.7469  136.5257  158.8710 C   0  0  2  0  0  0  0  0  0  0  0  0
  146.7381  135.3786  158.6344 C   0  0  0  0  0  0  0  0  0  0  0  0
  145.5711  135.5055  159.0002 O   0  0  0  0  0  0  0  0  0  0  0  0
  147.1487  134.2661  158.0015 N   0  0  0  0  0  0  0  0  0  0  0  0
  148.5075  134.0113  157.5318 C   0  0  0  0  0  0  0  0  0  0  0  0
  149.3133  135.3048  157.3496 C   0  0  0  0  0  0  0  0  0  0  0  0
  149.1287  136.1686  158.5078 N   0  0  0  0  0  0  0  0  0  0  0  0
  150.0495  137.1559  158.5741 C   0  0  0  0  0  0  0  0  0  0  0  0
  151.2767  136.9109  159.1022 N   0  0  0  0  0  0  0  0  0  0  0  0
  152.1893  137.8870  159.1420 C   0  0  0  0  0  0  0  0  0  0  0  0
  152.0836  139.1478  158.7147 N   0  0  0  0  0  0  0  0  0  0  0  0
  150.8490  139.3918  158.1878 C   0  0  0  0  0  0  0  0  0  0  0  0
  149.7784  138.4614  158.0911 C   0  0  0  0  0  0  0  0  0  0  0  0
  148.6709  139.0617  157.5073 N   0  0  0  0  0  0  0  0  0  0  0  0
  149.0684  140.2797  157.2604 C   0  0  0  0  0  0  0  0  0  0  0  0
  150.3662  140.5605  157.6257 N   0  0  0  0  0  0  0  0  0  0  0  0
  151.0645  141.8230  157.4489 C   0  0  0  0  0  0  0  0  0  0  0  0
  151.3045  142.5785  158.7778 C   0  0  1  0  0  0  0  0  0  0  0  0
  150.0467  142.9372  159.3270 O   0  0  0  0  0  0  0  0  0  0  0  0
  152.0742  141.7802  159.8195 C   0  0  0  0  0  0  0  0  0  0  0  0
  152.6673  142.8718  160.7021 C   0  0  0  0  0  0  0  0  0  0  0  0
  152.9665  143.9418  159.8142 O   0  0  0  0  0  0  0  0  0  0  0  0
  152.2049  143.8212  158.6133 C   0  0  2  0  0  0  0  0  0  0  0  0
  151.4980  145.1423  158.2715 C   0  0  0  0  0  0  0  0  0  0  0  0
  148.4022  136.9996  163.0373 H   0  0  0  0  0  0  0  0  0  0  0  0
  147.0546  136.0181  163.6016 H   0  0  0  0  0  0  0  0  0  0  0  0
  146.7567  137.6273  162.9804 H   0  0  0  0  0  0  0  0  0  0  0  0
  146.1334  135.9337  161.2925 H   0  0  0  0  0  0  0  0  0  0  0  0
  148.9950  134.9100  161.4549 H   0  0  0  0  0  0  0  0  0  0  0  0
  147.7421  134.3222  160.3619 H   0  0  0  0  0  0  0  0  0  0  0  0
  147.5661  134.1006  162.0952 H   0  0  0  0  0  0  0  0  0  0  0  0
  147.0607  138.0126  160.3221 H   0  0  0  0  0  0  0  0  0  0  0  0
  148.6700  137.4732  160.5679 H   0  0  0  0  0  0  0  0  0  0  0  0
  147.4219  137.3105  158.1860 H   0  0  0  0  0  0  0  0  0  0  0  0
  146.4692  133.5350  157.8478 H   0  0  0  0  0  0  0  0  0  0  0  0
  148.9985  133.3731  158.2674 H   0  0  0  0  0  0  0  0  0  0  0  0
  148.4720  133.4493  156.5984 H   0  0  0  0  0  0  0  0  0  0  0  0
  150.3681  135.0651  157.2031 H   0  0  0  0  0  0  0  0  0  0  0  0
  148.9774  135.8318  156.4549 H   0  0  0  0  0  0  0  0  0  0  0  0
  153.1425  137.6181  159.5726 H   0  0  0  0  0  0  0  0  0  0  0  0
  148.4243  141.0094  156.7914 H   0  0  0  0  0  0  0  0  0  0  0  0
  152.0150  141.6116  156.9576 H   0  0  0  0  0  0  0  0  0  0  0  0
  150.4945  142.4432  156.7558 H   0  0  0  0  0  0  0  0  0  0  0  0
  149.8697  143.8386  159.1047 H   0  0  0  0  0  0  0  0  0  0  0  0
  151.4596  141.0682  160.3727 H   0  0  0  0  0  0  0  0  0  0  0  0
  152.8839  141.2254  159.3437 H   0  0  0  0  0  0  0  0  0  0  0  0
  151.9333  143.2145  161.4325 H   0  0  0  0  0  0  0  0  0  0  0  0
  153.5541  142.5402  161.2426 H   0  0  0  0  0  0  0  0  0  0  0  0
  152.9361  143.6164  157.8303 H   0  0  0  0  0  0  0  0  0  0  0  0
  150.9115  145.0472  157.3575 H   0  0  0  0  0  0  0  0  0  0  0  0
  152.2258  145.9389  158.1166 H   0  0  0  0  0  0  0  0  0  0  0  0
  150.8292  145.4617  159.0709 H   0  0  0  0  0  0  0  0  0  0  0  0
  1  2  1  0  0  0  0
  1 29  1  0  0  0  0
  1 30  1  0  0  0  0
  1 31  1  0  0  0  0
  2  3  1  0  0  0  0
  2  4  1  0  0  0  0
  2 32  1  0  0  0  0
  3 33  1  0  0  0  0
  3 34  1  0  0  0  0
  3 35  1  0  0  0  0
  4  5  1  0  0  0  0
  4 36  1  0  0  0  0
  4 37  1  0  0  0  0
  5 11  1  0  0  0  0
  5  6  1  0  0  0  0
  5 38  1  0  0  0  0
  6  7  2  0  0  0  0
  6  8  1  0  0  0  0
  8  9  1  0  0  0  0
  8 39  1  0  0  0  0
  9 10  1  0  0  0  0
  9 40  1  0  0  0  0
  9 41  1  0  0  0  0
 10 11  1  0  0  0  0
 10 42  1  0  0  0  0
 10 43  1  0  0  0  0
 11 12  1  0  0  0  0
 12 17  1  0  0  0  0
 12 13  2  0  0  0  0
 13 14  1  0  0  0  0
 14 15  2  0  0  0  0
 14 44  1  0  0  0  0
 15 16  1  0  0  0  0
 16 20  1  0  0  0  0
 16 17  2  0  0  0  0
 17 18  1  0  0  0  0
 18 19  2  0  0  0  0
 19 20  1  0  0  0  0
 19 45  1  0  0  0  0
 20 21  1  0  0  0  0
 21 22  1  0  0  0  0
 21 46  1  0  0  0  0
 21 47  1  0  0  0  0
 22 27  1  0  0  0  0
 22 23  1  0  0  0  0
 22 24  1  0  0  0  0
 23 48  1  0  0  0  0
 24 25  1  0  0  0  0
 24 49  1  0  0  0  0
 24 50  1  0  0  0  0
 25 26  1  0  0  0  0
 25 51  1  0  0  0  0
 25 52  1  0  0  0  0
 26 27  1  0  0  0  0
 27 28  1  0  0  0  0
 27 53  1  0  0  0  0
 28 54  1  0  0  0  0
 28 55  1  0  0  0  0
 28 56  1  0  0  0  0
M  END
> <s_m_source_file>
AV-unprocessed.smi

> <i_m_source_file_index>
171

> <i_lp_mmshare_version>
43012

> <i_f3d_flags>
0

> <s_epik_input>
W0NIM11bQ0hdKFtDSDNdKVtDSDJdW0NAQEhdMUMoPU8pW05IXVtDSDJdW0NIMl1OMWMobltjSF1uMiljKGMyMyluW2NIXW4zW0NIMl1bQ0BAXTQoW09IXSlbQ0gyXVtDSDJdT1tDQEhdNFtDSDNd

> <s_epik_cmdline>
J2VwaWtfcHl0aG9uJywgJy1waCcsICc3LjAnLCAnLXRuJywgJzgnLCAnLW1hJywgJzIwMCcsICctbWV0YWxfYmluZGluZycsICctaW1hZScsICc8aW5maWxlLm1hZT4nLCAnLW9tYWUnLCAnPG91dGZpbGUubWFlPic=

> <r_lp_tautomer_probability>
1

> <r_epik_Ionization_Penalty>
0.000670584

> <r_epik_Ionization_Penalty_Charging>
0

> <r_epik_Ionization_Penalty_Neutral>
0.000670584

> <r_epik_State_Penalty>
0.000304767

> <r_epik_Charging_Adjusted_Penalty>
0.000304767

> <i_epik_Tot_Q>
0

> <i_epik_Tot_abs_Q>
0

> <r_epik_Metal_State_Penalty>
-0

> <b_epik_Metal_Only>
0

> <s_lp_Force_Field>
OPLS_2005

> <r_lp_Energy>
41.3949

> <b_lp_Chiralities_Consistent>
1

> <s_lp_Variant>
AV-unprocessed.smi:171-5

> <Gold.Version>
5.8.1

> <Gold.Id.Protein>
6NUR|6NUR_protein|mol2

> <Gold.PLP.Fitness>
41.8011

> <Gold.PLP.PLP>
-41.0737

> <Gold.PLP.part.hbond>
-2.0000

> <Gold.PLP.part.metal>
0.0000

> <Gold.PLP.part.buried>
-4.3764

> <Gold.PLP.part.nonpolar>
-32.8585

> <Gold.PLP.part.repulsive>
0.0034

> <Gold.PLP.ligand.clash>
0.0000

> <Gold.PLP.ligand.torsion>
1.2458

> <Gold.PLP.Chemscore.Hbond>
0.9280

> <Gold.PLP.Chemscore.CHOScore>
0.0000

> <Gold.PLP.Chemscore.Metal>
0.0000

> <Gold.Chemscore.Hbonds>
donor molecule, donor type, donor heavy atom, donor atom, acceptor molecule, acceptor atom, score
      P1  H  6896  6909       L1    13  1.00

> <Gold.PLP.Chemscore.Internal.Correction>
0.4351

> <Gold.Rescore>
     Score         DG    S(hbond)    S(metal)    S(lipo)     H(rot)  DE(clash)    DE(int)     intcor
     10.18     -12.96       0.89        0.00      95.66       2.61       0.38       2.40       ----

> <Gold.Chemscore.Fitness>
10.1791

> <Gold.Chemscore.DG>
-12.9613

> <Gold.Chemscore.ZeroCoef>
-5.4800

> <Gold.Chemscore.Hbond>
0.8873

> <Gold.Chemscore.Metal>
0.0000

> <Gold.Chemscore.Lipo>
95.6626

> <Gold.Chemscore.Internal_Hbond>
0.0000

> <Gold.Chemscore.DEClash>
0.3810

> <Gold.Chemscore.DEInternal>
2.4012

> <Gold.Chemscore.Rot>
2.6074

> <Gold.Chemscore.Internal.Correction>
   9.000000E+99

> <Gold.Chemscore.Hbonds>
donor molecule, donor type, donor heavy atom, donor atom, acceptor molecule, acceptor atom, score
      P1  H  6896  6909       L1    13  0.63

> <Gold.Chemscore.Hbond.Weighted>
-2.9636

> <Gold.Chemscore.Metal.Weighted>
-0.0000

> <Gold.Chemscore.Lipo.Weighted>
-11.1925

> <Gold.Chemscore.Internal_Hbond.Weighted>
0.0000

> <Gold.Chemscore.DEClash.Weighted>
0.3810

> <Gold.Chemscore.DEInternal.Weighted>
2.4012

> <Gold.Chemscore.Rot.Weighted>
6.6748

> <Gold.Chemscore.Internal.Correction.Weighted>
   9.000000E+99

> <Gold.Protein.RotatedTorsions>
[ 6907 6896 6895 6894 ] final   99.90 input  -60.11 | X-H torsion
[ 7974 7965 7964 7962 ] final -103.32 input  175.53 | X-H torsion
[ 8008 7997 7996 7995 ] final  -60.43 input   59.86 | X-H torsion
[ 10167 10162 10161 10158 ] final  -92.28 input  -65.29 | X-H torsion
[ 10718 10713 10712 10709 ] final -111.00 input   66.30 | X-H torsion
[ 10763 10752 10751 10750 ] final -157.46 input  -60.55 | X-H torsion
[ 11005 11000 10999 10996 ] final  -81.94 input  -57.11 | X-H torsion

> <Gold.Protein.ActiveResidues>
 VAL166  LYS551  ARG553  GLY616  TRP617  ASP618  TYR619  PRO620  LYS621  CYS622 
 ASP623  PHE694  ASN695  SER759  ASP760  ASP761  ALA762  ILE779  LEU786  VAL792 
 PHE793  MET794  SER795  GLU796  ALA797  LYS798  CYS799  TRP800  GLU811  SER814 

> <Gold.Protein.RotatedAtoms>
  152.5383  134.0358  159.8045 H   0  0  0  0  0  0  0  0  0  0  0  0  # atno 6907 bound_to 6896
  151.0522  133.5607  159.2648 H   0  0  0  0  0  0  0  0  0  0  0  0  # atno 6908 bound_to 6896
  151.2537  135.0638  159.9125 H   0  0  0  0  0  0  0  0  0  0  0  0  # atno 6909 bound_to 6896
  145.2575  140.9258  143.3060 H   0  0  0  0  0  0  0  0  0  0  0  0  # atno 7974 bound_to 7965
  154.4398  140.1040  156.6272 H   0  0  0  0  0  0  0  0  0  0  0  0  # atno 8008 bound_to 7997
  155.5644  140.3488  155.4480 H   0  0  0  0  0  0  0  0  0  0  0  0  # atno 8009 bound_to 7997
  156.0436  140.1288  157.0117 H   0  0  0  0  0  0  0  0  0  0  0  0  # atno 8010 bound_to 7997
  140.3364  143.2966  151.9884 H   0  0  0  0  0  0  0  0  0  0  0  0  # atno 10167 bound_to 10162
  156.0622  130.5844  150.8313 H   0  0  0  0  0  0  0  0  0  0  0  0  # atno 10718 bound_to 10713
  154.7634  135.3124  154.8333 H   0  0  0  0  0  0  0  0  0  0  0  0  # atno 10763 bound_to 10752
  153.9088  135.6808  153.4756 H   0  0  0  0  0  0  0  0  0  0  0  0  # atno 10764 bound_to 10752
  153.1237  135.4811  154.9170 H   0  0  0  0  0  0  0  0  0  0  0  0  # atno 10765 bound_to 10752
  141.1665  133.7220  156.8497 H   0  0  0  0  0  0  0  0  0  0  0  0  # atno 11005 bound_to 11000
  144.9448  139.4148  143.6431 LP  0  0  0  0  0  0  0  0  0  0  0  0  # atno 17320 bound_to 7965
  146.3285  139.8426  142.8887 LP  0  0  0  0  0  0  0  0  0  0  0  0  # atno 17321 bound_to 7965
  139.4847  144.6193  151.7287 LP  0  0  0  0  0  0  0  0  0  0  0  0  # atno 17342 bound_to 10162
  140.5349  144.0671  150.6067 LP  0  0  0  0  0  0  0  0  0  0  0  0  # atno 17343 bound_to 10162
  157.5639  131.0946  150.9519 LP  0  0  0  0  0  0  0  0  0  0  0  0  # atno 17370 bound_to 10713
  156.9750  130.5505  149.5293 LP  0  0  0  0  0  0  0  0  0  0  0  0  # atno 17371 bound_to 10713
  140.1924  134.8956  157.3076 LP  0  0  0  0  0  0  0  0  0  0  0  0  # atno 17394 bound_to 11000
  140.2275  134.3949  155.7537 LP  0  0  0  0  0  0  0  0  0  0  0  0  # atno 17395 bound_to 11000

$$$$
