AV-unprocessed.smi:866|AV-procd|sdf|3992|dock7
  -GOLD-   22720 1473D 1   1.00000     0.00000
 Structure written by MMmdl.
 34 34  0  0  0  0  0  0  0  0  2 V2000
  153.0238  142.4973  162.1674 C   0  0  0  0  0  0  0  0  0  0  0  0
  152.4755  142.8467  160.8139 C   0  0  0  0  0  0  0  0  0  0  0  0
  152.2621  144.1427  160.2642 C   0  0  0  0  0  0  0  0  0  0  0  0
  151.7622  144.1058  159.0398 N   0  0  0  0  0  0  0  0  0  0  0  0
  151.6368  142.7903  158.7663 N   0  0  0  0  0  0  0  0  0  0  0  0
  151.1087  142.3707  157.4827 C   0  0  0  0  0  0  0  0  0  0  0  0
  149.7379  141.6942  157.6258 C   0  0  0  0  0  0  0  0  0  0  0  0
  148.8399  142.0839  156.5195 N   0  3  0  0  0  0  0  0  0  0  0  0
  149.0961  141.4060  155.2258 C   0  0  2  0  0  0  0  0  0  0  0  0
  148.0861  141.8593  154.1577 C   0  0  0  0  0  0  0  0  0  0  0  0
  149.0540  139.8691  155.3956 C   0  0  0  0  0  0  0  0  0  0  0  0
  149.8969  139.0830  154.3810 C   0  0  0  0  0  0  0  0  0  0  0  0
  149.2268  138.3662  153.4760 N   0  0  0  0  0  0  0  0  0  0  0  0
  151.1260  139.1161  154.4062 O   0  0  0  0  0  0  0  0  0  0  0  0
  152.0636  142.0073  159.8178 C   0  0  0  0  0  0  0  0  0  0  0  0
  153.3086  143.3856  162.7316 H   0  0  0  0  0  0  0  0  0  0  0  0
  153.9102  141.8674  162.0922 H   0  0  0  0  0  0  0  0  0  0  0  0
  152.2934  141.9559  162.7691 H   0  0  0  0  0  0  0  0  0  0  0  0
  152.4544  145.1043  160.7171 H   0  0  0  0  0  0  0  0  0  0  0  0
  151.0391  143.2457  156.8344 H   0  0  0  0  0  0  0  0  0  0  0  0
  151.8230  141.6886  157.0201 H   0  0  0  0  0  0  0  0  0  0  0  0
  149.8631  140.6115  157.6391 H   0  0  0  0  0  0  0  0  0  0  0  0
  149.2794  141.9790  158.5739 H   0  0  0  0  0  0  0  0  0  0  0  0
  147.9012  141.8410  156.8037 H   0  0  0  0  0  0  0  0  0  0  0  0
  150.0959  141.6814  154.8854 H   0  0  0  0  0  0  0  0  0  0  0  0
  148.2638  141.3473  153.2114 H   0  0  0  0  0  0  0  0  0  0  0  0
  148.1575  142.9284  153.9584 H   0  0  0  0  0  0  0  0  0  0  0  0
  147.0615  141.6435  154.4625 H   0  0  0  0  0  0  0  0  0  0  0  0
  149.3772  139.6003  156.4025 H   0  0  0  0  0  0  0  0  0  0  0  0
  148.0240  139.5220  155.3014 H   0  0  0  0  0  0  0  0  0  0  0  0
  149.7268  137.8211  152.7883 H   0  0  0  0  0  0  0  0  0  0  0  0
  148.2166  138.3638  153.4872 H   0  0  0  0  0  0  0  0  0  0  0  0
  152.0379  140.9286  159.7727 H   0  0  0  0  0  0  0  0  0  0  0  0
  148.8855  143.0836  156.3846 H   0  0  0  0  0  0  0  0  0  0  0  0
  1  2  1  0  0  0  0
  1 16  1  0  0  0  0
  1 17  1  0  0  0  0
  1 18  1  0  0  0  0
  2 15  2  0  0  0  0
  2  3  1  0  0  0  0
  3  4  2  0  0  0  0
  3 19  1  0  0  0  0
  4  5  1  0  0  0  0
  5  6  1  0  0  0  0
  5 15  1  0  0  0  0
  6  7  1  0  0  0  0
  6 20  1  0  0  0  0
  6 21  1  0  0  0  0
  7  8  1  0  0  0  0
  7 22  1  0  0  0  0
  7 23  1  0  0  0  0
  8  9  1  0  0  0  0
  8 24  1  0  0  0  0
  8 34  1  0  0  0  0
  9 10  1  0  0  0  0
  9 11  1  0  0  0  0
  9 25  1  0  0  0  0
 10 26  1  0  0  0  0
 10 27  1  0  0  0  0
 10 28  1  0  0  0  0
 11 12  1  0  0  0  0
 11 29  1  0  0  0  0
 11 30  1  0  0  0  0
 12 13  1  0  0  0  0
 12 14  2  0  0  0  0
 13 31  1  0  0  0  0
 13 32  1  0  0  0  0
 15 33  1  0  0  0  0
M  CHG  1   8   1
M  END
> <s_m_source_file>
AV-unprocessed.smi

> <i_m_source_file_index>
866

> <i_lp_mmshare_version>
43012

> <i_f3d_flags>
0

> <s_epik_input>
W0NIM11jMVtjSF1ubihbY0hdMSlbQ0gyXVtDSDJdW05IXVtDQEhdKFtDSDNdKVtDSDJdQyg9TylbTkgyXQ==

> <s_epik_cmdline>
J2VwaWtfcHl0aG9uJywgJy1waCcsICc3LjAnLCAnLXRuJywgJzgnLCAnLW1hJywgJzIwMCcsICctbWV0YWxfYmluZGluZycsICctaW1hZScsICc8aW5maWxlLm1hZT4nLCAnLW9tYWUnLCAnPG91dGZpbGUubWFlPic=

> <r_lp_tautomer_probability>
1

> <r_epik_Ionization_Penalty>
0.0061413

> <r_epik_Ionization_Penalty_Charging>
0.00613574

> <r_epik_Ionization_Penalty_Neutral>
5.56035e-06

> <r_epik_State_Penalty>
0.00452343

> <r_epik_Charging_Adjusted_Penalty>
0.0106592

> <i_epik_Tot_Q>
1

> <i_epik_Tot_abs_Q>
1

> <r_epik_Metal_State_Penalty>
-0

> <b_epik_Metal_Only>
0

> <s_lp_Force_Field>
OPLS_2005

> <r_lp_Energy>
1.4749

> <b_lp_Chiralities_Consistent>
1

> <s_lp_Variant>
AV-unprocessed.smi:866-1

> <Gold.Version>
5.8.1

> <Gold.Id.Protein>
6NUR|6NUR_protein|mol2

> <Gold.PLP.Fitness>
44.9561

> <Gold.PLP.PLP>
-35.9319

> <Gold.PLP.part.hbond>
-4.0000

> <Gold.PLP.part.metal>
0.0000

> <Gold.PLP.part.buried>
-5.5612

> <Gold.PLP.part.nonpolar>
-27.0310

> <Gold.PLP.part.repulsive>
0.2889

> <Gold.PLP.ligand.clash>
0.0000

> <Gold.PLP.ligand.torsion>
0.7701

> <Gold.PLP.Chemscore.Hbond>
3.4960

> <Gold.PLP.Chemscore.CHOScore>
0.0000

> <Gold.PLP.Chemscore.Metal>
0.0000

> <Gold.Chemscore.Hbonds>
donor molecule, donor type, donor heavy atom, donor atom, acceptor molecule, acceptor atom, score
      L1  H     8    34       P1  8028  2.00
      L1  H    13    31       P1  7948  0.51
      P1  H  7989  7998       L1    14  1.00

> <Gold.PLP.Chemscore.Internal.Correction>
0.0763

> <Gold.Rescore>
     Score         DG    S(hbond)    S(metal)    S(lipo)     H(rot)  DE(clash)    DE(int)     intcor
     16.31     -16.94       2.89        0.00      76.14       2.77       0.08       0.55       ----

> <Gold.Chemscore.Fitness>
16.3115

> <Gold.Chemscore.DG>
-16.9408

> <Gold.Chemscore.ZeroCoef>
-5.4800

> <Gold.Chemscore.Hbond>
2.8905

> <Gold.Chemscore.Metal>
0.0000

> <Gold.Chemscore.Lipo>
76.1360

> <Gold.Chemscore.Internal_Hbond>
0.0000

> <Gold.Chemscore.DEClash>
0.0766

> <Gold.Chemscore.DEInternal>
0.5527

> <Gold.Chemscore.Rot>
2.7740

> <Gold.Chemscore.Internal.Correction>
   9.000000E+99

> <Gold.Chemscore.Hbonds>
donor molecule, donor type, donor heavy atom, donor atom, acceptor molecule, acceptor atom, score
      L1  H     8    34       P1  8028  0.99
      L1  H    13    31       P1  7948  0.25
      P1  H  7989  7998       L1    14  0.52

> <Gold.Chemscore.Hbond.Weighted>
-9.6543

> <Gold.Chemscore.Metal.Weighted>
-0.0000

> <Gold.Chemscore.Lipo.Weighted>
-8.9079

> <Gold.Chemscore.Internal_Hbond.Weighted>
0.0000

> <Gold.Chemscore.DEClash.Weighted>
0.0766

> <Gold.Chemscore.DEInternal.Weighted>
0.5527

> <Gold.Chemscore.Rot.Weighted>
7.1014

> <Gold.Chemscore.Internal.Correction.Weighted>
   9.000000E+99

> <Gold.Protein.RotatedTorsions>
[ 6907 6896 6895 6894 ] final   94.27 input  -60.11 | X-H torsion
[ 7974 7965 7964 7962 ] final   -1.32 input  175.53 | X-H torsion
[ 8008 7997 7996 7995 ] final   68.45 input   59.86 | X-H torsion
[ 10167 10162 10161 10158 ] final  -13.30 input  -65.29 | X-H torsion
[ 10718 10713 10712 10709 ] final   78.69 input   66.30 | X-H torsion
[ 10763 10752 10751 10750 ] final  141.24 input  -60.55 | X-H torsion
[ 11005 11000 10999 10996 ] final  -16.26 input  -57.11 | X-H torsion

> <Gold.Protein.ActiveResidues>
 VAL166  LYS551  ARG553  GLY616  TRP617  ASP618  TYR619  PRO620  LYS621  CYS622 
 ASP623  PHE694  ASN695  SER759  ASP760  ASP761  ALA762  ILE779  LEU786  VAL792 
 PHE793  MET794  SER795  GLU796  ALA797  LYS798  CYS799  TRP800  GLU811  SER814 

> <Gold.Protein.RotatedAtoms>
  152.5450  134.1219  159.8402 H   0  0  0  0  0  0  0  0  0  0  0  0  # atno 6907 bound_to 6896
  151.1274  133.5053  159.2607 H   0  0  0  0  0  0  0  0  0  0  0  0  # atno 6908 bound_to 6896
  151.1712  135.0328  159.8807 H   0  0  0  0  0  0  0  0  0  0  0  0  # atno 6909 bound_to 6896
  146.2418  140.1402  142.8336 H   0  0  0  0  0  0  0  0  0  0  0  0  # atno 7974 bound_to 7965
  155.7085  140.3494  155.4963 H   0  0  0  0  0  0  0  0  0  0  0  0  # atno 8008 bound_to 7997
  155.9377  140.1096  157.1103 H   0  0  0  0  0  0  0  0  0  0  0  0  # atno 8009 bound_to 7997
  154.4097  140.1219  156.4872 H   0  0  0  0  0  0  0  0  0  0  0  0  # atno 8010 bound_to 7997
  140.7179  143.5441  150.9375 H   0  0  0  0  0  0  0  0  0  0  0  0  # atno 10167 bound_to 10162
  157.6753  130.9880  150.1824 H   0  0  0  0  0  0  0  0  0  0  0  0  # atno 10718 bound_to 10713
  153.9360  135.2985  155.3444 H   0  0  0  0  0  0  0  0  0  0  0  0  # atno 10763 bound_to 10752
  154.7502  135.4984  153.9278 H   0  0  0  0  0  0  0  0  0  0  0  0  # atno 10764 bound_to 10752
  153.1067  135.6748  153.9680 H   0  0  0  0  0  0  0  0  0  0  0  0  # atno 10765 bound_to 10752
  140.8050  133.8184  155.9507 H   0  0  0  0  0  0  0  0  0  0  0  0  # atno 11005 bound_to 11000
  145.0253  140.8827  143.5142 LP  0  0  0  0  0  0  0  0  0  0  0  0  # atno 17320 bound_to 7965
  145.1457  139.2545  143.5467 LP  0  0  0  0  0  0  0  0  0  0  0  0  # atno 17321 bound_to 7965
  139.9164  143.6658  152.3105 LP  0  0  0  0  0  0  0  0  0  0  0  0  # atno 17342 bound_to 10162
  139.7059  144.7628  151.1193 LP  0  0  0  0  0  0  0  0  0  0  0  0  # atno 17343 bound_to 10162
  156.2553  130.3705  149.8188 LP  0  0  0  0  0  0  0  0  0  0  0  0  # atno 17370 bound_to 10713
  156.5949  130.8522  151.3417 LP  0  0  0  0  0  0  0  0  0  0  0  0  # atno 17371 bound_to 10713
  140.9256  134.2087  157.4898 LP  0  0  0  0  0  0  0  0  0  0  0  0  # atno 17394 bound_to 11000
  139.8718  134.9811  156.5102 LP  0  0  0  0  0  0  0  0  0  0  0  0  # atno 17395 bound_to 11000

$$$$
