AV-unprocessed.smi:2496|AV-procd|sdf|9828|dock2
  -GOLD-   2272013453D 1   1.00000     0.00000
 Structure written by MMmdl.
 40 40  0  0  0  0  0  0  0  0  1 V2000
  151.3653  139.9385  156.5002 C   0  0  0  0  0  0  0  0  0  0  0  0
  150.2347  140.2191  155.5497 C   0  0  0  0  0  0  0  0  0  0  0  0
  150.3472  139.8055  154.2963 N   0  0  0  0  0  0  0  0  0  0  0  0
  149.2029  140.2037  153.7171 N   0  0  0  0  0  0  0  0  0  0  0  0
  148.3625  140.8619  154.5824 C   0  0  0  0  0  0  0  0  0  0  0  0
  147.0382  141.3950  154.1485 C   0  0  0  0  0  0  0  0  0  0  0  0
  148.9955  140.8953  155.7963 C   0  0  0  0  0  0  0  0  0  0  0  0
  148.4826  141.5206  157.0776 C   0  0  1  0  0  0  0  0  0  0  0  0
  147.4819  140.6085  157.8118 C   0  0  0  0  0  0  0  0  0  0  0  0
  149.6708  141.9458  157.9540 C   0  0  0  0  0  0  0  0  0  0  0  0
  150.2084  141.1457  158.7206 O   0  0  0  0  0  0  0  0  0  0  0  0
  150.0629  143.2244  157.8275 N   0  0  0  0  0  0  0  0  0  0  0  0
  151.1811  143.8615  158.5226 C   0  0  1  0  0  0  0  0  0  0  0  0
  152.2297  144.2496  157.4658 C   0  0  0  0  0  0  0  0  0  0  0  0
  150.6854  145.0646  159.3697 C   0  0  0  0  0  0  0  0  0  0  0  0
  151.8335  145.7585  160.1245 C   0  0  0  0  0  0  0  0  0  0  0  0
  149.5840  144.6651  160.3711 C   0  0  0  0  0  0  0  0  0  0  0  0
  149.0114  140.0221  152.7421 H   0  0  0  0  0  0  0  0  0  0  0  0
  151.5600  140.7911  157.1495 H   0  0  0  0  0  0  0  0  0  0  0  0
  152.2919  139.7184  155.9689 H   0  0  0  0  0  0  0  0  0  0  0  0
  151.1383  139.0814  157.1339 H   0  0  0  0  0  0  0  0  0  0  0  0
  147.0000  142.4772  154.2730 H   0  0  0  0  0  0  0  0  0  0  0  0
  146.2341  140.9580  154.7407 H   0  0  0  0  0  0  0  0  0  0  0  0
  146.8437  141.1703  153.0993 H   0  0  0  0  0  0  0  0  0  0  0  0
  147.9416  142.4391  156.8456 H   0  0  0  0  0  0  0  0  0  0  0  0
  147.9317  139.6638  158.1163 H   0  0  0  0  0  0  0  0  0  0  0  0
  146.6290  140.3775  157.1729 H   0  0  0  0  0  0  0  0  0  0  0  0
  147.0940  141.0923  158.7089 H   0  0  0  0  0  0  0  0  0  0  0  0
  149.5552  143.8017  157.1732 H   0  0  0  0  0  0  0  0  0  0  0  0
  151.6510  143.1446  159.1983 H   0  0  0  0  0  0  0  0  0  0  0  0
  153.1468  144.6215  157.9211 H   0  0  0  0  0  0  0  0  0  0  0  0
  151.8508  145.0207  156.7940 H   0  0  0  0  0  0  0  0  0  0  0  0
  152.5063  143.3881  156.8566 H   0  0  0  0  0  0  0  0  0  0  0  0
  150.2506  145.8000  158.6910 H   0  0  0  0  0  0  0  0  0  0  0  0
  152.3583  145.0593  160.7761 H   0  0  0  0  0  0  0  0  0  0  0  0
  151.4591  146.5718  160.7470 H   0  0  0  0  0  0  0  0  0  0  0  0
  152.5630  146.1949  159.4433 H   0  0  0  0  0  0  0  0  0  0  0  0
  149.9306  143.8829  161.0471 H   0  0  0  0  0  0  0  0  0  0  0  0
  148.6896  144.2980  159.8674 H   0  0  0  0  0  0  0  0  0  0  0  0
  149.2769  145.5165  160.9789 H   0  0  0  0  0  0  0  0  0  0  0  0
  1  2  1  0  0  0  0
  1 19  1  0  0  0  0
  1 20  1  0  0  0  0
  1 21  1  0  0  0  0
  2  7  1  0  0  0  0
  2  3  2  0  0  0  0
  3  4  1  0  0  0  0
  4 18  1  0  0  0  0
  4  5  1  0  0  0  0
  5  6  1  0  0  0  0
  5  7  2  0  0  0  0
  6 22  1  0  0  0  0
  6 23  1  0  0  0  0
  6 24  1  0  0  0  0
  7  8  1  0  0  0  0
  8  9  1  0  0  0  0
  8 10  1  0  0  0  0
  8 25  1  0  0  0  0
  9 26  1  0  0  0  0
  9 27  1  0  0  0  0
  9 28  1  0  0  0  0
 10 11  2  0  0  0  0
 10 12  1  0  0  0  0
 12 13  1  0  0  0  0
 12 29  1  0  0  0  0
 13 14  1  0  0  0  0
 13 15  1  0  0  0  0
 13 30  1  0  0  0  0
 14 31  1  0  0  0  0
 14 32  1  0  0  0  0
 14 33  1  0  0  0  0
 15 16  1  0  0  0  0
 15 17  1  0  0  0  0
 15 34  1  0  0  0  0
 16 35  1  0  0  0  0
 16 36  1  0  0  0  0
 16 37  1  0  0  0  0
 17 38  1  0  0  0  0
 17 39  1  0  0  0  0
 17 40  1  0  0  0  0
M  END
> <s_m_source_file>
AV-unprocessed.smi

> <i_m_source_file_index>
2496

> <i_lp_mmshare_version>
43012

> <i_f3d_flags>
0

> <s_epik_input>
W0NIM11jMW5bbkhdYyhbQ0gzXSljMVtDQEhdKFtDSDNdKUMoPU8pW05IXVtDQEhdKFtDSDNdKVtDSF0oW0NIM10pW0NIM10=

> <s_epik_cmdline>
J2VwaWtfcHl0aG9uJywgJy1waCcsICc3LjAnLCAnLXRuJywgJzgnLCAnLW1hJywgJzIwMCcsICctbWV0YWxfYmluZGluZycsICctaW1hZScsICc8aW5maWxlLm1hZT4nLCAnLW9tYWUnLCAnPG91dGZpbGUubWFlPic=

> <r_lp_tautomer_probability>
1

> <r_epik_Ionization_Penalty>
0.000456212

> <r_epik_Ionization_Penalty_Charging>
0

> <r_epik_Ionization_Penalty_Neutral>
0.000456212

> <r_epik_State_Penalty>
-0

> <r_epik_Charging_Adjusted_Penalty>
0

> <i_epik_Tot_Q>
0

> <i_epik_Tot_abs_Q>
0

> <r_epik_Metal_State_Penalty>
-0

> <b_epik_Metal_Only>
0

> <s_lp_Force_Field>
OPLS_2005

> <r_lp_Energy>
2.25398

> <b_lp_Chiralities_Consistent>
1

> <s_lp_Variant>
AV-unprocessed.smi:2496-4

> <Gold.Version>
5.8.1

> <Gold.Id.Protein>
6NUR|6NUR_protein|mol2

> <Gold.PLP.Fitness>
42.9311

> <Gold.PLP.PLP>
-36.4080

> <Gold.PLP.part.hbond>
-2.6497

> <Gold.PLP.part.metal>
0.0000

> <Gold.PLP.part.buried>
-6.1232

> <Gold.PLP.part.nonpolar>
-27.4565

> <Gold.PLP.part.repulsive>
1.6621

> <Gold.PLP.ligand.clash>
0.0000

> <Gold.PLP.ligand.torsion>
1.2971

> <Gold.PLP.Chemscore.Hbond>
2.9920

> <Gold.PLP.Chemscore.CHOScore>
0.0000

> <Gold.PLP.Chemscore.Metal>
0.0000

> <Gold.Chemscore.Hbonds>
donor molecule, donor type, donor heavy atom, donor atom, acceptor molecule, acceptor atom, score
      L1  H     4    18       P1  7957  0.94
      L1  H    12    29       P1  8028  1.00
      P1  H  7989  7998       L1     3  1.00

> <Gold.PLP.Chemscore.Internal.Correction>
0.1413

> <Gold.Rescore>
     Score         DG    S(hbond)    S(metal)    S(lipo)     H(rot)  DE(clash)    DE(int)     intcor
     15.17     -19.16       1.96        0.00      93.04       1.47       0.54       3.46       ----

> <Gold.Chemscore.Fitness>
15.1668

> <Gold.Chemscore.DG>
-19.1622

> <Gold.Chemscore.ZeroCoef>
-5.4800

> <Gold.Chemscore.Hbond>
1.9610

> <Gold.Chemscore.Metal>
0.0000

> <Gold.Chemscore.Lipo>
93.0403

> <Gold.Chemscore.Internal_Hbond>
0.0000

> <Gold.Chemscore.DEClash>
0.5377

> <Gold.Chemscore.DEInternal>
3.4577

> <Gold.Chemscore.Rot>
1.4662

> <Gold.Chemscore.Internal.Correction>
   9.000000E+99

> <Gold.Chemscore.Hbonds>
donor molecule, donor type, donor heavy atom, donor atom, acceptor molecule, acceptor atom, score
      L1  H     4    18       P1  7957  0.91
      L1  H    12    29       P1  8028  0.74
      P1  H  7989  7998       L1     3  0.24

> <Gold.Chemscore.Hbond.Weighted>
-6.5499

> <Gold.Chemscore.Metal.Weighted>
-0.0000

> <Gold.Chemscore.Lipo.Weighted>
-10.8857

> <Gold.Chemscore.Internal_Hbond.Weighted>
0.0000

> <Gold.Chemscore.DEClash.Weighted>
0.5377

> <Gold.Chemscore.DEInternal.Weighted>
3.4577

> <Gold.Chemscore.Rot.Weighted>
3.7534

> <Gold.Chemscore.Internal.Correction.Weighted>
   9.000000E+99

> <Gold.Protein.RotatedTorsions>
[ 6907 6896 6895 6894 ] final -153.83 input  -60.11 | X-H torsion
[ 7974 7965 7964 7962 ] final  -14.32 input  175.53 | X-H torsion
[ 8008 7997 7996 7995 ] final  -42.61 input   59.86 | X-H torsion
[ 10167 10162 10161 10158 ] final  -29.43 input  -65.29 | X-H torsion
[ 10718 10713 10712 10709 ] final   92.44 input   66.30 | X-H torsion
[ 10763 10752 10751 10750 ] final -129.57 input  -60.55 | X-H torsion
[ 11005 11000 10999 10996 ] final   97.04 input  -57.11 | X-H torsion

> <Gold.Protein.ActiveResidues>
 VAL166  LYS551  ARG553  GLY616  TRP617  ASP618  TYR619  PRO620  LYS621  CYS622 
 ASP623  PHE694  ASN695  SER759  ASP760  ASP761  ALA762  ILE779  LEU786  VAL792 
 PHE793  MET794  SER795  GLU796  ALA797  LYS798  CYS799  TRP800  GLU811  SER814 

> <Gold.Protein.RotatedAtoms>
  151.2483  133.4363  159.2610 H   0  0  0  0  0  0  0  0  0  0  0  0  # atno 6907 bound_to 6896
  151.0641  134.9756  159.8285 H   0  0  0  0  0  0  0  0  0  0  0  0  # atno 6908 bound_to 6896
  152.5402  134.2432  159.8923 H   0  0  0  0  0  0  0  0  0  0  0  0  # atno 6909 bound_to 6896
  146.2079  140.3331  142.8401 H   0  0  0  0  0  0  0  0  0  0  0  0  # atno 7974 bound_to 7965
  154.3998  140.1469  156.3382 H   0  0  0  0  0  0  0  0  0  0  0  0  # atno 8008 bound_to 7997
  155.8380  140.3463  155.5593 H   0  0  0  0  0  0  0  0  0  0  0  0  # atno 8009 bound_to 7997
  155.8117  140.0885  157.1890 H   0  0  0  0  0  0  0  0  0  0  0  0  # atno 8010 bound_to 7997
  140.7260  143.3929  151.1398 H   0  0  0  0  0  0  0  0  0  0  0  0  # atno 10167 bound_to 10162
  157.6958  131.0443  150.3882 H   0  0  0  0  0  0  0  0  0  0  0  0  # atno 10718 bound_to 10713
  154.8757  135.3891  154.3941 H   0  0  0  0  0  0  0  0  0  0  0  0  # atno 10763 bound_to 10752
  153.4673  135.7029  153.6019 H   0  0  0  0  0  0  0  0  0  0  0  0  # atno 10764 bound_to 10752
  153.4492  135.3838  155.2242 H   0  0  0  0  0  0  0  0  0  0  0  0  # atno 10765 bound_to 10752
  139.8778  134.8981  156.4248 H   0  0  0  0  0  0  0  0  0  0  0  0  # atno 11005 bound_to 11000
  144.8838  140.7435  143.5970 LP  0  0  0  0  0  0  0  0  0  0  0  0  # atno 17320 bound_to 7965
  145.3252  139.1776  143.4566 LP  0  0  0  0  0  0  0  0  0  0  0  0  # atno 17321 bound_to 7965
  139.7537  143.8740  152.3083 LP  0  0  0  0  0  0  0  0  0  0  0  0  # atno 17342 bound_to 10162
  139.8602  144.7121  150.9109 LP  0  0  0  0  0  0  0  0  0  0  0  0  # atno 17343 bound_to 10162
  156.4288  130.3968  149.6774 LP  0  0  0  0  0  0  0  0  0  0  0  0  # atno 17370 bound_to 10713
  156.3999  130.7669  151.2676 LP  0  0  0  0  0  0  0  0  0  0  0  0  # atno 17371 bound_to 10713
  140.9108  133.7713  155.9789 LP  0  0  0  0  0  0  0  0  0  0  0  0  # atno 17394 bound_to 11000
  140.8548  134.2911  157.5260 LP  0  0  0  0  0  0  0  0  0  0  0  0  # atno 17395 bound_to 11000

$$$$
