AV-unprocessed.smi:1047|AV-procd|sdf|4580|dock8
  -GOLD-   22720 3 43D 1   1.00000     0.00000
 Structure written by MMmdl.
 58 60  0  0  0  0  0  0  0  0  4 V2000
  149.3441  135.2876  155.3915 C   0  0  0  0  0  0  0  0  0  0  0  0
  147.8283  135.2011  155.1625 C   0  0  0  0  0  0  0  0  0  0  0  0
  147.3581  136.1189  154.0946 N   0  3  1  0  0  0  0  0  0  0  0  0
  145.9597  135.8396  153.6887 C   0  0  0  0  0  0  0  0  0  0  0  0
  145.5351  136.7683  152.5387 C   0  0  0  0  0  0  0  0  0  0  0  0
  145.6904  138.1257  152.9356 O   0  0  0  0  0  0  0  0  0  0  0  0
  147.0406  138.4409  153.2587 C   0  0  1  0  0  0  0  0  0  0  0  0
  147.1468  139.9483  153.5474 C   0  0  0  0  0  0  0  0  0  0  0  0
  148.5479  140.3852  153.7208 N   0  3  0  0  0  0  0  0  0  0  0  0
  148.6993  141.6328  154.4958 C   0  0  0  0  0  0  0  0  0  0  0  0
  149.3483  141.3609  155.8657 C   0  0  2  0  0  0  0  0  0  0  0  0
  148.9065  142.3420  156.7814 O   0  0  0  0  0  0  0  0  0  0  0  0
  150.8896  141.3937  155.8497 C   0  0  0  0  0  0  0  0  0  0  0  0
  151.4848  140.9703  157.1252 N   0  0  0  0  0  0  0  0  0  0  0  0
  151.8952  139.7331  157.5178 C   0  0  0  0  0  0  0  0  0  0  0  0
  152.3691  139.8409  158.7894 N   0  3  0  0  0  0  0  0  0  0  0  0
  152.2557  141.1646  159.2186 C   0  0  0  0  0  0  0  0  0  0  0  0
  152.6002  141.7605  160.4258 C   0  0  0  0  0  0  0  0  0  0  0  0
  152.3554  143.1462  160.5542 C   0  0  0  0  0  0  0  0  0  0  0  0
  152.7186  143.8280  161.8626 C   0  0  0  0  0  0  0  0  0  0  0  0
  151.7841  143.8879  159.4881 C   0  0  0  0  0  0  0  0  0  0  0  0
  151.5263  145.3778  159.6365 C   0  0  0  0  0  0  0  0  0  0  0  0
  151.4394  143.2629  158.2681 C   0  0  0  0  0  0  0  0  0  0  0  0
  151.6859  141.8958  158.1576 C   0  0  0  0  0  0  0  0  0  0  0  0
  147.5202  137.5559  154.4291 C   0  0  0  0  0  0  0  0  0  0  0  0
  149.6662  134.5312  156.1077 H   0  0  0  0  0  0  0  0  0  0  0  0
  149.6440  136.2558  155.7913 H   0  0  0  0  0  0  0  0  0  0  0  0
  149.8942  135.1191  154.4653 H   0  0  0  0  0  0  0  0  0  0  0  0
  147.5918  134.1754  154.8763 H   0  0  0  0  0  0  0  0  0  0  0  0
  147.2879  135.3954  156.0901 H   0  0  0  0  0  0  0  0  0  0  0  0
  145.8662  134.8001  153.3712 H   0  0  0  0  0  0  0  0  0  0  0  0
  145.2953  135.9746  154.5438 H   0  0  0  0  0  0  0  0  0  0  0  0
  146.1214  136.5691  151.6402 H   0  0  0  0  0  0  0  0  0  0  0  0
  144.4903  136.5936  152.2810 H   0  0  0  0  0  0  0  0  0  0  0  0
  147.6612  138.2304  152.3854 H   0  0  0  0  0  0  0  0  0  0  0  0
  146.6909  140.5113  152.7320 H   0  0  0  0  0  0  0  0  0  0  0  0
  146.5872  140.1903  154.4520 H   0  0  0  0  0  0  0  0  0  0  0  0
  149.0579  139.6529  154.1954 H   0  0  0  0  0  0  0  0  0  0  0  0
  149.3211  142.3107  153.9110 H   0  0  0  0  0  0  0  0  0  0  0  0
  147.7288  142.1157  154.6211 H   0  0  0  0  0  0  0  0  0  0  0  0
  149.0214  140.3875  156.2341 H   0  0  0  0  0  0  0  0  0  0  0  0
  149.2575  143.1815  156.5239 H   0  0  0  0  0  0  0  0  0  0  0  0
  151.2927  140.7873  155.0385 H   0  0  0  0  0  0  0  0  0  0  0  0
  151.2356  142.4122  155.6662 H   0  0  0  0  0  0  0  0  0  0  0  0
  151.8509  138.8285  156.9280 H   0  0  0  0  0  0  0  0  0  0  0  0
  153.0356  141.1894  161.2331 H   0  0  0  0  0  0  0  0  0  0  0  0
  151.8492  144.3275  162.2911 H   0  0  0  0  0  0  0  0  0  0  0  0
  153.5010  144.5703  161.7025 H   0  0  0  0  0  0  0  0  0  0  0  0
  153.0846  143.1110  162.5981 H   0  0  0  0  0  0  0  0  0  0  0  0
  151.1551  145.8136  158.7083 H   0  0  0  0  0  0  0  0  0  0  0  0
  152.4425  145.9035  159.9058 H   0  0  0  0  0  0  0  0  0  0  0  0
  150.7816  145.5593  160.4119 H   0  0  0  0  0  0  0  0  0  0  0  0
  151.0035  143.8322  157.4608 H   0  0  0  0  0  0  0  0  0  0  0  0
  146.9548  137.7776  155.3356 H   0  0  0  0  0  0  0  0  0  0  0  0
  148.5653  137.7791  154.6415 H   0  0  0  0  0  0  0  0  0  0  0  0
  148.9612  140.5255  152.8102 H   0  0  0  0  0  0  0  0  0  0  0  0
  147.9313  135.9345  153.2833 H   0  0  0  0  0  0  0  0  0  0  0  0
  152.7370  139.0648  159.3254 H   0  0  0  0  0  0  0  0  0  0  0  0
  1  2  1  0  0  0  0
  1 26  1  0  0  0  0
  1 27  1  0  0  0  0
  1 28  1  0  0  0  0
  2  3  1  0  0  0  0
  2 29  1  0  0  0  0
  2 30  1  0  0  0  0
  3 25  1  0  0  0  0
  3  4  1  0  0  0  0
  3 57  1  0  0  0  0
  4  5  1  0  0  0  0
  4 31  1  0  0  0  0
  4 32  1  0  0  0  0
  5  6  1  0  0  0  0
  5 33  1  0  0  0  0
  5 34  1  0  0  0  0
  6  7  1  0  0  0  0
  7  8  1  0  0  0  0
  7 25  1  0  0  0  0
  7 35  1  0  0  0  0
  8  9  1  0  0  0  0
  8 36  1  0  0  0  0
  8 37  1  0  0  0  0
  9 10  1  0  0  0  0
  9 38  1  0  0  0  0
  9 56  1  0  0  0  0
 10 11  1  0  0  0  0
 10 39  1  0  0  0  0
 10 40  1  0  0  0  0
 11 12  1  0  0  0  0
 11 13  1  0  0  0  0
 11 41  1  0  0  0  0
 12 42  1  0  0  0  0
 13 14  1  0  0  0  0
 13 43  1  0  0  0  0
 13 44  1  0  0  0  0
 14 24  1  0  0  0  0
 14 15  1  0  0  0  0
 15 16  2  0  0  0  0
 15 45  1  0  0  0  0
 16 17  1  0  0  0  0
 16 58  1  0  0  0  0
 17 24  2  0  0  0  0
 17 18  1  0  0  0  0
 18 19  2  0  0  0  0
 18 46  1  0  0  0  0
 19 20  1  0  0  0  0
 19 21  1  0  0  0  0
 20 47  1  0  0  0  0
 20 48  1  0  0  0  0
 20 49  1  0  0  0  0
 21 22  1  0  0  0  0
 21 23  2  0  0  0  0
 22 50  1  0  0  0  0
 22 51  1  0  0  0  0
 22 52  1  0  0  0  0
 23 24  1  0  0  0  0
 23 53  1  0  0  0  0
 25 54  1  0  0  0  0
 25 55  1  0  0  0  0
M  CHG  1   3   1
M  CHG  1   9   1
M  CHG  1  16   1
M  END
> <s_m_source_file>
AV-unprocessed.smi

> <i_m_source_file_index>
1047

> <i_lp_mmshare_version>
43012

> <i_f3d_flags>
0

> <s_epik_input>
W0NIM11bQ0gyXU4xW0NIMl1bQ0gyXU9bQ0BIXShbQ0gyXTEpW0NIMl1bTkhdW0NIMl1bQ0BIXShbT0hdKVtDSDJdbihbY0hdbjIpYyhjMjMpW2NIXWMoW0NIM10pYyhbY0hdMylbQ0gzXQ==

> <s_epik_cmdline>
J2VwaWtfcHl0aG9uJywgJy1waCcsICc3LjAnLCAnLXRuJywgJzgnLCAnLW1hJywgJzIwMCcsICctbWV0YWxfYmluZGluZycsICctaW1hZScsICc8aW5maWxlLm1hZT4nLCAnLW9tYWUnLCAnPG91dGZpbGUubWFlPic=

> <r_epik_Ionization_Penalty>
1.6114

> <r_epik_Ionization_Penalty_Charging>
1.61139

> <r_epik_Ionization_Penalty_Neutral>
5.04732e-06

> <r_epik_State_Penalty>
1.63724

> <r_epik_Charging_Adjusted_Penalty>
3.24864

> <i_epik_Tot_Q>
3

> <i_epik_Tot_abs_Q>
3

> <r_epik_Metal_State_Penalty>
5.64594

> <b_epik_Metal_Only>
0

> <s_lp_Force_Field>
OPLS_2005

> <r_lp_Energy>
43.5462

> <b_lp_Chiralities_Consistent>
1

> <s_lp_Variant>
AV-unprocessed.smi:1047-21

> <Gold.Version>
5.8.1

> <Gold.Id.Protein>
6NUR|6NUR_protein|mol2

> <Gold.PLP.Fitness>
55.7108

> <Gold.PLP.PLP>
-46.1348

> <Gold.PLP.part.hbond>
-3.0000

> <Gold.PLP.part.metal>
0.0000

> <Gold.PLP.part.buried>
-5.5606

> <Gold.PLP.part.nonpolar>
-38.4962

> <Gold.PLP.part.repulsive>
0.8576

> <Gold.PLP.ligand.clash>
0.0000

> <Gold.PLP.ligand.torsion>
1.2560

> <Gold.PLP.Chemscore.Hbond>
3.9600

> <Gold.PLP.Chemscore.CHOScore>
0.0000

> <Gold.PLP.Chemscore.Metal>
0.0000

> <Gold.Chemscore.Hbonds>
donor molecule, donor type, donor heavy atom, donor atom, acceptor molecule, acceptor atom, score
      L1  H     3    57       P1  7948  2.00
      L1  H     9    56       P1  7957  1.00
      L1  H    12    42       P1  8028  0.88

> <Gold.PLP.Chemscore.Internal.Correction>
0.2080

> <Gold.Rescore>
     Score         DG    S(hbond)    S(metal)    S(lipo)     H(rot)  DE(clash)    DE(int)     intcor
     21.49     -22.77       2.87        0.00     126.76       2.78       0.05       1.24       ----

> <Gold.Chemscore.Fitness>
21.4901

> <Gold.Chemscore.DG>
-22.7747

> <Gold.Chemscore.ZeroCoef>
-5.4800

> <Gold.Chemscore.Hbond>
2.8722

> <Gold.Chemscore.Metal>
0.0000

> <Gold.Chemscore.Lipo>
126.7563

> <Gold.Chemscore.Internal_Hbond>
0.0000

> <Gold.Chemscore.DEClash>
0.0492

> <Gold.Chemscore.DEInternal>
1.2354

> <Gold.Chemscore.Rot>
2.7848

> <Gold.Chemscore.Internal.Correction>
   9.000000E+99

> <Gold.Chemscore.Hbonds>
donor molecule, donor type, donor heavy atom, donor atom, acceptor molecule, acceptor atom, score
      L1  H     3    57       P1  7948  1.00
      L1  H     9    56       P1  7957  0.99
      L1  H    12    42       P1  8028  0.86

> <Gold.Chemscore.Hbond.Weighted>
-9.5933

> <Gold.Chemscore.Metal.Weighted>
-0.0000

> <Gold.Chemscore.Lipo.Weighted>
-14.8305

> <Gold.Chemscore.Internal_Hbond.Weighted>
0.0000

> <Gold.Chemscore.DEClash.Weighted>
0.0492

> <Gold.Chemscore.DEInternal.Weighted>
1.2354

> <Gold.Chemscore.Rot.Weighted>
7.1291

> <Gold.Chemscore.Internal.Correction.Weighted>
   9.000000E+99

> <Gold.Protein.RotatedTorsions>
[ 6907 6896 6895 6894 ] final -118.11 input  -60.11 | X-H torsion
[ 7974 7965 7964 7962 ] final  163.29 input  175.53 | X-H torsion
[ 8008 7997 7996 7995 ] final -179.66 input   59.86 | X-H torsion
[ 10167 10162 10161 10158 ] final   37.22 input  -65.29 | X-H torsion
[ 10718 10713 10712 10709 ] final  -63.03 input   66.30 | X-H torsion
[ 10763 10752 10751 10750 ] final  -82.16 input  -60.55 | X-H torsion
[ 11005 11000 10999 10996 ] final -124.38 input  -57.11 | X-H torsion

> <Gold.Protein.ActiveResidues>
 VAL166  LYS551  ARG553  GLY616  TRP617  ASP618  TYR619  PRO620  LYS621  CYS622 
 ASP623  PHE694  ASN695  SER759  ASP760  ASP761  ALA762  ILE779  LEU786  VAL792 
 PHE793  MET794  SER795  GLU796  ALA797  LYS798  CYS799  TRP800  GLU811  SER814 

> <Gold.Protein.RotatedAtoms>
  150.8192  133.8283  159.3146 H   0  0  0  0  0  0  0  0  0  0  0  0  # atno 6907 bound_to 6896
  151.6046  135.1043  160.0077 H   0  0  0  0  0  0  0  0  0  0  0  0  # atno 6908 bound_to 6896
  152.4282  133.7190  159.6579 H   0  0  0  0  0  0  0  0  0  0  0  0  # atno 6909 bound_to 6896
  144.7596  139.8162  143.6337 H   0  0  0  0  0  0  0  0  0  0  0  0  # atno 7974 bound_to 7965
  156.0330  140.1286  157.0237 H   0  0  0  0  0  0  0  0  0  0  0  0  # atno 8008 bound_to 7997
  154.4358  140.1045  156.6197 H   0  0  0  0  0  0  0  0  0  0  0  0  # atno 8009 bound_to 7997
  155.5779  140.3467  155.4534 H   0  0  0  0  0  0  0  0  0  0  0  0  # atno 8010 bound_to 7997
  140.4053  144.1667  150.6136 H   0  0  0  0  0  0  0  0  0  0  0  0  # atno 10167 bound_to 10162
  156.0817  130.4216  150.1219 H   0  0  0  0  0  0  0  0  0  0  0  0  # atno 10718 bound_to 10713
  154.5724  135.5601  153.7107 H   0  0  0  0  0  0  0  0  0  0  0  0  # atno 10763 bound_to 10752
  153.0053  135.6300  154.2096 H   0  0  0  0  0  0  0  0  0  0  0  0  # atno 10764 bound_to 10752
  154.2035  135.2877  155.2962 H   0  0  0  0  0  0  0  0  0  0  0  0  # atno 10765 bound_to 10752
  140.9846  134.0625  157.3726 H   0  0  0  0  0  0  0  0  0  0  0  0  # atno 11005 bound_to 11000
  146.1645  139.4772  142.9967 LP  0  0  0  0  0  0  0  0  0  0  0  0  # atno 17320 bound_to 7965
  145.6662  141.0228  143.1682 LP  0  0  0  0  0  0  0  0  0  0  0  0  # atno 17321 bound_to 7965
  140.4696  143.2418  151.9107 LP  0  0  0  0  0  0  0  0  0  0  0  0  # atno 17342 bound_to 10162
  139.4783  144.5384  151.8565 LP  0  0  0  0  0  0  0  0  0  0  0  0  # atno 17343 bound_to 10162
  156.9249  130.9695  151.3542 LP  0  0  0  0  0  0  0  0  0  0  0  0  # atno 17370 bound_to 10713
  157.5936  130.8461  149.8696 LP  0  0  0  0  0  0  0  0  0  0  0  0  # atno 17371 bound_to 10713
  139.8965  135.0146  156.7053 LP  0  0  0  0  0  0  0  0  0  0  0  0  # atno 17394 bound_to 11000
  140.7134  133.9203  155.8099 LP  0  0  0  0  0  0  0  0  0  0  0  0  # atno 17395 bound_to 11000

$$$$
