AV-unprocessed.smi:2639|AV-procd|sdf|10264|dock9
  -GOLD-   2272014273D 1   1.00000     0.00000
 Structure written by MMmdl.
 43 44  0  0  0  0  0  0  0  0  1 V2000
  147.2439  141.6308  153.5999 C   0  0  0  0  0  0  0  0  0  0  0  0
  147.8501  140.9368  154.8465 C   0  0  1  0  0  0  0  0  0  0  0  0
  148.7328  139.7460  154.3682 C   0  0  0  0  0  0  0  0  0  0  0  0
  149.8411  140.1715  153.6006 O   0  0  0  0  0  0  0  0  0  0  0  0
  148.6841  141.8936  155.5915 N   0  0  0  0  0  0  0  0  0  0  0  0
  149.6218  141.6512  156.5232 C   0  0  0  0  0  0  0  0  0  0  0  0
  149.9422  140.5253  156.9016 O   0  0  0  0  0  0  0  0  0  0  0  0
  150.1663  142.7993  156.9628 N   0  0  0  0  0  0  0  0  0  0  0  0
  151.1601  142.9868  157.9620 C   0  0  0  0  0  0  0  0  0  0  0  0
  151.6563  144.2923  158.1583 C   0  0  0  0  0  0  0  0  0  0  0  0
  152.6295  144.5068  159.1548 C   0  0  0  0  0  0  0  0  0  0  0  0
  153.1100  143.5243  159.9455 N   0  0  0  0  0  0  0  0  0  0  0  0
  152.6228  142.2781  159.7670 C   0  0  0  0  0  0  0  0  0  0  0  0
  151.6500  141.9559  158.7996 C   0  0  0  0  0  0  0  0  0  0  0  0
  146.7090  140.4584  155.8135 C   0  0  0  0  0  0  0  0  0  0  0  0
  145.7168  141.5859  156.2094 C   0  0  0  0  0  0  0  0  0  0  0  0
  144.5814  141.0743  157.1107 C   0  0  0  0  0  0  0  0  0  0  0  0
  145.1313  140.3992  158.3731 C   0  0  0  0  0  0  0  0  0  0  0  0
  146.0980  139.2679  158.0032 C   0  0  0  0  0  0  0  0  0  0  0  0
  147.2368  139.7757  157.1046 C   0  0  0  0  0  0  0  0  0  0  0  0
  146.4698  141.0143  153.1421 H   0  0  0  0  0  0  0  0  0  0  0  0
  147.9947  141.8167  152.8319 H   0  0  0  0  0  0  0  0  0  0  0  0
  146.7989  142.5958  153.8410 H   0  0  0  0  0  0  0  0  0  0  0  0
  149.1234  139.1802  155.2138 H   0  0  0  0  0  0  0  0  0  0  0  0
  148.1537  139.0363  153.7772 H   0  0  0  0  0  0  0  0  0  0  0  0
  149.5793  140.2132  152.6935 H   0  0  0  0  0  0  0  0  0  0  0  0
  148.5215  142.8633  155.3632 H   0  0  0  0  0  0  0  0  0  0  0  0
  149.8639  143.6404  156.4938 H   0  0  0  0  0  0  0  0  0  0  0  0
  151.3046  145.1168  157.5553 H   0  0  0  0  0  0  0  0  0  0  0  0
  153.0310  145.4952  159.3224 H   0  0  0  0  0  0  0  0  0  0  0  0
  153.0156  141.5129  160.4203 H   0  0  0  0  0  0  0  0  0  0  0  0
  151.2953  140.9391  158.7314 H   0  0  0  0  0  0  0  0  0  0  0  0
  146.1212  139.7107  155.2793 H   0  0  0  0  0  0  0  0  0  0  0  0
  146.2421  142.3909  156.7242 H   0  0  0  0  0  0  0  0  0  0  0  0
  145.2638  142.0311  155.3247 H   0  0  0  0  0  0  0  0  0  0  0  0
  143.9277  141.9016  157.3885 H   0  0  0  0  0  0  0  0  0  0  0  0
  143.9648  140.3663  156.5555 H   0  0  0  0  0  0  0  0  0  0  0  0
  145.6459  141.1361  158.9910 H   0  0  0  0  0  0  0  0  0  0  0  0
  144.3106  140.0072  158.9745 H   0  0  0  0  0  0  0  0  0  0  0  0
  146.5110  138.8227  158.9089 H   0  0  0  0  0  0  0  0  0  0  0  0
  145.5538  138.4741  157.4893 H   0  0  0  0  0  0  0  0  0  0  0  0
  147.8715  138.9250  156.8611 H   0  0  0  0  0  0  0  0  0  0  0  0
  147.8573  140.4695  157.6726 H   0  0  0  0  0  0  0  0  0  0  0  0
  1  2  1  0  0  0  0
  1 21  1  0  0  0  0
  1 22  1  0  0  0  0
  1 23  1  0  0  0  0
  2  3  1  0  0  0  0
  2  5  1  0  0  0  0
  2 15  1  0  0  0  0
  3  4  1  0  0  0  0
  3 24  1  0  0  0  0
  3 25  1  0  0  0  0
  4 26  1  0  0  0  0
  5  6  1  0  0  0  0
  5 27  1  0  0  0  0
  6  7  2  0  0  0  0
  6  8  1  0  0  0  0
  8  9  1  0  0  0  0
  8 28  1  0  0  0  0
  9 14  1  0  0  0  0
  9 10  2  0  0  0  0
 10 11  1  0  0  0  0
 10 29  1  0  0  0  0
 11 12  2  0  0  0  0
 11 30  1  0  0  0  0
 12 13  1  0  0  0  0
 13 14  2  0  0  0  0
 13 31  1  0  0  0  0
 14 32  1  0  0  0  0
 15 20  1  0  0  0  0
 15 16  1  0  0  0  0
 15 33  1  0  0  0  0
 16 17  1  0  0  0  0
 16 34  1  0  0  0  0
 16 35  1  0  0  0  0
 17 18  1  0  0  0  0
 17 36  1  0  0  0  0
 17 37  1  0  0  0  0
 18 19  1  0  0  0  0
 18 38  1  0  0  0  0
 18 39  1  0  0  0  0
 19 20  1  0  0  0  0
 19 40  1  0  0  0  0
 19 41  1  0  0  0  0
 20 42  1  0  0  0  0
 20 43  1  0  0  0  0
M  END
> <s_m_source_file>
AV-unprocessed.smi

> <i_m_source_file_index>
2639

> <i_lp_mmshare_version>
43012

> <i_f3d_flags>
0

> <s_epik_input>
W0NIMl0xW0NIMl1bQ0gyXVtDSDJdW0NIMl1bQ0hdMVtDQF0oW0NIM10pKFtDSDJdW09IXSlbTkhdQyg9TylbTkhdYzJbY0hdW2NIXW5bY0hdW2NIXTI=

> <s_epik_cmdline>
J2VwaWtfcHl0aG9uJywgJy1waCcsICc3LjAnLCAnLXRuJywgJzgnLCAnLW1hJywgJzIwMCcsICctbWV0YWxfYmluZGluZycsICctaW1hZScsICc8aW5maWxlLm1hZT4nLCAnLW9tYWUnLCAnPG91dGZpbGUubWFlPic=

> <r_epik_Ionization_Penalty>
0.119032

> <r_epik_Ionization_Penalty_Charging>
0

> <r_epik_Ionization_Penalty_Neutral>
0.119032

> <r_epik_State_Penalty>
0.108564

> <r_epik_Charging_Adjusted_Penalty>
0.108564

> <i_epik_Tot_Q>
0

> <i_epik_Tot_abs_Q>
0

> <r_epik_Metal_State_Penalty>
0.0902516

> <b_epik_Metal_Only>
0

> <s_lp_Force_Field>
OPLS_2005

> <r_lp_Energy>
25.5212

> <b_lp_Chiralities_Consistent>
1

> <s_lp_Variant>
AV-unprocessed.smi:2639-1

> <Gold.Version>
5.8.1

> <Gold.Id.Protein>
6NUR|6NUR_protein|mol2

> <Gold.PLP.Fitness>
42.4853

> <Gold.PLP.PLP>
-32.3557

> <Gold.PLP.part.hbond>
-3.6988

> <Gold.PLP.part.metal>
0.0000

> <Gold.PLP.part.buried>
-6.7438

> <Gold.PLP.part.nonpolar>
-22.9709

> <Gold.PLP.part.repulsive>
0.1488

> <Gold.PLP.ligand.clash>
0.0000

> <Gold.PLP.ligand.torsion>
0.3903

> <Gold.PLP.Chemscore.Hbond>
3.6240

> <Gold.PLP.Chemscore.CHOScore>
0.0000

> <Gold.PLP.Chemscore.Metal>
0.0000

> <Gold.Chemscore.Hbonds>
donor molecule, donor type, donor heavy atom, donor atom, acceptor molecule, acceptor atom, score
      L1  H     4    26       P1  7957  1.00
      L1  H     5    27       P1  8028  1.00
      L1  H     8    28       P1  8028  1.00
      P1  H  7989  7998       L1     4  0.64

> <Gold.PLP.Chemscore.Internal.Correction>
0.0382

> <Gold.Rescore>
     Score         DG    S(hbond)    S(metal)    S(lipo)     H(rot)  DE(clash)    DE(int)     intcor
     17.12     -20.46       3.22        0.00      79.29       1.98       0.12       3.22       ----

> <Gold.Chemscore.Fitness>
17.1194

> <Gold.Chemscore.DG>
-20.4585

> <Gold.Chemscore.ZeroCoef>
-5.4800

> <Gold.Chemscore.Hbond>
3.2244

> <Gold.Chemscore.Metal>
0.0000

> <Gold.Chemscore.Lipo>
79.2912

> <Gold.Chemscore.Internal_Hbond>
0.0000

> <Gold.Chemscore.DEClash>
0.1214

> <Gold.Chemscore.DEInternal>
3.2176

> <Gold.Chemscore.Rot>
1.9798

> <Gold.Chemscore.Internal.Correction>
   9.000000E+99

> <Gold.Chemscore.Hbonds>
donor molecule, donor type, donor heavy atom, donor atom, acceptor molecule, acceptor atom, score
      L1  H     4    26       P1  7957  0.94
      L1  H     5    27       P1  8028  0.95
      L1  H     8    28       P1  8028  1.00
      P1  H  7989  7998       L1     4  0.16

> <Gold.Chemscore.Hbond.Weighted>
-10.7696

> <Gold.Chemscore.Metal.Weighted>
-0.0000

> <Gold.Chemscore.Lipo.Weighted>
-9.2771

> <Gold.Chemscore.Internal_Hbond.Weighted>
0.0000

> <Gold.Chemscore.DEClash.Weighted>
0.1214

> <Gold.Chemscore.DEInternal.Weighted>
3.2176

> <Gold.Chemscore.Rot.Weighted>
5.0682

> <Gold.Chemscore.Internal.Correction.Weighted>
   9.000000E+99

> <Gold.Protein.RotatedTorsions>
[ 6907 6896 6895 6894 ] final  -77.50 input  -60.11 | X-H torsion
[ 7974 7965 7964 7962 ] final  -47.37 input  175.53 | X-H torsion
[ 8008 7997 7996 7995 ] final -156.88 input   59.86 | X-H torsion
[ 10167 10162 10161 10158 ] final  -87.86 input  -65.29 | X-H torsion
[ 10718 10713 10712 10709 ] final  -85.91 input   66.30 | X-H torsion
[ 10763 10752 10751 10750 ] final   48.95 input  -60.55 | X-H torsion
[ 11005 11000 10999 10996 ] final    1.35 input  -57.11 | X-H torsion

> <Gold.Protein.ActiveResidues>
 VAL166  LYS551  ARG553  GLY616  TRP617  ASP618  TYR619  PRO620  LYS621  CYS622 
 ASP623  PHE694  ASN695  SER759  ASP760  ASP761  ALA762  ILE779  LEU786  VAL792 
 PHE793  MET794  SER795  GLU796  ALA797  LYS798  CYS799  TRP800  GLU811  SER814 

> <Gold.Protein.RotatedAtoms>
  150.6997  134.4413  159.5293 H   0  0  0  0  0  0  0  0  0  0  0  0  # atno 6907 bound_to 6896
  152.2122  134.8488  160.0505 H   0  0  0  0  0  0  0  0  0  0  0  0  # atno 6908 bound_to 6896
  151.9368  133.3592  159.3988 H   0  0  0  0  0  0  0  0  0  0  0  0  # atno 6909 bound_to 6896
  145.9623  140.7467  142.9451 H   0  0  0  0  0  0  0  0  0  0  0  0  # atno 7974 bound_to 7965
  155.7240  140.0793  157.2318 H   0  0  0  0  0  0  0  0  0  0  0  0  # atno 8008 bound_to 7997
  154.4041  140.1607  156.2488 H   0  0  0  0  0  0  0  0  0  0  0  0  # atno 8009 bound_to 7997
  155.9170  140.3400  155.6146 H   0  0  0  0  0  0  0  0  0  0  0  0  # atno 8010 bound_to 7997
  140.3803  143.2752  151.9391 H   0  0  0  0  0  0  0  0  0  0  0  0  # atno 10167 bound_to 10162
  155.9993  130.4747  150.4634 H   0  0  0  0  0  0  0  0  0  0  0  0  # atno 10718 bound_to 10713
  152.9789  135.5927  154.4010 H   0  0  0  0  0  0  0  0  0  0  0  0  # atno 10763 bound_to 10752
  154.3656  135.2767  155.2297 H   0  0  0  0  0  0  0  0  0  0  0  0  # atno 10764 bound_to 10752
  154.4276  135.6044  153.6103 H   0  0  0  0  0  0  0  0  0  0  0  0  # atno 10765 bound_to 10752
  140.6164  133.9701  155.8203 H   0  0  0  0  0  0  0  0  0  0  0  0  # atno 11005 bound_to 11000
  144.6818  140.2611  143.7319 LP  0  0  0  0  0  0  0  0  0  0  0  0  # atno 17320 bound_to 7965
  145.8023  139.1969  143.2041 LP  0  0  0  0  0  0  0  0  0  0  0  0  # atno 17321 bound_to 7965
  139.4796  144.5824  151.7910 LP  0  0  0  0  0  0  0  0  0  0  0  0  # atno 17342 bound_to 10162
  140.4944  144.1263  150.5957 LP  0  0  0  0  0  0  0  0  0  0  0  0  # atno 17343 bound_to 10162
  157.2656  131.0576  151.2293 LP  0  0  0  0  0  0  0  0  0  0  0  0  # atno 17370 bound_to 10713
  157.3391  130.7024  149.6371 LP  0  0  0  0  0  0  0  0  0  0  0  0  # atno 17371 bound_to 10713
  141.0773  134.0116  157.3439 LP  0  0  0  0  0  0  0  0  0  0  0  0  # atno 17394 bound_to 11000
  139.9171  135.0198  156.7923 LP  0  0  0  0  0  0  0  0  0  0  0  0  # atno 17395 bound_to 11000

$$$$
