AV-unprocessed.smi:1966|AV-procd|sdf|7953|dock6
  -GOLD-   2272010123D 1   1.00000     0.00000
 Structure written by MMmdl.
 53 54  0  0  0  0  0  0  0  0  1 V2000
  149.5963  133.1812  154.0243 C   0  0  0  0  0  0  0  0  0  0  0  0
  148.6007  134.0470  154.7881 C   0  0  0  0  0  0  0  0  0  0  0  0
  148.3522  133.8100  155.9699 O   0  0  0  0  0  0  0  0  0  0  0  0
  148.0364  135.0499  154.0971 N   0  0  0  0  0  0  0  0  0  0  0  0
  147.0688  136.0123  154.6295 C   0  0  1  0  0  0  0  0  0  0  0  0
  147.7860  136.9419  155.6287 C   0  0  0  0  0  0  0  0  0  0  0  0
  147.7602  136.6855  156.8331 O   0  0  0  0  0  0  0  0  0  0  0  0
  148.4105  138.0033  155.0849 N   0  0  0  0  0  0  0  0  0  0  0  0
  149.1653  139.0244  155.7239 C   0  0  0  0  0  0  0  0  0  0  0  0
  149.7028  140.1571  155.0693 C   0  0  0  0  0  0  0  0  0  0  0  0
  150.4158  141.1073  155.8253 C   0  0  0  0  0  0  0  0  0  0  0  0
  150.5696  140.9114  157.2176 C   0  0  0  0  0  0  0  0  0  0  0  0
  151.2772  141.8564  157.9905 N   0  0  0  0  0  0  0  0  0  0  0  0
  152.3432  141.3730  158.8631 C   0  0  0  0  0  0  0  0  0  0  0  0
  152.7489  142.4666  159.8670 C   0  0  1  0  0  0  0  0  0  0  0  0
  153.9516  142.0444  160.7173 C   0  0  0  0  0  0  0  0  0  0  0  0
  153.1008  143.6559  159.1609 O   0  0  0  0  0  0  0  0  0  0  0  0
  152.0721  144.1770  158.3157 C   0  0  2  0  0  0  0  0  0  0  0  0
  150.9157  144.7962  159.1208 C   0  0  0  0  0  0  0  0  0  0  0  0
  151.6114  143.1038  157.3093 C   0  0  0  0  0  0  0  0  0  0  0  0
  150.0395  139.8330  157.8445 N   0  0  0  0  0  0  0  0  0  0  0  0
  149.3598  138.9235  157.1157 C   0  0  0  0  0  0  0  0  0  0  0  0
  146.4854  136.8419  153.4475 C   0  0  0  0  0  0  0  0  0  0  0  0
  145.5857  138.0082  153.9074 C   0  0  0  0  0  0  0  0  0  0  0  0
  145.6956  135.9563  152.4634 C   0  0  0  0  0  0  0  0  0  0  0  0
  150.4026  133.7936  153.6195 H   0  0  0  0  0  0  0  0  0  0  0  0
  149.1001  132.6715  153.1982 H   0  0  0  0  0  0  0  0  0  0  0  0
  150.0357  132.4265  154.6777 H   0  0  0  0  0  0  0  0  0  0  0  0
  148.3076  135.1697  153.1321 H   0  0  0  0  0  0  0  0  0  0  0  0
  146.2590  135.4780  155.1311 H   0  0  0  0  0  0  0  0  0  0  0  0
  148.2874  138.1194  154.0894 H   0  0  0  0  0  0  0  0  0  0  0  0
  149.5718  140.3297  154.0130 H   0  0  0  0  0  0  0  0  0  0  0  0
  150.8173  141.9818  155.3351 H   0  0  0  0  0  0  0  0  0  0  0  0
  152.0118  140.4881  159.4081 H   0  0  0  0  0  0  0  0  0  0  0  0
  153.2003  141.0805  158.2547 H   0  0  0  0  0  0  0  0  0  0  0  0
  151.9166  142.6723  160.5403 H   0  0  0  0  0  0  0  0  0  0  0  0
  153.7310  141.1420  161.2881 H   0  0  0  0  0  0  0  0  0  0  0  0
  154.2218  142.8275  161.4259 H   0  0  0  0  0  0  0  0  0  0  0  0
  154.8240  141.8425  160.0950 H   0  0  0  0  0  0  0  0  0  0  0  0
  152.5297  144.9878  157.7483 H   0  0  0  0  0  0  0  0  0  0  0  0
  150.2200  145.3137  158.4601 H   0  0  0  0  0  0  0  0  0  0  0  0
  151.2893  145.5243  159.8411 H   0  0  0  0  0  0  0  0  0  0  0  0
  150.3440  144.0462  159.6670 H   0  0  0  0  0  0  0  0  0  0  0  0
  152.4164  142.8983  156.6025 H   0  0  0  0  0  0  0  0  0  0  0  0
  150.7758  143.4879  156.7252 H   0  0  0  0  0  0  0  0  0  0  0  0
  148.9581  138.0847  157.6657 H   0  0  0  0  0  0  0  0  0  0  0  0
  147.3161  137.2776  152.8890 H   0  0  0  0  0  0  0  0  0  0  0  0
  144.7605  137.6511  154.5242 H   0  0  0  0  0  0  0  0  0  0  0  0
  145.1562  138.5316  153.0528 H   0  0  0  0  0  0  0  0  0  0  0  0
  146.1367  138.7514  154.4837 H   0  0  0  0  0  0  0  0  0  0  0  0
  144.8626  135.4599  152.9620 H   0  0  0  0  0  0  0  0  0  0  0  0
  146.3211  135.1849  152.0139 H   0  0  0  0  0  0  0  0  0  0  0  0
  145.2857  136.5478  151.6442 H   0  0  0  0  0  0  0  0  0  0  0  0
  1  2  1  0  0  0  0
  1 26  1  0  0  0  0
  1 27  1  0  0  0  0
  1 28  1  0  0  0  0
  2  3  2  0  0  0  0
  2  4  1  0  0  0  0
  4  5  1  0  0  0  0
  4 29  1  0  0  0  0
  5  6  1  0  0  0  0
  5 23  1  0  0  0  0
  5 30  1  0  0  0  0
  6  7  2  0  0  0  0
  6  8  1  0  0  0  0
  8  9  1  0  0  0  0
  8 31  1  0  0  0  0
  9 22  1  0  0  0  0
  9 10  2  0  0  0  0
 10 11  1  0  0  0  0
 10 32  1  0  0  0  0
 11 12  2  0  0  0  0
 11 33  1  0  0  0  0
 12 13  1  0  0  0  0
 12 21  1  0  0  0  0
 13 20  1  0  0  0  0
 13 14  1  0  0  0  0
 14 15  1  0  0  0  0
 14 34  1  0  0  0  0
 14 35  1  0  0  0  0
 15 16  1  0  0  0  0
 15 17  1  0  0  0  0
 15 36  1  0  0  0  0
 16 37  1  0  0  0  0
 16 38  1  0  0  0  0
 16 39  1  0  0  0  0
 17 18  1  0  0  0  0
 18 19  1  0  0  0  0
 18 20  1  0  0  0  0
 18 40  1  0  0  0  0
 19 41  1  0  0  0  0
 19 42  1  0  0  0  0
 19 43  1  0  0  0  0
 20 44  1  0  0  0  0
 20 45  1  0  0  0  0
 21 22  2  0  0  0  0
 22 46  1  0  0  0  0
 23 24  1  0  0  0  0
 23 25  1  0  0  0  0
 23 47  1  0  0  0  0
 24 48  1  0  0  0  0
 24 49  1  0  0  0  0
 24 50  1  0  0  0  0
 25 51  1  0  0  0  0
 25 52  1  0  0  0  0
 25 53  1  0  0  0  0
M  END
> <s_m_source_file>
AV-unprocessed.smi

> <i_m_source_file_index>
1966

> <i_lp_mmshare_version>
43012

> <i_f3d_flags>
0

> <s_epik_input>
W0NIM11DKD1PKVtOSF1bQ0BASF0oW0NIXShbQ0gzXSlbQ0gzXSlDKD1PKVtOSF1jMVtjSF1bY0hdYyhuW2NIXTEpTjJbQ0gyXVtDQEBIXShbQ0gzXSlPW0NAQEhdKFtDSDNdKVtDSDJdMg==

> <s_epik_cmdline>
J2VwaWtfcHl0aG9uJywgJy1waCcsICc3LjAnLCAnLXRuJywgJzgnLCAnLW1hJywgJzIwMCcsICctbWV0YWxfYmluZGluZycsICctaW1hZScsICc8aW5maWxlLm1hZT4nLCAnLW9tYWUnLCAnPG91dGZpbGUubWFlPic=

> <r_lp_tautomer_probability>
1

> <r_epik_Ionization_Penalty>
0.000679699

> <r_epik_Ionization_Penalty_Charging>
0

> <r_epik_Ionization_Penalty_Neutral>
0.000679699

> <r_epik_State_Penalty>
0.000430485

> <r_epik_Charging_Adjusted_Penalty>
0.000430485

> <i_epik_Tot_Q>
0

> <i_epik_Tot_abs_Q>
0

> <r_epik_Metal_State_Penalty>
-0

> <b_epik_Metal_Only>
0

> <s_lp_Force_Field>
OPLS_2005

> <r_lp_Energy>
28.3815

> <b_lp_Chiralities_Consistent>
1

> <s_lp_Variant>
AV-unprocessed.smi:1966-6

> <Gold.Version>
5.8.1

> <Gold.Id.Protein>
6NUR|6NUR_protein|mol2

> <Gold.PLP.Fitness>
37.1541

> <Gold.PLP.PLP>
-35.7795

> <Gold.PLP.part.hbond>
-0.9796

> <Gold.PLP.part.metal>
0.0000

> <Gold.PLP.part.buried>
-4.8862

> <Gold.PLP.part.nonpolar>
-29.7675

> <Gold.PLP.part.repulsive>
0.0524

> <Gold.PLP.ligand.clash>
0.0000

> <Gold.PLP.ligand.torsion>
0.9996

> <Gold.PLP.Chemscore.Hbond>
1.0000

> <Gold.PLP.Chemscore.CHOScore>
0.0000

> <Gold.PLP.Chemscore.Metal>
0.0000

> <Gold.Chemscore.Hbonds>
donor molecule, donor type, donor heavy atom, donor atom, acceptor molecule, acceptor atom, score
      L1  H     4    29       P1  7948  0.99

> <Gold.PLP.Chemscore.Internal.Correction>
0.3738

> <Gold.Rescore>
     Score         DG    S(hbond)    S(metal)    S(lipo)     H(rot)  DE(clash)    DE(int)     intcor
     12.71     -16.17       1.00        0.00      99.64       1.68       0.10       3.36       ----

> <Gold.Chemscore.Fitness>
12.7147

> <Gold.Chemscore.DG>
-16.1748

> <Gold.Chemscore.ZeroCoef>
-5.4800

> <Gold.Chemscore.Hbond>
0.9963

> <Gold.Chemscore.Metal>
0.0000

> <Gold.Chemscore.Lipo>
99.6356

> <Gold.Chemscore.Internal_Hbond>
0.0000

> <Gold.Chemscore.DEClash>
0.1000

> <Gold.Chemscore.DEInternal>
3.3601

> <Gold.Chemscore.Rot>
1.6759

> <Gold.Chemscore.Internal.Correction>
   9.000000E+99

> <Gold.Chemscore.Hbonds>
donor molecule, donor type, donor heavy atom, donor atom, acceptor molecule, acceptor atom, score
      L1  H     4    29       P1  7948  0.89

> <Gold.Chemscore.Hbond.Weighted>
-3.3276

> <Gold.Chemscore.Metal.Weighted>
-0.0000

> <Gold.Chemscore.Lipo.Weighted>
-11.6574

> <Gold.Chemscore.Internal_Hbond.Weighted>
0.0000

> <Gold.Chemscore.DEClash.Weighted>
0.1000

> <Gold.Chemscore.DEInternal.Weighted>
3.3601

> <Gold.Chemscore.Rot.Weighted>
4.2902

> <Gold.Chemscore.Internal.Correction.Weighted>
   9.000000E+99

> <Gold.Protein.RotatedTorsions>
[ 6907 6896 6895 6894 ] final -159.36 input  -60.11 | X-H torsion
[ 7974 7965 7964 7962 ] final -165.36 input  175.53 | X-H torsion
[ 8008 7997 7996 7995 ] final -136.36 input   59.86 | X-H torsion
[ 10167 10162 10161 10158 ] final  102.33 input  -65.29 | X-H torsion
[ 10718 10713 10712 10709 ] final  108.52 input   66.30 | X-H torsion
[ 10763 10752 10751 10750 ] final -141.21 input  -60.55 | X-H torsion
[ 11005 11000 10999 10996 ] final   89.12 input  -57.11 | X-H torsion

> <Gold.Protein.ActiveResidues>
 VAL166  LYS551  ARG553  GLY616  TRP617  ASP618  TYR619  PRO620  LYS621  CYS622 
 ASP623  PHE694  ASN695  SER759  ASP760  ASP761  ALA762  ILE779  LEU786  VAL792 
 PHE793  MET794  SER795  GLU796  ALA797  LYS798  CYS799  TRP800  GLU811  SER814 

> <Gold.Protein.RotatedAtoms>
  151.3324  133.3995  159.2663 H   0  0  0  0  0  0  0  0  0  0  0  0  # atno 6907 bound_to 6896
  150.9944  134.9272  159.7928 H   0  0  0  0  0  0  0  0  0  0  0  0  # atno 6908 bound_to 6896
  152.5257  134.3289  159.9228 H   0  0  0  0  0  0  0  0  0  0  0  0  # atno 6909 bound_to 6896
  144.7272  140.2826  143.6233 H   0  0  0  0  0  0  0  0  0  0  0  0  # atno 7974 bound_to 7965
  155.3939  140.0501  157.3039 H   0  0  0  0  0  0  0  0  0  0  0  0  # atno 8008 bound_to 7997
  154.5023  140.2161  155.9283 H   0  0  0  0  0  0  0  0  0  0  0  0  # atno 8009 bound_to 7997
  156.1482  140.3141  155.8610 H   0  0  0  0  0  0  0  0  0  0  0  0  # atno 8010 bound_to 7997
  139.7359  144.7024  151.0649 H   0  0  0  0  0  0  0  0  0  0  0  0  # atno 10167 bound_to 10162
  157.6582  131.0895  150.6317 H   0  0  0  0  0  0  0  0  0  0  0  0  # atno 10718 bound_to 10713
  154.8553  135.3531  154.5831 H   0  0  0  0  0  0  0  0  0  0  0  0  # atno 10763 bound_to 10752
  153.6441  135.6997  153.5236 H   0  0  0  0  0  0  0  0  0  0  0  0  # atno 10764 bound_to 10752
  153.2947  135.4224  155.1157 H   0  0  0  0  0  0  0  0  0  0  0  0  # atno 10765 bound_to 10752
  139.8882  134.8532  156.3098 H   0  0  0  0  0  0  0  0  0  0  0  0  # atno 11005 bound_to 11000
  145.7935  139.1936  143.2089 LP  0  0  0  0  0  0  0  0  0  0  0  0  # atno 17320 bound_to 7965
  146.0736  140.7841  142.9676 LP  0  0  0  0  0  0  0  0  0  0  0  0  # atno 17321 bound_to 7965
  140.7779  143.4984  150.9803 LP  0  0  0  0  0  0  0  0  0  0  0  0  # atno 17342 bound_to 10162
  139.8672  143.7238  152.3169 LP  0  0  0  0  0  0  0  0  0  0  0  0  # atno 17343 bound_to 10162
  156.6622  130.4515  149.5684 LP  0  0  0  0  0  0  0  0  0  0  0  0  # atno 17370 bound_to 10713
  156.2058  130.6648  151.1217 LP  0  0  0  0  0  0  0  0  0  0  0  0  # atno 17371 bound_to 10713
  140.9858  133.7239  156.0739 LP  0  0  0  0  0  0  0  0  0  0  0  0  # atno 17394 bound_to 11000
  140.7690  134.3854  157.5511 LP  0  0  0  0  0  0  0  0  0  0  0  0  # atno 17395 bound_to 11000

$$$$
