AV-unprocessed.smi:2849|AV-procd|sdf|10960|dock2
  -GOLD-   2272015413D 1   1.00000     0.00000
 Structure written by MMmdl.
 55 58  0  0  0  0  0  0  0  0  2 V2000
  142.0904  134.7965  153.2207 C   0  0  0  0  0  0  0  0  0  0  0  0
  143.4400  134.4295  153.7119 N   0  3  2  0  0  0  0  0  0  0  0  0
  143.9418  135.2599  154.8323 C   0  0  1  0  0  0  0  0  0  0  0  0
  145.1162  134.5252  155.5182 C   0  0  0  0  0  0  0  0  0  0  0  0
  146.2346  134.0949  154.5499 C   0  0  0  0  0  0  0  0  0  0  0  0
  145.6861  133.5329  153.2235 C   0  0  0  0  0  0  0  0  0  0  0  0
  144.4770  134.3153  152.6589 C   0  0  2  0  0  0  0  0  0  0  0  0
  144.8119  135.6969  152.0420 C   0  0  0  0  0  0  0  0  0  0  0  0
  145.0491  136.8479  153.0505 C   0  0  2  0  0  0  0  0  0  0  0  0
  146.4753  137.0835  153.2631 N   0  0  0  0  0  0  0  0  0  0  0  0
  147.0099  138.0128  154.0684 C   0  0  0  0  0  0  0  0  0  0  0  0
  146.3387  138.8108  154.7213 O   0  0  0  0  0  0  0  0  0  0  0  0
  148.3520  137.9493  154.0480 N   0  0  0  0  0  0  0  0  0  0  0  0
  149.2992  138.6741  154.8217 C   0  0  0  0  0  0  0  0  0  0  0  0
  150.6779  138.7810  154.5186 C   0  0  0  0  0  0  0  0  0  0  0  0
  151.5007  139.5578  155.3566 C   0  0  0  0  0  0  0  0  0  0  0  0
  150.9246  140.2102  156.4656 C   0  0  0  0  0  0  0  0  0  0  0  0
  151.7462  140.9898  157.2939 N   0  0  0  0  0  0  0  0  0  0  0  0
  151.3695  142.3887  157.4183 C   0  0  0  0  0  0  0  0  0  0  0  0
  152.1463  142.9103  158.6283 C   0  0  0  0  0  0  0  0  0  0  0  0
  152.4478  141.6623  159.4667 C   0  0  0  0  0  0  0  0  0  0  0  0
  151.8882  140.4918  158.6519 C   0  0  0  0  0  0  0  0  0  0  0  0
  149.6066  140.1122  156.7610 N   0  0  0  0  0  0  0  0  0  0  0  0
  148.8235  139.3656  155.9550 C   0  0  0  0  0  0  0  0  0  0  0  0
  144.2489  136.7079  154.3743 C   0  0  0  0  0  0  0  0  0  0  0  0
  142.0652  135.7968  152.7888 H   0  0  0  0  0  0  0  0  0  0  0  0
  141.3678  134.7633  154.0365 H   0  0  0  0  0  0  0  0  0  0  0  0
  141.7588  134.0913  152.4581 H   0  0  0  0  0  0  0  0  0  0  0  0
  143.1482  135.3222  155.5785 H   0  0  0  0  0  0  0  0  0  0  0  0
  145.5308  135.1349  156.3217 H   0  0  0  0  0  0  0  0  0  0  0  0
  144.7213  133.6290  155.9989 H   0  0  0  0  0  0  0  0  0  0  0  0
  146.9089  134.9232  154.3612 H   0  0  0  0  0  0  0  0  0  0  0  0
  146.8604  133.3426  155.0314 H   0  0  0  0  0  0  0  0  0  0  0  0
  146.4842  133.4754  152.4827 H   0  0  0  0  0  0  0  0  0  0  0  0
  145.3702  132.5036  153.3994 H   0  0  0  0  0  0  0  0  0  0  0  0
  144.0669  133.6989  151.8575 H   0  0  0  0  0  0  0  0  0  0  0  0
  145.6525  135.6083  151.3524 H   0  0  0  0  0  0  0  0  0  0  0  0
  143.9710  135.9855  151.4104 H   0  0  0  0  0  0  0  0  0  0  0  0
  144.6910  137.7554  152.5597 H   0  0  0  0  0  0  0  0  0  0  0  0
  147.1105  136.4812  152.7598 H   0  0  0  0  0  0  0  0  0  0  0  0
  148.7510  137.2890  153.3969 H   0  0  0  0  0  0  0  0  0  0  0  0
  151.1217  138.3018  153.6607 H   0  0  0  0  0  0  0  0  0  0  0  0
  152.5552  139.6567  155.1438 H   0  0  0  0  0  0  0  0  0  0  0  0
  151.6149  142.9444  156.5128 H   0  0  0  0  0  0  0  0  0  0  0  0
  150.2974  142.4873  157.5942 H   0  0  0  0  0  0  0  0  0  0  0  0
  153.0797  143.3730  158.3048 H   0  0  0  0  0  0  0  0  0  0  0  0
  151.5783  143.6586  159.1815 H   0  0  0  0  0  0  0  0  0  0  0  0
  153.5245  141.5545  159.6024 H   0  0  0  0  0  0  0  0  0  0  0  0
  151.9913  141.7106  160.4558 H   0  0  0  0  0  0  0  0  0  0  0  0
  150.9190  140.1875  159.0501 H   0  0  0  0  0  0  0  0  0  0  0  0
  152.5515  139.6271  158.6845 H   0  0  0  0  0  0  0  0  0  0  0  0
  147.7784  139.3220  156.2247 H   0  0  0  0  0  0  0  0  0  0  0  0
  143.2932  137.2122  154.2273 H   0  0  0  0  0  0  0  0  0  0  0  0
  144.7240  137.2616  155.1848 H   0  0  0  0  0  0  0  0  0  0  0  0
  143.3314  133.4990  154.0897 H   0  0  0  0  0  0  0  0  0  0  0  0
  1  2  1  0  0  0  0
  1 26  1  0  0  0  0
  1 27  1  0  0  0  0
  1 28  1  0  0  0  0
  2  7  1  0  0  0  0
  2  3  1  0  0  0  0
  2 55  1  0  0  0  0
  3 25  1  0  0  0  0
  3  4  1  0  0  0  0
  3 29  1  0  0  0  0
  4  5  1  0  0  0  0
  4 30  1  0  0  0  0
  4 31  1  0  0  0  0
  5  6  1  0  0  0  0
  5 32  1  0  0  0  0
  5 33  1  0  0  0  0
  6  7  1  0  0  0  0
  6 34  1  0  0  0  0
  6 35  1  0  0  0  0
  7  8  1  0  0  0  0
  7 36  1  0  0  0  0
  8  9  1  0  0  0  0
  8 37  1  0  0  0  0
  8 38  1  0  0  0  0
  9 10  1  0  0  0  0
  9 25  1  0  0  0  0
  9 39  1  0  0  0  0
 10 11  1  0  0  0  0
 10 40  1  0  0  0  0
 11 12  2  0  0  0  0
 11 13  1  0  0  0  0
 13 14  1  0  0  0  0
 13 41  1  0  0  0  0
 14 24  1  0  0  0  0
 14 15  2  0  0  0  0
 15 16  1  0  0  0  0
 15 42  1  0  0  0  0
 16 17  2  0  0  0  0
 16 43  1  0  0  0  0
 17 18  1  0  0  0  0
 17 23  1  0  0  0  0
 18 22  1  0  0  0  0
 18 19  1  0  0  0  0
 19 20  1  0  0  0  0
 19 44  1  0  0  0  0
 19 45  1  0  0  0  0
 20 21  1  0  0  0  0
 20 46  1  0  0  0  0
 20 47  1  0  0  0  0
 21 22  1  0  0  0  0
 21 48  1  0  0  0  0
 21 49  1  0  0  0  0
 22 50  1  0  0  0  0
 22 51  1  0  0  0  0
 23 24  2  0  0  0  0
 24 52  1  0  0  0  0
 25 53  1  0  0  0  0
 25 54  1  0  0  0  0
M  CHG  1   2   1
M  END
> <s_m_source_file>
AV-unprocessed.smi

> <i_m_source_file_index>
2849

> <i_lp_mmshare_version>
43012

> <i_f3d_flags>
0

> <s_epik_input>
W0NIMl0xW0NIMl1bQ0gyXVtDQEhdKE4oW0NIM10pW0NIXTEyKVtDSDJdW0NASF0oW0NIMl0yKVtOSF1DKD1PKVtOSF1jM1tjSF1bY0hdYyhuW2NIXTMpTjRbQ0gyXVtDSDJdW0NIMl1bQ0gyXTQ=

> <s_epik_cmdline>
J2VwaWtfcHl0aG9uJywgJy1waCcsICc3LjAnLCAnLXRuJywgJzgnLCAnLW1hJywgJzIwMCcsICctbWV0YWxfYmluZGluZycsICctaW1hZScsICc8aW5maWxlLm1hZT4nLCAnLW9tYWUnLCAnPG91dGZpbGUubWFlPic=

> <r_lp_tautomer_probability>
1

> <r_epik_Ionization_Penalty>
0.07954

> <r_epik_Ionization_Penalty_Charging>
0.00089841

> <r_epik_Ionization_Penalty_Neutral>
0.0786416

> <r_epik_State_Penalty>
0.0689917

> <r_epik_Charging_Adjusted_Penalty>
0.0698901

> <i_epik_Tot_Q>
1

> <i_epik_Tot_abs_Q>
1

> <r_epik_Metal_State_Penalty>
0.060891

> <b_epik_Metal_Only>
0

> <s_lp_Force_Field>
OPLS_2005

> <r_lp_Energy>
67.2414

> <b_lp_Chiralities_Consistent>
1

> <s_lp_Variant>
AV-unprocessed.smi:2849-4

> <Gold.Version>
5.8.1

> <Gold.Id.Protein>
6NUR|6NUR_protein|mol2

> <Gold.PLP.Fitness>
44.6618

> <Gold.PLP.PLP>
-32.8415

> <Gold.PLP.part.hbond>
-3.0000

> <Gold.PLP.part.metal>
0.0000

> <Gold.PLP.part.buried>
-5.6477

> <Gold.PLP.part.nonpolar>
-24.7461

> <Gold.PLP.part.repulsive>
0.0967

> <Gold.PLP.ligand.clash>
0.0000

> <Gold.PLP.ligand.torsion>
0.1240

> <Gold.PLP.Chemscore.Hbond>
4.0000

> <Gold.PLP.Chemscore.CHOScore>
0.0000

> <Gold.PLP.Chemscore.Metal>
0.0000

> <Gold.Chemscore.Hbonds>
donor molecule, donor type, donor heavy atom, donor atom, acceptor molecule, acceptor atom, score
      L1  H     2    55       P1 10957  2.00
      L1  H    10    40       P1  7948  0.90
      L1  H    13    41       P1  7948  1.00

> <Gold.PLP.Chemscore.Internal.Correction>
0.0683

> <Gold.Rescore>
     Score         DG    S(hbond)    S(metal)    S(lipo)     H(rot)  DE(clash)    DE(int)     intcor
     19.61     -22.00       2.86        0.00      85.27       1.18       0.00       2.39       ----

> <Gold.Chemscore.Fitness>
19.6063

> <Gold.Chemscore.DG>
-21.9964

> <Gold.Chemscore.ZeroCoef>
-5.4800

> <Gold.Chemscore.Hbond>
2.8606

> <Gold.Chemscore.Metal>
0.0000

> <Gold.Chemscore.Lipo>
85.2709

> <Gold.Chemscore.Internal_Hbond>
0.0000

> <Gold.Chemscore.DEClash>
0.0000

> <Gold.Chemscore.DEInternal>
2.3901

> <Gold.Chemscore.Rot>
1.1776

> <Gold.Chemscore.Internal.Correction>
   9.000000E+99

> <Gold.Chemscore.Hbonds>
donor molecule, donor type, donor heavy atom, donor atom, acceptor molecule, acceptor atom, score
      L1  H     2    55       P1 10957  0.97
      L1  H    10    40       P1  7948  0.83
      L1  H    13    41       P1  7948  1.00

> <Gold.Chemscore.Hbond.Weighted>
-9.5544

> <Gold.Chemscore.Metal.Weighted>
-0.0000

> <Gold.Chemscore.Lipo.Weighted>
-9.9767

> <Gold.Chemscore.Internal_Hbond.Weighted>
0.0000

> <Gold.Chemscore.DEClash.Weighted>
0.0000

> <Gold.Chemscore.DEInternal.Weighted>
2.3901

> <Gold.Chemscore.Rot.Weighted>
3.0147

> <Gold.Chemscore.Internal.Correction.Weighted>
   9.000000E+99

> <Gold.Protein.RotatedTorsions>
[ 6907 6896 6895 6894 ] final -141.46 input  -60.11 | X-H torsion
[ 7974 7965 7964 7962 ] final -166.72 input  175.53 | X-H torsion
[ 8008 7997 7996 7995 ] final   54.03 input   59.86 | X-H torsion
[ 10167 10162 10161 10158 ] final  174.72 input  -65.29 | X-H torsion
[ 10718 10713 10712 10709 ] final  -83.45 input   66.30 | X-H torsion
[ 10763 10752 10751 10750 ] final  162.04 input  -60.55 | X-H torsion
[ 11005 11000 10999 10996 ] final   -0.57 input  -57.11 | X-H torsion

> <Gold.Protein.ActiveResidues>
 VAL166  LYS551  ARG553  GLY616  TRP617  ASP618  TYR619  PRO620  LYS621  CYS622 
 ASP623  PHE694  ASN695  SER759  ASP760  ASP761  ALA762  ILE779  LEU786  VAL792 
 PHE793  MET794  SER795  GLU796  ALA797  LYS798  CYS799  TRP800  GLU811  SER814 

> <Gold.Protein.RotatedAtoms>
  151.0741  133.5442  159.2624 H   0  0  0  0  0  0  0  0  0  0  0  0  # atno 6907 bound_to 6896
  151.2371  135.0575  159.9020 H   0  0  0  0  0  0  0  0  0  0  0  0  # atno 6908 bound_to 6896
  152.5415  134.0521  159.8168 H   0  0  0  0  0  0  0  0  0  0  0  0  # atno 6909 bound_to 6896
  144.7239  140.2625  143.6263 H   0  0  0  0  0  0  0  0  0  0  0  0  # atno 7974 bound_to 7965
  155.4781  140.3467  155.4335 H   0  0  0  0  0  0  0  0  0  0  0  0  # atno 8008 bound_to 7997
  156.1057  140.1447  156.9436 H   0  0  0  0  0  0  0  0  0  0  0  0  # atno 8009 bound_to 7997
  154.4723  140.0897  156.7153 H   0  0  0  0  0  0  0  0  0  0  0  0  # atno 8010 bound_to 7997
  139.5151  144.3115  152.0287 H   0  0  0  0  0  0  0  0  0  0  0  0  # atno 10167 bound_to 10162
  156.0018  130.4666  150.4260 H   0  0  0  0  0  0  0  0  0  0  0  0  # atno 10718 bound_to 10713
  154.2722  135.2765  155.2733 H   0  0  0  0  0  0  0  0  0  0  0  0  # atno 10763 bound_to 10752
  154.5291  135.5734  153.6747 H   0  0  0  0  0  0  0  0  0  0  0  0  # atno 10764 bound_to 10752
  152.9943  135.6223  154.2877 H   0  0  0  0  0  0  0  0  0  0  0  0  # atno 10765 bound_to 10752
  140.6377  133.9517  155.8309 H   0  0  0  0  0  0  0  0  0  0  0  0  # atno 11005 bound_to 11000
  145.8122  139.2008  143.1986 LP  0  0  0  0  0  0  0  0  0  0  0  0  # atno 17320 bound_to 7965
  146.0586  140.7994  142.9746 LP  0  0  0  0  0  0  0  0  0  0  0  0  # atno 17321 bound_to 7965
  140.2559  144.4119  150.6204 LP  0  0  0  0  0  0  0  0  0  0  0  0  # atno 17342 bound_to 10162
  140.6192  143.2175  151.6730 LP  0  0  0  0  0  0  0  0  0  0  0  0  # atno 17343 bound_to 10162
  157.2312  131.0504  151.2491 LP  0  0  0  0  0  0  0  0  0  0  0  0  # atno 17370 bound_to 10713
  157.3709  130.7180  149.6564 LP  0  0  0  0  0  0  0  0  0  0  0  0  # atno 17371 bound_to 10713
  141.0629  134.0319  157.3633 LP  0  0  0  0  0  0  0  0  0  0  0  0  # atno 17394 bound_to 11000
  139.9092  135.0186  156.7618 LP  0  0  0  0  0  0  0  0  0  0  0  0  # atno 17395 bound_to 11000

$$$$
