AV-unprocessed.smi:1982|AV-procd|sdf|8021|dock9
  -GOLD-   2272010213D 1   1.00000     0.00000
 Structure written by MMmdl.
 36 37  0  0  0  0  0  0  0  0  1 V2000
  152.1285  144.8595  158.6817 C   0  0  0  0  0  0  0  0  0  0  0  0
  152.5118  143.3703  158.6910 C   0  0  1  0  0  0  0  0  0  0  0  0
  152.5543  142.7994  160.1225 C   0  0  0  0  0  0  0  0  0  0  0  0
  153.0416  141.3423  160.1312 C   0  0  0  0  0  0  0  0  0  0  0  0
  152.1986  140.4600  159.1987 C   0  0  0  0  0  0  0  0  0  0  0  0
  152.1591  141.0333  157.7689 C   0  0  1  0  0  0  0  0  0  0  0  0
  151.3669  140.1577  156.9099 N   0  0  0  0  0  0  0  0  0  0  0  0
  151.8393  139.4438  155.8761 C   0  0  0  0  0  0  0  0  0  0  0  0
  153.0286  139.4034  155.5627 O   0  0  0  0  0  0  0  0  0  0  0  0
  150.8057  138.6706  155.0579 C   0  0  0  0  0  0  0  0  0  0  0  0
  149.7459  139.5526  154.6062 N   0  0  0  0  0  0  0  0  0  0  0  0
  148.4890  139.2958  154.2381 C   0  0  0  0  0  0  0  0  0  0  0  0
  147.8535  140.3975  153.8692 N   0  0  0  0  0  0  0  0  0  0  0  0
  148.8118  141.3840  154.0331 N   0  0  0  0  0  0  0  0  0  0  0  0
  149.9370  140.8886  154.4700 N   0  0  0  0  0  0  0  0  0  0  0  0
  151.6369  142.4971  157.7521 C   0  0  1  0  0  0  0  0  0  0  0  0
  150.1199  142.6069  158.0374 C   0  0  0  0  0  0  0  0  0  0  0  0
  151.1592  145.0326  159.1492 H   0  0  0  0  0  0  0  0  0  0  0  0
  152.0871  145.2492  157.6645 H   0  0  0  0  0  0  0  0  0  0  0  0
  152.8622  145.4516  159.2295 H   0  0  0  0  0  0  0  0  0  0  0  0
  153.5303  143.3213  158.3024 H   0  0  0  0  0  0  0  0  0  0  0  0
  153.2162  143.4035  160.7440 H   0  0  0  0  0  0  0  0  0  0  0  0
  151.5675  142.8606  160.5820 H   0  0  0  0  0  0  0  0  0  0  0  0
  154.0861  141.3066  159.8184 H   0  0  0  0  0  0  0  0  0  0  0  0
  153.0109  140.9460  161.1465 H   0  0  0  0  0  0  0  0  0  0  0  0
  152.6122  139.4510  159.1846 H   0  0  0  0  0  0  0  0  0  0  0  0
  151.1876  140.3691  159.5975 H   0  0  0  0  0  0  0  0  0  0  0  0
  153.1843  141.0322  157.3927 H   0  0  0  0  0  0  0  0  0  0  0  0
  150.3735  140.1271  157.0891 H   0  0  0  0  0  0  0  0  0  0  0  0
  151.2786  138.2157  154.1866 H   0  0  0  0  0  0  0  0  0  0  0  0
  150.3805  137.8627  155.6554 H   0  0  0  0  0  0  0  0  0  0  0  0
  148.0466  138.3105  154.2341 H   0  0  0  0  0  0  0  0  0  0  0  0
  151.7825  142.8784  156.7402 H   0  0  0  0  0  0  0  0  0  0  0  0
  149.8649  142.2660  159.0403 H   0  0  0  0  0  0  0  0  0  0  0  0
  149.5337  142.0169  157.3326 H   0  0  0  0  0  0  0  0  0  0  0  0
  149.7685  143.6333  157.9395 H   0  0  0  0  0  0  0  0  0  0  0  0
  1  2  1  0  0  0  0
  1 18  1  0  0  0  0
  1 19  1  0  0  0  0
  1 20  1  0  0  0  0
  2 16  1  0  0  0  0
  2  3  1  0  0  0  0
  2 21  1  0  0  0  0
  3  4  1  0  0  0  0
  3 22  1  0  0  0  0
  3 23  1  0  0  0  0
  4  5  1  0  0  0  0
  4 24  1  0  0  0  0
  4 25  1  0  0  0  0
  5  6  1  0  0  0  0
  5 26  1  0  0  0  0
  5 27  1  0  0  0  0
  6  7  1  0  0  0  0
  6 16  1  0  0  0  0
  6 28  1  0  0  0  0
  7  8  1  0  0  0  0
  7 29  1  0  0  0  0
  8  9  2  0  0  0  0
  8 10  1  0  0  0  0
 10 11  1  0  0  0  0
 10 30  1  0  0  0  0
 10 31  1  0  0  0  0
 11 15  1  0  0  0  0
 11 12  1  0  0  0  0
 12 13  2  0  0  0  0
 12 32  1  0  0  0  0
 13 14  1  0  0  0  0
 14 15  2  0  0  0  0
 16 17  1  0  0  0  0
 16 33  1  0  0  0  0
 17 34  1  0  0  0  0
 17 35  1  0  0  0  0
 17 36  1  0  0  0  0
M  END
> <s_m_source_file>
AV-unprocessed.smi

> <i_m_source_file_index>
1982

> <i_lp_mmshare_version>
43012

> <i_f3d_flags>
0

> <s_epik_input>
W0NIM11bQ0BASF0xW0NIMl1bQ0gyXVtDSDJdW0NASF0oW0NASF0xW0NIM10pW05IXUMoPU8pW0NIMl1uMltjSF1ubm4y

> <s_epik_cmdline>
J2VwaWtfcHl0aG9uJywgJy1waCcsICc3LjAnLCAnLXRuJywgJzgnLCAnLW1hJywgJzIwMCcsICctbWV0YWxfYmluZGluZycsICctaW1hZScsICc8aW5maWxlLm1hZT4nLCAnLW9tYWUnLCAnPG91dGZpbGUubWFlPic=

> <r_lp_tautomer_probability>
1

> <r_epik_Ionization_Penalty>
5.03816e-07

> <r_epik_Ionization_Penalty_Charging>
0

> <r_epik_Ionization_Penalty_Neutral>
5.03816e-07

> <r_epik_State_Penalty>
-0

> <r_epik_Charging_Adjusted_Penalty>
0

> <i_epik_Tot_Q>
0

> <i_epik_Tot_abs_Q>
0

> <r_epik_Metal_State_Penalty>
-0

> <b_epik_Metal_Only>
0

> <s_lp_Force_Field>
OPLS_2005

> <r_lp_Energy>
14.9892

> <b_lp_Chiralities_Consistent>
1

> <s_lp_Variant>
AV-unprocessed.smi:1982-2

> <Gold.Version>
5.8.1

> <Gold.Id.Protein>
6NUR|6NUR_protein|mol2

> <Gold.PLP.Fitness>
43.3161

> <Gold.PLP.PLP>
-36.7553

> <Gold.PLP.part.hbond>
-3.4632

> <Gold.PLP.part.metal>
0.0000

> <Gold.PLP.part.buried>
-5.0918

> <Gold.PLP.part.nonpolar>
-28.7247

> <Gold.PLP.part.repulsive>
1.6093

> <Gold.PLP.ligand.clash>
0.0000

> <Gold.PLP.ligand.torsion>
0.3859

> <Gold.PLP.Chemscore.Hbond>
2.4400

> <Gold.PLP.Chemscore.CHOScore>
0.0000

> <Gold.PLP.Chemscore.Metal>
0.0000

> <Gold.Chemscore.Hbonds>
donor molecule, donor type, donor heavy atom, donor atom, acceptor molecule, acceptor atom, score
      P1  H  7989  7998       L1    15  0.66
      P1  H  7997  8009       L1     9  1.00
      P1  H  8011  8017       L1    14  0.25

> <Gold.PLP.Chemscore.Internal.Correction>
0.0125

> <Gold.Rescore>
     Score         DG    S(hbond)    S(metal)    S(lipo)     H(rot)  DE(clash)    DE(int)     intcor
     16.81     -17.55       1.99        0.00      88.09       1.91       0.37       0.36       ----

> <Gold.Chemscore.Fitness>
16.8114

> <Gold.Chemscore.DG>
-17.5458

> <Gold.Chemscore.ZeroCoef>
-5.4800

> <Gold.Chemscore.Hbond>
1.9876

> <Gold.Chemscore.Metal>
0.0000

> <Gold.Chemscore.Lipo>
88.0874

> <Gold.Chemscore.Internal_Hbond>
0.0000

> <Gold.Chemscore.DEClash>
0.3729

> <Gold.Chemscore.DEInternal>
0.3616

> <Gold.Chemscore.Rot>
1.9058

> <Gold.Chemscore.Internal.Correction>
   9.000000E+99

> <Gold.Chemscore.Hbonds>
donor molecule, donor type, donor heavy atom, donor atom, acceptor molecule, acceptor atom, score
      P1  H  7989  7998       L1    15  0.17
      P1  H  7997  8009       L1     9  0.99
      P1  H  8011  8017       L1    14  0.02

> <Gold.Chemscore.Hbond.Weighted>
-6.6384

> <Gold.Chemscore.Metal.Weighted>
-0.0000

> <Gold.Chemscore.Lipo.Weighted>
-10.3062

> <Gold.Chemscore.Internal_Hbond.Weighted>
0.0000

> <Gold.Chemscore.DEClash.Weighted>
0.3729

> <Gold.Chemscore.DEInternal.Weighted>
0.3616

> <Gold.Chemscore.Rot.Weighted>
4.8788

> <Gold.Chemscore.Internal.Correction.Weighted>
   9.000000E+99

> <Gold.Protein.RotatedTorsions>
[ 6907 6896 6895 6894 ] final  112.24 input  -60.11 | X-H torsion
[ 7974 7965 7964 7962 ] final  -64.33 input  175.53 | X-H torsion
[ 8008 7997 7996 7995 ] final -133.09 input   59.86 | X-H torsion
[ 10167 10162 10161 10158 ] final  172.80 input  -65.29 | X-H torsion
[ 10718 10713 10712 10709 ] final  104.88 input   66.30 | X-H torsion
[ 10763 10752 10751 10750 ] final   86.23 input  -60.55 | X-H torsion
[ 11005 11000 10999 10996 ] final  -15.27 input  -57.11 | X-H torsion

> <Gold.Protein.ActiveResidues>
 VAL166  LYS551  ARG553  GLY616  TRP617  ASP618  TYR619  PRO620  LYS621  CYS622 
 ASP623  PHE694  ASN695  SER759  ASP760  ASP761  ALA762  ILE779  LEU786  VAL792 
 PHE793  MET794  SER795  GLU796  ALA797  LYS798  CYS799  TRP800  GLU811  SER814 

> <Gold.Protein.RotatedAtoms>
  152.4927  133.8543  159.7217 H   0  0  0  0  0  0  0  0  0  0  0  0  # atno 6907 bound_to 6896
  150.9072  133.7034  159.2870 H   0  0  0  0  0  0  0  0  0  0  0  0  # atno 6908 bound_to 6896
  151.4456  135.1029  159.9735 H   0  0  0  0  0  0  0  0  0  0  0  0  # atno 6909 bound_to 6896
  145.7680  140.8827  143.0395 H   0  0  0  0  0  0  0  0  0  0  0  0  # atno 7974 bound_to 7965
  155.3397  140.0471  157.3044 H   0  0  0  0  0  0  0  0  0  0  0  0  # atno 8008 bound_to 7997
  154.5284  140.2248  155.8814 H   0  0  0  0  0  0  0  0  0  0  0  0  # atno 8009 bound_to 7997
  156.1763  140.3084  155.9071 H   0  0  0  0  0  0  0  0  0  0  0  0  # atno 8010 bound_to 7997
  139.5088  144.3333  152.0090 H   0  0  0  0  0  0  0  0  0  0  0  0  # atno 10167 bound_to 10162
  157.6725  131.0814  150.5772 H   0  0  0  0  0  0  0  0  0  0  0  0  # atno 10718 bound_to 10713
  153.1551  135.4588  154.9692 H   0  0  0  0  0  0  0  0  0  0  0  0  # atno 10763 bound_to 10752
  154.7855  135.3202  154.7898 H   0  0  0  0  0  0  0  0  0  0  0  0  # atno 10764 bound_to 10752
  153.8397  135.6931  153.4859 H   0  0  0  0  0  0  0  0  0  0  0  0  # atno 10765 bound_to 10752
  140.7949  133.8259  155.9414 H   0  0  0  0  0  0  0  0  0  0  0  0  # atno 11005 bound_to 11000
  144.6818  139.9815  143.7483 LP  0  0  0  0  0  0  0  0  0  0  0  0  # atno 17320 bound_to 7965
  146.0198  139.3241  143.0819 LP  0  0  0  0  0  0  0  0  0  0  0  0  # atno 17321 bound_to 7965
  140.2772  144.3899  150.6131 LP  0  0  0  0  0  0  0  0  0  0  0  0  # atno 17342 bound_to 10162
  140.6045  143.2167  151.7008 LP  0  0  0  0  0  0  0  0  0  0  0  0  # atno 17343 bound_to 10162
  156.6073  130.4370  149.5873 LP  0  0  0  0  0  0  0  0  0  0  0  0  # atno 17370 bound_to 10713
  156.2458  130.6878  151.1599 LP  0  0  0  0  0  0  0  0  0  0  0  0  # atno 17371 bound_to 10713
  140.9353  134.1970  157.4836 LP  0  0  0  0  0  0  0  0  0  0  0  0  # atno 17394 bound_to 11000
  139.8727  134.9849  156.5261 LP  0  0  0  0  0  0  0  0  0  0  0  0  # atno 17395 bound_to 11000

$$$$
