#       Name:                AV-unprocessed.smi:196
#       Creating user name   scv26
#       Creation time:       Thu Mar 26 19:38:40 2020


#       File generated by GOLD software.
#

@<TRIPOS>MOLECULE
AV-unprocessed.smi:196
    57    60     1
SMALL
NO_CHARGES


@<TRIPOS>ATOM
      1 ****        -2.8264  -2.4900   4.3792 C.3            1 S1                 0.0000
      2 ****        -2.2526  -3.1726   3.1267 C.3            1 S1                 0.0000
      3 ****        -3.2400  -3.9926   2.5025 O.3            1 S1                 0.0000
      4 ****        -3.4239  -3.5943   1.1515 C.3            1 S1                 0.0000
      5 ****        -2.0917  -2.9696   0.7578 C.3            1 S1                 0.0000
      6 ****        -1.6800  -2.2431   2.0306 C.3            1 S1                 0.0000
      7 ****        -2.3249  -0.9791   2.0498 O.3            1 S1                 0.0000
      8 ****        -0.1550  -2.0186   2.1620 C.3            1 S1                 0.0000
      9 ****         0.4147  -1.2624   1.0577 N.pl3          1 S1                 0.0000
     10 ****         0.9173  -1.7724  -0.1188 C.2            1 S1                 0.0000
     11 ****         1.3730  -0.8856  -0.9613 N.2            1 S1                 0.0000
     12 ****         1.1751   0.3264  -0.3127 C.ar           1 S1                 0.0000
     13 ****         1.4365   1.6800  -0.6496 C.ar           1 S1                 0.0000
     14 ****         1.9919   2.0309  -1.8329 N.3            1 S1                 0.0000
     15 ****         3.2641   2.7432  -1.7339 C.3            1 S1                 0.0000
     16 ****         3.0191   4.1157  -2.3513 C.3            1 S1                 0.0000
     17 ****         4.1280   4.6634  -2.8477 F              1 S1                 0.0000
     18 ****         1.9863   3.8079  -3.4246 C.3            1 S1                 0.0000
     19 ****         1.0958   2.7482  -2.7544 C.3            1 S1                 0.0000
     20 ****         0.4043   1.8492  -3.7956 C.2            1 S1                 0.0000
     21 ****         0.7088   0.5481  -3.8296 N.am           1 S1                 0.0000
     22 ****        -0.4160   2.3368  -4.5701 O.2            1 S1                 0.0000
     23 ****         1.1106   2.6368   0.2597 N.ar           1 S1                 0.0000
     24 ****         0.5567   2.2882   1.4252 C.ar           1 S1                 0.0000
     25 ****         0.2500   1.0681   1.8721 N.ar           1 S1                 0.0000
     26 ****         0.5804   0.1082   0.9610 C.ar           1 S1                 0.0000
     27 ****         2.6064   4.8022  -1.6107 H              1 S1                 0.0000
     28 ****         0.3127   3.2630  -2.1936 H              1 S1                 0.0000
     29 ****        -2.0785  -1.8578   4.8583 H              1 S1                 0.0000
     30 ****        -3.1491  -3.2328   5.1088 H              1 S1                 0.0000
     31 ****        -3.6915  -1.8709   4.1404 H              1 S1                 0.0000
     32 ****        -1.4692  -3.8602   3.4481 H              1 S1                 0.0000
     33 ****        -3.6977  -4.4385   0.5186 H              1 S1                 0.0000
     34 ****        -4.2256  -2.8560   1.1027 H              1 S1                 0.0000
     35 ****        -1.3789  -3.7634   0.5298 H              1 S1                 0.0000
     36 ****        -2.1639  -2.3217  -0.1169 H              1 S1                 0.0000
     37 ****        -1.9706  -0.4497   1.3517 H              1 S1                 0.0000
     38 ****         0.0728  -1.4991   3.0937 H              1 S1                 0.0000
     39 ****         0.3643  -2.9765   2.2133 H              1 S1                 0.0000
     40 ****         0.9310  -2.8307  -0.3362 H              1 S1                 0.0000
     41 ****         3.6538   2.8219  -0.7172 H              1 S1                 0.0000
     42 ****         3.9997   2.1890  -2.3183 H              1 S1                 0.0000
     43 ****         1.4292   4.6925  -3.7344 H              1 S1                 0.0000
     44 ****         2.4839   3.3982  -4.3059 H              1 S1                 0.0000
     45 ****         0.2661  -0.0541  -4.5091 H              1 S1                 0.0000
     46 ****         1.3827   0.1728  -3.1781 H              1 S1                 0.0000
     47 ****         0.3256   3.1032   2.0953 H              1 S1                 0.0000
     48 ****        -4.1055  -3.9007   2.9950 LP             1 S1                 0.0000
     49 ****        -2.9417  -4.9467   2.5282 LP             1 S1                 0.0000
     50 ****        -2.1618  -0.5309   2.9287 LP             1 S1                 0.0000
     51 ****        -3.3083  -1.1004   1.9150 LP             1 S1                 0.0000
     52 ****         1.7722  -1.0426  -1.8646 LP             1 S1                 0.0000
     53 ****         2.1785   1.1322  -2.2298 LP             1 S1                 0.0000
     54 ****        -0.6310   3.3122  -4.5217 LP             1 S1                 0.0000
     55 ****        -0.8685   1.7581  -5.2486 LP             1 S1                 0.0000
     56 ****         1.2851   3.6003   0.0568 LP             1 S1                 0.0000
     57 ****        -0.1684   0.8817   2.7611 LP             1 S1                 0.0000
@<TRIPOS>BOND
    1    1    2 1     
    2    1   29 1     
    3    1   30 1     
    4    1   31 1     
    5    2    6 1     
    6    2    3 1     
    7    2   32 1     
    8    3    4 1     
    9    4    5 1     
   10    4   33 1     
   11    4   34 1     
   12    5    6 1     
   13    5   35 1     
   14    5   36 1     
   15    6    7 1     
   16    6    8 1     
   17    7   37 1     
   18    8    9 1     
   19    8   38 1     
   20    8   39 1     
   21    9   26 1     
   22    9   10 1     
   23   10   11 2     
   24   10   40 1     
   25   11   12 1     
   26   12   26 ar    
   27   12   13 ar    
   28   13   14 1     
   29   13   23 ar    
   30   14   19 1     
   31   14   15 1     
   32   15   16 1     
   33   15   41 1     
   34   15   42 1     
   35   16   27 1     
   36   16   17 1     
   37   16   18 1     
   38   18   19 1     
   39   18   43 1     
   40   18   44 1     
   41   19   28 1     
   42   19   20 1     
   43   20   21 am    
   44   20   22 2     
   45   21   45 1     
   46   21   46 1     
   47   23   24 ar    
   48   24   25 ar    
   49   24   47 1     
   50   25   26 ar    
   51    3   48 1     
   52    3   49 1     
   53    7   50 1     
   54    7   51 1     
   55   11   52 1     
   56   14   53 1     
   57   22   54 1     
   58   22   55 1     
   59   23   56 1     
   60   25   57 1     
@<TRIPOS>SUBSTRUCTURE
      1 S1             1
@<TRIPOS>SET
LONE_PAIRS      STATIC     ATOMS    <user>   **** ""
10 48 49 50 51 52 53 54 55 56 57
DONOR_HYDROGENS      STATIC     ATOMS    <user>   **** ""
3 37 45 46
ATOM$BLUE        STATIC     ATOMS    COLORGROUP SYSTEM
10 48 49 50 51 52 53 54 55 56 57
ATOM$RED        STATIC     ATOMS    COLORGROUP SYSTEM
3 37 45 46
