AV-unprocessed.smi:1410|AV-procd|sdf|5732|dock9
  -GOLD-   22720 5363D 1   1.00000     0.00000
 Structure written by MMmdl.
 40 41  0  0  0  0  0  0  0  0  2 V2000
  146.6147  136.3942  152.8903 N   0  0  0  0  0  0  0  0  0  0  0  0
  145.8817  137.4453  152.5148 C   0  0  0  0  0  0  0  0  0  0  0  0
  144.6866  137.5431  152.7854 O   0  0  0  0  0  0  0  0  0  0  0  0
  146.5941  138.5510  151.7263 C   0  0  0  0  0  0  0  0  0  0  0  0
  147.2607  139.5725  152.5661 N   0  0  0  0  0  0  0  0  0  0  0  0
  148.1247  138.9028  153.5437 C   0  0  0  0  0  0  0  0  0  0  0  0
  148.9373  139.9341  154.3454 C   0  0  0  0  0  0  0  0  0  0  0  0
  148.0133  140.9208  155.0721 C   0  0  0  0  0  0  0  0  0  0  0  0
  148.8083  141.9520  155.7323 N   0  0  0  0  0  0  0  0  0  0  0  0
  149.5668  141.7627  156.8214 C   0  0  0  0  0  0  0  0  0  0  0  0
  149.6689  140.6800  157.3979 O   0  0  0  0  0  0  0  0  0  0  0  0
  150.1703  142.9035  157.1982 N   0  0  0  0  0  0  0  0  0  0  0  0
  151.0625  143.1186  158.2841 C   0  0  0  0  0  0  0  0  0  0  0  0
  151.3099  144.4546  158.6709 C   0  0  0  0  0  0  0  0  0  0  0  0
  152.2000  144.7189  159.7319 C   0  0  0  0  0  0  0  0  0  0  0  0
  152.8157  143.6965  160.3634 N   0  3  0  0  0  0  0  0  0  0  0  0
  152.6224  142.4048  160.0210 C   0  0  0  0  0  0  0  0  0  0  0  0
  151.7437  142.0788  158.9677 C   0  0  0  0  0  0  0  0  0  0  0  0
  147.0451  141.5404  154.0509 C   0  0  0  0  0  0  0  0  0  0  0  0
  146.3039  140.4535  153.2524 C   0  0  0  0  0  0  0  0  0  0  0  0
  146.1838  135.6456  153.4133 H   0  0  0  0  0  0  0  0  0  0  0  0
  147.5952  136.3512  152.6534 H   0  0  0  0  0  0  0  0  0  0  0  0
  147.3197  138.1079  151.0411 H   0  0  0  0  0  0  0  0  0  0  0  0
  145.8380  139.0329  151.1045 H   0  0  0  0  0  0  0  0  0  0  0  0
  147.5290  138.2841  154.2177 H   0  0  0  0  0  0  0  0  0  0  0  0
  148.8169  138.2345  153.0292 H   0  0  0  0  0  0  0  0  0  0  0  0
  149.5755  139.4202  155.0652 H   0  0  0  0  0  0  0  0  0  0  0  0
  149.6039  140.4730  153.6698 H   0  0  0  0  0  0  0  0  0  0  0  0
  147.4412  140.3693  155.8207 H   0  0  0  0  0  0  0  0  0  0  0  0
  148.7762  142.8761  155.3266 H   0  0  0  0  0  0  0  0  0  0  0  0
  149.9205  143.7286  156.6730 H   0  0  0  0  0  0  0  0  0  0  0  0
  150.8189  145.2733  158.1646 H   0  0  0  0  0  0  0  0  0  0  0  0
  152.4373  145.7101  160.0898 H   0  0  0  0  0  0  0  0  0  0  0  0
  153.1773  141.6744  160.5917 H   0  0  0  0  0  0  0  0  0  0  0  0
  151.6209  141.0408  158.6990 H   0  0  0  0  0  0  0  0  0  0  0  0
  146.3204  142.1782  154.5581 H   0  0  0  0  0  0  0  0  0  0  0  0
  147.5927  142.1845  153.3607 H   0  0  0  0  0  0  0  0  0  0  0  0
  145.6486  140.9510  152.5374 H   0  0  0  0  0  0  0  0  0  0  0  0
  145.6621  139.8691  153.9143 H   0  0  0  0  0  0  0  0  0  0  0  0
  153.4572  143.9090  161.1280 H   0  0  0  0  0  0  0  0  0  0  0  0
  1  2  1  0  0  0  0
  1 21  1  0  0  0  0
  1 22  1  0  0  0  0
  2  3  2  0  0  0  0
  2  4  1  0  0  0  0
  4  5  1  0  0  0  0
  4 23  1  0  0  0  0
  4 24  1  0  0  0  0
  5 20  1  0  0  0  0
  5  6  1  0  0  0  0
  6  7  1  0  0  0  0
  6 25  1  0  0  0  0
  6 26  1  0  0  0  0
  7  8  1  0  0  0  0
  7 27  1  0  0  0  0
  7 28  1  0  0  0  0
  8  9  1  0  0  0  0
  8 19  1  0  0  0  0
  8 29  1  0  0  0  0
  9 10  1  0  0  0  0
  9 30  1  0  0  0  0
 10 11  2  0  0  0  0
 10 12  1  0  0  0  0
 12 13  1  0  0  0  0
 12 31  1  0  0  0  0
 13 18  1  0  0  0  0
 13 14  2  0  0  0  0
 14 15  1  0  0  0  0
 14 32  1  0  0  0  0
 15 16  2  0  0  0  0
 15 33  1  0  0  0  0
 16 17  1  0  0  0  0
 16 40  1  0  0  0  0
 17 18  2  0  0  0  0
 17 34  1  0  0  0  0
 18 35  1  0  0  0  0
 19 20  1  0  0  0  0
 19 36  1  0  0  0  0
 19 37  1  0  0  0  0
 20 38  1  0  0  0  0
 20 39  1  0  0  0  0
M  CHG  1  16   1
M  END
> <s_m_source_file>
AV-unprocessed.smi

> <i_m_source_file_index>
1410

> <i_lp_mmshare_version>
43012

> <i_f3d_flags>
0

> <s_epik_input>
W05IMl1DKD1PKVtDSDJdTjFbQ0gyXVtDSDJdW0NIXShbQ0gyXVtDSDJdMSlbTkhdQyg9TylbTkhdYzJbY0hdW2NIXW5bY0hdW2NIXTI=

> <s_epik_cmdline>
J2VwaWtfcHl0aG9uJywgJy1waCcsICc3LjAnLCAnLXRuJywgJzgnLCAnLW1hJywgJzIwMCcsICctbWV0YWxfYmluZGluZycsICctaW1hZScsICc8aW5maWxlLm1hZT4nLCAnLW9tYWUnLCAnPG91dGZpbGUubWFlPic=

> <r_epik_Ionization_Penalty>
1.15133

> <r_epik_Ionization_Penalty_Charging>
0.995513

> <r_epik_Ionization_Penalty_Neutral>
0.155816

> <r_epik_State_Penalty>
1.22158

> <r_epik_Charging_Adjusted_Penalty>
2.2171

> <i_epik_Tot_Q>
1

> <i_epik_Tot_abs_Q>
1

> <r_epik_Metal_State_Penalty>
1.3359

> <b_epik_Metal_Only>
0

> <s_lp_Force_Field>
OPLS_2005

> <r_lp_Energy>
21.9587

> <b_lp_Chiralities_Consistent>
1

> <s_lp_Variant>
AV-unprocessed.smi:1410-4

> <Gold.Version>
5.8.1

> <Gold.Id.Protein>
6NUR|6NUR_protein|mol2

> <Gold.PLP.Fitness>
39.2819

> <Gold.PLP.PLP>
-31.6315

> <Gold.PLP.part.hbond>
-3.0000

> <Gold.PLP.part.metal>
0.0000

> <Gold.PLP.part.buried>
-0.9872

> <Gold.PLP.part.nonpolar>
-32.0814

> <Gold.PLP.part.repulsive>
3.2364

> <Gold.PLP.ligand.clash>
0.0000

> <Gold.PLP.ligand.torsion>
0.5939

> <Gold.PLP.Chemscore.Hbond>
2.9440

> <Gold.PLP.Chemscore.CHOScore>
0.0000

> <Gold.PLP.Chemscore.Metal>
0.0000

> <Gold.Chemscore.Hbonds>
donor molecule, donor type, donor heavy atom, donor atom, acceptor molecule, acceptor atom, score
      L1  H     1    22       P1  7948  1.00
      L1  H     9    30       P1  8028  0.93
      L1  H    12    31       P1  8028  1.00

> <Gold.PLP.Chemscore.Internal.Correction>
0.0062

> <Gold.Rescore>
     Score         DG    S(hbond)    S(metal)    S(lipo)     H(rot)  DE(clash)    DE(int)     intcor
     17.92     -21.18       2.89        0.00      94.80       1.96       1.65       1.61       ----

> <Gold.Chemscore.Fitness>
17.9177

> <Gold.Chemscore.DG>
-21.1783

> <Gold.Chemscore.ZeroCoef>
-5.4800

> <Gold.Chemscore.Hbond>
2.8853

> <Gold.Chemscore.Metal>
0.0000

> <Gold.Chemscore.Lipo>
94.8010

> <Gold.Chemscore.Internal_Hbond>
0.0000

> <Gold.Chemscore.DEClash>
1.6485

> <Gold.Chemscore.DEInternal>
1.6121

> <Gold.Chemscore.Rot>
1.9650

> <Gold.Chemscore.Internal.Correction>
   9.000000E+99

> <Gold.Chemscore.Hbonds>
donor molecule, donor type, donor heavy atom, donor atom, acceptor molecule, acceptor atom, score
      L1  H     1    22       P1  7948  0.97
      L1  H     9    30       P1  8028  0.91
      L1  H    12    31       P1  8028  0.98

> <Gold.Chemscore.Hbond.Weighted>
-9.6369

> <Gold.Chemscore.Metal.Weighted>
-0.0000

> <Gold.Chemscore.Lipo.Weighted>
-11.0917

> <Gold.Chemscore.Internal_Hbond.Weighted>
0.0000

> <Gold.Chemscore.DEClash.Weighted>
1.6485

> <Gold.Chemscore.DEInternal.Weighted>
1.6121

> <Gold.Chemscore.Rot.Weighted>
5.0303

> <Gold.Chemscore.Internal.Correction.Weighted>
   9.000000E+99

> <Gold.Protein.RotatedTorsions>
[ 6907 6896 6895 6894 ] final    1.53 input  -60.11 | X-H torsion
[ 7974 7965 7964 7962 ] final -132.67 input  175.53 | X-H torsion
[ 8008 7997 7996 7995 ] final  150.86 input   59.86 | X-H torsion
[ 10167 10162 10161 10158 ] final -133.09 input  -65.29 | X-H torsion
[ 10718 10713 10712 10709 ] final   40.93 input   66.30 | X-H torsion
[ 10763 10752 10751 10750 ] final  -56.41 input  -60.55 | X-H torsion
[ 11005 11000 10999 10996 ] final -126.11 input  -57.11 | X-H torsion

> <Gold.Protein.ActiveResidues>
 VAL166  LYS551  ARG553  GLY616  TRP617  ASP618  TYR619  PRO620  LYS621  CYS622 
 ASP623  PHE694  ASN695  SER759  ASP760  ASP761  ALA762  ILE779  LEU786  VAL792 
 PHE793  MET794  SER795  GLU796  ALA797  LYS798  CYS799  TRP800  GLU811  SER814 

> <Gold.Protein.RotatedAtoms>
  151.5941  135.1051  160.0045 H   0  0  0  0  0  0  0  0  0  0  0  0  # atno 6907 bound_to 6896
  152.4291  133.7242  159.6561 H   0  0  0  0  0  0  0  0  0  0  0  0  # atno 6908 bound_to 6896
  150.8182  133.8228  159.3173 H   0  0  0  0  0  0  0  0  0  0  0  0  # atno 6909 bound_to 6896
  144.9264  140.7076  143.4933 H   0  0  0  0  0  0  0  0  0  0  0  0  # atno 7974 bound_to 7965
  156.2698  140.2063  156.6085 H   0  0  0  0  0  0  0  0  0  0  0  0  # atno 8008 bound_to 7997
  154.6850  140.0536  157.0329 H   0  0  0  0  0  0  0  0  0  0  0  0  # atno 8009 bound_to 7997
  155.0946  140.3200  155.4567 H   0  0  0  0  0  0  0  0  0  0  0  0  # atno 8010 bound_to 7997
  139.9018  143.6598  152.2593 H   0  0  0  0  0  0  0  0  0  0  0  0  # atno 10167 bound_to 10162
  157.3877  130.7789  149.7244 H   0  0  0  0  0  0  0  0  0  0  0  0  # atno 10718 bound_to 10713
  154.2061  135.6402  153.5101 H   0  0  0  0  0  0  0  0  0  0  0  0  # atno 10763 bound_to 10752
  153.0000  135.5463  154.6264 H   0  0  0  0  0  0  0  0  0  0  0  0  # atno 10764 bound_to 10752
  154.5689  135.2915  155.0820 H   0  0  0  0  0  0  0  0  0  0  0  0  # atno 10765 bound_to 10752
  140.9708  134.0808  157.3871 H   0  0  0  0  0  0  0  0  0  0  0  0  # atno 11005 bound_to 11000
  145.3213  139.1787  143.4586 LP  0  0  0  0  0  0  0  0  0  0  0  0  # atno 17320 bound_to 7965
  146.3228  140.3230  142.8634 LP  0  0  0  0  0  0  0  0  0  0  0  0  # atno 17321 bound_to 7965
  139.7018  144.7634  151.1260 LP  0  0  0  0  0  0  0  0  0  0  0  0  # atno 17342 bound_to 10162
  140.7705  143.5447  150.9272 LP  0  0  0  0  0  0  0  0  0  0  0  0  # atno 17343 bound_to 10162
  155.9791  130.4044  150.3610 LP  0  0  0  0  0  0  0  0  0  0  0  0  # atno 17370 bound_to 10713
  157.1722  131.0371  151.2790 LP  0  0  0  0  0  0  0  0  0  0  0  0  # atno 17371 bound_to 10713
  139.8911  135.0116  156.6775 LP  0  0  0  0  0  0  0  0  0  0  0  0  # atno 17394 bound_to 11000
  140.7332  133.9041  155.8226 LP  0  0  0  0  0  0  0  0  0  0  0  0  # atno 17395 bound_to 11000

$$$$
