AV-unprocessed.smi:2124|AV-procd|sdf|8660|dock4
  -GOLD-   2272011413D 1   1.00000     0.00000
 Structure written by MMmdl.
 47 49  0  0  0  0  0  0  0  0  1 V2000
  155.8969  140.2768  163.1144 C   0  0  0  0  0  0  0  0  0  0  0  0
  155.0476  140.5724  161.8971 C   0  0  0  0  0  0  0  0  0  0  0  0
  154.2723  141.7131  162.0238 N   0  0  0  0  0  0  0  0  0  0  0  0
  153.4482  142.0569  160.9669 C   0  0  0  0  0  0  0  0  0  0  0  0
  152.6239  143.3124  161.1920 C   0  0  0  0  0  0  0  0  0  0  0  0
  153.4092  141.3090  159.8351 C   0  0  0  0  0  0  0  0  0  0  0  0
  152.5155  141.6526  158.6438 C   0  0  0  0  0  0  0  0  0  0  0  0
  151.7274  140.4936  158.0273 C   0  0  0  0  0  0  0  0  0  0  0  0
  151.0148  139.7749  158.7287 O   0  0  0  0  0  0  0  0  0  0  0  0
  151.8651  140.3360  156.7015 N   0  0  0  0  0  0  0  0  0  0  0  0
  151.2034  139.3226  155.8809 C   0  0  2  0  0  0  0  0  0  0  0  0
  152.2821  138.5538  155.0995 C   0  0  0  0  0  0  0  0  0  0  0  0
  150.1615  139.9876  154.9469 C   0  0  1  0  0  0  0  0  0  0  0  0
  149.3013  138.9702  154.1572 C   0  0  0  0  0  0  0  0  0  0  0  0
  147.8585  139.3946  154.4831 C   0  0  2  0  0  0  0  0  0  0  0  0
  147.5518  140.7427  153.8067 C   0  0  0  0  0  0  0  0  0  0  0  0
  148.3737  141.7362  154.6484 C   0  0  0  0  0  0  0  0  0  0  0  0
  149.0709  140.8200  155.6720 C   0  0  1  0  0  0  0  0  0  0  0  0
  147.9798  139.7913  155.9483 C   0  0  0  0  0  0  0  0  0  0  0  0
  154.2790  140.1122  159.7488 C   0  0  0  0  0  0  0  0  0  0  0  0
  154.3086  139.4096  158.7391 O   0  0  0  0  0  0  0  0  0  0  0  0
  155.0824  139.7962  160.8566 N   0  0  0  0  0  0  0  0  0  0  0  0
  154.2729  142.2994  162.8461 H   0  0  0  0  0  0  0  0  0  0  0  0
  156.3653  139.2949  163.0340 H   0  0  0  0  0  0  0  0  0  0  0  0
  155.2874  140.2888  164.0187 H   0  0  0  0  0  0  0  0  0  0  0  0
  156.6839  141.0244  163.2162 H   0  0  0  0  0  0  0  0  0  0  0  0
  151.5593  143.0792  161.1680 H   0  0  0  0  0  0  0  0  0  0  0  0
  152.8339  144.0502  160.4170 H   0  0  0  0  0  0  0  0  0  0  0  0
  152.8439  143.7699  162.1575 H   0  0  0  0  0  0  0  0  0  0  0  0
  153.1335  142.0856  157.8572 H   0  0  0  0  0  0  0  0  0  0  0  0
  151.8172  142.4454  158.9151 H   0  0  0  0  0  0  0  0  0  0  0  0
  152.4714  140.9810  156.2156 H   0  0  0  0  0  0  0  0  0  0  0  0
  150.6873  138.6046  156.5202 H   0  0  0  0  0  0  0  0  0  0  0  0
  151.8512  137.7545  154.4969 H   0  0  0  0  0  0  0  0  0  0  0  0
  153.0027  138.0943  155.7769 H   0  0  0  0  0  0  0  0  0  0  0  0
  152.8326  139.2136  154.4280 H   0  0  0  0  0  0  0  0  0  0  0  0
  150.7001  140.6324  154.2501 H   0  0  0  0  0  0  0  0  0  0  0  0
  149.5100  138.9925  153.0870 H   0  0  0  0  0  0  0  0  0  0  0  0
  149.4684  137.9495  154.5031 H   0  0  0  0  0  0  0  0  0  0  0  0
  147.1181  138.6219  154.2744 H   0  0  0  0  0  0  0  0  0  0  0  0
  147.8386  140.7507  152.7546 H   0  0  0  0  0  0  0  0  0  0  0  0
  146.4881  140.9763  153.8671 H   0  0  0  0  0  0  0  0  0  0  0  0
  149.0811  142.3087  154.0474 H   0  0  0  0  0  0  0  0  0  0  0  0
  147.7154  142.4456  155.1518 H   0  0  0  0  0  0  0  0  0  0  0  0
  149.4168  141.3630  156.5512 H   0  0  0  0  0  0  0  0  0  0  0  0
  147.0665  140.2286  156.3554 H   0  0  0  0  0  0  0  0  0  0  0  0
  148.3034  138.9745  156.5955 H   0  0  0  0  0  0  0  0  0  0  0  0
  1 24  1  0  0  0  0
  1 25  1  0  0  0  0
  1 26  1  0  0  0  0
  1  2  1  0  0  0  0
  2  3  1  0  0  0  0
  2 22  2  0  0  0  0
  3  4  1  0  0  0  0
  3 23  1  0  0  0  0
  4  6  2  0  0  0  0
  4  5  1  0  0  0  0
  5 27  1  0  0  0  0
  5 28  1  0  0  0  0
  5 29  1  0  0  0  0
  6 20  1  0  0  0  0
  6  7  1  0  0  0  0
  7  8  1  0  0  0  0
  7 30  1  0  0  0  0
  7 31  1  0  0  0  0
  8  9  2  0  0  0  0
  8 10  1  0  0  0  0
 10 11  1  0  0  0  0
 10 32  1  0  0  0  0
 11 12  1  0  0  0  0
 11 13  1  0  0  0  0
 11 33  1  0  0  0  0
 12 34  1  0  0  0  0
 12 35  1  0  0  0  0
 12 36  1  0  0  0  0
 13 18  1  0  0  0  0
 13 14  1  0  0  0  0
 13 37  1  0  0  0  0
 14 15  1  0  0  0  0
 14 38  1  0  0  0  0
 14 39  1  0  0  0  0
 15 19  1  0  0  0  0
 15 16  1  0  0  0  0
 15 40  1  0  0  0  0
 16 17  1  0  0  0  0
 16 41  1  0  0  0  0
 16 42  1  0  0  0  0
 17 18  1  0  0  0  0
 17 43  1  0  0  0  0
 17 44  1  0  0  0  0
 18 19  1  0  0  0  0
 18 45  1  0  0  0  0
 19 46  1  0  0  0  0
 19 47  1  0  0  0  0
 20 21  2  0  0  0  0
 20 22  1  0  0  0  0
M  END
> <s_m_source_file>
AV-unprocessed.smi

> <i_m_source_file_index>
2124

> <i_lp_mmshare_version>
43012

> <i_f3d_flags>
0

> <s_epik_input>
W0NIM11jMW5jKFtDSDNdKWMoYyg9TylbbkhdMSlbQ0gyXUMoPU8pW05IXVtDQEhdKFtDSDNdKVtDQEhdKFtDSDJdW0NASF0yMylbQ0BIXShbQ0gyXTMpW0NIMl1bQ0gyXTI=

> <s_epik_cmdline>
J2VwaWtfcHl0aG9uJywgJy1waCcsICc3LjAnLCAnLXRuJywgJzgnLCAnLW1hJywgJzIwMCcsICctbWV0YWxfYmluZGluZycsICctaW1hZScsICc8aW5maWxlLm1hZT4nLCAnLW9tYWUnLCAnPG91dGZpbGUubWFlPic=

> <r_lp_tautomer_probability>
0.156392

> <r_epik_Ionization_Penalty>
0.0139374

> <r_epik_Ionization_Penalty_Charging>
0.0138122

> <r_epik_Ionization_Penalty_Neutral>
0.000125146

> <r_epik_State_Penalty>
1.15342

> <r_epik_Charging_Adjusted_Penalty>
1.16723

> <i_epik_Tot_Q>
0

> <i_epik_Tot_abs_Q>
0

> <r_epik_Metal_State_Penalty>
1.3173

> <b_epik_Metal_Only>
0

> <s_lp_Force_Field>
OPLS_2005

> <r_lp_Energy>
56.0933

> <b_lp_Chiralities_Consistent>
1

> <s_lp_Variant>
AV-unprocessed.smi:2124-11

> <Gold.Version>
5.8.1

> <Gold.Id.Protein>
6NUR|6NUR_protein|mol2

> <Gold.PLP.Fitness>
43.3530

> <Gold.PLP.PLP>
-40.9345

> <Gold.PLP.part.hbond>
-1.8785

> <Gold.PLP.part.metal>
0.0000

> <Gold.PLP.part.buried>
0.4877

> <Gold.PLP.part.nonpolar>
-38.1416

> <Gold.PLP.part.repulsive>
0.1419

> <Gold.PLP.ligand.clash>
0.0000

> <Gold.PLP.ligand.torsion>
0.2983

> <Gold.PLP.Chemscore.Hbond>
1.0000

> <Gold.PLP.Chemscore.CHOScore>
0.0000

> <Gold.PLP.Chemscore.Metal>
0.0000

> <Gold.Chemscore.Hbonds>
donor molecule, donor type, donor heavy atom, donor atom, acceptor molecule, acceptor atom, score
      P1  H  7997  8008       L1    21  1.00

> <Gold.PLP.Chemscore.Internal.Correction>
0.0152

> <Gold.Rescore>
     Score         DG    S(hbond)    S(metal)    S(lipo)     H(rot)  DE(clash)    DE(int)     intcor
     15.00     -16.59       1.00        0.00     102.58       1.65       0.12       1.47       ----

> <Gold.Chemscore.Fitness>
15.0004

> <Gold.Chemscore.DG>
-16.5865

> <Gold.Chemscore.ZeroCoef>
-5.4800

> <Gold.Chemscore.Hbond>
0.9991

> <Gold.Chemscore.Metal>
0.0000

> <Gold.Chemscore.Lipo>
102.5821

> <Gold.Chemscore.Internal_Hbond>
0.0000

> <Gold.Chemscore.DEClash>
0.1163

> <Gold.Chemscore.DEInternal>
1.4697

> <Gold.Chemscore.Rot>
1.6534

> <Gold.Chemscore.Internal.Correction>
   9.000000E+99

> <Gold.Chemscore.Hbonds>
donor molecule, donor type, donor heavy atom, donor atom, acceptor molecule, acceptor atom, score
      P1  H  7997  8008       L1    21  0.97

> <Gold.Chemscore.Hbond.Weighted>
-3.3369

> <Gold.Chemscore.Metal.Weighted>
-0.0000

> <Gold.Chemscore.Lipo.Weighted>
-12.0021

> <Gold.Chemscore.Internal_Hbond.Weighted>
0.0000

> <Gold.Chemscore.DEClash.Weighted>
0.1163

> <Gold.Chemscore.DEInternal.Weighted>
1.4697

> <Gold.Chemscore.Rot.Weighted>
4.2326

> <Gold.Chemscore.Internal.Correction.Weighted>
   9.000000E+99

> <Gold.Protein.RotatedTorsions>
[ 6907 6896 6895 6894 ] final    1.97 input  -60.11 | X-H torsion
[ 7974 7965 7964 7962 ] final  -76.62 input  175.53 | X-H torsion
[ 8008 7997 7996 7995 ] final -116.76 input   59.86 | X-H torsion
[ 10167 10162 10161 10158 ] final -149.63 input  -65.29 | X-H torsion
[ 10718 10713 10712 10709 ] final  -99.46 input   66.30 | X-H torsion
[ 10763 10752 10751 10750 ] final  -55.62 input  -60.55 | X-H torsion
[ 11005 11000 10999 10996 ] final   -5.63 input  -57.11 | X-H torsion

> <Gold.Protein.ActiveResidues>
 VAL166  LYS551  ARG553  GLY616  TRP617  ASP618  TYR619  PRO620  LYS621  CYS622 
 ASP623  PHE694  ASN695  SER759  ASP760  ASP761  ALA762  ILE779  LEU786  VAL792 
 PHE793  MET794  SER795  GLU796  ALA797  LYS798  CYS799  TRP800  GLU811  SER814 

> <Gold.Protein.RotatedAtoms>
  151.6013  135.1047  160.0060 H   0  0  0  0  0  0  0  0  0  0  0  0  # atno 6907 bound_to 6896
  152.4256  133.7186  159.6531 H   0  0  0  0  0  0  0  0  0  0  0  0  # atno 6908 bound_to 6896
  150.8145  133.8289  159.3189 H   0  0  0  0  0  0  0  0  0  0  0  0  # atno 6909 bound_to 6896
  145.6105  140.9388  143.1192 H   0  0  0  0  0  0  0  0  0  0  0  0  # atno 7974 bound_to 7965
  155.0730  140.0393  157.2615 H   0  0  0  0  0  0  0  0  0  0  0  0  # atno 8008 bound_to 7997
  154.6967  140.2665  155.6734 H   0  0  0  0  0  0  0  0  0  0  0  0  # atno 8009 bound_to 7997
  156.2747  140.2748  156.1564 H   0  0  0  0  0  0  0  0  0  0  0  0  # atno 8010 bound_to 7997
  139.7425  143.8640  152.2566 H   0  0  0  0  0  0  0  0  0  0  0  0  # atno 10167 bound_to 10162
  156.0134  130.5283  150.6673 H   0  0  0  0  0  0  0  0  0  0  0  0  # atno 10718 bound_to 10713
  154.1936  135.6423  153.5067 H   0  0  0  0  0  0  0  0  0  0  0  0  # atno 10763 bound_to 10752
  153.0029  135.5434  154.6389 H   0  0  0  0  0  0  0  0  0  0  0  0  # atno 10764 bound_to 10752
  154.5784  135.2923  155.0730 H   0  0  0  0  0  0  0  0  0  0  0  0  # atno 10765 bound_to 10752
  140.6932  133.9053  155.8632 H   0  0  0  0  0  0  0  0  0  0  0  0  # atno 11005 bound_to 11000
  144.7272  139.7839  143.7360 LP  0  0  0  0  0  0  0  0  0  0  0  0  # atno 17320 bound_to 7965
  146.1508  139.4590  143.0050 LP  0  0  0  0  0  0  0  0  0  0  0  0  # atno 17321 bound_to 7965
  139.8595  144.7124  150.9117 LP  0  0  0  0  0  0  0  0  0  0  0  0  # atno 17342 bound_to 10162
  140.7788  143.3830  151.1443 LP  0  0  0  0  0  0  0  0  0  0  0  0  # atno 17343 bound_to 10162
  157.4403  131.0860  151.0950 LP  0  0  0  0  0  0  0  0  0  0  0  0  # atno 17370 bound_to 10713
  157.1496  130.6178  149.5578 LP  0  0  0  0  0  0  0  0  0  0  0  0  # atno 17371 bound_to 10713
  141.0224  134.0870  157.4106 LP  0  0  0  0  0  0  0  0  0  0  0  0  # atno 17394 bound_to 11000
  139.8917  135.0120  156.6808 LP  0  0  0  0  0  0  0  0  0  0  0  0  # atno 17395 bound_to 11000

$$$$
