AV-unprocessed.smi:1068|AV-procd|sdf|4674|dock1
  -GOLD-   22720 3183D 1   1.00000     0.00000
 Structure written by MMmdl.
 51 52  0  0  0  0  0  0  0  0  1 V2000
  150.5694  130.5835  157.3323 C   0  0  0  0  0  0  0  0  0  0  0  0
  150.9717  131.0149  155.9021 C   0  0  0  0  0  0  0  0  0  0  0  0
  152.5087  130.8594  155.8250 C   0  0  0  0  0  0  0  0  0  0  0  0
  150.3058  130.0804  154.8755 C   0  0  0  0  0  0  0  0  0  0  0  0
  150.5482  132.4670  155.6213 C   0  0  0  0  0  0  0  0  0  0  0  0
  149.7781  132.6815  154.5465 N   0  0  0  0  0  0  0  0  0  0  0  0
  149.5058  133.9609  154.2160 C   0  0  0  0  0  0  0  0  0  0  0  0
  150.0280  135.0482  154.9443 C   0  0  0  0  0  0  0  0  0  0  0  0
  149.7116  136.3686  154.5257 N   0  0  0  0  0  0  0  0  0  0  0  0
  149.6950  137.4979  155.2532 C   0  0  0  0  0  0  0  0  0  0  0  0
  149.9154  137.5725  156.4612 O   0  0  0  0  0  0  0  0  0  0  0  0
  149.3988  138.5602  154.4899 N   0  0  0  0  0  0  0  0  0  0  0  0
  149.3128  139.9429  154.9619 C   0  0  0  0  0  0  0  0  0  0  0  0
  150.6056  140.4974  155.5825 C   0  0  0  0  0  0  0  0  0  0  0  0
  151.6842  140.2198  155.0598 O   0  0  0  0  0  0  0  0  0  0  0  0
  150.5057  141.2657  156.6809 N   0  0  0  0  0  0  0  0  0  0  0  0
  151.6187  141.8873  157.3904 C   0  0  0  0  0  0  0  0  0  0  0  0
  151.9961  141.0636  158.6390 C   0  0  0  0  0  0  0  0  0  0  0  0
  153.1105  141.7470  159.4479 C   0  0  0  0  0  0  0  0  0  0  0  0
  152.7214  143.1828  159.8322 C   0  0  0  0  0  0  0  0  0  0  0  0
  152.3512  144.0085  158.5899 C   0  0  0  0  0  0  0  0  0  0  0  0
  151.2360  143.3278  157.7801 C   0  0  0  0  0  0  0  0  0  0  0  0
  150.8712  134.7113  156.0304 C   0  0  0  0  0  0  0  0  0  0  0  0
  151.1351  133.4261  156.3492 N   0  0  0  0  0  0  0  0  0  0  0  0
  150.9128  129.5723  157.5537 H   0  0  0  0  0  0  0  0  0  0  0  0
  149.4876  130.5847  157.4705 H   0  0  0  0  0  0  0  0  0  0  0  0
  150.9995  131.2469  158.0836 H   0  0  0  0  0  0  0  0  0  0  0  0
  153.0113  131.5300  156.5231 H   0  0  0  0  0  0  0  0  0  0  0  0
  152.8922  131.0730  154.8268 H   0  0  0  0  0  0  0  0  0  0  0  0
  152.8177  129.8423  156.0685 H   0  0  0  0  0  0  0  0  0  0  0  0
  150.5847  129.0397  155.0445 H   0  0  0  0  0  0  0  0  0  0  0  0
  150.5984  130.3383  153.8570 H   0  0  0  0  0  0  0  0  0  0  0  0
  149.2184  130.1428  154.9302 H   0  0  0  0  0  0  0  0  0  0  0  0
  148.8696  134.1158  153.3566 H   0  0  0  0  0  0  0  0  0  0  0  0
  149.4438  136.4607  153.5565 H   0  0  0  0  0  0  0  0  0  0  0  0
  149.2278  138.4062  153.5070 H   0  0  0  0  0  0  0  0  0  0  0  0
  149.0456  140.5713  154.1121 H   0  0  0  0  0  0  0  0  0  0  0  0
  148.5008  140.0424  155.6841 H   0  0  0  0  0  0  0  0  0  0  0  0
  149.5808  141.4460  157.0433 H   0  0  0  0  0  0  0  0  0  0  0  0
  152.4825  141.9358  156.7241 H   0  0  0  0  0  0  0  0  0  0  0  0
  151.1182  140.9320  159.2733 H   0  0  0  0  0  0  0  0  0  0  0  0
  152.3188  140.0635  158.3479 H   0  0  0  0  0  0  0  0  0  0  0  0
  153.3273  141.1674  160.3456 H   0  0  0  0  0  0  0  0  0  0  0  0
  154.0296  141.7627  158.8606 H   0  0  0  0  0  0  0  0  0  0  0  0
  151.8766  143.1606  160.5218 H   0  0  0  0  0  0  0  0  0  0  0  0
  153.5435  143.6613  160.3653 H   0  0  0  0  0  0  0  0  0  0  0  0
  152.0356  145.0084  158.8889 H   0  0  0  0  0  0  0  0  0  0  0  0
  153.2325  144.1377  157.9604 H   0  0  0  0  0  0  0  0  0  0  0  0
  151.0238  143.9134  156.8845 H   0  0  0  0  0  0  0  0  0  0  0  0
  150.3173  143.3205  158.3685 H   0  0  0  0  0  0  0  0  0  0  0  0
  151.3654  135.4490  156.6424 H   0  0  0  0  0  0  0  0  0  0  0  0
  1  2  1  0  0  0  0
  1 25  1  0  0  0  0
  1 26  1  0  0  0  0
  1 27  1  0  0  0  0
  2  3  1  0  0  0  0
  2  4  1  0  0  0  0
  2  5  1  0  0  0  0
  3 28  1  0  0  0  0
  3 29  1  0  0  0  0
  3 30  1  0  0  0  0
  4 31  1  0  0  0  0
  4 32  1  0  0  0  0
  4 33  1  0  0  0  0
  5 24  1  0  0  0  0
  5  6  2  0  0  0  0
  6  7  1  0  0  0  0
  7  8  2  0  0  0  0
  7 34  1  0  0  0  0
  8  9  1  0  0  0  0
  8 23  1  0  0  0  0
  9 10  1  0  0  0  0
  9 35  1  0  0  0  0
 10 11  2  0  0  0  0
 10 12  1  0  0  0  0
 12 13  1  0  0  0  0
 12 36  1  0  0  0  0
 13 14  1  0  0  0  0
 13 37  1  0  0  0  0
 13 38  1  0  0  0  0
 14 15  2  0  0  0  0
 14 16  1  0  0  0  0
 16 17  1  0  0  0  0
 16 39  1  0  0  0  0
 17 22  1  0  0  0  0
 17 18  1  0  0  0  0
 17 40  1  0  0  0  0
 18 19  1  0  0  0  0
 18 41  1  0  0  0  0
 18 42  1  0  0  0  0
 19 20  1  0  0  0  0
 19 43  1  0  0  0  0
 19 44  1  0  0  0  0
 20 21  1  0  0  0  0
 20 45  1  0  0  0  0
 20 46  1  0  0  0  0
 21 22  1  0  0  0  0
 21 47  1  0  0  0  0
 21 48  1  0  0  0  0
 22 49  1  0  0  0  0
 22 50  1  0  0  0  0
 23 24  2  0  0  0  0
 23 51  1  0  0  0  0
M  END
> <s_m_source_file>
AV-unprocessed.smi

> <i_m_source_file_index>
1068

> <i_lp_mmshare_version>
43012

> <i_f3d_flags>
0

> <s_epik_input>
W0NIM11DKFtDSDNdKShbQ0gzXSljMW5bY0hdYyhbY0hdbjEpW05IXUMoPU8pW05IXVtDSDJdQyg9TylbTkhdW0NIXTJbQ0gyXVtDSDJdW0NIMl1bQ0gyXVtDSDJdMg==

> <s_epik_cmdline>
J2VwaWtfcHl0aG9uJywgJy1waCcsICc3LjAnLCAnLXRuJywgJzgnLCAnLW1hJywgJzIwMCcsICctbWV0YWxfYmluZGluZycsICctaW1hZScsICc8aW5maWxlLm1hZT4nLCAnLW9tYWUnLCAnPG91dGZpbGUubWFlPic=

> <r_lp_tautomer_probability>
1

> <r_epik_Ionization_Penalty>
2.47974e-05

> <r_epik_Ionization_Penalty_Charging>
0

> <r_epik_Ionization_Penalty_Neutral>
2.47974e-05

> <r_epik_State_Penalty>
-0

> <r_epik_Charging_Adjusted_Penalty>
0

> <i_epik_Tot_Q>
0

> <i_epik_Tot_abs_Q>
0

> <r_epik_Metal_State_Penalty>
-0

> <b_epik_Metal_Only>
0

> <s_lp_Force_Field>
OPLS_2005

> <r_lp_Energy>
3.00881

> <b_lp_Chiralities_Consistent>
1

> <s_lp_Variant>
AV-unprocessed.smi:1068-1

> <Gold.Version>
5.8.1

> <Gold.Id.Protein>
6NUR|6NUR_protein|mol2

> <Gold.PLP.Fitness>
47.7943

> <Gold.PLP.PLP>
-41.5464

> <Gold.PLP.part.hbond>
-2.0000

> <Gold.PLP.part.metal>
0.0000

> <Gold.PLP.part.buried>
-6.1225

> <Gold.PLP.part.nonpolar>
-33.6967

> <Gold.PLP.part.repulsive>
0.2205

> <Gold.PLP.ligand.clash>
0.0000

> <Gold.PLP.ligand.torsion>
0.7488

> <Gold.PLP.Chemscore.Hbond>
1.9440

> <Gold.PLP.Chemscore.CHOScore>
0.5656

> <Gold.PLP.Chemscore.Metal>
0.0000

> <Gold.Chemscore.Hbonds>
donor molecule, donor type, donor heavy atom, donor atom, acceptor molecule, acceptor atom, score
      L1  H     9    35       P1  7948  1.00
      P1  H  7989  7998       L1    15  0.93
      L1  C     7    34       P1  7948  0.55

> <Gold.PLP.Chemscore.Internal.Correction>
0.2168

> <Gold.Rescore>
     Score         DG    S(hbond)    S(metal)    S(lipo)     H(rot)  DE(clash)    DE(int)     intcor
     17.86     -19.53       1.86        0.00     102.79       1.64       0.04       1.63       ----

> <Gold.Chemscore.Fitness>
17.8596

> <Gold.Chemscore.DG>
-19.5262

> <Gold.Chemscore.ZeroCoef>
-5.4800

> <Gold.Chemscore.Hbond>
1.8643

> <Gold.Chemscore.Metal>
0.0000

> <Gold.Chemscore.Lipo>
102.7857

> <Gold.Chemscore.Internal_Hbond>
0.0000

> <Gold.Chemscore.DEClash>
0.0404

> <Gold.Chemscore.DEInternal>
1.6262

> <Gold.Chemscore.Rot>
1.6431

> <Gold.Chemscore.Internal.Correction>
   9.000000E+99

> <Gold.Chemscore.Hbonds>
donor molecule, donor type, donor heavy atom, donor atom, acceptor molecule, acceptor atom, score
      L1  H     9    35       P1  7948  0.78
      P1  H  7989  7998       L1    15  0.55

> <Gold.Chemscore.Hbond.Weighted>
-6.2267

> <Gold.Chemscore.Metal.Weighted>
-0.0000

> <Gold.Chemscore.Lipo.Weighted>
-12.0259

> <Gold.Chemscore.Internal_Hbond.Weighted>
0.0000

> <Gold.Chemscore.DEClash.Weighted>
0.0404

> <Gold.Chemscore.DEInternal.Weighted>
1.6262

> <Gold.Chemscore.Rot.Weighted>
4.2063

> <Gold.Chemscore.Internal.Correction.Weighted>
   9.000000E+99

> <Gold.Protein.RotatedTorsions>
[ 6907 6896 6895 6894 ] final   66.38 input  -60.11 | X-H torsion
[ 7974 7965 7964 7962 ] final -113.91 input  175.53 | X-H torsion
[ 8008 7997 7996 7995 ] final  -74.87 input   59.86 | X-H torsion
[ 10167 10162 10161 10158 ] final  112.19 input  -65.29 | X-H torsion
[ 10718 10713 10712 10709 ] final -113.65 input   66.30 | X-H torsion
[ 10763 10752 10751 10750 ] final   -3.94 input  -60.55 | X-H torsion
[ 11005 11000 10999 10996 ] final -137.89 input  -57.11 | X-H torsion

> <Gold.Protein.ActiveResidues>
 VAL166  LYS551  ARG553  GLY616  TRP617  ASP618  TYR619  PRO620  LYS621  CYS622 
 ASP623  PHE694  ASN695  SER759  ASP760  ASP761  ALA762  ILE779  LEU786  VAL792 
 PHE793  MET794  SER795  GLU796  ALA797  LYS798  CYS799  TRP800  GLU811  SER814 

> <Gold.Protein.RotatedAtoms>
  152.4477  134.5461  159.9852 H   0  0  0  0  0  0  0  0  0  0  0  0  # atno 6907 bound_to 6896
  151.5541  133.3407  159.2966 H   0  0  0  0  0  0  0  0  0  0  0  0  # atno 6908 bound_to 6896
  150.8397  134.7716  159.6985 H   0  0  0  0  0  0  0  0  0  0  0  0  # atno 6909 bound_to 6896
  145.1264  140.8699  143.3783 H   0  0  0  0  0  0  0  0  0  0  0  0  # atno 7974 bound_to 7965
  154.5367  140.0754  156.8440 H   0  0  0  0  0  0  0  0  0  0  0  0  # atno 8008 bound_to 7997
  155.3263  140.3399  155.4222 H   0  0  0  0  0  0  0  0  0  0  0  0  # atno 8009 bound_to 7997
  156.1835  140.1660  156.8216 H   0  0  0  0  0  0  0  0  0  0  0  0  # atno 8010 bound_to 7997
  139.6554  144.7129  151.1966 H   0  0  0  0  0  0  0  0  0  0  0  0  # atno 10167 bound_to 10162
  156.0780  130.5984  150.8670 H   0  0  0  0  0  0  0  0  0  0  0  0  # atno 10718 bound_to 10713
  153.3781  135.6997  153.6586 H   0  0  0  0  0  0  0  0  0  0  0  0  # atno 10763 bound_to 10752
  153.5209  135.3612  155.2632 H   0  0  0  0  0  0  0  0  0  0  0  0  # atno 10764 bound_to 10752
  154.8689  135.4157  154.3073 H   0  0  0  0  0  0  0  0  0  0  0  0  # atno 10765 bound_to 10752
  140.8668  134.2100  157.4675 H   0  0  0  0  0  0  0  0  0  0  0  0  # atno 11005 bound_to 11000
  145.0683  139.3051  143.5845 LP  0  0  0  0  0  0  0  0  0  0  0  0  # atno 17320 bound_to 7965
  146.3517  140.0149  142.8663 LP  0  0  0  0  0  0  0  0  0  0  0  0  # atno 17321 bound_to 7965
  140.7557  143.6080  150.8633 LP  0  0  0  0  0  0  0  0  0  0  0  0  # atno 17342 bound_to 10162
  139.9733  143.6033  152.2967 LP  0  0  0  0  0  0  0  0  0  0  0  0  # atno 17343 bound_to 10162
  157.5884  131.0945  150.9159 LP  0  0  0  0  0  0  0  0  0  0  0  0  # atno 17370 bound_to 10713
  156.9340  130.5360  149.5279 LP  0  0  0  0  0  0  0  0  0  0  0  0  # atno 17371 bound_to 10713
  139.8710  134.9755  156.4888 LP  0  0  0  0  0  0  0  0  0  0  0  0  # atno 17394 bound_to 11000
  140.8619  133.8053  155.9274 LP  0  0  0  0  0  0  0  0  0  0  0  0  # atno 17395 bound_to 11000

$$$$
