AV-unprocessed.smi:2088|AV-procd|sdf|8527|dock4
  -GOLD-   2272011243D 1   1.00000     0.00000
 Structure written by MMmdl.
 33 34  0  0  0  0  0  0  0  0  1 V2000
  152.4834  139.5051  157.6071 O   0  0  0  0  0  0  0  0  0  0  0  0
  151.4774  139.0551  158.1549 C   0  0  0  0  0  0  0  0  0  0  0  0
  151.0702  139.5607  159.5380 C   0  0  0  0  0  0  0  0  0  0  0  0
  151.6520  140.8668  159.7890 N   0  0  0  0  0  0  0  0  0  0  0  0
  152.5400  141.2325  160.7775 C   0  0  0  0  0  0  0  0  0  0  0  0
  152.8264  142.5549  160.5956 C   0  0  0  0  0  0  0  0  0  0  0  0
  152.0586  142.9228  159.4525 C   0  0  0  0  0  0  0  0  0  0  0  0
  151.9777  144.2641  158.7727 C   0  0  0  0  0  0  0  0  0  0  0  0
  152.3345  144.1567  157.4928 F   0  0  0  0  0  0  0  0  0  0  0  0
  150.7293  144.7280  158.8322 F   0  0  0  0  0  0  0  0  0  0  0  0
  152.7929  145.1302  159.3744 F   0  0  0  0  0  0  0  0  0  0  0  0
  151.3545  141.9043  158.9770 N   0  0  0  0  0  0  0  0  0  0  0  0
  150.6648  138.1472  157.5924 N   0  0  0  0  0  0  0  0  0  0  0  0
  150.7716  137.6460  156.2270 C   0  0  0  0  0  0  0  0  0  0  0  0
  150.3900  138.7336  155.2087 C   0  0  1  0  0  0  0  0  0  0  0  0
  148.8998  139.0743  155.1501 C   0  0  0  0  0  0  0  0  0  0  0  0
  148.9333  140.4767  154.5892 C   0  0  0  0  0  0  0  0  0  0  0  0
  150.1591  141.0601  155.2865 C   0  0  0  0  0  0  0  0  0  0  0  0
  151.0365  139.9626  155.5283 O   0  0  0  0  0  0  0  0  0  0  0  0
  149.9837  139.6217  159.6197 H   0  0  0  0  0  0  0  0  0  0  0  0
  151.4145  138.8668  160.3059 H   0  0  0  0  0  0  0  0  0  0  0  0
  152.8948  140.5274  161.5149 H   0  0  0  0  0  0  0  0  0  0  0  0
  153.4900  143.1677  161.1873 H   0  0  0  0  0  0  0  0  0  0  0  0
  149.8652  137.8382  158.1264 H   0  0  0  0  0  0  0  0  0  0  0  0
  151.7731  137.2655  156.0203 H   0  0  0  0  0  0  0  0  0  0  0  0
  150.0953  136.7970  156.1251 H   0  0  0  0  0  0  0  0  0  0  0  0
  150.7248  138.4402  154.2123 H   0  0  0  0  0  0  0  0  0  0  0  0
  148.3269  138.3798  154.5343 H   0  0  0  0  0  0  0  0  0  0  0  0
  148.4665  139.0833  156.1513 H   0  0  0  0  0  0  0  0  0  0  0  0
  149.0929  140.4441  153.5106 H   0  0  0  0  0  0  0  0  0  0  0  0
  148.0210  141.0413  154.7842 H   0  0  0  0  0  0  0  0  0  0  0  0
  150.6445  141.8345  154.6925 H   0  0  0  0  0  0  0  0  0  0  0  0
  149.8795  141.4953  156.2464 H   0  0  0  0  0  0  0  0  0  0  0  0
  1  2  2  0  0  0  0
  2  3  1  0  0  0  0
  2 13  1  0  0  0  0
  3  4  1  0  0  0  0
  3 20  1  0  0  0  0
  3 21  1  0  0  0  0
  4 12  1  0  0  0  0
  4  5  1  0  0  0  0
  5  6  2  0  0  0  0
  5 22  1  0  0  0  0
  6  7  1  0  0  0  0
  6 23  1  0  0  0  0
  7  8  1  0  0  0  0
  7 12  2  0  0  0  0
  8  9  1  0  0  0  0
  8 10  1  0  0  0  0
  8 11  1  0  0  0  0
 13 14  1  0  0  0  0
 13 24  1  0  0  0  0
 14 15  1  0  0  0  0
 14 25  1  0  0  0  0
 14 26  1  0  0  0  0
 15 19  1  0  0  0  0
 15 16  1  0  0  0  0
 15 27  1  0  0  0  0
 16 17  1  0  0  0  0
 16 28  1  0  0  0  0
 16 29  1  0  0  0  0
 17 18  1  0  0  0  0
 17 30  1  0  0  0  0
 17 31  1  0  0  0  0
 18 19  1  0  0  0  0
 18 32  1  0  0  0  0
 18 33  1  0  0  0  0
M  END
> <s_m_source_file>
AV-unprocessed.smi

> <i_m_source_file_index>
2088

> <i_lp_mmshare_version>
43012

> <i_f3d_flags>
0

> <s_epik_input>
TzFbQ0gyXVtDSDJdW0NIMl1bQ0BIXTFbQ0gyXVtOSF1DKD1PKVtDSDJdbjJbY0hdW2NIXWMobjIpQyhGKShGKUY=

> <s_epik_cmdline>
J2VwaWtfcHl0aG9uJywgJy1waCcsICc3LjAnLCAnLXRuJywgJzgnLCAnLW1hJywgJzIwMCcsICctbWV0YWxfYmluZGluZycsICctaW1hZScsICc8aW5maWxlLm1hZT4nLCAnLW9tYWUnLCAnPG91dGZpbGUubWFlPic=

> <r_lp_tautomer_probability>
1

> <r_epik_Ionization_Penalty>
2.25732e-07

> <r_epik_Ionization_Penalty_Charging>
0

> <r_epik_Ionization_Penalty_Neutral>
2.25732e-07

> <r_epik_State_Penalty>
-0

> <r_epik_Charging_Adjusted_Penalty>
0

> <i_epik_Tot_Q>
0

> <i_epik_Tot_abs_Q>
0

> <r_epik_Metal_State_Penalty>
-0

> <b_epik_Metal_Only>
0

> <s_lp_Force_Field>
OPLS_2005

> <r_lp_Energy>
19.1857

> <b_lp_Chiralities_Consistent>
1

> <s_lp_Variant>
AV-unprocessed.smi:2088-2

> <Gold.Version>
5.8.1

> <Gold.Id.Protein>
6NUR|6NUR_protein|mol2

> <Gold.PLP.Fitness>
47.9925

> <Gold.PLP.PLP>
-42.8952

> <Gold.PLP.part.hbond>
-2.0000

> <Gold.PLP.part.metal>
0.0000

> <Gold.PLP.part.buried>
-4.3278

> <Gold.PLP.part.nonpolar>
-36.8941

> <Gold.PLP.part.repulsive>
0.1085

> <Gold.PLP.ligand.clash>
0.0000

> <Gold.PLP.ligand.torsion>
0.4626

> <Gold.PLP.Chemscore.Hbond>
2.0000

> <Gold.PLP.Chemscore.CHOScore>
0.0000

> <Gold.PLP.Chemscore.Metal>
0.0000

> <Gold.Chemscore.Hbonds>
donor molecule, donor type, donor heavy atom, donor atom, acceptor molecule, acceptor atom, score
      P1  H  7997  8008       L1     1  0.62

> <Gold.PLP.Chemscore.Internal.Correction>
0.0226

> <Gold.Rescore>
     Score         DG    S(hbond)    S(metal)    S(lipo)     H(rot)  DE(clash)    DE(int)     intcor
     13.03     -15.67       1.92        0.00      73.65       1.89       0.06       2.58       ----

> <Gold.Chemscore.Fitness>
13.0305

> <Gold.Chemscore.DG>
-15.6687

> <Gold.Chemscore.ZeroCoef>
-5.4800

> <Gold.Chemscore.Hbond>
1.9215

> <Gold.Chemscore.Metal>
0.0000

> <Gold.Chemscore.Lipo>
73.6453

> <Gold.Chemscore.Internal_Hbond>
0.0000

> <Gold.Chemscore.DEClash>
0.0568

> <Gold.Chemscore.DEInternal>
2.5814

> <Gold.Chemscore.Rot>
1.8928

> <Gold.Chemscore.Internal.Correction>
   9.000000E+99

> <Gold.Chemscore.Hbonds>
donor molecule, donor type, donor heavy atom, donor atom, acceptor molecule, acceptor atom, score
      P1  H  7997  8008       L1     1  0.60

> <Gold.Chemscore.Hbond.Weighted>
-6.4177

> <Gold.Chemscore.Metal.Weighted>
-0.0000

> <Gold.Chemscore.Lipo.Weighted>
-8.6165

> <Gold.Chemscore.Internal_Hbond.Weighted>
0.0000

> <Gold.Chemscore.DEClash.Weighted>
0.0568

> <Gold.Chemscore.DEInternal.Weighted>
2.5814

> <Gold.Chemscore.Rot.Weighted>
4.8455

> <Gold.Chemscore.Internal.Correction.Weighted>
   9.000000E+99

> <Gold.Protein.RotatedTorsions>
[ 6907 6896 6895 6894 ] final  134.21 input  -60.11 | X-H torsion
[ 7974 7965 7964 7962 ] final  172.02 input  175.53 | X-H torsion
[ 8008 7997 7996 7995 ] final  -67.45 input   59.86 | X-H torsion
[ 10167 10162 10161 10158 ] final  -17.32 input  -65.29 | X-H torsion
[ 10718 10713 10712 10709 ] final  -12.83 input   66.30 | X-H torsion
[ 10763 10752 10751 10750 ] final  159.45 input  -60.55 | X-H torsion
[ 11005 11000 10999 10996 ] final  -94.26 input  -57.11 | X-H torsion

> <Gold.Protein.ActiveResidues>
 VAL166  LYS551  ARG553  GLY616  TRP617  ASP618  TYR619  PRO620  LYS621  CYS622 
 ASP623  PHE694  ASN695  SER759  ASP760  ASP761  ALA762  ILE779  LEU786  VAL792 
 PHE793  MET794  SER795  GLU796  ALA797  LYS798  CYS799  TRP800  GLU811  SER814 

> <Gold.Protein.RotatedAtoms>
  152.3137  133.5780  159.5697 H   0  0  0  0  0  0  0  0  0  0  0  0  # atno 6907 bound_to 6896
  150.7336  134.0114  159.3679 H   0  0  0  0  0  0  0  0  0  0  0  0  # atno 6908 bound_to 6896
  151.8004  135.0711  160.0450 H   0  0  0  0  0  0  0  0  0  0  0  0  # atno 6909 bound_to 6896
  144.7279  139.9436  143.6429 H   0  0  0  0  0  0  0  0  0  0  0  0  # atno 7974 bound_to 7965
  154.4801  140.0892  156.7356 H   0  0  0  0  0  0  0  0  0  0  0  0  # atno 8008 bound_to 7997
  155.4494  140.3457  155.4281 H   0  0  0  0  0  0  0  0  0  0  0  0  # atno 8009 bound_to 7997
  156.1177  140.1465  156.9237 H   0  0  0  0  0  0  0  0  0  0  0  0  # atno 8010 bound_to 7997
  140.7245  143.5028  150.9848 H   0  0  0  0  0  0  0  0  0  0  0  0  # atno 10167 bound_to 10162
  156.6390  130.4922  149.6102 H   0  0  0  0  0  0  0  0  0  0  0  0  # atno 10718 bound_to 10713
  154.2320  135.2778  155.2886 H   0  0  0  0  0  0  0  0  0  0  0  0  # atno 10763 bound_to 10752
  154.5616  135.5645  153.7016 H   0  0  0  0  0  0  0  0  0  0  0  0  # atno 10764 bound_to 10752
  153.0018  135.6299  154.2462 H   0  0  0  0  0  0  0  0  0  0  0  0  # atno 10765 bound_to 10752
  141.1475  133.7944  157.0273 H   0  0  0  0  0  0  0  0  0  0  0  0  # atno 11005 bound_to 11000
  146.0766  139.3754  143.0490 LP  0  0  0  0  0  0  0  0  0  0  0  0  # atno 17320 bound_to 7965
  145.7897  140.9820  143.1055 LP  0  0  0  0  0  0  0  0  0  0  0  0  # atno 17321 bound_to 7965
  139.8738  143.7159  152.3164 LP  0  0  0  0  0  0  0  0  0  0  0  0  # atno 17342 bound_to 10162
  139.7417  144.7558  151.0643 LP  0  0  0  0  0  0  0  0  0  0  0  0  # atno 17343 bound_to 10162
  156.2174  130.6716  151.1333 LP  0  0  0  0  0  0  0  0  0  0  0  0  # atno 17370 bound_to 10713
  157.7177  131.0700  150.6263 LP  0  0  0  0  0  0  0  0  0  0  0  0  # atno 17371 bound_to 10713
  140.0777  134.9666  157.1572 LP  0  0  0  0  0  0  0  0  0  0  0  0  # atno 17394 bound_to 11000
  140.3621  134.2483  155.7186 LP  0  0  0  0  0  0  0  0  0  0  0  0  # atno 17395 bound_to 11000

$$$$
