AV-unprocessed.smi:2427|AV-procd|sdf|9578|dock3
  -GOLD-   2272013213D 1   1.00000     0.00000
 Structure written by MMmdl.
 35 36  0  0  0  0  0  0  0  0  3 V2000
  150.2323  141.2033  157.9274 O   0  0  0  0  0  0  0  0  0  0  0  0
  150.4550  142.1380  157.1566 C   0  0  0  0  0  0  0  0  0  0  0  0
  151.3797  143.2905  157.5723 C   0  0  0  0  0  0  0  0  0  0  0  0
  151.9515  143.1096  158.9172 N   0  0  0  0  0  0  0  0  0  0  0  0
  152.7644  141.9773  159.1224 C   0  0  0  0  0  0  0  0  0  0  0  0
  153.3326  141.7105  160.3148 C   0  0  0  0  0  0  0  0  0  0  0  0
  154.1586  140.5392  160.5097 N   0  3  0  0  0  0  0  0  0  0  0  0
  154.4999  140.2434  161.6501 O   0  0  0  0  0  0  0  0  0  0  0  0
  154.4941  139.8771  159.5322 O   0  5  0  0  0  0  0  0  0  0  0  0
  153.0844  142.6374  161.4021 C   0  0  0  0  0  0  0  0  0  0  0  0
  152.3040  143.7196  161.2136 C   0  0  0  0  0  0  0  0  0  0  0  0
  151.6812  144.0042  159.9169 C   0  0  0  0  0  0  0  0  0  0  0  0
  150.9602  144.9866  159.7399 O   0  0  0  0  0  0  0  0  0  0  0  0
  149.9329  142.2171  155.9234 N   0  0  0  0  0  0  0  0  0  0  0  0
  149.0095  141.2547  155.3315 C   0  0  0  0  0  0  0  0  0  0  0  0
  149.7540  140.0680  154.6953 C   0  0  2  0  0  0  0  0  0  0  0  0
  149.3425  138.6881  155.2103 C   0  0  0  0  0  0  0  0  0  0  0  0
  150.5688  137.8673  154.8845 C   0  0  0  0  0  0  0  0  0  0  0  0
  151.6959  138.8548  155.1764 C   0  0  0  0  0  0  0  0  0  0  0  0
  151.1483  140.1559  154.9730 O   0  0  0  0  0  0  0  0  0  0  0  0
  152.1695  143.3781  156.8250 H   0  0  0  0  0  0  0  0  0  0  0  0
  150.8345  144.2352  157.5230 H   0  0  0  0  0  0  0  0  0  0  0  0
  152.8814  141.3458  158.2535 H   0  0  0  0  0  0  0  0  0  0  0  0
  153.5218  142.4700  162.3756 H   0  0  0  0  0  0  0  0  0  0  0  0
  152.1318  144.3964  162.0377 H   0  0  0  0  0  0  0  0  0  0  0  0
  150.1774  143.0166  155.3572 H   0  0  0  0  0  0  0  0  0  0  0  0
  148.3599  140.8892  156.1270 H   0  0  0  0  0  0  0  0  0  0  0  0
  148.3555  141.7339  154.6012 H   0  0  0  0  0  0  0  0  0  0  0  0
  149.6368  140.0944  153.6105 H   0  0  0  0  0  0  0  0  0  0  0  0
  149.1857  138.7102  156.2896 H   0  0  0  0  0  0  0  0  0  0  0  0
  148.4352  138.3088  154.7390 H   0  0  0  0  0  0  0  0  0  0  0  0
  150.6419  136.9508  155.4705 H   0  0  0  0  0  0  0  0  0  0  0  0
  150.5679  137.5989  153.8272 H   0  0  0  0  0  0  0  0  0  0  0  0
  152.0155  138.7740  156.2161 H   0  0  0  0  0  0  0  0  0  0  0  0
  152.5660  138.6866  154.5413 H   0  0  0  0  0  0  0  0  0  0  0  0
  1  2  2  0  0  0  0
  2  3  1  0  0  0  0
  2 14  1  0  0  0  0
  3  4  1  0  0  0  0
  3 21  1  0  0  0  0
  3 22  1  0  0  0  0
  4 12  1  0  0  0  0
  4  5  1  0  0  0  0
  5  6  2  0  0  0  0
  5 23  1  0  0  0  0
  6  7  1  0  0  0  0
  6 10  1  0  0  0  0
  7  8  2  0  0  0  0
  7  9  1  0  0  0  0
 10 11  2  0  0  0  0
 10 24  1  0  0  0  0
 11 12  1  0  0  0  0
 11 25  1  0  0  0  0
 12 13  2  0  0  0  0
 14 15  1  0  0  0  0
 14 26  1  0  0  0  0
 15 16  1  0  0  0  0
 15 27  1  0  0  0  0
 15 28  1  0  0  0  0
 16 20  1  0  0  0  0
 16 17  1  0  0  0  0
 16 29  1  0  0  0  0
 17 18  1  0  0  0  0
 17 30  1  0  0  0  0
 17 31  1  0  0  0  0
 18 19  1  0  0  0  0
 18 32  1  0  0  0  0
 18 33  1  0  0  0  0
 19 20  1  0  0  0  0
 19 34  1  0  0  0  0
 19 35  1  0  0  0  0
M  CHG  1   7   1
M  CHG  1   9  -1
M  END
> <s_m_source_file>
AV-unprocessed.smi

> <i_m_source_file_index>
2427

> <i_lp_mmshare_version>
43012

> <i_f3d_flags>
0

> <s_epik_input>
TzFbQ0gyXVtDSDJdW0NIMl1bQ0BIXTFbQ0gyXVtOSF1DKD1PKVtDSDJdbjJbY0hdYyhbTitdKD1PKVtPLV0pW2NIXVtjSF1jMj1P

> <s_epik_cmdline>
J2VwaWtfcHl0aG9uJywgJy1waCcsICc3LjAnLCAnLXRuJywgJzgnLCAnLW1hJywgJzIwMCcsICctbWV0YWxfYmluZGluZycsICctaW1hZScsICc8aW5maWxlLm1hZT4nLCAnLW9tYWUnLCAnPG91dGZpbGUubWFlPic=

> <r_lp_tautomer_probability>
1

> <r_epik_Ionization_Penalty>
2.69366e-08

> <r_epik_Ionization_Penalty_Charging>
7.76344e-11

> <r_epik_Ionization_Penalty_Neutral>
2.6859e-08

> <r_epik_State_Penalty>
-0

> <r_epik_Charging_Adjusted_Penalty>
7.76344e-11

> <i_epik_Tot_Q>
0

> <i_epik_Tot_abs_Q>
2

> <r_epik_Metal_State_Penalty>
-0

> <b_epik_Metal_Only>
0

> <s_lp_Force_Field>
OPLS_2005

> <r_lp_Energy>
28.4558

> <b_lp_Chiralities_Consistent>
1

> <s_lp_Variant>
AV-unprocessed.smi:2427-1

> <Gold.Version>
5.8.1

> <Gold.Id.Protein>
6NUR|6NUR_protein|mol2

> <Gold.PLP.Fitness>
50.2011

> <Gold.PLP.PLP>
-44.7912

> <Gold.PLP.part.hbond>
-2.8771

> <Gold.PLP.part.metal>
0.0000

> <Gold.PLP.part.buried>
-5.8229

> <Gold.PLP.part.nonpolar>
-37.3108

> <Gold.PLP.part.repulsive>
0.3696

> <Gold.PLP.ligand.clash>
0.0000

> <Gold.PLP.ligand.torsion>
0.9609

> <Gold.PLP.Chemscore.Hbond>
2.4282

> <Gold.PLP.Chemscore.CHOScore>
0.0000

> <Gold.PLP.Chemscore.Metal>
0.0000

> <Gold.Chemscore.Hbonds>
donor molecule, donor type, donor heavy atom, donor atom, acceptor molecule, acceptor atom, score
      L1  H    14    26       P1  8028  0.20
      P1  H  7989  7998       L1    20  0.90
      P1  H  7997  8009       L1     9  0.39

> <Gold.PLP.Chemscore.Internal.Correction>
0.0471

> <Gold.Rescore>
     Score         DG    S(hbond)    S(metal)    S(lipo)     H(rot)  DE(clash)    DE(int)     intcor
     14.70     -17.02       1.93        0.00      85.32       1.90       0.03       2.29       ----

> <Gold.Chemscore.Fitness>
14.7033

> <Gold.Chemscore.DG>
-17.0177

> <Gold.Chemscore.ZeroCoef>
-5.4800

> <Gold.Chemscore.Hbond>
1.9253

> <Gold.Chemscore.Metal>
0.0000

> <Gold.Chemscore.Lipo>
85.3211

> <Gold.Chemscore.Internal_Hbond>
0.0000

> <Gold.Chemscore.DEClash>
0.0276

> <Gold.Chemscore.DEInternal>
2.2867

> <Gold.Chemscore.Rot>
1.9044

> <Gold.Chemscore.Internal.Correction>
   9.000000E+99

> <Gold.Chemscore.Hbonds>
donor molecule, donor type, donor heavy atom, donor atom, acceptor molecule, acceptor atom, score
      L1  H    14    26       P1  8028  0.19
      P1  H  7989  7998       L1    20  0.15
      P1  H  7997  8009       L1     9  0.39

> <Gold.Chemscore.Hbond.Weighted>
-6.4304

> <Gold.Chemscore.Metal.Weighted>
-0.0000

> <Gold.Chemscore.Lipo.Weighted>
-9.9826

> <Gold.Chemscore.Internal_Hbond.Weighted>
0.0000

> <Gold.Chemscore.DEClash.Weighted>
0.0276

> <Gold.Chemscore.DEInternal.Weighted>
2.2867

> <Gold.Chemscore.Rot.Weighted>
4.8753

> <Gold.Chemscore.Internal.Correction.Weighted>
   9.000000E+99

> <Gold.Protein.RotatedTorsions>
[ 6907 6896 6895 6894 ] final   79.45 input  -60.11 | X-H torsion
[ 7974 7965 7964 7962 ] final -169.35 input  175.53 | X-H torsion
[ 8008 7997 7996 7995 ] final  121.06 input   59.86 | X-H torsion
[ 10167 10162 10161 10158 ] final  118.90 input  -65.29 | X-H torsion
[ 10718 10713 10712 10709 ] final  -20.93 input   66.30 | X-H torsion
[ 10763 10752 10751 10750 ] final   39.83 input  -60.55 | X-H torsion
[ 11005 11000 10999 10996 ] final   24.05 input  -57.11 | X-H torsion

> <Gold.Protein.ActiveResidues>
 VAL166  LYS551  ARG553  GLY616  TRP617  ASP618  TYR619  PRO620  LYS621  CYS622 
 ASP623  PHE694  ASN695  SER759  ASP760  ASP761  ALA762  ILE779  LEU786  VAL792 
 PHE793  MET794  SER795  GLU796  ALA797  LYS798  CYS799  TRP800  GLU811  SER814 

> <Gold.Protein.RotatedAtoms>
  152.5199  134.3510  159.9250 H   0  0  0  0  0  0  0  0  0  0  0  0  # atno 6907 bound_to 6896
  151.3460  133.3937  159.2683 H   0  0  0  0  0  0  0  0  0  0  0  0  # atno 6908 bound_to 6896
  150.9765  134.9147  159.7877 H   0  0  0  0  0  0  0  0  0  0  0  0  # atno 6909 bound_to 6896
  144.7187  140.2234  143.6313 H   0  0  0  0  0  0  0  0  0  0  0  0  # atno 7974 bound_to 7965
  156.2670  140.2817  156.1247 H   0  0  0  0  0  0  0  0  0  0  0  0  # atno 8008 bound_to 7997
  155.1117  140.0391  157.2743 H   0  0  0  0  0  0  0  0  0  0  0  0  # atno 8009 bound_to 7997
  154.6737  140.2593  155.6986 H   0  0  0  0  0  0  0  0  0  0  0  0  # atno 8010 bound_to 7997
  139.6081  144.7075  151.2907 H   0  0  0  0  0  0  0  0  0  0  0  0  # atno 10167 bound_to 10162
  156.5251  130.4642  149.6576 H   0  0  0  0  0  0  0  0  0  0  0  0  # atno 10718 bound_to 10713
  152.9955  135.6209  154.2528 H   0  0  0  0  0  0  0  0  0  0  0  0  # atno 10763 bound_to 10752
  154.2266  135.2794  155.2907 H   0  0  0  0  0  0  0  0  0  0  0  0  # atno 10764 bound_to 10752
  154.5484  135.5740  153.6958 H   0  0  0  0  0  0  0  0  0  0  0  0  # atno 10765 bound_to 10752
  140.3629  134.2105  155.7671 H   0  0  0  0  0  0  0  0  0  0  0  0  # atno 11005 bound_to 11000
  145.8479  139.2161  143.1789 LP  0  0  0  0  0  0  0  0  0  0  0  0  # atno 17320 bound_to 7965
  146.0287  140.8279  142.9887 LP  0  0  0  0  0  0  0  0  0  0  0  0  # atno 17321 bound_to 7965
  140.7299  143.6894  150.7935 LP  0  0  0  0  0  0  0  0  0  0  0  0  # atno 17342 bound_to 10162
  140.0483  143.5275  152.2685 LP  0  0  0  0  0  0  0  0  0  0  0  0  # atno 17343 bound_to 10162
  156.3112  130.7230  151.2123 LP  0  0  0  0  0  0  0  0  0  0  0  0  # atno 17370 bound_to 10713
  157.7430  131.0480  150.4976 LP  0  0  0  0  0  0  0  0  0  0  0  0  # atno 17371 bound_to 10713
  141.1978  133.8050  157.0610 LP  0  0  0  0  0  0  0  0  0  0  0  0  # atno 17394 bound_to 11000
  140.0612  134.9754  157.1308 LP  0  0  0  0  0  0  0  0  0  0  0  0  # atno 17395 bound_to 11000

$$$$
