#       Name:                AV-unprocessed.smi:1014
#       Creating user name   scv26
#       Creation time:       Fri Mar 27 02:39:05 2020


#       File generated by GOLD software.
#

@<TRIPOS>MOLECULE
AV-unprocessed.smi:1014
    37    37     1
SMALL
NO_CHARGES


@<TRIPOS>ATOM
      1 ****        -2.4651   3.5004   1.2708 C.3            1 S1                 0.0000
      2 ****        -2.6967   2.1321   1.9267 C.3            1 S1                 0.0000
      3 ****        -2.1317   0.9571   1.1009 C.3            1 S1                 0.0000
      4 ****        -0.6574   0.9660   1.1512 N.3            1 S1                 0.0000
      5 ****        -0.0194  -0.0529   0.3253 C.3            1 S1                 0.0000
      6 ****         1.4986   0.1756   0.3229 C.3            1 S1                 0.0000
      7 ****         2.1841  -0.8010  -0.5009 N.pl3          1 S1                 0.0000
      8 ****         2.6453  -0.6611  -1.7926 C.2            1 S1                 0.0000
      9 ****         3.2202  -1.8467  -2.1543 C.2            1 S1                 0.0000
     10 ****         3.8703  -2.2166  -3.4562 C.3            1 S1                 0.0000
     11 ****         3.0553  -2.6604  -0.9974 C.2            1 S1                 0.0000
     12 ****         2.4356  -2.0333  -0.0110 N.2            1 S1                 0.0000
     13 ****        -2.7371  -0.3742   1.5793 C.2            1 S1                 0.0000
     14 ****        -3.3703  -1.1194   0.6700 N.am           1 S1                 0.0000
     15 ****        -2.6167  -0.7318   2.7497 O.2            1 S1                 0.0000
     16 ****        -2.8993   4.2974   1.8746 H              1 S1                 0.0000
     17 ****        -2.9221   3.5467   0.2822 H              1 S1                 0.0000
     18 ****        -1.4017   3.7128   1.1593 H              1 S1                 0.0000
     19 ****        -2.2653   2.1298   2.9289 H              1 S1                 0.0000
     20 ****        -3.7719   2.0044   2.0626 H              1 S1                 0.0000
     21 ****        -2.4346   1.1042   0.0623 H              1 S1                 0.0000
     22 ****        -0.3180   0.9001   2.1004 H              1 S1                 0.0000
     23 ****        -0.2381  -1.0505   0.7077 H              1 S1                 0.0000
     24 ****        -0.4057   0.0027  -0.6935 H              1 S1                 0.0000
     25 ****         1.7344   1.1714  -0.0553 H              1 S1                 0.0000
     26 ****         1.8983   0.1186   1.3368 H              1 S1                 0.0000
     27 ****         2.5267   0.2611  -2.3424 H              1 S1                 0.0000
     28 ****         3.1426  -2.5944  -4.1743 H              1 S1                 0.0000
     29 ****         4.6255  -2.9916  -3.3247 H              1 S1                 0.0000
     30 ****         4.3655  -1.3623  -3.9182 H              1 S1                 0.0000
     31 ****         3.3665  -3.6834  -0.8463 H              1 S1                 0.0000
     32 ****        -3.7838  -1.9999   0.9399 H              1 S1                 0.0000
     33 ****        -3.4340  -0.7979  -0.2849 H              1 S1                 0.0000
     34 ****        -0.3980   1.8498   0.7617 LP             1 S1                 0.0000
     35 ****         2.2053  -2.3916   0.8937 LP             1 S1                 0.0000
     36 ****        -2.1218  -0.1556   3.4001 LP             1 S1                 0.0000
     37 ****        -3.0138  -1.5987   3.0510 LP             1 S1                 0.0000
@<TRIPOS>BOND
    1    1    2 1     
    2    1   16 1     
    3    1   17 1     
    4    1   18 1     
    5    2    3 1     
    6    2   19 1     
    7    2   20 1     
    8    3    4 1     
    9    3   13 1     
   10    3   21 1     
   11    4    5 1     
   12    4   22 1     
   13    5    6 1     
   14    5   23 1     
   15    5   24 1     
   16    6    7 1     
   17    6   25 1     
   18    6   26 1     
   19    7   12 1     
   20    7    8 1     
   21    8    9 2     
   22    8   27 1     
   23    9   10 1     
   24    9   11 1     
   25   10   28 1     
   26   10   29 1     
   27   10   30 1     
   28   11   12 2     
   29   11   31 1     
   30   13   14 am    
   31   13   15 2     
   32   14   32 1     
   33   14   33 1     
   34    4   34 1     
   35   12   35 1     
   36   15   36 1     
   37   15   37 1     
@<TRIPOS>SUBSTRUCTURE
      1 S1             1
@<TRIPOS>SET
LONE_PAIRS      STATIC     ATOMS    <user>   **** ""
4 34 35 36 37
DONOR_HYDROGENS      STATIC     ATOMS    <user>   **** ""
3 22 32 33
ATOM$BLUE        STATIC     ATOMS    COLORGROUP SYSTEM
4 34 35 36 37
ATOM$RED        STATIC     ATOMS    COLORGROUP SYSTEM
3 22 32 33
