AV-unprocessed.smi:203|AV-procd|sdf|1583|dock9
  -GOLD-   2262019473D 1   1.00000     0.00000
 Structure written by MMmdl.
 57 61  0  0  0  0  0  0  0  0  1 V2000
  145.7334  135.9622  150.4943 O   0  0  0  0  0  0  0  0  0  0  0  0
  145.2380  134.8746  150.7797 C   0  0  0  0  0  0  0  0  0  0  0  0
  145.3347  134.2453  152.1588 C   0  0  0  0  0  0  0  0  0  0  0  0
  144.7826  132.8215  151.9493 C   0  0  2  0  0  0  0  0  0  0  0  0
  145.8576  131.6977  152.0929 C   0  0  2  0  0  0  0  0  0  0  0  0
  145.4608  130.3893  151.3587 C   0  0  0  0  0  0  0  0  0  0  0  0
  146.5330  129.3024  151.5130 C   0  0  0  0  0  0  0  0  0  0  0  0
  146.8124  129.0524  152.9985 C   0  0  0  0  0  0  0  0  0  0  0  0
  147.2094  130.3611  153.6939 C   0  0  0  0  0  0  0  0  0  0  0  0
  146.1971  131.3983  153.4960 N   0  0  0  0  0  0  0  0  0  0  0  0
  146.4558  132.4588  154.2930 C   0  0  0  0  0  0  0  0  0  0  0  0
  145.4237  132.9535  155.0191 N   0  0  0  0  0  0  0  0  0  0  0  0
  145.6177  134.0028  155.8239 C   0  0  0  0  0  0  0  0  0  0  0  0
  146.7419  134.6868  156.0487 N   0  0  0  0  0  0  0  0  0  0  0  0
  147.7830  134.1832  155.3254 C   0  0  0  0  0  0  0  0  0  0  0  0
  147.7287  133.0813  154.4271 C   0  0  0  0  0  0  0  0  0  0  0  0
  148.9817  132.8609  153.8686 N   0  0  0  0  0  0  0  0  0  0  0  0
  149.7352  133.7793  154.4083 C   0  0  0  0  0  0  0  0  0  0  0  0
  149.1009  134.6043  155.3100 N   0  0  0  0  0  0  0  0  0  0  0  0
  149.6988  135.6931  156.0627 C   0  0  0  0  0  0  0  0  0  0  0  0
  150.0662  136.9178  155.1926 C   0  0  2  0  0  0  0  0  0  0  0  0
  151.2847  136.6480  154.5306 O   0  0  0  0  0  0  0  0  0  0  0  0
  150.1820  138.2833  155.9110 C   0  0  2  0  0  0  0  0  0  0  0  0
  150.2579  139.5262  155.0211 C   0  0  0  0  0  0  0  0  0  0  0  0
  150.8784  140.5293  155.9675 C   0  0  0  0  0  0  0  0  0  0  0  0
  151.8725  139.6667  156.7419 C   0  0  0  0  0  0  0  0  0  0  0  0
  151.3283  138.3492  156.7552 O   0  0  0  0  0  0  0  0  0  0  0  0
  144.0948  132.8597  150.5658 C   0  0  0  0  0  0  0  0  0  0  0  0
  144.5496  134.0919  149.9516 N   0  0  0  0  0  0  0  0  0  0  0  0
  146.3554  134.2638  152.5409 H   0  0  0  0  0  0  0  0  0  0  0  0
  144.7085  134.8112  152.8496 H   0  0  0  0  0  0  0  0  0  0  0  0
  144.0140  132.6751  152.7087 H   0  0  0  0  0  0  0  0  0  0  0  0
  146.7695  132.0608  151.6179 H   0  0  0  0  0  0  0  0  0  0  0  0
  144.5171  130.0069  151.7482 H   0  0  0  0  0  0  0  0  0  0  0  0
  145.2994  130.5726  150.2971 H   0  0  0  0  0  0  0  0  0  0  0  0
  146.2071  128.3806  151.0306 H   0  0  0  0  0  0  0  0  0  0  0  0
  147.4495  129.6135  151.0102 H   0  0  0  0  0  0  0  0  0  0  0  0
  145.9245  128.6367  153.4766 H   0  0  0  0  0  0  0  0  0  0  0  0
  147.6050  128.3125  153.1132 H   0  0  0  0  0  0  0  0  0  0  0  0
  147.3513  130.1764  154.7600 H   0  0  0  0  0  0  0  0  0  0  0  0
  148.1663  130.7095  153.3023 H   0  0  0  0  0  0  0  0  0  0  0  0
  144.7481  134.3418  156.3673 H   0  0  0  0  0  0  0  0  0  0  0  0
  150.7852  133.8700  154.1712 H   0  0  0  0  0  0  0  0  0  0  0  0
  149.0087  135.9827  156.8561 H   0  0  0  0  0  0  0  0  0  0  0  0
  150.5903  135.3091  156.5601 H   0  0  0  0  0  0  0  0  0  0  0  0
  149.3139  137.0211  154.4100 H   0  0  0  0  0  0  0  0  0  0  0  0
  151.1497  136.7495  153.6009 H   0  0  0  0  0  0  0  0  0  0  0  0
  149.3258  138.3978  156.5786 H   0  0  0  0  0  0  0  0  0  0  0  0
  150.9185  139.3734  154.1688 H   0  0  0  0  0  0  0  0  0  0  0  0
  149.2836  139.8398  154.6457 H   0  0  0  0  0  0  0  0  0  0  0  0
  151.3504  141.3684  155.4560 H   0  0  0  0  0  0  0  0  0  0  0  0
  150.1186  140.9245  156.6431 H   0  0  0  0  0  0  0  0  0  0  0  0
  152.8342  139.6383  156.2286 H   0  0  0  0  0  0  0  0  0  0  0  0
  152.0422  140.0364  157.7533 H   0  0  0  0  0  0  0  0  0  0  0  0
  144.3342  131.9996  149.9403 H   0  0  0  0  0  0  0  0  0  0  0  0
  143.0102  132.8965  150.6731 H   0  0  0  0  0  0  0  0  0  0  0  0
  144.3634  134.3177  148.9851 H   0  0  0  0  0  0  0  0  0  0  0  0
  1  2  2  0  0  0  0
  2 29  1  0  0  0  0
  2  3  1  0  0  0  0
  3  4  1  0  0  0  0
  3 30  1  0  0  0  0
  3 31  1  0  0  0  0
  4  5  1  0  0  0  0
  4 28  1  0  0  0  0
  4 32  1  0  0  0  0
  5 10  1  0  0  0  0
  5  6  1  0  0  0  0
  5 33  1  0  0  0  0
  6  7  1  0  0  0  0
  6 34  1  0  0  0  0
  6 35  1  0  0  0  0
  7  8  1  0  0  0  0
  7 36  1  0  0  0  0
  7 37  1  0  0  0  0
  8  9  1  0  0  0  0
  8 38  1  0  0  0  0
  8 39  1  0  0  0  0
  9 10  1  0  0  0  0
  9 40  1  0  0  0  0
  9 41  1  0  0  0  0
 10 11  1  0  0  0  0
 11 16  1  0  0  0  0
 11 12  2  0  0  0  0
 12 13  1  0  0  0  0
 13 14  2  0  0  0  0
 13 42  1  0  0  0  0
 14 15  1  0  0  0  0
 15 19  1  0  0  0  0
 15 16  2  0  0  0  0
 16 17  1  0  0  0  0
 17 18  2  0  0  0  0
 18 19  1  0  0  0  0
 18 43  1  0  0  0  0
 19 20  1  0  0  0  0
 20 21  1  0  0  0  0
 20 44  1  0  0  0  0
 20 45  1  0  0  0  0
 21 22  1  0  0  0  0
 21 23  1  0  0  0  0
 21 46  1  0  0  0  0
 22 47  1  0  0  0  0
 23 27  1  0  0  0  0
 23 24  1  0  0  0  0
 23 48  1  0  0  0  0
 24 25  1  0  0  0  0
 24 49  1  0  0  0  0
 24 50  1  0  0  0  0
 25 26  1  0  0  0  0
 25 51  1  0  0  0  0
 25 52  1  0  0  0  0
 26 27  1  0  0  0  0
 26 53  1  0  0  0  0
 26 54  1  0  0  0  0
 28 29  1  0  0  0  0
 28 55  1  0  0  0  0
 28 56  1  0  0  0  0
 29 57  1  0  0  0  0
M  END
> <s_m_source_file>
AV-unprocessed.smi

> <i_m_source_file_index>
203

> <i_lp_mmshare_version>
43012

> <i_f3d_flags>
0

> <s_epik_input>
Tz1DMVtDSDJdW0NASF0oW0NIMl1bTkhdMSlbQ0BASF0yW0NIMl1bQ0gyXVtDSDJdW0NIMl1OMmMobltjSF1uMyljKGMzNCluW2NIXW40W0NIMl1bQ0BIXShbT0hdKVtDQEBIXTVbQ0gyXVtDSDJdW0NIMl1PNQ==

> <s_epik_cmdline>
J2VwaWtfcHl0aG9uJywgJy1waCcsICc3LjAnLCAnLXRuJywgJzgnLCAnLW1hJywgJzIwMCcsICctbWV0YWxfYmluZGluZycsICctaW1hZScsICc8aW5maWxlLm1hZT4nLCAnLW9tYWUnLCAnPG91dGZpbGUubWFlPic=

> <r_lp_tautomer_probability>
1

> <r_epik_Ionization_Penalty>
0.00175146

> <r_epik_Ionization_Penalty_Charging>
0

> <r_epik_Ionization_Penalty_Neutral>
0.00175146

> <r_epik_State_Penalty>
0.00109045

> <r_epik_Charging_Adjusted_Penalty>
0.00109045

> <i_epik_Tot_Q>
0

> <i_epik_Tot_abs_Q>
0

> <r_epik_Metal_State_Penalty>
-0

> <b_epik_Metal_Only>
0

> <s_lp_Force_Field>
OPLS_2005

> <r_lp_Energy>
56.3505

> <b_lp_Chiralities_Consistent>
1

> <s_lp_Variant>
AV-unprocessed.smi:203-2

> <Gold.Version>
5.8.1

> <Gold.Id.Protein>
6NUR|6NUR_protein|mol2

> <Gold.PLP.Fitness>
44.5969

> <Gold.PLP.PLP>
-40.9360

> <Gold.PLP.part.hbond>
-2.8819

> <Gold.PLP.part.metal>
0.0000

> <Gold.PLP.part.buried>
-5.9777

> <Gold.PLP.part.nonpolar>
-32.7383

> <Gold.PLP.part.repulsive>
0.9277

> <Gold.PLP.ligand.clash>
0.0000

> <Gold.PLP.ligand.torsion>
1.2990

> <Gold.PLP.Chemscore.Hbond>
1.9920

> <Gold.PLP.Chemscore.CHOScore>
0.0000

> <Gold.PLP.Chemscore.Metal>
0.0000

> <Gold.Chemscore.Hbonds>
donor molecule, donor type, donor heavy atom, donor atom, acceptor molecule, acceptor atom, score
      L1  H    22    47       P1  7949  0.47
      L1  H    29    57       P1  7921  0.14
      P1  H 10752 10764       L1    22  0.75

> <Gold.PLP.Chemscore.Internal.Correction>
0.2830

> <Gold.Rescore>
     Score         DG    S(hbond)    S(metal)    S(lipo)     H(rot)  DE(clash)    DE(int)     intcor
     12.00     -15.47       1.67        0.00      97.11       2.72       1.10       2.37       ----

> <Gold.Chemscore.Fitness>
11.9950

> <Gold.Chemscore.DG>
-15.4669

> <Gold.Chemscore.ZeroCoef>
-5.4800

> <Gold.Chemscore.Hbond>
1.6708

> <Gold.Chemscore.Metal>
0.0000

> <Gold.Chemscore.Lipo>
97.1132

> <Gold.Chemscore.Internal_Hbond>
0.0000

> <Gold.Chemscore.DEClash>
1.0997

> <Gold.Chemscore.DEInternal>
2.3722

> <Gold.Chemscore.Rot>
2.7171

> <Gold.Chemscore.Internal.Correction>
   9.000000E+99

> <Gold.Chemscore.Hbonds>
donor molecule, donor type, donor heavy atom, donor atom, acceptor molecule, acceptor atom, score
      L1  H    22    47       P1  7949  0.21
      L1  H    29    57       P1  7921  0.15
      P1  H 10752 10764       L1    22  0.09

> <Gold.Chemscore.Hbond.Weighted>
-5.5803

> <Gold.Chemscore.Metal.Weighted>
-0.0000

> <Gold.Chemscore.Lipo.Weighted>
-11.3622

> <Gold.Chemscore.Internal_Hbond.Weighted>
0.0000

> <Gold.Chemscore.DEClash.Weighted>
1.0997

> <Gold.Chemscore.DEInternal.Weighted>
2.3722

> <Gold.Chemscore.Rot.Weighted>
6.9557

> <Gold.Chemscore.Internal.Correction.Weighted>
   9.000000E+99

> <Gold.Protein.RotatedTorsions>
[ 6907 6896 6895 6894 ] final -160.47 input  -60.11 | X-H torsion
[ 7974 7965 7964 7962 ] final    1.07 input  175.53 | X-H torsion
[ 8008 7997 7996 7995 ] final -119.77 input   59.86 | X-H torsion
[ 10167 10162 10161 10158 ] final -148.34 input  -65.29 | X-H torsion
[ 10718 10713 10712 10709 ] final   80.14 input   66.30 | X-H torsion
[ 10763 10752 10751 10750 ] final  -72.92 input  -60.55 | X-H torsion
[ 11005 11000 10999 10996 ] final  -87.54 input  -57.11 | X-H torsion

> <Gold.Protein.ActiveResidues>
 VAL166  LYS551  ARG553  GLY616  TRP617  ASP618  TYR619  PRO620  LYS621  CYS622 
 ASP623  PHE694  ASN695  SER759  ASP760  ASP761  ALA762  ILE779  LEU786  VAL792 
 PHE793  MET794  SER795  GLU796  ALA797  LYS798  CYS799  TRP800  GLU811  SER814 

> <Gold.Protein.RotatedAtoms>
  151.3495  133.3931  159.2678 H   0  0  0  0  0  0  0  0  0  0  0  0  # atno 6907 bound_to 6896
  150.9813  134.9168  159.7856 H   0  0  0  0  0  0  0  0  0  0  0  0  # atno 6908 bound_to 6896
  152.5218  134.3459  159.9286 H   0  0  0  0  0  0  0  0  0  0  0  0  # atno 6909 bound_to 6896
  146.2438  140.1043  142.8346 H   0  0  0  0  0  0  0  0  0  0  0  0  # atno 7974 bound_to 7965
  155.1211  140.0398  157.2750 H   0  0  0  0  0  0  0  0  0  0  0  0  # atno 8008 bound_to 7997
  154.6613  140.2591  155.7080 H   0  0  0  0  0  0  0  0  0  0  0  0  # atno 8009 bound_to 7997
  156.2620  140.2816  156.1086 H   0  0  0  0  0  0  0  0  0  0  0  0  # atno 8010 bound_to 7997
  139.7540  143.8475  152.2593 H   0  0  0  0  0  0  0  0  0  0  0  0  # atno 10167 bound_to 10162
  157.6797  130.9946  150.2035 H   0  0  0  0  0  0  0  0  0  0  0  0  # atno 10718 bound_to 10713
  154.4524  135.5914  153.6200 H   0  0  0  0  0  0  0  0  0  0  0  0  # atno 10763 bound_to 10752
  152.9815  135.6024  154.3588 H   0  0  0  0  0  0  0  0  0  0  0  0  # atno 10764 bound_to 10752
  154.3451  135.2841  155.2381 H   0  0  0  0  0  0  0  0  0  0  0  0  # atno 10765 bound_to 10752
  141.1615  133.7517  156.9322 H   0  0  0  0  0  0  0  0  0  0  0  0  # atno 11005 bound_to 11000
  145.0541  140.9040  143.4977 LP  0  0  0  0  0  0  0  0  0  0  0  0  # atno 17320 bound_to 7965
  145.1146  139.2734  143.5620 LP  0  0  0  0  0  0  0  0  0  0  0  0  # atno 17321 bound_to 7965
  139.8462  144.7186  150.9270 LP  0  0  0  0  0  0  0  0  0  0  0  0  # atno 17342 bound_to 10162
  140.7801  143.3940  151.1262 LP  0  0  0  0  0  0  0  0  0  0  0  0  # atno 17343 bound_to 10162
  156.2721  130.3723  149.8021 LP  0  0  0  0  0  0  0  0  0  0  0  0  # atno 17370 bound_to 10713
  156.5735  130.8435  151.3363 LP  0  0  0  0  0  0  0  0  0  0  0  0  # atno 17371 bound_to 10713
  140.1379  134.9313  157.2426 LP  0  0  0  0  0  0  0  0  0  0  0  0  # atno 17394 bound_to 11000
  140.2873  134.3281  155.7325 LP  0  0  0  0  0  0  0  0  0  0  0  0  # atno 17395 bound_to 11000

$$$$
