AV-unprocessed.smi:113|AV-procd|sdf|1105|dock4
  -GOLD-   2262018223D 1   1.00000     0.00000
 Structure written by MMmdl.
 53 56  0  0  0  0  0  0  0  0  2 V2000
  155.1425  138.7141  163.5296 C   0  0  0  0  0  0  0  0  0  0  0  0
  154.4887  139.3258  162.3088 C   0  0  0  0  0  0  0  0  0  0  0  0
  154.2895  138.5996  161.1187 C   0  0  0  0  0  0  0  0  0  0  0  0
  153.6686  139.2207  160.0064 C   0  0  0  0  0  0  0  0  0  0  0  0
  153.4388  138.4558  158.6985 C   0  0  0  0  0  0  0  0  0  0  0  0
  152.0615  138.3274  158.2434 N   0  0  0  0  0  0  0  0  0  0  0  0
  151.1457  137.6560  159.0894 C   0  0  0  0  0  0  0  0  0  0  0  0
  151.4947  137.1929  160.1774 O   0  0  0  0  0  0  0  0  0  0  0  0
  149.7722  137.5820  158.5856 C   0  0  0  0  0  0  0  0  0  0  0  0
  148.7314  136.8786  159.4423 C   0  0  0  0  0  0  0  0  0  0  0  0
  149.4639  138.1380  157.3890 C   0  0  0  0  0  0  0  0  0  0  0  0
  150.3804  138.7842  156.5784 N   0  0  0  0  0  0  0  0  0  0  0  0
  149.9178  139.4202  155.2860 C   0  0  2  0  0  0  0  0  0  0  0  0
  150.0688  140.9515  155.2622 C   0  0  0  0  0  0  0  0  0  0  0  0
  148.7069  141.4323  154.7716 C   0  0  2  0  0  0  0  0  0  0  0  0
  148.0089  142.0893  155.8122 O   0  0  0  0  0  0  0  0  0  0  0  0
  148.0032  140.1461  154.3008 C   0  0  2  0  0  0  0  0  0  0  0  0
  146.4666  140.1161  154.3822 C   0  0  0  0  0  0  0  0  0  0  0  0
  145.9263  141.3422  153.9373 O   0  0  0  0  0  0  0  0  0  0  0  0
  148.5697  139.1254  155.1074 O   0  0  0  0  0  0  0  0  0  0  0  0
  151.7177  138.9243  157.0100 C   0  0  0  0  0  0  0  0  0  0  0  0
  152.5410  139.5585  156.3473 O   0  0  0  0  0  0  0  0  0  0  0  0
  153.2602  140.5771  160.1331 C   0  0  0  0  0  0  0  0  0  0  0  0
  152.6297  141.2769  159.0763 C   0  0  0  0  0  0  0  0  0  0  0  0
  152.2406  142.6210  159.2401 C   0  0  0  0  0  0  0  0  0  0  0  0
  152.4750  143.2848  160.4587 C   0  0  0  0  0  0  0  0  0  0  0  0
  153.0997  142.6040  161.5201 C   0  0  0  0  0  0  0  0  0  0  0  0
  153.4889  141.2591  161.3587 C   0  0  0  0  0  0  0  0  0  0  0  0
  154.0856  140.6106  162.3812 N   0  3  0  0  0  0  0  0  0  0  0  0
  155.5877  137.7471  163.2936 H   0  0  0  0  0  0  0  0  0  0  0  0
  154.4050  138.5669  164.3189 H   0  0  0  0  0  0  0  0  0  0  0  0
  155.9297  139.3658  163.9099 H   0  0  0  0  0  0  0  0  0  0  0  0
  154.6154  137.5712  161.0747 H   0  0  0  0  0  0  0  0  0  0  0  0
  154.0072  138.9169  157.8889 H   0  0  0  0  0  0  0  0  0  0  0  0
  153.8496  137.4478  158.7742 H   0  0  0  0  0  0  0  0  0  0  0  0
  147.7484  136.8792  158.9701 H   0  0  0  0  0  0  0  0  0  0  0  0
  148.6362  137.3724  160.4101 H   0  0  0  0  0  0  0  0  0  0  0  0
  149.0173  135.8400  159.6138 H   0  0  0  0  0  0  0  0  0  0  0  0
  148.4401  138.0693  157.0498 H   0  0  0  0  0  0  0  0  0  0  0  0
  150.4888  138.9472  154.4860 H   0  0  0  0  0  0  0  0  0  0  0  0
  150.3401  141.3568  156.2378 H   0  0  0  0  0  0  0  0  0  0  0  0
  150.8617  141.2116  154.5604 H   0  0  0  0  0  0  0  0  0  0  0  0
  148.8104  142.1385  153.9472 H   0  0  0  0  0  0  0  0  0  0  0  0
  148.1793  143.0170  155.7481 H   0  0  0  0  0  0  0  0  0  0  0  0
  148.3096  139.9382  153.2736 H   0  0  0  0  0  0  0  0  0  0  0  0
  146.0767  139.3203  153.7472 H   0  0  0  0  0  0  0  0  0  0  0  0
  146.1230  139.9064  155.3954 H   0  0  0  0  0  0  0  0  0  0  0  0
  145.1467  141.1630  153.4340 H   0  0  0  0  0  0  0  0  0  0  0  0
  152.4328  140.8013  158.1276 H   0  0  0  0  0  0  0  0  0  0  0  0
  151.7599  143.1443  158.4264 H   0  0  0  0  0  0  0  0  0  0  0  0
  152.1748  144.3157  160.5790 H   0  0  0  0  0  0  0  0  0  0  0  0
  153.2764  143.1184  162.4538 H   0  0  0  0  0  0  0  0  0  0  0  0
  154.2388  141.1174  163.2528 H   0  0  0  0  0  0  0  0  0  0  0  0
  1  2  1  0  0  0  0
  1 30  1  0  0  0  0
  1 31  1  0  0  0  0
  1 32  1  0  0  0  0
  2 29  1  0  0  0  0
  2  3  2  0  0  0  0
  3  4  1  0  0  0  0
  3 33  1  0  0  0  0
  4  5  1  0  0  0  0
  4 23  2  0  0  0  0
  5  6  1  0  0  0  0
  5 34  1  0  0  0  0
  5 35  1  0  0  0  0
  6 21  1  0  0  0  0
  6  7  1  0  0  0  0
  7  8  2  0  0  0  0
  7  9  1  0  0  0  0
  9 10  1  0  0  0  0
  9 11  2  0  0  0  0
 10 36  1  0  0  0  0
 10 37  1  0  0  0  0
 10 38  1  0  0  0  0
 11 12  1  0  0  0  0
 11 39  1  0  0  0  0
 12 13  1  0  0  0  0
 12 21  1  0  0  0  0
 13 20  1  0  0  0  0
 13 14  1  0  0  0  0
 13 40  1  0  0  0  0
 14 15  1  0  0  0  0
 14 41  1  0  0  0  0
 14 42  1  0  0  0  0
 15 16  1  0  0  0  0
 15 17  1  0  0  0  0
 15 43  1  0  0  0  0
 16 44  1  0  0  0  0
 17 18  1  0  0  0  0
 17 20  1  0  0  0  0
 17 45  1  0  0  0  0
 18 19  1  0  0  0  0
 18 46  1  0  0  0  0
 18 47  1  0  0  0  0
 19 48  1  0  0  0  0
 21 22  2  0  0  0  0
 23 28  1  0  0  0  0
 23 24  1  0  0  0  0
 24 25  2  0  0  0  0
 24 49  1  0  0  0  0
 25 26  1  0  0  0  0
 25 50  1  0  0  0  0
 26 27  2  0  0  0  0
 26 51  1  0  0  0  0
 27 28  1  0  0  0  0
 27 52  1  0  0  0  0
 28 29  2  0  0  0  0
 29 53  1  0  0  0  0
M  CHG  1  29   1
M  END
> <s_m_source_file>
AV-unprocessed.smi

> <i_m_source_file_index>
113

> <i_lp_mmshare_version>
43012

> <i_f3d_flags>
0

> <s_epik_input>
W2NIXTFbY0hdW2NIXVtjSF1jKGMxMiluYyhbQ0gzXSlbY0hdYzJbQ0gyXW4zYyg9TyljKFtDSDNdKVtjSF1uKGMzPU8pW0NAQEhdNFtDSDJdW0NAQEhdKFtPSF0pW0NASF0oTzQpW0NIMl1bT0hd

> <s_epik_cmdline>
J2VwaWtfcHl0aG9uJywgJy1waCcsICc3LjAnLCAnLXRuJywgJzgnLCAnLW1hJywgJzIwMCcsICctbWV0YWxfYmluZGluZycsICctaW1hZScsICc8aW5maWxlLm1hZT4nLCAnLW9tYWUnLCAnPG91dGZpbGUubWFlPic=

> <r_lp_tautomer_probability>
1

> <r_epik_Ionization_Penalty>
0.705471

> <r_epik_Ionization_Penalty_Charging>
0.70547

> <r_epik_Ionization_Penalty_Neutral>
1.19947e-07

> <r_epik_State_Penalty>
0.728574

> <r_epik_Charging_Adjusted_Penalty>
1.43404

> <i_epik_Tot_Q>
1

> <i_epik_Tot_abs_Q>
1

> <r_epik_Metal_State_Penalty>
4.61665

> <b_epik_Metal_Only>
0

> <s_epik_Chemistry_Notes>
This compound contains an acetal/aminal-like group ( X-CH(R)-Y where X, Y are N, S, or O) that may be acid/base labile, releasing an aldehyde.

> <s_lp_Force_Field>
OPLS_2005

> <r_lp_Energy>
39.3678

> <b_lp_Chiralities_Consistent>
1

> <s_lp_Variant>
AV-unprocessed.smi:113-15

> <Gold.Version>
5.8.1

> <Gold.Id.Protein>
6NUR|6NUR_protein|mol2

> <Gold.PLP.Fitness>
58.1033

> <Gold.PLP.PLP>
-46.5058

> <Gold.PLP.part.hbond>
-3.9378

> <Gold.PLP.part.metal>
0.0000

> <Gold.PLP.part.buried>
-5.7096

> <Gold.PLP.part.nonpolar>
-37.5606

> <Gold.PLP.part.repulsive>
0.0849

> <Gold.PLP.ligand.clash>
0.0000

> <Gold.PLP.ligand.torsion>
0.1773

> <Gold.PLP.Chemscore.Hbond>
3.9750

> <Gold.PLP.Chemscore.CHOScore>
0.0000

> <Gold.PLP.Chemscore.Metal>
0.0000

> <Gold.Chemscore.Hbonds>
donor molecule, donor type, donor heavy atom, donor atom, acceptor molecule, acceptor atom, score
      L1  H    16    44       P1  8028  1.00
      L1  H    19    48       P1 10175  1.00
      P1  H  6896  6908       L1     8  1.00
      P1  H  7997  8010       L1    22  1.00

> <Gold.PLP.Chemscore.Internal.Correction>
0.0270

> <Gold.Rescore>
     Score         DG    S(hbond)    S(metal)    S(lipo)     H(rot)  DE(clash)    DE(int)     intcor
     21.37     -23.62       3.41        0.00     123.45       3.01       0.07       2.17       ----

> <Gold.Chemscore.Fitness>
21.3741

> <Gold.Chemscore.DG>
-23.6153

> <Gold.Chemscore.ZeroCoef>
-5.4800

> <Gold.Chemscore.Hbond>
3.4138

> <Gold.Chemscore.Metal>
0.0000

> <Gold.Chemscore.Lipo>
123.4526

> <Gold.Chemscore.Internal_Hbond>
0.0000

> <Gold.Chemscore.DEClash>
0.0678

> <Gold.Chemscore.DEInternal>
2.1734

> <Gold.Chemscore.Rot>
3.0120

> <Gold.Chemscore.Internal.Correction>
   9.000000E+99

> <Gold.Chemscore.Hbonds>
donor molecule, donor type, donor heavy atom, donor atom, acceptor molecule, acceptor atom, score
      L1  H    16    44       P1  8028  0.88
      L1  H    19    48       P1 10175  0.40
      P1  H  6896  6908       L1     8  0.61
      P1  H  7997  8010       L1    22  0.99

> <Gold.Chemscore.Hbond.Weighted>
-11.4021

> <Gold.Chemscore.Metal.Weighted>
-0.0000

> <Gold.Chemscore.Lipo.Weighted>
-14.4440

> <Gold.Chemscore.Internal_Hbond.Weighted>
0.0000

> <Gold.Chemscore.DEClash.Weighted>
0.0678

> <Gold.Chemscore.DEInternal.Weighted>
2.1734

> <Gold.Chemscore.Rot.Weighted>
7.7108

> <Gold.Chemscore.Internal.Correction.Weighted>
   9.000000E+99

> <Gold.Protein.RotatedTorsions>
[ 6907 6896 6895 6894 ] final -118.19 input  -60.11 | X-H torsion
[ 7974 7965 7964 7962 ] final -150.88 input  175.53 | X-H torsion
[ 8008 7997 7996 7995 ] final   60.33 input   59.86 | X-H torsion
[ 10167 10162 10161 10158 ] final -148.82 input  -65.29 | X-H torsion
[ 10718 10713 10712 10709 ] final   59.43 input   66.30 | X-H torsion
[ 10763 10752 10751 10750 ] final  -65.41 input  -60.55 | X-H torsion
[ 11005 11000 10999 10996 ] final   12.16 input  -57.11 | X-H torsion

> <Gold.Protein.ActiveResidues>
 VAL166  LYS551  ARG553  GLY616  TRP617  ASP618  TYR619  PRO620  LYS621  CYS622 
 ASP623  PHE694  ASN695  SER759  ASP760  ASP761  ALA762  ILE779  LEU786  VAL792 
 PHE793  MET794  SER795  GLU796  ALA797  LYS798  CYS799  TRP800  GLU811  SER814 

> <Gold.Protein.RotatedAtoms>
  150.8199  133.8272  159.3143 H   0  0  0  0  0  0  0  0  0  0  0  0  # atno 6907 bound_to 6896
  151.6033  135.1044  160.0074 H   0  0  0  0  0  0  0  0  0  0  0  0  # atno 6908 bound_to 6896
  152.4288  133.7201  159.6585 H   0  0  0  0  0  0  0  0  0  0  0  0  # atno 6909 bound_to 6896
  144.7882  140.4873  143.5791 H   0  0  0  0  0  0  0  0  0  0  0  0  # atno 7974 bound_to 7965
  155.5806  140.3491  155.4539 H   0  0  0  0  0  0  0  0  0  0  0  0  # atno 8008 bound_to 7997
  156.0376  140.1288  157.0215 H   0  0  0  0  0  0  0  0  0  0  0  0  # atno 8009 bound_to 7997
  154.4378  140.1030  156.6176 H   0  0  0  0  0  0  0  0  0  0  0  0  # atno 8010 bound_to 7997
  139.7497  143.8536  152.2583 H   0  0  0  0  0  0  0  0  0  0  0  0  # atno 10167 bound_to 10162
  157.5675  130.8882  149.9211 H   0  0  0  0  0  0  0  0  0  0  0  0  # atno 10718 bound_to 10713
  154.3446  135.6149  153.5613 H   0  0  0  0  0  0  0  0  0  0  0  0  # atno 10763 bound_to 10752
  152.9802  135.5778  154.4813 H   0  0  0  0  0  0  0  0  0  0  0  0  # atno 10764 bound_to 10752
  154.4524  135.2853  155.1749 H   0  0  0  0  0  0  0  0  0  0  0  0  # atno 10765 bound_to 10752
  140.4951  134.0801  155.7780 H   0  0  0  0  0  0  0  0  0  0  0  0  # atno 11005 bound_to 11000
  145.5865  139.1492  143.3206 LP  0  0  0  0  0  0  0  0  0  0  0  0  # atno 17320 bound_to 7965
  146.2123  140.5993  142.9054 LP  0  0  0  0  0  0  0  0  0  0  0  0  # atno 17321 bound_to 7965
  139.8511  144.7164  150.9213 LP  0  0  0  0  0  0  0  0  0  0  0  0  # atno 17342 bound_to 10162
  140.7796  143.3898  151.1329 LP  0  0  0  0  0  0  0  0  0  0  0  0  # atno 17343 bound_to 10162
  156.0722  130.3683  150.0752 LP  0  0  0  0  0  0  0  0  0  0  0  0  # atno 17370 bound_to 10713
  156.8909  130.9588  151.3588 LP  0  0  0  0  0  0  0  0  0  0  0  0  # atno 17371 bound_to 10713
  141.1464  133.9047  157.2204 LP  0  0  0  0  0  0  0  0  0  0  0  0  # atno 17394 bound_to 11000
  139.9746  135.0118  156.9599 LP  0  0  0  0  0  0  0  0  0  0  0  0  # atno 17395 bound_to 11000

$$$$
