#       Name:                AV-unprocessed.smi:2317
#       Creating user name   scv26
#       Creation time:       Fri Mar 27 12:49:33 2020


#       File generated by GOLD software.
#

@<TRIPOS>MOLECULE
AV-unprocessed.smi:2317
    42    43     1
SMALL
NO_CHARGES


@<TRIPOS>ATOM
      1 ****        -0.4540   1.6518   1.0929 O.2            1 S1                 0.0000
      2 ****        -0.9980   0.5517   1.1824 C.2            1 S1                 0.0000
      3 ****        -0.3209  -0.6044   1.2452 N.am           1 S1                 0.0000
      4 ****         1.1337  -0.7389   1.2452 C.3            1 S1                 0.0000
      5 ****         1.6868  -1.1895  -0.1262 C.3            1 S1                 0.0000
      6 ****         1.4217  -0.1741  -1.2622 C.3            1 S1                 0.0000
      7 ****         1.9555  -0.6792  -2.6127 C.3            1 S1                 0.0000
      8 ****         3.4501  -1.0216  -2.5341 C.3            1 S1                 0.0000
      9 ****         3.7310  -2.0341  -1.4107 C.3            1 S1                 0.0000
     10 ****         3.1906  -1.5541  -0.0496 C.3            1 S1                 0.0000
     11 ****         3.9636  -0.4536   0.3928 O.3            1 S1                 0.0000
     12 ****        -2.3246   0.3361   1.2121 N.am           1 S1                 0.0000
     13 ****        -3.3917   1.2768   1.1817 C.ar           1 S1                 0.0000
     14 ****        -3.2467   2.6641   1.4283 C.ar           1 S1                 0.0000
     15 ****        -4.3936   3.4822   1.3819 C.ar           1 S1                 0.0000
     16 ****        -5.6321   3.0141   1.1205 N.ar           1 S1                 0.0000
     17 ****        -5.7689   1.6902   0.8966 C.ar           1 S1                 0.0000
     18 ****        -4.6885   0.7856   0.9195 C.ar           1 S1                 0.0000
     19 ****        -4.8975  -0.5335   0.6905 F              1 S1                 0.0000
     20 ****        -0.8525  -1.4603   1.3079 H              1 S1                 0.0000
     21 ****         1.6094   0.1892   1.5660 H              1 S1                 0.0000
     22 ****         1.3865  -1.4827   2.0012 H              1 S1                 0.0000
     23 ****         1.1580  -2.1065  -0.3917 H              1 S1                 0.0000
     24 ****         0.3535   0.0177  -1.3606 H              1 S1                 0.0000
     25 ****         1.8830   0.7839  -1.0192 H              1 S1                 0.0000
     26 ****         1.3949  -1.5632  -2.9188 H              1 S1                 0.0000
     27 ****         1.7882   0.0743  -3.3828 H              1 S1                 0.0000
     28 ****         3.7893  -1.4237  -3.4892 H              1 S1                 0.0000
     29 ****         4.0251  -0.1108  -2.3628 H              1 S1                 0.0000
     30 ****         3.2623  -2.9855  -1.6654 H              1 S1                 0.0000
     31 ****         4.8016  -2.2321  -1.3444 H              1 S1                 0.0000
     32 ****         3.3280  -2.3528   0.6802 H              1 S1                 0.0000
     33 ****         3.6471  -0.1849   1.2417 H              1 S1                 0.0000
     34 ****        -2.6123  -0.6315   1.2205 H              1 S1                 0.0000
     35 ****        -2.2955   3.1160   1.6608 H              1 S1                 0.0000
     36 ****        -4.3137   4.5432   1.5665 H              1 S1                 0.0000
     37 ****        -6.7705   1.3403   0.6954 H              1 S1                 0.0000
     38 ****         0.5436   1.7154   1.0636 LP             1 S1                 0.0000
     39 ****        -1.0094   2.4822   1.0495 LP             1 S1                 0.0000
     40 ****         3.8744   0.3029  -0.2550 LP             1 S1                 0.0000
     41 ****         4.9244  -0.7224   0.4610 LP             1 S1                 0.0000
     42 ****        -6.4215   3.6273   1.0936 LP             1 S1                 0.0000
@<TRIPOS>BOND
    1    1    2 2     
    2    2    3 am    
    3    2   12 am    
    4    3    4 1     
    5    3   20 1     
    6    4    5 1     
    7    4   21 1     
    8    4   22 1     
    9    5   10 1     
   10    5    6 1     
   11    5   23 1     
   12    6    7 1     
   13    6   24 1     
   14    6   25 1     
   15    7    8 1     
   16    7   26 1     
   17    7   27 1     
   18    8    9 1     
   19    8   28 1     
   20    8   29 1     
   21    9   10 1     
   22    9   30 1     
   23    9   31 1     
   24   10   11 1     
   25   10   32 1     
   26   11   33 1     
   27   12   13 1     
   28   12   34 1     
   29   13   18 ar    
   30   13   14 ar    
   31   14   15 ar    
   32   14   35 1     
   33   15   16 ar    
   34   15   36 1     
   35   16   17 ar    
   36   17   18 ar    
   37   17   37 1     
   38   18   19 1     
   39    1   38 1     
   40    1   39 1     
   41   11   40 1     
   42   11   41 1     
   43   16   42 1     
@<TRIPOS>SUBSTRUCTURE
      1 S1             1
@<TRIPOS>SET
LONE_PAIRS      STATIC     ATOMS    <user>   **** ""
5 38 39 40 41 42
DONOR_HYDROGENS      STATIC     ATOMS    <user>   **** ""
3 20 33 34
ATOM$BLUE        STATIC     ATOMS    COLORGROUP SYSTEM
5 38 39 40 41 42
ATOM$RED        STATIC     ATOMS    COLORGROUP SYSTEM
3 20 33 34
