AV-unprocessed.smi:703|AV-procd|sdf|3441|dock7
  -GOLD-   22720 0433D 1   1.00000     0.00000
 Structure written by MMmdl.
 37 38  0  0  0  0  0  0  0  0  3 V2000
  146.6325  135.3546  156.2449 C   0  0  0  0  0  0  0  0  0  0  0  0
  147.0951  135.6162  154.8051 C   0  0  0  0  0  0  0  0  0  0  0  0
  148.5733  135.6709  154.6904 N   0  3  2  0  0  0  0  0  0  0  0  0
  149.2674  134.3991  155.0051 C   0  0  0  0  0  0  0  0  0  0  0  0
  150.5918  134.8061  155.6590 C   0  0  2  0  0  0  0  0  0  0  0  0
  151.3016  133.6730  156.4285 C   0  0  0  0  0  0  0  0  0  0  0  0
  150.2277  136.0899  156.4311 C   0  0  2  0  0  0  0  0  0  0  0  0
  149.5729  135.7834  157.6977 N   0  5  0  0  0  0  0  0  0  0  0  0
  149.1396  136.9847  158.6985 S   0  0  0  0  0  0  0  0  0  0  0  0
  149.9500  137.0266  159.9266 O   0  0  0  0  0  0  0  0  0  0  0  0
  148.9443  138.2531  157.9787 O   0  0  0  0  0  0  0  0  0  0  0  0
  147.4550  136.4216  159.2035 C   0  0  0  0  0  0  0  0  0  0  0  0
  147.3839  136.2432  160.6957 C   0  0  0  0  0  0  0  0  0  0  0  0
  147.1549  135.0463  161.4305 C   0  0  0  0  0  0  0  0  0  0  0  0
  147.1984  135.4567  162.7312 C   0  0  0  0  0  0  0  0  0  0  0  0
  147.4217  136.7931  162.8006 O   0  0  0  0  0  0  0  0  0  0  0  0
  147.5338  137.2874  161.4960 N   0  0  0  0  0  0  0  0  0  0  0  0
  149.2067  136.7512  155.4912 C   0  0  0  0  0  0  0  0  0  0  0  0
  145.5471  135.2642  156.2892 H   0  0  0  0  0  0  0  0  0  0  0  0
  146.9200  136.1653  156.9147 H   0  0  0  0  0  0  0  0  0  0  0  0
  147.0584  134.4293  156.6340 H   0  0  0  0  0  0  0  0  0  0  0  0
  146.7251  134.8109  154.1693 H   0  0  0  0  0  0  0  0  0  0  0  0
  146.6587  136.5417  154.4258 H   0  0  0  0  0  0  0  0  0  0  0  0
  148.6690  133.7944  155.6922 H   0  0  0  0  0  0  0  0  0  0  0  0
  149.4215  133.8063  154.1029 H   0  0  0  0  0  0  0  0  0  0  0  0
  151.2647  135.1080  154.8547 H   0  0  0  0  0  0  0  0  0  0  0  0
  150.6899  133.2690  157.2368 H   0  0  0  0  0  0  0  0  0  0  0  0
  152.2470  134.0074  156.8587 H   0  0  0  0  0  0  0  0  0  0  0  0
  151.5310  132.8446  155.7583 H   0  0  0  0  0  0  0  0  0  0  0  0
  151.0994  136.7329  156.5578 H   0  0  0  0  0  0  0  0  0  0  0  0
  146.7406  137.1735  158.8681 H   0  0  0  0  0  0  0  0  0  0  0  0
  147.2249  135.4953  158.6782 H   0  0  0  0  0  0  0  0  0  0  0  0
  146.9963  134.0450  161.0590 H   0  0  0  0  0  0  0  0  0  0  0  0
  147.0925  134.9429  163.6753 H   0  0  0  0  0  0  0  0  0  0  0  0
  149.7271  137.4083  154.7937 H   0  0  0  0  0  0  0  0  0  0  0  0
  148.4823  137.3714  156.0230 H   0  0  0  0  0  0  0  0  0  0  0  0
  148.7848  135.8878  153.7273 H   0  0  0  0  0  0  0  0  0  0  0  0
  1  2  1  0  0  0  0
  1 19  1  0  0  0  0
  1 20  1  0  0  0  0
  1 21  1  0  0  0  0
  2  3  1  0  0  0  0
  2 22  1  0  0  0  0
  2 23  1  0  0  0  0
  3 18  1  0  0  0  0
  3  4  1  0  0  0  0
  3 37  1  0  0  0  0
  4  5  1  0  0  0  0
  4 24  1  0  0  0  0
  4 25  1  0  0  0  0
  5  6  1  0  0  0  0
  5  7  1  0  0  0  0
  5 26  1  0  0  0  0
  6 27  1  0  0  0  0
  6 28  1  0  0  0  0
  6 29  1  0  0  0  0
  7  8  1  0  0  0  0
  7 18  1  0  0  0  0
  7 30  1  0  0  0  0
  8  9  1  0  0  0  0
  9 10  2  0  0  0  0
  9 11  2  0  0  0  0
  9 12  1  0  0  0  0
 12 13  1  0  0  0  0
 12 31  1  0  0  0  0
 12 32  1  0  0  0  0
 13 17  2  0  0  0  0
 13 14  1  0  0  0  0
 14 15  2  0  0  0  0
 14 33  1  0  0  0  0
 15 16  1  0  0  0  0
 15 34  1  0  0  0  0
 16 17  1  0  0  0  0
 18 35  1  0  0  0  0
 18 36  1  0  0  0  0
M  CHG  1   3   1
M  CHG  1   8  -1
M  END
> <s_m_source_file>
AV-unprocessed.smi

> <i_m_source_file_index>
703

> <i_lp_mmshare_version>
43012

> <i_f3d_flags>
0

> <s_epik_input>
W0NIM11bQ0gyXU4xW0NIMl1bQ0BASF0oW0NIM10pW0NASF0oW0NIMl0xKVtOSF1TKD1PKSg9TylbQ0gyXWMyW2NIXVtjSF1vbjI=

> <s_epik_cmdline>
J2VwaWtfcHl0aG9uJywgJy1waCcsICc3LjAnLCAnLXRuJywgJzgnLCAnLW1hJywgJzIwMCcsICctbWV0YWxfYmluZGluZycsICctaW1hZScsICc8aW5maWxlLm1hZT4nLCAnLW9tYWUnLCAnPG91dGZpbGUubWFlPic=

> <r_epik_Ionization_Penalty>
3.62494

> <r_epik_Ionization_Penalty_Charging>
3.62494

> <r_epik_Ionization_Penalty_Neutral>
2.0321e-10

> <r_epik_State_Penalty>
3.62558

> <r_epik_Charging_Adjusted_Penalty>
7.25052

> <i_epik_Tot_Q>
0

> <i_epik_Tot_abs_Q>
2

> <r_epik_Metal_State_Penalty>
0.530836

> <b_epik_Metal_Only>
1

> <s_lp_Force_Field>
OPLS_2005

> <r_lp_Energy>
19.3254

> <b_lp_Chiralities_Consistent>
1

> <s_lp_Variant>
AV-unprocessed.smi:703-16

> <Gold.Version>
5.8.1

> <Gold.Id.Protein>
6NUR|6NUR_protein|mol2

> <Gold.PLP.Fitness>
39.2476

> <Gold.PLP.PLP>
-25.9869

> <Gold.PLP.part.hbond>
-5.4821

> <Gold.PLP.part.metal>
0.0000

> <Gold.PLP.part.buried>
-4.3008

> <Gold.PLP.part.nonpolar>
-16.5575

> <Gold.PLP.part.repulsive>
0.0063

> <Gold.PLP.ligand.clash>
0.0000

> <Gold.PLP.ligand.torsion>
0.6473

> <Gold.PLP.Chemscore.Hbond>
4.5040

> <Gold.PLP.Chemscore.CHOScore>
0.0000

> <Gold.PLP.Chemscore.Metal>
0.0000

> <Gold.Chemscore.Hbonds>
donor molecule, donor type, donor heavy atom, donor atom, acceptor molecule, acceptor atom, score
      L1  H     3    37       P1  7948  2.00
      P1  H  6896  6907       L1    10  0.37
      P1  H  6931  6943       L1    17  0.54
      P1  H  6934  6947       L1    17  0.83

> <Gold.PLP.Chemscore.Internal.Correction>
1.0432

> <Gold.Rescore>
     Score         DG    S(hbond)    S(metal)    S(lipo)     H(rot)  DE(clash)    DE(int)     intcor
     14.53     -16.55       2.92        0.00      47.04       1.63       0.05       1.98       ----

> <Gold.Chemscore.Fitness>
14.5251

> <Gold.Chemscore.DG>
-16.5484

> <Gold.Chemscore.ZeroCoef>
-5.4800

> <Gold.Chemscore.Hbond>
2.9185

> <Gold.Chemscore.Metal>
0.0000

> <Gold.Chemscore.Lipo>
47.0362

> <Gold.Chemscore.Internal_Hbond>
0.0000

> <Gold.Chemscore.DEClash>
0.0456

> <Gold.Chemscore.DEInternal>
1.9777

> <Gold.Chemscore.Rot>
1.6338

> <Gold.Chemscore.Internal.Correction>
   9.000000E+99

> <Gold.Chemscore.Hbonds>
donor molecule, donor type, donor heavy atom, donor atom, acceptor molecule, acceptor atom, score
      L1  H     3    37       P1  7948  0.99
      P1  H  6896  6907       L1    10  0.10
      P1  H  6931  6943       L1    17  0.04
      P1  H  6934  6947       L1    17  0.81

> <Gold.Chemscore.Hbond.Weighted>
-9.7477

> <Gold.Chemscore.Metal.Weighted>
-0.0000

> <Gold.Chemscore.Lipo.Weighted>
-5.5032

> <Gold.Chemscore.Internal_Hbond.Weighted>
0.0000

> <Gold.Chemscore.DEClash.Weighted>
0.0456

> <Gold.Chemscore.DEInternal.Weighted>
1.9777

> <Gold.Chemscore.Rot.Weighted>
4.1825

> <Gold.Chemscore.Internal.Correction.Weighted>
   9.000000E+99

> <Gold.Protein.RotatedTorsions>
[ 6907 6896 6895 6894 ] final  -38.95 input  -60.11 | X-H torsion
[ 7974 7965 7964 7962 ] final  107.84 input  175.53 | X-H torsion
[ 8008 7997 7996 7995 ] final    3.80 input   59.86 | X-H torsion
[ 10167 10162 10161 10158 ] final   65.44 input  -65.29 | X-H torsion
[ 10718 10713 10712 10709 ] final -101.05 input   66.30 | X-H torsion
[ 10763 10752 10751 10750 ] final -110.33 input  -60.55 | X-H torsion
[ 11005 11000 10999 10996 ] final  -85.73 input  -57.11 | X-H torsion

> <Gold.Protein.ActiveResidues>
 VAL166  LYS551  ARG553  GLY616  TRP617  ASP618  TYR619  PRO620  LYS621  CYS622 
 ASP623  PHE694  ASN695  SER759  ASP760  ASP761  ALA762  ILE779  LEU786  VAL792 
 PHE793  MET794  SER795  GLU796  ALA797  LYS798  CYS799  TRP800  GLU811  SER814 

> <Gold.Protein.RotatedAtoms>
  150.9962  134.9285  159.7927 H   0  0  0  0  0  0  0  0  0  0  0  0  # atno 6907 bound_to 6896
  152.5265  134.3215  159.9160 H   0  0  0  0  0  0  0  0  0  0  0  0  # atno 6908 bound_to 6896
  151.3221  133.3994  159.2690 H   0  0  0  0  0  0  0  0  0  0  0  0  # atno 6909 bound_to 6896
  145.2884  139.2609  143.3878 H   0  0  0  0  0  0  0  0  0  0  0  0  # atno 7974 bound_to 7965
  154.7081  140.2687  155.6655 H   0  0  0  0  0  0  0  0  0  0  0  0  # atno 8008 bound_to 7997
  156.2786  140.2759  156.1637 H   0  0  0  0  0  0  0  0  0  0  0  0  # atno 8009 bound_to 7997
  155.0673  140.0372  157.2587 H   0  0  0  0  0  0  0  0  0  0  0  0  # atno 8010 bound_to 7997
  140.1113  144.4815  150.6976 H   0  0  0  0  0  0  0  0  0  0  0  0  # atno 10167 bound_to 10162
  156.0182  130.5356  150.6906 H   0  0  0  0  0  0  0  0  0  0  0  0  # atno 10718 bound_to 10713
  154.8242  135.4568  154.0868 H   0  0  0  0  0  0  0  0  0  0  0  0  # atno 10763 bound_to 10752
  153.2196  135.6892  153.8022 H   0  0  0  0  0  0  0  0  0  0  0  0  # atno 10764 bound_to 10752
  153.7444  135.3307  155.3286 H   0  0  0  0  0  0  0  0  0  0  0  0  # atno 10765 bound_to 10752
  141.1638  133.7415  156.9058 H   0  0  0  0  0  0  0  0  0  0  0  0  # atno 11005 bound_to 11000
  146.3193  140.3368  142.8645 LP  0  0  0  0  0  0  0  0  0  0  0  0  # atno 17320 bound_to 7965
  144.9194  140.7850  143.5758 LP  0  0  0  0  0  0  0  0  0  0  0  0  # atno 17321 bound_to 7965
  140.6924  143.2383  151.5095 LP  0  0  0  0  0  0  0  0  0  0  0  0  # atno 17342 bound_to 10162
  139.5618  144.2139  152.1702 LP  0  0  0  0  0  0  0  0  0  0  0  0  # atno 17343 bound_to 10162
  157.4589  131.0881  151.0767 LP  0  0  0  0  0  0  0  0  0  0  0  0  # atno 17370 bound_to 10713
  157.1261  130.6082  149.5517 LP  0  0  0  0  0  0  0  0  0  0  0  0  # atno 17371 bound_to 10713
  140.1551  134.9204  157.2643 LP  0  0  0  0  0  0  0  0  0  0  0  0  # atno 17394 bound_to 11000
  140.2677  134.3497  155.7384 LP  0  0  0  0  0  0  0  0  0  0  0  0  # atno 17395 bound_to 11000

$$$$
