#       Name:                AV-unprocessed.smi:1207
#       Creating user name   scv26
#       Creation time:       Fri Mar 27 04:08:14 2020


#       File generated by GOLD software.
#

@<TRIPOS>MOLECULE
AV-unprocessed.smi:1207
    58    60     1
SMALL
NO_CHARGES


@<TRIPOS>ATOM
      1 ****        -5.6433   1.3683   2.0941 C.3            1 S1                 0.0000
      2 ****        -4.4278   1.6048   1.2152 C.ar           1 S1                 0.0000
      3 ****        -4.6171   2.0217  -0.1219 C.ar           1 S1                 0.0000
      4 ****        -3.5133   2.2519  -0.9718 C.ar           1 S1                 0.0000
      5 ****        -3.4656   2.6566  -2.2948 N.2            1 S1                 0.0000
      6 ****        -2.1552   2.6884  -2.5190 C.2            1 S1                 0.0000
      7 ****        -1.3464   2.3475  -1.4971 N.pl3          1 S1                 0.0000
      8 ****         0.1050   2.3046  -1.5004 C.3            1 S1                 0.0000
      9 ****         0.6449   0.8634  -1.4446 C.3            1 S1                 0.0000
     10 ****         0.1954   0.1479  -2.5797 O.3            1 S1                 0.0000
     11 ****         2.1846   0.8148  -1.4033 C.3            1 S1                 0.0000
     12 ****         2.6785  -0.5515  -1.0969 N.4            1 S1                 1.0000
     13 ****         3.9965  -0.8272  -1.7138 C.3            1 S1                 0.0000
     14 ****         2.6469  -0.8737   0.3531 C.3            1 S1                 0.0000
     15 ****         2.4693  -2.3528   0.5696 C.2            1 S1                 0.0000
     16 ****         1.2534  -3.0933   0.5196 C.2            1 S1                 0.0000
     17 ****        -0.1343  -2.5905   0.2380 C.3            1 S1                 0.0000
     18 ****         1.4487  -4.3794   0.7539 N.2            1 S1                 0.0000
     19 ****         2.8211  -4.5241   0.9769 O.3            1 S1                 0.0000
     20 ****         3.4070  -3.3051   0.8645 C.2            1 S1                 0.0000
     21 ****         4.8833  -3.2592   1.0733 C.3            1 S1                 0.0000
     22 ****        -2.2045   2.0536  -0.4427 C.ar           1 S1                 0.0000
     23 ****        -2.0031   1.6416   0.8867 C.ar           1 S1                 0.0000
     24 ****        -3.1169   1.4124   1.7211 C.ar           1 S1                 0.0000
     25 ****        -2.8893   0.9623   3.1533 C.3            1 S1                 0.0000
     26 ****        -6.5687   1.5931   1.5631 H              1 S1                 0.0000
     27 ****        -5.6048   2.0028   2.9799 H              1 S1                 0.0000
     28 ****        -5.6856   0.3270   2.4143 H              1 S1                 0.0000
     29 ****        -5.6156   2.1680  -0.5077 H              1 S1                 0.0000
     30 ****        -1.7610   2.9724  -3.4838 H              1 S1                 0.0000
     31 ****         0.4723   2.8190  -2.3899 H              1 S1                 0.0000
     32 ****         0.4598   2.8735  -0.6400 H              1 S1                 0.0000
     33 ****         0.2340   0.3744  -0.5622 H              1 S1                 0.0000
     34 ****         0.4609   0.6137  -3.3583 H              1 S1                 0.0000
     35 ****         2.5716   1.1538  -2.3659 H              1 S1                 0.0000
     36 ****         2.5754   1.5105  -0.6588 H              1 S1                 0.0000
     37 ****         4.7664  -0.1747  -1.2997 H              1 S1                 0.0000
     38 ****         3.9588  -0.6699  -2.7922 H              1 S1                 0.0000
     39 ****         4.2987  -1.8610  -1.5481 H              1 S1                 0.0000
     40 ****         3.5523  -0.4976   0.8311 H              1 S1                 0.0000
     41 ****         1.8305  -0.3388   0.8382 H              1 S1                 0.0000
     42 ****        -0.3951  -1.7678   0.9044 H              1 S1                 0.0000
     43 ****        -0.8835  -3.3720   0.3716 H              1 S1                 0.0000
     44 ****        -0.2160  -2.2267  -0.7862 H              1 S1                 0.0000
     45 ****         5.2637  -2.2416   0.9876 H              1 S1                 0.0000
     46 ****         5.3962  -3.8732   0.3328 H              1 S1                 0.0000
     47 ****         5.1450  -3.6343   2.0628 H              1 S1                 0.0000
     48 ****        -1.0000   1.5012   1.2610 H              1 S1                 0.0000
     49 ****        -1.8283   0.8247   3.3638 H              1 S1                 0.0000
     50 ****        -3.3922   0.0134   3.3413 H              1 S1                 0.0000
     51 ****        -3.2761   1.7045   3.8521 H              1 S1                 0.0000
     52 ****         2.0236  -1.1768  -1.5454 H              1 S1                 0.0000
     53 ****        -4.2184   2.8691  -2.9178 LP             1 S1                 0.0000
     54 ****        -0.8015   0.0727  -2.5565 LP             1 S1                 0.0000
     55 ****         0.5987  -0.7672  -2.5816 LP             1 S1                 0.0000
     56 ****         0.7566  -5.1010   0.7686 LP             1 S1                 0.0000
     57 ****         3.2089  -5.1485   0.2989 LP             1 S1                 0.0000
     58 ****         2.9769  -4.8899   1.8945 LP             1 S1                 0.0000
@<TRIPOS>BOND
    1    1    2 1     
    2    1   26 1     
    3    1   27 1     
    4    1   28 1     
    5    2   24 ar    
    6    2    3 ar    
    7    3    4 ar    
    8    3   29 1     
    9    4   22 ar    
   10    4    5 1     
   11    5    6 2     
   12    6    7 1     
   13    6   30 1     
   14    7    8 1     
   15    7   22 1     
   16    8    9 1     
   17    8   31 1     
   18    8   32 1     
   19    9   10 1     
   20    9   11 1     
   21    9   33 1     
   22   10   34 1     
   23   11   12 1     
   24   11   35 1     
   25   11   36 1     
   26   12   13 1     
   27   12   14 1     
   28   12   52 1     
   29   13   37 1     
   30   13   38 1     
   31   13   39 1     
   32   14   15 1     
   33   14   40 1     
   34   14   41 1     
   35   15   20 2     
   36   15   16 1     
   37   16   17 1     
   38   16   18 2     
   39   17   42 1     
   40   17   43 1     
   41   17   44 1     
   42   18   19 1     
   43   19   20 1     
   44   20   21 1     
   45   21   45 1     
   46   21   46 1     
   47   21   47 1     
   48   22   23 ar    
   49   23   24 ar    
   50   23   48 1     
   51   24   25 1     
   52   25   49 1     
   53   25   50 1     
   54   25   51 1     
   55    5   53 1     
   56   10   54 1     
   57   10   55 1     
   58   18   56 1     
   59   19   57 1     
   60   19   58 1     
@<TRIPOS>SUBSTRUCTURE
      1 S1             1
@<TRIPOS>SET
LONE_PAIRS      STATIC     ATOMS    <user>   **** ""
6 53 54 55 56 57 58
DONOR_HYDROGENS      STATIC     ATOMS    <user>   **** ""
2 34 52
ATOM$BLUE        STATIC     ATOMS    COLORGROUP SYSTEM
6 53 54 55 56 57 58
ATOM$RED        STATIC     ATOMS    COLORGROUP SYSTEM
2 34 52
