AV-unprocessed.smi:21|AV-procd|sdf|151|dock5
  -GOLD-   2262015373D 1   1.00000     0.00000
 Structure written by MMmdl.
 62 65  0  0  0  0  0  0  0  0  2 V2000
  144.7998  132.0941  150.9524 C   0  0  0  0  0  0  0  0  0  0  0  0
  144.6952  133.4096  151.4749 O   0  0  0  0  0  0  0  0  0  0  0  0
  145.7112  134.2909  151.0144 C   0  0  1  0  0  0  0  0  0  0  0  0
  145.3968  135.6944  151.5173 C   0  0  0  0  0  0  0  0  0  0  0  0
  145.9709  135.7077  152.9368 C   0  0  2  0  0  0  0  0  0  0  0  0
  146.2884  137.1193  153.4714 C   0  0  0  0  0  0  0  0  0  0  0  0
  146.0554  137.2401  154.9124 N   0  0  0  0  0  0  0  0  0  0  0  0
  144.7706  136.7921  155.4350 C   0  0  0  0  0  0  0  0  0  0  0  0
  146.8519  138.0500  155.6672 C   0  0  0  0  0  0  0  0  0  0  0  0
  146.7764  137.9396  157.0208 N   0  0  0  0  0  0  0  0  0  0  0  0
  147.5328  138.7008  157.8155 C   0  0  0  0  0  0  0  0  0  0  0  0
  148.4297  139.6250  157.4742 N   0  0  0  0  0  0  0  0  0  0  0  0
  148.5195  139.7463  156.1199 C   0  0  0  0  0  0  0  0  0  0  0  0
  147.7748  139.0122  155.1503 C   0  0  0  0  0  0  0  0  0  0  0  0
  148.1570  139.4196  153.8751 N   0  0  0  0  0  0  0  0  0  0  0  0
  149.0604  140.3381  154.0788 C   0  0  0  0  0  0  0  0  0  0  0  0
  149.3479  140.5881  155.3998 N   0  0  0  0  0  0  0  0  0  0  0  0
  150.3119  141.5416  155.9194 C   0  0  0  0  0  0  0  0  0  0  0  0
  150.6330  141.3068  157.4183 C   0  0  1  0  0  0  0  0  0  0  0  0
  151.3753  139.9671  157.6315 C   0  0  0  0  0  0  0  0  0  0  0  0
  152.6415  139.9772  157.0058 O   0  0  0  0  0  0  0  0  0  0  0  0
  151.3795  142.4957  158.0838 C   0  0  1  0  0  0  0  0  0  0  0  0
  150.7018  143.8587  157.9895 C   0  0  0  0  0  0  0  0  0  0  0  0
  151.2385  144.5706  159.2230 C   0  0  0  0  0  0  0  0  0  0  0  0
  151.2291  143.5445  160.2011 O   0  0  0  0  0  0  0  0  0  0  0  0
  151.6720  142.3388  159.5874 C   0  0  0  0  0  0  0  0  0  0  0  0
  147.1884  134.8681  152.8570 N   0  3  1  0  0  0  0  0  0  0  0  0
  147.5217  134.1630  154.1142 C   0  0  0  0  0  0  0  0  0  0  0  0
  147.0551  133.9673  151.6864 C   0  0  0  0  0  0  0  0  0  0  0  0
  145.7732  134.2742  149.9249 H   0  0  0  0  0  0  0  0  0  0  0  0
  145.2564  135.2119  153.5968 H   0  0  0  0  0  0  0  0  0  0  0  0
  144.0041  131.4744  151.3658 H   0  0  0  0  0  0  0  0  0  0  0  0
  145.7519  131.6290  151.2082 H   0  0  0  0  0  0  0  0  0  0  0  0
  144.6934  132.0940  149.8668 H   0  0  0  0  0  0  0  0  0  0  0  0
  145.9176  136.4241  150.8956 H   0  0  0  0  0  0  0  0  0  0  0  0
  144.3323  135.9298  151.4849 H   0  0  0  0  0  0  0  0  0  0  0  0
  147.3404  137.3434  153.2928 H   0  0  0  0  0  0  0  0  0  0  0  0
  145.7415  137.8714  152.9025 H   0  0  0  0  0  0  0  0  0  0  0  0
  144.8776  136.3957  156.4452 H   0  0  0  0  0  0  0  0  0  0  0  0
  144.3560  135.9972  154.8142 H   0  0  0  0  0  0  0  0  0  0  0  0
  144.0527  137.6129  155.4498 H   0  0  0  0  0  0  0  0  0  0  0  0
  147.4007  138.5472  158.8766 H   0  0  0  0  0  0  0  0  0  0  0  0
  149.5520  140.8529  153.2660 H   0  0  0  0  0  0  0  0  0  0  0  0
  151.2164  141.4716  155.3153 H   0  0  0  0  0  0  0  0  0  0  0  0
  149.9071  142.5385  155.7495 H   0  0  0  0  0  0  0  0  0  0  0  0
  149.6766  141.2227  157.9370 H   0  0  0  0  0  0  0  0  0  0  0  0
  151.5436  139.7757  158.6910 H   0  0  0  0  0  0  0  0  0  0  0  0
  150.7887  139.1320  157.2479 H   0  0  0  0  0  0  0  0  0  0  0  0
  152.5837  139.4856  156.2005 H   0  0  0  0  0  0  0  0  0  0  0  0
  152.3541  142.5943  157.6036 H   0  0  0  0  0  0  0  0  0  0  0  0
  150.9342  144.3857  157.0639 H   0  0  0  0  0  0  0  0  0  0  0  0
  149.6186  143.7802  158.0693 H   0  0  0  0  0  0  0  0  0  0  0  0
  152.2603  144.9187  159.0626 H   0  0  0  0  0  0  0  0  0  0  0  0
  150.6243  145.4201  159.5226 H   0  0  0  0  0  0  0  0  0  0  0  0
  151.1780  141.4827  160.0455 H   0  0  0  0  0  0  0  0  0  0  0  0
  152.7432  142.2205  159.7553 H   0  0  0  0  0  0  0  0  0  0  0  0
  146.7359  133.4578  154.3890 H   0  0  0  0  0  0  0  0  0  0  0  0
  147.6485  134.8706  154.9339 H   0  0  0  0  0  0  0  0  0  0  0  0
  148.4547  133.6096  154.0034 H   0  0  0  0  0  0  0  0  0  0  0  0
  147.1404  132.9144  151.9572 H   0  0  0  0  0  0  0  0  0  0  0  0
  147.8764  134.1899  151.0046 H   0  0  0  0  0  0  0  0  0  0  0  0
  147.9556  135.4906  152.6466 H   0  0  0  0  0  0  0  0  0  0  0  0
  1  2  1  0  0  0  0
  1 32  1  0  0  0  0
  1 33  1  0  0  0  0
  1 34  1  0  0  0  0
  2  3  1  0  0  0  0
  3 30  1  0  0  0  0
  3 29  1  0  0  0  0
  3  4  1  0  0  0  0
  4  5  1  0  0  0  0
  4 35  1  0  0  0  0
  4 36  1  0  0  0  0
  5 31  1  0  0  0  0
  5  6  1  0  0  0  0
  5 27  1  0  0  0  0
  6  7  1  0  0  0  0
  6 37  1  0  0  0  0
  6 38  1  0  0  0  0
  7  8  1  0  0  0  0
  7  9  1  0  0  0  0
  8 39  1  0  0  0  0
  8 40  1  0  0  0  0
  8 41  1  0  0  0  0
  9 14  1  0  0  0  0
  9 10  2  0  0  0  0
 10 11  1  0  0  0  0
 11 12  2  0  0  0  0
 11 42  1  0  0  0  0
 12 13  1  0  0  0  0
 13 17  1  0  0  0  0
 13 14  2  0  0  0  0
 14 15  1  0  0  0  0
 15 16  2  0  0  0  0
 16 17  1  0  0  0  0
 16 43  1  0  0  0  0
 17 18  1  0  0  0  0
 18 19  1  0  0  0  0
 18 44  1  0  0  0  0
 18 45  1  0  0  0  0
 19 20  1  0  0  0  0
 19 22  1  0  0  0  0
 19 46  1  0  0  0  0
 20 21  1  0  0  0  0
 20 47  1  0  0  0  0
 20 48  1  0  0  0  0
 21 49  1  0  0  0  0
 22 26  1  0  0  0  0
 22 23  1  0  0  0  0
 22 50  1  0  0  0  0
 23 24  1  0  0  0  0
 23 51  1  0  0  0  0
 23 52  1  0  0  0  0
 24 25  1  0  0  0  0
 24 53  1  0  0  0  0
 24 54  1  0  0  0  0
 25 26  1  0  0  0  0
 26 55  1  0  0  0  0
 26 56  1  0  0  0  0
 27 28  1  0  0  0  0
 27 29  1  0  0  0  0
 27 62  1  0  0  0  0
 28 57  1  0  0  0  0
 28 58  1  0  0  0  0
 28 59  1  0  0  0  0
 29 60  1  0  0  0  0
 29 61  1  0  0  0  0
M  CHG  1  27   1
M  END
> <s_m_source_file>
AV-unprocessed.smi

> <i_m_source_file_index>
21

> <i_lp_mmshare_version>
43012

> <i_f3d_flags>
0

> <s_epik_input>
W0NIM11PW0NASF0xW0NIMl1bQ0BIXShOKFtDSDNdKVtDSDJdMSlbQ0gyXU4oW0NIM10pYyhuW2NIXW4yKWMoYzIzKW5bY0hdbjNbQ0gyXVtDQEhdKFtDSDJdW09IXSlbQ0BASF00W0NIMl1bQ0gyXU9bQ0gyXTQ=

> <s_epik_cmdline>
J2VwaWtfcHl0aG9uJywgJy1waCcsICc3LjAnLCAnLXRuJywgJzgnLCAnLW1hJywgJzIwMCcsICctbWV0YWxfYmluZGluZycsICctaW1hZScsICc8aW5maWxlLm1hZT4nLCAnLW9tYWUnLCAnPG91dGZpbGUubWFlPic=

> <r_lp_tautomer_probability>
1

> <r_epik_Ionization_Penalty>
0.0157465

> <r_epik_Ionization_Penalty_Charging>
0.015354

> <r_epik_Ionization_Penalty_Neutral>
0.000392529

> <r_epik_State_Penalty>
0.0120612

> <r_epik_Charging_Adjusted_Penalty>
0.0274152

> <i_epik_Tot_Q>
1

> <i_epik_Tot_abs_Q>
1

> <r_epik_Metal_State_Penalty>
0.0121253

> <b_epik_Metal_Only>
0

> <s_lp_Force_Field>
OPLS_2005

> <r_lp_Energy>
59.9021

> <b_lp_Chiralities_Consistent>
1

> <s_lp_Variant>
AV-unprocessed.smi:21-31

> <Gold.Version>
5.8.1

> <Gold.Id.Protein>
6NUR|6NUR_protein|mol2

> <Gold.PLP.Fitness>
46.8235

> <Gold.PLP.PLP>
-37.3908

> <Gold.PLP.part.hbond>
-2.0000

> <Gold.PLP.part.metal>
0.0000

> <Gold.PLP.part.buried>
-4.2519

> <Gold.PLP.part.nonpolar>
-31.6655

> <Gold.PLP.part.repulsive>
1.0005

> <Gold.PLP.ligand.clash>
0.0000

> <Gold.PLP.ligand.torsion>
1.2310

> <Gold.PLP.Chemscore.Hbond>
3.0000

> <Gold.PLP.Chemscore.CHOScore>
0.8453

> <Gold.PLP.Chemscore.Metal>
0.0000

> <Gold.Chemscore.Hbonds>
donor molecule, donor type, donor heavy atom, donor atom, acceptor molecule, acceptor atom, score
      L1  H    27    62       P1  7948  1.59
      P1  H  7997  8009       L1    21  0.54
      L1  C    16    43       P1  7957  0.87

> <Gold.PLP.Chemscore.Internal.Correction>
0.3590

> <Gold.Rescore>
     Score         DG    S(hbond)    S(metal)    S(lipo)     H(rot)  DE(clash)    DE(int)     intcor
     10.25     -14.74       1.97        0.00      90.38       3.08       0.49       4.00       ----

> <Gold.Chemscore.Fitness>
10.2468

> <Gold.Chemscore.DG>
-14.7440

> <Gold.Chemscore.ZeroCoef>
-5.4800

> <Gold.Chemscore.Hbond>
1.9652

> <Gold.Chemscore.Metal>
0.0000

> <Gold.Chemscore.Lipo>
90.3793

> <Gold.Chemscore.Internal_Hbond>
0.0000

> <Gold.Chemscore.DEClash>
0.4923

> <Gold.Chemscore.DEInternal>
4.0049

> <Gold.Chemscore.Rot>
3.0758

> <Gold.Chemscore.Internal.Correction>
   9.000000E+99

> <Gold.Chemscore.Hbonds>
donor molecule, donor type, donor heavy atom, donor atom, acceptor molecule, acceptor atom, score
      L1  H    27    62       P1  7948  0.78
      P1  H  7997  8009       L1    21  0.05

> <Gold.Chemscore.Hbond.Weighted>
-6.5638

> <Gold.Chemscore.Metal.Weighted>
-0.0000

> <Gold.Chemscore.Lipo.Weighted>
-10.5744

> <Gold.Chemscore.Internal_Hbond.Weighted>
0.0000

> <Gold.Chemscore.DEClash.Weighted>
0.4923

> <Gold.Chemscore.DEInternal.Weighted>
4.0049

> <Gold.Chemscore.Rot.Weighted>
7.8741

> <Gold.Chemscore.Internal.Correction.Weighted>
   9.000000E+99

> <Gold.Protein.RotatedTorsions>
[ 6907 6896 6895 6894 ] final  122.87 input  -60.11 | X-H torsion
[ 7974 7965 7964 7962 ] final -109.02 input  175.53 | X-H torsion
[ 8008 7997 7996 7995 ] final  160.29 input   59.86 | X-H torsion
[ 10167 10162 10161 10158 ] final   -9.56 input  -65.29 | X-H torsion
[ 10718 10713 10712 10709 ] final -135.29 input   66.30 | X-H torsion
[ 10763 10752 10751 10750 ] final   40.33 input  -60.55 | X-H torsion
[ 11005 11000 10999 10996 ] final   -3.06 input  -57.11 | X-H torsion

> <Gold.Protein.ActiveResidues>
 VAL166  LYS551  ARG553  GLY616  TRP617  ASP618  TYR619  PRO620  LYS621  CYS622 
 ASP623  PHE694  ASN695  SER759  ASP760  ASP761  ALA762  ILE779  LEU786  VAL792 
 PHE793  MET794  SER795  GLU796  ALA797  LYS798  CYS799  TRP800  GLU811  SER814 

> <Gold.Protein.RotatedAtoms>
  152.4208  133.7113  159.6480 H   0  0  0  0  0  0  0  0  0  0  0  0  # atno 6907 bound_to 6896
  150.8084  133.8456  159.3200 H   0  0  0  0  0  0  0  0  0  0  0  0  # atno 6908 bound_to 6896
  151.6173  135.1037  160.0145 H   0  0  0  0  0  0  0  0  0  0  0  0  # atno 6909 bound_to 6896
  145.1856  140.8991  143.3454 H   0  0  0  0  0  0  0  0  0  0  0  0  # atno 7974 bound_to 7965
  156.2182  140.1808  156.7539 H   0  0  0  0  0  0  0  0  0  0  0  0  # atno 8008 bound_to 7997
  154.5824  140.0664  156.9152 H   0  0  0  0  0  0  0  0  0  0  0  0  # atno 8009 bound_to 7997
  155.2478  140.3327  155.4288 H   0  0  0  0  0  0  0  0  0  0  0  0  # atno 8010 bound_to 7997
  140.7091  143.5844  150.8958 H   0  0  0  0  0  0  0  0  0  0  0  0  # atno 10167 bound_to 10162
  156.2646  130.7229  151.1176 H   0  0  0  0  0  0  0  0  0  0  0  0  # atno 10718 bound_to 10713
  152.9939  135.6194  154.2609 H   0  0  0  0  0  0  0  0  0  0  0  0  # atno 10763 bound_to 10752
  154.2345  135.2791  155.2879 H   0  0  0  0  0  0  0  0  0  0  0  0  # atno 10764 bound_to 10752
  154.5422  135.5757  153.6907 H   0  0  0  0  0  0  0  0  0  0  0  0  # atno 10765 bound_to 10752
  140.6652  133.9285  155.8460 H   0  0  0  0  0  0  0  0  0  0  0  0  # atno 11005 bound_to 11000
  145.0092  139.3526  143.6128 LP  0  0  0  0  0  0  0  0  0  0  0  0  # atno 17320 bound_to 7965
  146.3445  139.9347  142.8749 LP  0  0  0  0  0  0  0  0  0  0  0  0  # atno 17321 bound_to 7965
  139.9570  143.6207  152.3013 LP  0  0  0  0  0  0  0  0  0  0  0  0  # atno 17342 bound_to 10162
  139.6746  144.7659  151.1720 LP  0  0  0  0  0  0  0  0  0  0  0  0  # atno 17343 bound_to 10162
  157.7262  131.0647  150.5917 LP  0  0  0  0  0  0  0  0  0  0  0  0  # atno 17370 bound_to 10713
  156.6008  130.4354  149.5898 LP  0  0  0  0  0  0  0  0  0  0  0  0  # atno 17371 bound_to 10713
  141.0435  134.0588  157.3873 LP  0  0  0  0  0  0  0  0  0  0  0  0  # atno 17394 bound_to 11000
  139.9000  135.0160  156.7220 LP  0  0  0  0  0  0  0  0  0  0  0  0  # atno 17395 bound_to 11000

$$$$
