AV-unprocessed.smi:2170|AV-procd|sdf|8825|dock4
  -GOLD-   2272012 23D 1   1.00000     0.00000
 Structure written by MMmdl.
 45 46  0  0  0  0  0  0  0  0  2 V2000
  152.5879  128.7067  154.6504 C   0  0  0  0  0  0  0  0  0  0  0  0
  153.3670  129.9950  154.9701 C   0  0  0  0  0  0  0  0  0  0  0  0
  154.7958  129.9488  154.3985 C   0  0  0  0  0  0  0  0  0  0  0  0
  153.3520  130.2893  156.4250 N   0  0  0  0  0  0  0  0  0  0  0  0
  153.1310  129.1312  157.3147 C   0  0  0  0  0  0  0  0  0  0  0  0
  152.6999  131.8227  156.9369 S   0  0  0  0  0  0  0  0  0  0  0  0
  152.0061  131.5862  158.2139 O   0  0  0  0  0  0  0  0  0  0  0  0
  153.8332  132.7626  156.9355 O   0  0  0  0  0  0  0  0  0  0  0  0
  151.6730  132.0355  155.7003 N   0  5  0  0  0  0  0  0  0  0  0  0
  150.9295  133.2783  155.6116 C   0  0  0  0  0  0  0  0  0  0  0  0
  149.7289  133.1509  154.6851 C   0  0  0  0  0  0  0  0  0  0  0  0
  149.4507  131.9394  154.0157 C   0  0  0  0  0  0  0  0  0  0  0  0
  148.3290  131.8688  153.1663 C   0  0  0  0  0  0  0  0  0  0  0  0
  147.5089  133.0109  153.0070 C   0  0  0  0  0  0  0  0  0  0  0  0
  146.3761  132.9589  152.1653 N   0  0  0  0  0  0  0  0  0  0  0  0
  146.0055  131.6645  151.5957 C   0  0  0  0  0  0  0  0  0  0  0  0
  144.6123  131.7430  150.9494 C   0  0  0  0  0  0  0  0  0  0  0  0
  144.5903  132.7913  149.9865 O   0  0  0  0  0  0  0  0  0  0  0  0
  144.8459  134.0601  150.5796 C   0  0  0  0  0  0  0  0  0  0  0  0
  146.2445  134.0654  151.2206 C   0  0  0  0  0  0  0  0  0  0  0  0
  147.7837  134.1758  153.6440 N   0  0  0  0  0  0  0  0  0  0  0  0
  148.8581  134.2401  154.4603 C   0  0  0  0  0  0  0  0  0  0  0  0
  152.5427  128.5403  153.5739 H   0  0  0  0  0  0  0  0  0  0  0  0
  151.5611  128.7612  155.0122 H   0  0  0  0  0  0  0  0  0  0  0  0
  153.0535  127.8282  155.0969 H   0  0  0  0  0  0  0  0  0  0  0  0
  152.8674  130.8195  154.4622 H   0  0  0  0  0  0  0  0  0  0  0  0
  154.7714  129.9123  153.3092 H   0  0  0  0  0  0  0  0  0  0  0  0
  155.3451  129.0693  154.7352 H   0  0  0  0  0  0  0  0  0  0  0  0
  155.3634  130.8355  154.6827 H   0  0  0  0  0  0  0  0  0  0  0  0
  152.1562  128.6825  157.1268 H   0  0  0  0  0  0  0  0  0  0  0  0
  153.1585  129.4305  158.3617 H   0  0  0  0  0  0  0  0  0  0  0  0
  153.9039  128.3759  157.1817 H   0  0  0  0  0  0  0  0  0  0  0  0
  150.5774  133.6072  156.5901 H   0  0  0  0  0  0  0  0  0  0  0  0
  151.5511  134.0924  155.2370 H   0  0  0  0  0  0  0  0  0  0  0  0
  150.0780  131.0671  154.1389 H   0  0  0  0  0  0  0  0  0  0  0  0
  148.1209  130.9486  152.6420 H   0  0  0  0  0  0  0  0  0  0  0  0
  146.7462  131.3719  150.8500 H   0  0  0  0  0  0  0  0  0  0  0  0
  146.0012  130.8976  152.3712 H   0  0  0  0  0  0  0  0  0  0  0  0
  144.3743  130.8010  150.4550 H   0  0  0  0  0  0  0  0  0  0  0  0
  143.8417  131.9102  151.7040 H   0  0  0  0  0  0  0  0  0  0  0  0
  144.7841  134.8299  149.8103 H   0  0  0  0  0  0  0  0  0  0  0  0
  144.0783  134.2885  151.3208 H   0  0  0  0  0  0  0  0  0  0  0  0
  146.4091  135.0289  151.7006 H   0  0  0  0  0  0  0  0  0  0  0  0
  147.0083  133.9610  150.4490 H   0  0  0  0  0  0  0  0  0  0  0  0
  149.0124  135.1977  154.9388 H   0  0  0  0  0  0  0  0  0  0  0  0
  1  2  1  0  0  0  0
  1 23  1  0  0  0  0
  1 24  1  0  0  0  0
  1 25  1  0  0  0  0
  2  3  1  0  0  0  0
  2  4  1  0  0  0  0
  2 26  1  0  0  0  0
  3 27  1  0  0  0  0
  3 28  1  0  0  0  0
  3 29  1  0  0  0  0
  4  5  1  0  0  0  0
  4  6  1  0  0  0  0
  5 30  1  0  0  0  0
  5 31  1  0  0  0  0
  5 32  1  0  0  0  0
  6  7  2  0  0  0  0
  6  8  2  0  0  0  0
  6  9  1  0  0  0  0
  9 10  1  0  0  0  0
 10 11  1  0  0  0  0
 10 33  1  0  0  0  0
 10 34  1  0  0  0  0
 11 22  1  0  0  0  0
 11 12  2  0  0  0  0
 12 13  1  0  0  0  0
 12 35  1  0  0  0  0
 13 14  2  0  0  0  0
 13 36  1  0  0  0  0
 14 15  1  0  0  0  0
 14 21  1  0  0  0  0
 15 20  1  0  0  0  0
 15 16  1  0  0  0  0
 16 17  1  0  0  0  0
 16 37  1  0  0  0  0
 16 38  1  0  0  0  0
 17 18  1  0  0  0  0
 17 39  1  0  0  0  0
 17 40  1  0  0  0  0
 18 19  1  0  0  0  0
 19 20  1  0  0  0  0
 19 41  1  0  0  0  0
 19 42  1  0  0  0  0
 20 43  1  0  0  0  0
 20 44  1  0  0  0  0
 21 22  2  0  0  0  0
 22 45  1  0  0  0  0
M  CHG  1   9  -1
M  END
> <s_m_source_file>
AV-unprocessed.smi

> <i_m_source_file_index>
2170

> <i_lp_mmshare_version>
43012

> <i_f3d_flags>
0

> <s_epik_input>
W0NIM11bQ0hdKFtDSDNdKU4oW0NIM10pUyg9TykoPU8pW05IXVtDSDJdYzFbY0hdW2NIXWMobltjSF0xKU4yW0NIMl1bQ0gyXU9bQ0gyXVtDSDJdMg==

> <s_epik_cmdline>
J2VwaWtfcHl0aG9uJywgJy1waCcsICc3LjAnLCAnLXRuJywgJzgnLCAnLW1hJywgJzIwMCcsICctbWV0YWxfYmluZGluZycsICctaW1hZScsICc8aW5maWxlLm1hZT4nLCAnLW9tYWUnLCAnPG91dGZpbGUubWFlPic=

> <r_lp_tautomer_probability>
1

> <r_epik_Ionization_Penalty>
3.3971

> <r_epik_Ionization_Penalty_Charging>
3.31706

> <r_epik_Ionization_Penalty_Neutral>
0.0800436

> <r_epik_State_Penalty>
3.32044

> <r_epik_Charging_Adjusted_Penalty>
6.63751

> <i_epik_Tot_Q>
-1

> <i_epik_Tot_abs_Q>
1

> <r_epik_Metal_State_Penalty>
0.488406

> <b_epik_Metal_Only>
1

> <s_lp_Force_Field>
OPLS_2005

> <r_lp_Energy>
16.8192

> <b_lp_Chiralities_Consistent>
1

> <s_lp_Variant>
AV-unprocessed.smi:2170-2

> <Gold.Version>
5.8.1

> <Gold.Id.Protein>
6NUR|6NUR_protein|mol2

> <Gold.PLP.Fitness>
36.3566

> <Gold.PLP.PLP>
-34.1066

> <Gold.PLP.part.hbond>
-1.0000

> <Gold.PLP.part.metal>
0.0000

> <Gold.PLP.part.buried>
-3.7356

> <Gold.PLP.part.nonpolar>
-30.6342

> <Gold.PLP.part.repulsive>
0.8676

> <Gold.PLP.ligand.clash>
0.0000

> <Gold.PLP.ligand.torsion>
2.3993

> <Gold.PLP.Chemscore.Hbond>
1.0000

> <Gold.PLP.Chemscore.CHOScore>
0.0000

> <Gold.PLP.Chemscore.Metal>
0.0000

> <Gold.Chemscore.Hbonds>
donor molecule, donor type, donor heavy atom, donor atom, acceptor molecule, acceptor atom, score
      P1  H  6896  6908       L1     7  1.00

> <Gold.PLP.Chemscore.Internal.Correction>
4.0486

> <Gold.Rescore>
     Score         DG    S(hbond)    S(metal)    S(lipo)     H(rot)  DE(clash)    DE(int)     intcor
     11.15     -13.55       0.94        0.00      75.89       1.54       0.03       2.38       ----

> <Gold.Chemscore.Fitness>
11.1501

> <Gold.Chemscore.DG>
-13.5530

> <Gold.Chemscore.ZeroCoef>
-5.4800

> <Gold.Chemscore.Hbond>
0.9402

> <Gold.Chemscore.Metal>
0.0000

> <Gold.Chemscore.Lipo>
75.8876

> <Gold.Chemscore.Internal_Hbond>
0.0000

> <Gold.Chemscore.DEClash>
0.0274

> <Gold.Chemscore.DEInternal>
2.3755

> <Gold.Chemscore.Rot>
1.5415

> <Gold.Chemscore.Internal.Correction>
   9.000000E+99

> <Gold.Chemscore.Hbonds>
donor molecule, donor type, donor heavy atom, donor atom, acceptor molecule, acceptor atom, score
      P1  H  6896  6908       L1     7  0.80

> <Gold.Chemscore.Hbond.Weighted>
-3.1404

> <Gold.Chemscore.Metal.Weighted>
-0.0000

> <Gold.Chemscore.Lipo.Weighted>
-8.8789

> <Gold.Chemscore.Internal_Hbond.Weighted>
0.0000

> <Gold.Chemscore.DEClash.Weighted>
0.0274

> <Gold.Chemscore.DEInternal.Weighted>
2.3755

> <Gold.Chemscore.Rot.Weighted>
3.9462

> <Gold.Chemscore.Internal.Correction.Weighted>
   9.000000E+99

> <Gold.Protein.RotatedTorsions>
[ 6907 6896 6895 6894 ] final   54.86 input  -60.11 | X-H torsion
[ 7974 7965 7964 7962 ] final -145.81 input  175.53 | X-H torsion
[ 8008 7997 7996 7995 ] final   38.78 input   59.86 | X-H torsion
[ 10167 10162 10161 10158 ] final  114.93 input  -65.29 | X-H torsion
[ 10718 10713 10712 10709 ] final  117.27 input   66.30 | X-H torsion
[ 10763 10752 10751 10750 ] final  -37.79 input  -60.55 | X-H torsion
[ 11005 11000 10999 10996 ] final  160.45 input  -57.11 | X-H torsion

> <Gold.Protein.ActiveResidues>
 VAL166  LYS551  ARG553  GLY616  TRP617  ASP618  TYR619  PRO620  LYS621  CYS622 
 ASP623  PHE694  ASN695  SER759  ASP760  ASP761  ALA762  ILE779  LEU786  VAL792 
 PHE793  MET794  SER795  GLU796  ALA797  LYS798  CYS799  TRP800  GLU811  SER814 

> <Gold.Protein.RotatedAtoms>
  152.3481  134.7043  160.0244 H   0  0  0  0  0  0  0  0  0  0  0  0  # atno 6907 bound_to 6896
  151.7406  133.3316  159.3373 H   0  0  0  0  0  0  0  0  0  0  0  0  # atno 6908 bound_to 6896
  150.7522  134.6215  159.6183 H   0  0  0  0  0  0  0  0  0  0  0  0  # atno 6909 bound_to 6896
  144.8202  140.5537  143.5583 H   0  0  0  0  0  0  0  0  0  0  0  0  # atno 7974 bound_to 7965
  155.2259  140.3334  155.4309 H   0  0  0  0  0  0  0  0  0  0  0  0  # atno 8008 bound_to 7997
  156.2314  140.1852  156.7278 H   0  0  0  0  0  0  0  0  0  0  0  0  # atno 8009 bound_to 7997
  154.5985  140.0627  156.9322 H   0  0  0  0  0  0  0  0  0  0  0  0  # atno 8010 bound_to 7997
  139.6353  144.7119  151.2347 H   0  0  0  0  0  0  0  0  0  0  0  0  # atno 10167 bound_to 10162
  157.6107  131.1035  150.7592 H   0  0  0  0  0  0  0  0  0  0  0  0  # atno 10718 bound_to 10713
  153.9022  135.6801  153.4755 H   0  0  0  0  0  0  0  0  0  0  0  0  # atno 10763 bound_to 10752
  153.1123  135.4777  154.9054 H   0  0  0  0  0  0  0  0  0  0  0  0  # atno 10764 bound_to 10752
  154.7570  135.3200  154.8406 H   0  0  0  0  0  0  0  0  0  0  0  0  # atno 10765 bound_to 10752
  140.2061  134.8302  157.3071 H   0  0  0  0  0  0  0  0  0  0  0  0  # atno 11005 bound_to 11000
  145.5122  139.1479  143.3598 LP  0  0  0  0  0  0  0  0  0  0  0  0  # atno 17320 bound_to 7965
  146.2507  140.5263  142.8894 LP  0  0  0  0  0  0  0  0  0  0  0  0  # atno 17321 bound_to 7965
  140.7462  143.6406  150.8338 LP  0  0  0  0  0  0  0  0  0  0  0  0  # atno 17342 bound_to 10162
  140.0037  143.5717  152.2866 LP  0  0  0  0  0  0  0  0  0  0  0  0  # atno 17343 bound_to 10162
  156.7970  130.4908  149.5375 LP  0  0  0  0  0  0  0  0  0  0  0  0  # atno 17370 bound_to 10713
  156.1209  130.6109  151.0191 LP  0  0  0  0  0  0  0  0  0  0  0  0  # atno 17371 bound_to 10713
  140.2001  134.4265  155.7667 LP  0  0  0  0  0  0  0  0  0  0  0  0  # atno 17394 bound_to 11000
  141.2227  133.7068  156.8170 LP  0  0  0  0  0  0  0  0  0  0  0  0  # atno 17395 bound_to 11000

$$$$
