AV-unprocessed.smi:3313|AV-procd|sdf|12729|dock1
  -GOLD-   2272019 73D 1   1.00000     0.00000
 Structure written by MMmdl.
 43 43  0  0  0  0  0  0  0  0  2 V2000
  145.8321  135.1457  152.8250 C   0  0  0  0  0  0  0  0  0  0  0  0
  145.2965  136.0278  151.6845 C   0  0  2  0  0  0  0  0  0  0  0  0
  145.2966  135.2939  150.3230 C   0  0  0  0  0  0  0  0  0  0  0  0
  145.1634  133.8545  150.4579 N   0  0  0  0  0  0  0  0  0  0  0  0
  144.0411  133.1194  150.7780 C   0  0  0  0  0  0  0  0  0  0  0  0
  144.4086  131.8043  150.7936 C   0  0  0  0  0  0  0  0  0  0  0  0
  145.7945  131.8363  150.4722 C   0  0  0  0  0  0  0  0  0  0  0  0
  146.2436  133.0652  150.2740 N   0  0  0  0  0  0  0  0  0  0  0  0
  146.0854  137.2792  151.6228 N   0  3  0  0  0  0  0  0  0  0  0  0
  146.2193  138.0085  152.9020 C   0  0  0  0  0  0  0  0  0  0  0  0
  146.9990  139.3203  152.7083 C   0  0  0  0  0  0  0  0  0  0  0  0
  148.1696  139.4606  153.6861 C   0  0  0  0  0  0  0  0  0  0  0  0
  148.3004  140.4914  154.3456 O   0  0  0  0  0  0  0  0  0  0  0  0
  149.0097  138.4122  153.7580 N   0  0  0  0  0  0  0  0  0  0  0  0
  150.2067  138.2574  154.5940 C   0  0  0  0  0  0  0  0  0  0  0  0
  151.1488  139.4237  154.2464 C   0  0  0  0  0  0  0  0  0  0  0  0
  150.9228  136.9259  154.2819 C   0  0  0  0  0  0  0  0  0  0  0  0
  149.8386  138.3391  156.0903 C   0  0  0  0  0  0  0  0  0  0  0  0
  145.2152  134.2585  152.9709 H   0  0  0  0  0  0  0  0  0  0  0  0
  145.8400  135.6890  153.7703 H   0  0  0  0  0  0  0  0  0  0  0  0
  146.8510  134.8125  152.6240 H   0  0  0  0  0  0  0  0  0  0  0  0
  144.2706  136.2970  151.9403 H   0  0  0  0  0  0  0  0  0  0  0  0
  144.4798  135.6412  149.6900 H   0  0  0  0  0  0  0  0  0  0  0  0
  146.2201  135.5045  149.7816 H   0  0  0  0  0  0  0  0  0  0  0  0
  143.0850  133.5865  150.9635 H   0  0  0  0  0  0  0  0  0  0  0  0
  143.7834  130.9493  151.0044 H   0  0  0  0  0  0  0  0  0  0  0  0
  146.4832  131.0093  150.3786 H   0  0  0  0  0  0  0  0  0  0  0  0
  147.0177  137.0319  151.3234 H   0  0  0  0  0  0  0  0  0  0  0  0
  145.2282  138.2182  153.3048 H   0  0  0  0  0  0  0  0  0  0  0  0
  146.7360  137.3753  153.6248 H   0  0  0  0  0  0  0  0  0  0  0  0
  147.3739  139.3752  151.6849 H   0  0  0  0  0  0  0  0  0  0  0  0
  146.3353  140.1746  152.8458 H   0  0  0  0  0  0  0  0  0  0  0  0
  148.7981  137.6244  153.1628 H   0  0  0  0  0  0  0  0  0  0  0  0
  152.0696  139.3780  154.8291 H   0  0  0  0  0  0  0  0  0  0  0  0
  150.6818  140.3885  154.4492 H   0  0  0  0  0  0  0  0  0  0  0  0
  151.4284  139.4092  153.1921 H   0  0  0  0  0  0  0  0  0  0  0  0
  151.1547  136.8382  153.2197 H   0  0  0  0  0  0  0  0  0  0  0  0
  150.3219  136.0605  154.5611 H   0  0  0  0  0  0  0  0  0  0  0  0
  151.8631  136.8491  154.8291 H   0  0  0  0  0  0  0  0  0  0  0  0
  150.7320  138.3205  156.7155 H   0  0  0  0  0  0  0  0  0  0  0  0
  149.2121  137.5048  156.4052 H   0  0  0  0  0  0  0  0  0  0  0  0
  149.3001  139.2599  156.3175 H   0  0  0  0  0  0  0  0  0  0  0  0
  145.6791  137.8915  150.9298 H   0  0  0  0  0  0  0  0  0  0  0  0
  1  2  1  0  0  0  0
  1 19  1  0  0  0  0
  1 20  1  0  0  0  0
  1 21  1  0  0  0  0
  2  3  1  0  0  0  0
  2  9  1  0  0  0  0
  2 22  1  0  0  0  0
  3  4  1  0  0  0  0
  3 23  1  0  0  0  0
  3 24  1  0  0  0  0
  4  8  1  0  0  0  0
  4  5  1  0  0  0  0
  5  6  2  0  0  0  0
  5 25  1  0  0  0  0
  6  7  1  0  0  0  0
  6 26  1  0  0  0  0
  7  8  2  0  0  0  0
  7 27  1  0  0  0  0
  9 10  1  0  0  0  0
  9 28  1  0  0  0  0
  9 43  1  0  0  0  0
 10 11  1  0  0  0  0
 10 29  1  0  0  0  0
 10 30  1  0  0  0  0
 11 12  1  0  0  0  0
 11 31  1  0  0  0  0
 11 32  1  0  0  0  0
 12 13  2  0  0  0  0
 12 14  1  0  0  0  0
 14 15  1  0  0  0  0
 14 33  1  0  0  0  0
 15 16  1  0  0  0  0
 15 17  1  0  0  0  0
 15 18  1  0  0  0  0
 16 34  1  0  0  0  0
 16 35  1  0  0  0  0
 16 36  1  0  0  0  0
 17 37  1  0  0  0  0
 17 38  1  0  0  0  0
 17 39  1  0  0  0  0
 18 40  1  0  0  0  0
 18 41  1  0  0  0  0
 18 42  1  0  0  0  0
M  CHG  1   9   1
M  END
> <s_m_source_file>
AV-unprocessed.smi

> <i_m_source_file_index>
3313

> <i_lp_mmshare_version>
43012

> <i_f3d_flags>
0

> <s_epik_input>
bjFbY0hdW2NIXVtjSF1uMVtDSDJdW0NAQEhdKFtDSDNdKVtOSF1bQ0gyXVtDSDJdQyg9TylbTkhdQyhbQ0gzXSkoW0NIM10pW0NIM10=

> <s_epik_cmdline>
J2VwaWtfcHl0aG9uJywgJy1waCcsICc3LjAnLCAnLXRuJywgJzgnLCAnLW1hJywgJzIwMCcsICctbWV0YWxfYmluZGluZycsICctaW1hZScsICc8aW5maWxlLm1hZT4nLCAnLW9tYWUnLCAnPG91dGZpbGUubWFlPic=

> <r_lp_tautomer_probability>
1

> <r_epik_Ionization_Penalty>
0.0056766

> <r_epik_Ionization_Penalty_Charging>
0.00567288

> <r_epik_Ionization_Penalty_Neutral>
3.71277e-06

> <r_epik_State_Penalty>
0.0041598

> <r_epik_Charging_Adjusted_Penalty>
0.00983268

> <i_epik_Tot_Q>
1

> <i_epik_Tot_abs_Q>
1

> <r_epik_Metal_State_Penalty>
-0

> <b_epik_Metal_Only>
0

> <s_lp_Force_Field>
OPLS_2005

> <r_lp_Energy>
7.49453

> <b_lp_Chiralities_Consistent>
1

> <s_lp_Variant>
AV-unprocessed.smi:3313-1

> <Gold.Version>
5.8.1

> <Gold.Id.Protein>
6NUR|6NUR_protein|mol2

> <Gold.PLP.Fitness>
44.2097

> <Gold.PLP.PLP>
-30.5596

> <Gold.PLP.part.hbond>
-2.4930

> <Gold.PLP.part.metal>
0.0000

> <Gold.PLP.part.buried>
0.7788

> <Gold.PLP.part.nonpolar>
-28.3662

> <Gold.PLP.part.repulsive>
0.3936

> <Gold.PLP.ligand.clash>
0.0000

> <Gold.PLP.ligand.torsion>
1.0478

> <Gold.PLP.Chemscore.Hbond>
3.2387

> <Gold.PLP.Chemscore.CHOScore>
1.9848

> <Gold.PLP.Chemscore.Metal>
0.0000

> <Gold.Chemscore.Hbonds>
donor molecule, donor type, donor heavy atom, donor atom, acceptor molecule, acceptor atom, score
      L1  H     9    28       P1  7948  1.49
      L1  H     9    43       P1 10171  0.50
      L1  H    14    33       P1  7948  1.00
      L1  C     5    25       P1 10186  0.72
      L1  C     7    27       P1 10747  1.00

> <Gold.PLP.Chemscore.Internal.Correction>
0.0753

> <Gold.Rescore>
     Score         DG    S(hbond)    S(metal)    S(lipo)     H(rot)  DE(clash)    DE(int)     intcor
     14.51     -16.76       2.27        0.00      79.90       2.20       1.52       0.73       ----

> <Gold.Chemscore.Fitness>
14.5064

> <Gold.Chemscore.DG>
-16.7639

> <Gold.Chemscore.ZeroCoef>
-5.4800

> <Gold.Chemscore.Hbond>
2.2679

> <Gold.Chemscore.Metal>
0.0000

> <Gold.Chemscore.Lipo>
79.8995

> <Gold.Chemscore.Internal_Hbond>
0.0000

> <Gold.Chemscore.DEClash>
1.5226

> <Gold.Chemscore.DEInternal>
0.7349

> <Gold.Chemscore.Rot>
2.2027

> <Gold.Chemscore.Internal.Correction>
   9.000000E+99

> <Gold.Chemscore.Hbonds>
donor molecule, donor type, donor heavy atom, donor atom, acceptor molecule, acceptor atom, score
      L1  H     9    28       P1  7948  0.70
      L1  H     9    43       P1 10171  0.47
      L1  H    14    33       P1  7948  1.00

> <Gold.Chemscore.Hbond.Weighted>
-7.5746

> <Gold.Chemscore.Metal.Weighted>
-0.0000

> <Gold.Chemscore.Lipo.Weighted>
-9.3482

> <Gold.Chemscore.Internal_Hbond.Weighted>
0.0000

> <Gold.Chemscore.DEClash.Weighted>
1.5226

> <Gold.Chemscore.DEInternal.Weighted>
0.7349

> <Gold.Chemscore.Rot.Weighted>
5.6390

> <Gold.Chemscore.Internal.Correction.Weighted>
   9.000000E+99

> <Gold.Protein.RotatedTorsions>
[ 6907 6896 6895 6894 ] final  108.25 input  -60.11 | X-H torsion
[ 7974 7965 7964 7962 ] final -157.73 input  175.53 | X-H torsion
[ 8008 7997 7996 7995 ] final  -12.91 input   59.86 | X-H torsion
[ 10167 10162 10161 10158 ] final  101.10 input  -65.29 | X-H torsion
[ 10718 10713 10712 10709 ] final  -38.78 input   66.30 | X-H torsion
[ 10763 10752 10751 10750 ] final  120.85 input  -60.55 | X-H torsion
[ 11005 11000 10999 10996 ] final  139.88 input  -57.11 | X-H torsion

> <Gold.Protein.ActiveResidues>
 VAL166  LYS551  ARG553  GLY616  TRP617  ASP618  TYR619  PRO620  LYS621  CYS622 
 ASP623  PHE694  ASN695  SER759  ASP760  ASP761  ALA762  ILE779  LEU786  VAL792 
 PHE793  MET794  SER795  GLU796  ALA797  LYS798  CYS799  TRP800  GLU811  SER814 

> <Gold.Protein.RotatedAtoms>
  152.5120  133.9116  159.7490 H   0  0  0  0  0  0  0  0  0  0  0  0  # atno 6907 bound_to 6896
  150.9508  133.6542  159.2779 H   0  0  0  0  0  0  0  0  0  0  0  0  # atno 6908 bound_to 6896
  151.3821  135.0947  159.9552 H   0  0  0  0  0  0  0  0  0  0  0  0  # atno 6909 bound_to 6896
  144.7535  140.3927  143.6030 H   0  0  0  0  0  0  0  0  0  0  0  0  # atno 7974 bound_to 7965
  154.5337  140.2263  155.8760 H   0  0  0  0  0  0  0  0  0  0  0  0  # atno 8008 bound_to 7997
  156.1790  140.3104  155.9075 H   0  0  0  0  0  0  0  0  0  0  0  0  # atno 8009 bound_to 7997
  155.3399  140.0450  157.3035 H   0  0  0  0  0  0  0  0  0  0  0  0  # atno 8010 bound_to 7997
  139.7468  144.6995  151.0492 H   0  0  0  0  0  0  0  0  0  0  0  0  # atno 10167 bound_to 10162
  156.2998  130.4238  149.8154 H   0  0  0  0  0  0  0  0  0  0  0  0  # atno 10718 bound_to 10713
  153.6049  135.3441  155.2958 H   0  0  0  0  0  0  0  0  0  0  0  0  # atno 10763 bound_to 10752
  154.8629  135.4236  154.2373 H   0  0  0  0  0  0  0  0  0  0  0  0  # atno 10764 bound_to 10752
  153.3210  135.7038  153.7102 H   0  0  0  0  0  0  0  0  0  0  0  0  # atno 10765 bound_to 10752
  140.0287  134.9362  157.0619 H   0  0  0  0  0  0  0  0  0  0  0  0  # atno 11005 bound_to 11000
  145.6859  139.1628  143.2674 LP  0  0  0  0  0  0  0  0  0  0  0  0  # atno 17320 bound_to 7965
  146.1517  140.6916  142.9319 LP  0  0  0  0  0  0  0  0  0  0  0  0  # atno 17321 bound_to 7965
  140.7793  143.4857  150.9959 LP  0  0  0  0  0  0  0  0  0  0  0  0  # atno 17342 bound_to 10162
  139.8545  143.7395  152.3176 LP  0  0  0  0  0  0  0  0  0  0  0  0  # atno 17343 bound_to 10162
  156.5536  130.8353  151.3307 LP  0  0  0  0  0  0  0  0  0  0  0  0  # atno 17370 bound_to 10713
  157.7365  130.9780  150.2140 LP  0  0  0  0  0  0  0  0  0  0  0  0  # atno 17371 bound_to 10713
  140.4263  134.1828  155.7166 LP  0  0  0  0  0  0  0  0  0  0  0  0  # atno 17394 bound_to 11000
  141.1818  133.8398  157.1231 LP  0  0  0  0  0  0  0  0  0  0  0  0  # atno 17395 bound_to 11000

$$$$
