AV-unprocessed.smi:2072|AV-procd|sdf|8444|dock1
  -GOLD-   2272011143D 1   1.00000     0.00000
 Structure written by MMmdl.
 40 42  0  0  0  0  0  0  0  0  2 V2000
  145.7022  137.1822  154.8442 O   0  0  0  0  0  0  0  0  0  0  0  0
  146.6593  136.9070  154.1223 C   0  0  0  0  0  0  0  0  0  0  0  0
  147.5999  137.7703  153.7013 N   0  0  0  0  0  0  0  0  0  0  0  0
  147.7350  139.1625  153.9641 C   0  0  0  0  0  0  0  0  0  0  0  0
  148.9641  139.8361  154.1750 C   0  0  0  0  0  0  0  0  0  0  0  0
  148.9468  141.2228  154.4204 C   0  0  0  0  0  0  0  0  0  0  0  0
  147.7060  141.8878  154.4443 C   0  0  0  0  0  0  0  0  0  0  0  0
  146.5283  141.2616  154.2416 N   0  0  0  0  0  0  0  0  0  0  0  0
  146.5524  139.9323  154.0068 C   0  0  0  0  0  0  0  0  0  0  0  0
  146.8861  135.6756  153.6428 N   0  0  0  0  0  0  0  0  0  0  0  0
  146.0541  134.5051  153.9084 C   0  0  2  0  0  0  0  0  0  0  0  0
  146.6142  133.6134  155.0307 C   0  0  0  0  0  0  0  0  0  0  0  0
  146.3006  132.1674  154.5978 C   0  0  0  0  0  0  0  0  0  0  0  0
  145.5385  132.2912  153.3404 N   0  3  2  0  0  0  0  0  0  0  0  0
  145.5754  131.1392  152.4134 C   0  0  0  0  0  0  0  0  0  0  0  0
  144.6530  131.4249  151.2115 C   0  0  0  0  0  0  0  0  0  0  0  0
  144.9928  132.7695  150.5373 C   0  0  0  0  0  0  0  0  0  0  0  0
  145.0311  133.9149  151.5672 C   0  0  0  0  0  0  0  0  0  0  0  0
  145.9856  133.5461  152.7162 C   0  0  1  0  0  0  0  0  0  0  0  0
  148.3082  137.3836  153.0946 H   0  0  0  0  0  0  0  0  0  0  0  0
  149.9171  139.3334  154.1505 H   0  0  0  0  0  0  0  0  0  0  0  0
  149.8659  141.7652  154.5855 H   0  0  0  0  0  0  0  0  0  0  0  0
  147.6588  142.9507  154.6295 H   0  0  0  0  0  0  0  0  0  0  0  0
  145.5905  139.4670  153.8480 H   0  0  0  0  0  0  0  0  0  0  0  0
  147.6973  135.5364  153.0581 H   0  0  0  0  0  0  0  0  0  0  0  0
  145.0434  134.8107  154.1879 H   0  0  0  0  0  0  0  0  0  0  0  0
  147.6931  133.7372  155.1358 H   0  0  0  0  0  0  0  0  0  0  0  0
  146.1622  133.8586  155.9925 H   0  0  0  0  0  0  0  0  0  0  0  0
  147.2281  131.6193  154.4239 H   0  0  0  0  0  0  0  0  0  0  0  0
  145.7219  131.6255  155.3463 H   0  0  0  0  0  0  0  0  0  0  0  0
  146.5985  130.9638  152.0776 H   0  0  0  0  0  0  0  0  0  0  0  0
  145.2468  130.2392  152.9344 H   0  0  0  0  0  0  0  0  0  0  0  0
  144.7228  130.6144  150.4853 H   0  0  0  0  0  0  0  0  0  0  0  0
  143.6162  131.4460  151.5498 H   0  0  0  0  0  0  0  0  0  0  0  0
  145.9633  132.6923  150.0452 H   0  0  0  0  0  0  0  0  0  0  0  0
  144.2668  132.9918  149.7546 H   0  0  0  0  0  0  0  0  0  0  0  0
  145.3560  134.8353  151.0819 H   0  0  0  0  0  0  0  0  0  0  0  0
  144.0287  134.1014  151.9550 H   0  0  0  0  0  0  0  0  0  0  0  0
  146.9922  133.3976  152.3176 H   0  0  0  0  0  0  0  0  0  0  0  0
  144.5737  132.4338  153.6035 H   0  0  0  0  0  0  0  0  0  0  0  0
  1  2  2  0  0  0  0
  2  3  1  0  0  0  0
  2 10  1  0  0  0  0
  3  4  1  0  0  0  0
  3 20  1  0  0  0  0
  4  9  1  0  0  0  0
  4  5  2  0  0  0  0
  5  6  1  0  0  0  0
  5 21  1  0  0  0  0
  6  7  2  0  0  0  0
  6 22  1  0  0  0  0
  7  8  1  0  0  0  0
  7 23  1  0  0  0  0
  8  9  2  0  0  0  0
  9 24  1  0  0  0  0
 10 11  1  0  0  0  0
 10 25  1  0  0  0  0
 11 19  1  0  0  0  0
 11 12  1  0  0  0  0
 11 26  1  0  0  0  0
 12 13  1  0  0  0  0
 12 27  1  0  0  0  0
 12 28  1  0  0  0  0
 13 14  1  0  0  0  0
 13 29  1  0  0  0  0
 13 30  1  0  0  0  0
 14 19  1  0  0  0  0
 14 15  1  0  0  0  0
 14 40  1  0  0  0  0
 15 16  1  0  0  0  0
 15 31  1  0  0  0  0
 15 32  1  0  0  0  0
 16 17  1  0  0  0  0
 16 33  1  0  0  0  0
 16 34  1  0  0  0  0
 17 18  1  0  0  0  0
 17 35  1  0  0  0  0
 17 36  1  0  0  0  0
 18 19  1  0  0  0  0
 18 37  1  0  0  0  0
 18 38  1  0  0  0  0
 19 39  1  0  0  0  0
M  CHG  1  14   1
M  END
> <s_m_source_file>
AV-unprocessed.smi

> <i_m_source_file_index>
2072

> <i_lp_mmshare_version>
43012

> <i_f3d_flags>
0

> <s_epik_input>
W0NIMl0xW0NIMl1bQ0gyXVtDSDJdW0NASF0oTjEyKVtDQEBIXShbQ0gyXVtDSDJdMilbTkhdQyg9TylbTkhdYzNbY0hdW2NIXVtjSF1uW2NIXTM=

> <s_epik_cmdline>
J2VwaWtfcHl0aG9uJywgJy1waCcsICc3LjAnLCAnLXRuJywgJzgnLCAnLW1hJywgJzIwMCcsICctbWV0YWxfYmluZGluZycsICctaW1hZScsICc8aW5maWxlLm1hZT4nLCAnLW9tYWUnLCAnPG91dGZpbGUubWFlPic=

> <r_lp_tautomer_probability>
1

> <r_epik_Ionization_Penalty>
0.00482425

> <r_epik_Ionization_Penalty_Charging>
0.000974069

> <r_epik_Ionization_Penalty_Neutral>
0.00385018

> <r_epik_State_Penalty>
-0

> <r_epik_Charging_Adjusted_Penalty>
0.000974069

> <i_epik_Tot_Q>
1

> <i_epik_Tot_abs_Q>
1

> <r_epik_Metal_State_Penalty>
-0

> <b_epik_Metal_Only>
0

> <s_lp_Force_Field>
OPLS_2005

> <r_lp_Energy>
37.8924

> <b_lp_Chiralities_Consistent>
1

> <s_lp_Variant>
AV-unprocessed.smi:2072-3

> <Gold.Version>
5.8.1

> <Gold.Id.Protein>
6NUR|6NUR_protein|mol2

> <Gold.PLP.Fitness>
37.4000

> <Gold.PLP.PLP>
-24.9981

> <Gold.PLP.part.hbond>
-2.4290

> <Gold.PLP.part.metal>
0.0000

> <Gold.PLP.part.buried>
-3.7353

> <Gold.PLP.part.nonpolar>
-20.7390

> <Gold.PLP.part.repulsive>
0.2238

> <Gold.PLP.ligand.clash>
0.0000

> <Gold.PLP.ligand.torsion>
0.6163

> <Gold.PLP.Chemscore.Hbond>
2.6240

> <Gold.PLP.Chemscore.CHOScore>
1.9180

> <Gold.PLP.Chemscore.Metal>
0.0000

> <Gold.Chemscore.Hbonds>
donor molecule, donor type, donor heavy atom, donor atom, acceptor molecule, acceptor atom, score
      L1  H     3    20       P1  7948  1.00
      L1  H    10    25       P1  7948  1.00
      L1  H    14    40       P1 10957  0.49
      L1  C     7    23       P1  8028  1.00
      L1  C     9    24       P1 10175  0.84

> <Gold.PLP.Chemscore.Internal.Correction>
0.0086

> <Gold.Rescore>
     Score         DG    S(hbond)    S(metal)    S(lipo)     H(rot)  DE(clash)    DE(int)     intcor
     16.51     -18.35       1.94        0.00      76.61       1.00       0.19       1.65       ----

> <Gold.Chemscore.Fitness>
16.5131

> <Gold.Chemscore.DG>
-18.3526

> <Gold.Chemscore.ZeroCoef>
-5.4800

> <Gold.Chemscore.Hbond>
1.9368

> <Gold.Chemscore.Metal>
0.0000

> <Gold.Chemscore.Lipo>
76.6129

> <Gold.Chemscore.Internal_Hbond>
0.0000

> <Gold.Chemscore.DEClash>
0.1856

> <Gold.Chemscore.DEInternal>
1.6539

> <Gold.Chemscore.Rot>
1.0000

> <Gold.Chemscore.Internal.Correction>
   9.000000E+99

> <Gold.Chemscore.Hbonds>
donor molecule, donor type, donor heavy atom, donor atom, acceptor molecule, acceptor atom, score
      L1  H     3    20       P1  7948  0.99
      L1  H    10    25       P1  7948  0.94
      L1  H    14    40       P1 10957  0.05

> <Gold.Chemscore.Hbond.Weighted>
-6.4689

> <Gold.Chemscore.Metal.Weighted>
-0.0000

> <Gold.Chemscore.Lipo.Weighted>
-8.9637

> <Gold.Chemscore.Internal_Hbond.Weighted>
0.0000

> <Gold.Chemscore.DEClash.Weighted>
0.1856

> <Gold.Chemscore.DEInternal.Weighted>
1.6539

> <Gold.Chemscore.Rot.Weighted>
2.5600

> <Gold.Chemscore.Internal.Correction.Weighted>
   9.000000E+99

> <Gold.Protein.RotatedTorsions>
[ 6907 6896 6895 6894 ] final  177.36 input  -60.11 | X-H torsion
[ 7974 7965 7964 7962 ] final  -75.09 input  175.53 | X-H torsion
[ 8008 7997 7996 7995 ] final  -94.62 input   59.86 | X-H torsion
[ 10167 10162 10161 10158 ] final -126.39 input  -65.29 | X-H torsion
[ 10718 10713 10712 10709 ] final  111.08 input   66.30 | X-H torsion
[ 10763 10752 10751 10750 ] final -127.50 input  -60.55 | X-H torsion
[ 11005 11000 10999 10996 ] final   88.55 input  -57.11 | X-H torsion

> <Gold.Protein.ActiveResidues>
 VAL166  LYS551  ARG553  GLY616  TRP617  ASP618  TYR619  PRO620  LYS621  CYS622 
 ASP623  PHE694  ASN695  SER759  ASP760  ASP761  ALA762  ILE779  LEU786  VAL792 
 PHE793  MET794  SER795  GLU796  ALA797  LYS798  CYS799  TRP800  GLU811  SER814 

> <Gold.Protein.RotatedAtoms>
  151.7053  133.3311  159.3276 H   0  0  0  0  0  0  0  0  0  0  0  0  # atno 6907 bound_to 6896
  150.7718  134.6580  159.6333 H   0  0  0  0  0  0  0  0  0  0  0  0  # atno 6908 bound_to 6896
  152.3745  134.6687  160.0216 H   0  0  0  0  0  0  0  0  0  0  0  0  # atno 6909 bound_to 6896
  145.6305  140.9339  143.1089 H   0  0  0  0  0  0  0  0  0  0  0  0  # atno 7974 bound_to 7965
  154.7508  140.0487  157.0892 H   0  0  0  0  0  0  0  0  0  0  0  0  # atno 8008 bound_to 7997
  155.0059  140.3130  155.4829 H   0  0  0  0  0  0  0  0  0  0  0  0  # atno 8009 bound_to 7997
  156.2885  140.2193  156.5171 H   0  0  0  0  0  0  0  0  0  0  0  0  # atno 8010 bound_to 7997
  139.9719  143.5836  152.2409 H   0  0  0  0  0  0  0  0  0  0  0  0  # atno 10167 bound_to 10162
  157.6463  131.0944  150.6696 H   0  0  0  0  0  0  0  0  0  0  0  0  # atno 10718 bound_to 10713
  154.8752  135.3959  154.3605 H   0  0  0  0  0  0  0  0  0  0  0  0  # atno 10763 bound_to 10752
  153.4378  135.7026  153.6194 H   0  0  0  0  0  0  0  0  0  0  0  0  # atno 10764 bound_to 10752
  153.4788  135.3774  155.2400 H   0  0  0  0  0  0  0  0  0  0  0  0  # atno 10765 bound_to 10752
  139.8894  134.8495  156.3016 H   0  0  0  0  0  0  0  0  0  0  0  0  # atno 11005 bound_to 11000
  144.7195  139.8078  143.7387 LP  0  0  0  0  0  0  0  0  0  0  0  0  # atno 17320 bound_to 7965
  146.1360  139.4406  143.0139 LP  0  0  0  0  0  0  0  0  0  0  0  0  # atno 17321 bound_to 7965
  139.6474  144.7659  151.2216 LP  0  0  0  0  0  0  0  0  0  0  0  0  # atno 17342 bound_to 10162
  140.7519  143.6216  150.8508 LP  0  0  0  0  0  0  0  0  0  0  0  0  # atno 17343 bound_to 10162
  156.7013  130.4624  149.5572 LP  0  0  0  0  0  0  0  0  0  0  0  0  # atno 17370 bound_to 10713
  156.1794  130.6489  151.0933 LP  0  0  0  0  0  0  0  0  0  0  0  0  # atno 17371 bound_to 10713
  140.9909  133.7209  156.0813 LP  0  0  0  0  0  0  0  0  0  0  0  0  # atno 17394 bound_to 11000
  140.7626  134.3922  157.5523 LP  0  0  0  0  0  0  0  0  0  0  0  0  # atno 17395 bound_to 11000

$$$$
