AV-unprocessed.smi:1840|AV-procd|sdf|7493|dock5
  -GOLD-   22720 9193D 1   1.00000     0.00000
 Structure written by MMmdl.
 43 44  0  0  0  0  0  0  0  0  1 V2000
  151.2389  136.2085  156.1528 C   0  0  0  0  0  0  0  0  0  0  0  0
  150.2808  137.2293  155.5240 C   0  0  1  0  0  0  0  0  0  0  0  0
  151.0506  138.3613  154.8119 C   0  0  0  0  0  0  0  0  0  0  0  0
  150.9543  139.6309  155.5121 N   0  0  0  0  0  0  0  0  0  0  0  0
  151.3897  139.9434  156.7829 C   0  0  0  0  0  0  0  0  0  0  0  0
  151.0692  141.2506  157.0123 C   0  0  0  0  0  0  0  0  0  0  0  0
  150.4380  141.6604  155.8050 C   0  0  0  0  0  0  0  0  0  0  0  0
  150.3729  140.6898  154.9080 N   0  0  0  0  0  0  0  0  0  0  0  0
  149.3937  136.5377  154.5891 N   0  0  0  0  0  0  0  0  0  0  0  0
  148.3472  135.7712  154.9293 C   0  0  0  0  0  0  0  0  0  0  0  0
  148.0173  135.5278  156.0902 O   0  0  0  0  0  0  0  0  0  0  0  0
  147.6937  135.3197  153.8492 N   0  0  0  0  0  0  0  0  0  0  0  0
  146.4959  134.4769  153.8596 C   0  0  2  0  0  0  0  0  0  0  0  0
  146.8361  133.0759  153.3114 C   0  0  0  0  0  0  0  0  0  0  0  0
  147.1081  133.0909  151.7971 C   0  0  0  0  0  0  0  0  0  0  0  0
  145.9361  133.7179  151.0278 C   0  0  0  0  0  0  0  0  0  0  0  0
  145.6155  135.1271  151.5504 C   0  0  0  0  0  0  0  0  0  0  0  0
  145.3276  135.1183  153.0660 C   0  0  2  0  0  0  0  0  0  0  0  0
  144.9455  136.5195  153.5725 C   0  0  0  0  0  0  0  0  0  0  0  0
  151.9022  136.6859  156.8746 H   0  0  0  0  0  0  0  0  0  0  0  0
  151.8607  135.7285  155.3965 H   0  0  0  0  0  0  0  0  0  0  0  0
  150.6900  135.4266  156.6791 H   0  0  0  0  0  0  0  0  0  0  0  0
  149.6982  137.6652  156.3377 H   0  0  0  0  0  0  0  0  0  0  0  0
  152.1079  138.1036  154.7377 H   0  0  0  0  0  0  0  0  0  0  0  0
  150.6896  138.4856  153.7893 H   0  0  0  0  0  0  0  0  0  0  0  0
  151.8785  139.2151  157.4128 H   0  0  0  0  0  0  0  0  0  0  0  0
  151.2553  141.8256  157.9071 H   0  0  0  0  0  0  0  0  0  0  0  0
  150.0250  142.6268  155.5564 H   0  0  0  0  0  0  0  0  0  0  0  0
  149.5749  136.6793  153.6062 H   0  0  0  0  0  0  0  0  0  0  0  0
  148.0436  135.5893  152.9417 H   0  0  0  0  0  0  0  0  0  0  0  0
  146.1669  134.3422  154.8916 H   0  0  0  0  0  0  0  0  0  0  0  0
  147.6942  132.6602  153.8409 H   0  0  0  0  0  0  0  0  0  0  0  0
  146.0025  132.4020  153.5141 H   0  0  0  0  0  0  0  0  0  0  0  0
  148.0219  133.6493  151.5909 H   0  0  0  0  0  0  0  0  0  0  0  0
  147.2826  132.0748  151.4425 H   0  0  0  0  0  0  0  0  0  0  0  0
  146.1707  133.7609  149.9639 H   0  0  0  0  0  0  0  0  0  0  0  0
  145.0541  133.0834  151.1243 H   0  0  0  0  0  0  0  0  0  0  0  0
  146.4495  135.7956  151.3331 H   0  0  0  0  0  0  0  0  0  0  0  0
  144.7557  135.5264  151.0116 H   0  0  0  0  0  0  0  0  0  0  0  0
  144.4537  134.4838  153.2225 H   0  0  0  0  0  0  0  0  0  0  0  0
  145.7361  137.2441  153.3781 H   0  0  0  0  0  0  0  0  0  0  0  0
  144.7552  136.5119  154.6460 H   0  0  0  0  0  0  0  0  0  0  0  0
  144.0429  136.8809  153.0795 H   0  0  0  0  0  0  0  0  0  0  0  0
  1  2  1  0  0  0  0
  1 20  1  0  0  0  0
  1 21  1  0  0  0  0
  1 22  1  0  0  0  0
  2  3  1  0  0  0  0
  2  9  1  0  0  0  0
  2 23  1  0  0  0  0
  3  4  1  0  0  0  0
  3 24  1  0  0  0  0
  3 25  1  0  0  0  0
  4  8  1  0  0  0  0
  4  5  1  0  0  0  0
  5  6  2  0  0  0  0
  5 26  1  0  0  0  0
  6  7  1  0  0  0  0
  6 27  1  0  0  0  0
  7  8  2  0  0  0  0
  7 28  1  0  0  0  0
  9 10  1  0  0  0  0
  9 29  1  0  0  0  0
 10 11  2  0  0  0  0
 10 12  1  0  0  0  0
 12 13  1  0  0  0  0
 12 30  1  0  0  0  0
 13 18  1  0  0  0  0
 13 14  1  0  0  0  0
 13 31  1  0  0  0  0
 14 15  1  0  0  0  0
 14 32  1  0  0  0  0
 14 33  1  0  0  0  0
 15 16  1  0  0  0  0
 15 34  1  0  0  0  0
 15 35  1  0  0  0  0
 16 17  1  0  0  0  0
 16 36  1  0  0  0  0
 16 37  1  0  0  0  0
 17 18  1  0  0  0  0
 17 38  1  0  0  0  0
 17 39  1  0  0  0  0
 18 19  1  0  0  0  0
 18 40  1  0  0  0  0
 19 41  1  0  0  0  0
 19 42  1  0  0  0  0
 19 43  1  0  0  0  0
M  END
> <s_m_source_file>
AV-unprocessed.smi

> <i_m_source_file_index>
1840

> <i_lp_mmshare_version>
43012

> <i_f3d_flags>
0

> <s_epik_input>
bjFbY0hdW2NIXVtjSF1uMVtDSDJdW0NAQEhdKFtDSDNdKVtOSF1DKD1PKVtOSF1bQ0BASF0yW0NIMl1bQ0gyXVtDSDJdW0NIMl1bQ0BIXTJbQ0gzXQ==

> <s_epik_cmdline>
J2VwaWtfcHl0aG9uJywgJy1waCcsICc3LjAnLCAnLXRuJywgJzgnLCAnLW1hJywgJzIwMCcsICctbWV0YWxfYmluZGluZycsICctaW1hZScsICc8aW5maWxlLm1hZT4nLCAnLW9tYWUnLCAnPG91dGZpbGUubWFlPic=

> <r_lp_tautomer_probability>
1

> <r_epik_Ionization_Penalty>
7.38659e-05

> <r_epik_Ionization_Penalty_Charging>
0

> <r_epik_Ionization_Penalty_Neutral>
7.38659e-05

> <r_epik_State_Penalty>
-0

> <r_epik_Charging_Adjusted_Penalty>
0

> <i_epik_Tot_Q>
0

> <i_epik_Tot_abs_Q>
0

> <r_epik_Metal_State_Penalty>
-0

> <b_epik_Metal_Only>
0

> <s_lp_Force_Field>
OPLS_2005

> <r_lp_Energy>
6.71394

> <b_lp_Chiralities_Consistent>
1

> <s_lp_Variant>
AV-unprocessed.smi:1840-6

> <Gold.Version>
5.8.1

> <Gold.Id.Protein>
6NUR|6NUR_protein|mol2

> <Gold.PLP.Fitness>
36.5610

> <Gold.PLP.PLP>
-27.1112

> <Gold.PLP.part.hbond>
-2.9045

> <Gold.PLP.part.metal>
0.0000

> <Gold.PLP.part.buried>
-4.1138

> <Gold.PLP.part.nonpolar>
-20.7186

> <Gold.PLP.part.repulsive>
0.1272

> <Gold.PLP.ligand.clash>
0.0000

> <Gold.PLP.ligand.torsion>
0.9781

> <Gold.PLP.Chemscore.Hbond>
2.7920

> <Gold.PLP.Chemscore.CHOScore>
1.0000

> <Gold.PLP.Chemscore.Metal>
0.0000

> <Gold.Chemscore.Hbonds>
donor molecule, donor type, donor heavy atom, donor atom, acceptor molecule, acceptor atom, score
      L1  H     9    29       P1  7948  0.90
      L1  H    12    30       P1  7948  1.00
      P1  H  7989  7998       L1     8  0.79
      L1  C     7    28       P1  8028  1.00

> <Gold.PLP.Chemscore.Internal.Correction>
0.0301

> <Gold.Rescore>
     Score         DG    S(hbond)    S(metal)    S(lipo)     H(rot)  DE(clash)    DE(int)     intcor
     16.01     -17.14       2.53        0.00      61.40       1.56       0.02       1.11       ----

> <Gold.Chemscore.Fitness>
16.0085

> <Gold.Chemscore.DG>
-17.1359

> <Gold.Chemscore.ZeroCoef>
-5.4800

> <Gold.Chemscore.Hbond>
2.5329

> <Gold.Chemscore.Metal>
0.0000

> <Gold.Chemscore.Lipo>
61.3992

> <Gold.Chemscore.Internal_Hbond>
0.0000

> <Gold.Chemscore.DEClash>
0.0164

> <Gold.Chemscore.DEInternal>
1.1111

> <Gold.Chemscore.Rot>
1.5576

> <Gold.Chemscore.Internal.Correction>
   9.000000E+99

> <Gold.Chemscore.Hbonds>
donor molecule, donor type, donor heavy atom, donor atom, acceptor molecule, acceptor atom, score
      L1  H     9    29       P1  7948  0.64
      L1  H    12    30       P1  7948  0.93
      P1  H  7989  7998       L1     8  0.13

> <Gold.Chemscore.Hbond.Weighted>
-8.4597

> <Gold.Chemscore.Metal.Weighted>
-0.0000

> <Gold.Chemscore.Lipo.Weighted>
-7.1837

> <Gold.Chemscore.Internal_Hbond.Weighted>
0.0000

> <Gold.Chemscore.DEClash.Weighted>
0.0164

> <Gold.Chemscore.DEInternal.Weighted>
1.1111

> <Gold.Chemscore.Rot.Weighted>
3.9875

> <Gold.Chemscore.Internal.Correction.Weighted>
   9.000000E+99

> <Gold.Protein.RotatedTorsions>
[ 6907 6896 6895 6894 ] final -114.09 input  -60.11 | X-H torsion
[ 7974 7965 7964 7962 ] final  -71.58 input  175.53 | X-H torsion
[ 8008 7997 7996 7995 ] final   21.10 input   59.86 | X-H torsion
[ 10167 10162 10161 10158 ] final  159.50 input  -65.29 | X-H torsion
[ 10718 10713 10712 10709 ] final  -26.01 input   66.30 | X-H torsion
[ 10763 10752 10751 10750 ] final   74.06 input  -60.55 | X-H torsion
[ 11005 11000 10999 10996 ] final -170.35 input  -57.11 | X-H torsion

> <Gold.Protein.ActiveResidues>
 VAL166  LYS551  ARG553  GLY616  TRP617  ASP618  TYR619  PRO620  LYS621  CYS622 
 ASP623  PHE694  ASN695  SER759  ASP760  ASP761  ALA762  ILE779  LEU786  VAL792 
 PHE793  MET794  SER795  GLU796  ALA797  LYS798  CYS799  TRP800  GLU811  SER814 

> <Gold.Protein.RotatedAtoms>
  150.7877  133.8850  159.3296 H   0  0  0  0  0  0  0  0  0  0  0  0  # atno 6907 bound_to 6896
  151.6697  135.0976  160.0205 H   0  0  0  0  0  0  0  0  0  0  0  0  # atno 6908 bound_to 6896
  152.3944  133.6687  159.6299 H   0  0  0  0  0  0  0  0  0  0  0  0  # atno 6909 bound_to 6896
  145.6763  140.9203  143.0856 H   0  0  0  0  0  0  0  0  0  0  0  0  # atno 7974 bound_to 7965
  154.9456  140.3059  155.5100 H   0  0  0  0  0  0  0  0  0  0  0  0  # atno 8008 bound_to 7997
  156.2992  140.2328  156.4466 H   0  0  0  0  0  0  0  0  0  0  0  0  # atno 8009 bound_to 7997
  154.8104  140.0429  157.1327 H   0  0  0  0  0  0  0  0  0  0  0  0  # atno 8010 bound_to 7997
  139.4833  144.4724  151.8558 H   0  0  0  0  0  0  0  0  0  0  0  0  # atno 10167 bound_to 10162
  156.4568  130.4495  149.6954 H   0  0  0  0  0  0  0  0  0  0  0  0  # atno 10718 bound_to 10713
  153.0562  135.5040  154.7986 H   0  0  0  0  0  0  0  0  0  0  0  0  # atno 10763 bound_to 10752
  154.6810  135.2968  154.9615 H   0  0  0  0  0  0  0  0  0  0  0  0  # atno 10764 bound_to 10752
  154.0401  135.6718  153.4842 H   0  0  0  0  0  0  0  0  0  0  0  0  # atno 10765 bound_to 10752
  140.5205  134.5714  157.5046 H   0  0  0  0  0  0  0  0  0  0  0  0  # atno 11005 bound_to 11000
  144.7040  139.8638  143.7435 LP  0  0  0  0  0  0  0  0  0  0  0  0  # atno 17320 bound_to 7965
  146.1002  139.3997  143.0351 LP  0  0  0  0  0  0  0  0  0  0  0  0  # atno 17321 bound_to 7965
  140.4194  144.2264  150.5887 LP  0  0  0  0  0  0  0  0  0  0  0  0  # atno 17342 bound_to 10162
  140.4889  143.2354  151.8847 LP  0  0  0  0  0  0  0  0  0  0  0  0  # atno 17343 bound_to 10162
  156.3758  130.7554  151.2542 LP  0  0  0  0  0  0  0  0  0  0  0  0  # atno 17370 bound_to 10713
  157.7500  131.0310  150.4162 LP  0  0  0  0  0  0  0  0  0  0  0  0  # atno 17371 bound_to 10713
  139.9608  134.7455  156.0241 LP  0  0  0  0  0  0  0  0  0  0  0  0  # atno 17394 bound_to 11000
  141.1337  133.6580  156.3533 LP  0  0  0  0  0  0  0  0  0  0  0  0  # atno 17395 bound_to 11000

$$$$
