AV-unprocessed.smi:2457|AV-procd|sdf|9705|dock2
  -GOLD-   2272013343D 1   1.00000     0.00000
 Structure written by MMmdl.
 40 41  0  0  0  0  0  0  0  0  1 V2000
  153.4452  138.4950  154.3225 C   0  0  0  0  0  0  0  0  0  0  0  0
  152.0473  138.1194  154.7010 C   0  0  0  0  0  0  0  0  0  0  0  0
  150.9438  138.9354  154.7006 C   0  0  0  0  0  0  0  0  0  0  0  0
  149.5090  138.0874  155.2074 S   0  0  0  0  0  0  0  0  0  0  0  0
  150.4764  136.6291  155.4026 C   0  0  0  0  0  0  0  0  0  0  0  0
  149.9076  135.3275  155.8806 C   0  0  1  0  0  0  0  0  0  0  0  0
  148.4932  135.4889  156.4557 C   0  0  0  0  0  0  0  0  0  0  0  0
  150.0064  134.1980  154.8307 C   0  0  0  0  0  0  0  0  0  0  0  0
  149.0521  134.3533  153.7358 N   0  0  0  0  0  0  0  0  0  0  0  0
  148.0324  133.5218  153.4832 C   0  0  0  0  0  0  0  0  0  0  0  0
  147.7526  132.5434  154.1763 O   0  0  0  0  0  0  0  0  0  0  0  0
  147.3706  133.8704  152.3714 N   0  0  0  0  0  0  0  0  0  0  0  0
  146.2498  133.1339  151.7950 C   0  0  2  0  0  0  0  0  0  0  0  0
  146.4688  132.9408  150.2799 C   0  0  0  0  0  0  0  0  0  0  0  0
  145.3483  132.1215  149.6203 C   0  0  0  0  0  0  0  0  0  0  0  0
  143.9746  132.7931  149.7574 C   0  0  0  0  0  0  0  0  0  0  0  0
  143.4957  132.9615  151.4984 S   0  0  0  0  0  0  0  0  0  0  0  0
  144.9402  133.8852  152.0911 C   0  0  0  0  0  0  0  0  0  0  0  0
  151.7673  136.8123  155.1086 N   0  0  0  0  0  0  0  0  0  0  0  0
  153.5026  139.5297  153.9842 H   0  0  0  0  0  0  0  0  0  0  0  0
  153.8164  137.8638  153.5146 H   0  0  0  0  0  0  0  0  0  0  0  0
  154.1250  138.3857  155.1676 H   0  0  0  0  0  0  0  0  0  0  0  0
  150.8870  139.9799  154.4326 H   0  0  0  0  0  0  0  0  0  0  0  0
  150.5314  135.0228  156.7218 H   0  0  0  0  0  0  0  0  0  0  0  0
  148.4792  136.2218  157.2629 H   0  0  0  0  0  0  0  0  0  0  0  0
  148.1241  134.5458  156.8592 H   0  0  0  0  0  0  0  0  0  0  0  0
  147.7900  135.8211  155.6914 H   0  0  0  0  0  0  0  0  0  0  0  0
  151.0208  134.1292  154.4348 H   0  0  0  0  0  0  0  0  0  0  0  0
  149.7964  133.2396  155.3059 H   0  0  0  0  0  0  0  0  0  0  0  0
  149.2040  135.1278  153.1065 H   0  0  0  0  0  0  0  0  0  0  0  0
  147.6827  134.6887  151.8694 H   0  0  0  0  0  0  0  0  0  0  0  0
  146.1913  132.1537  152.2727 H   0  0  0  0  0  0  0  0  0  0  0  0
  146.5488  133.9120  149.7896 H   0  0  0  0  0  0  0  0  0  0  0  0
  147.4194  132.4345  150.1070 H   0  0  0  0  0  0  0  0  0  0  0  0
  145.5782  131.9870  148.5629 H   0  0  0  0  0  0  0  0  0  0  0  0
  145.3163  131.1219  150.0559 H   0  0  0  0  0  0  0  0  0  0  0  0
  143.9858  133.7801  149.2942 H   0  0  0  0  0  0  0  0  0  0  0  0
  143.2145  132.2058  149.2418 H   0  0  0  0  0  0  0  0  0  0  0  0
  144.8260  134.0440  153.1640 H   0  0  0  0  0  0  0  0  0  0  0  0
  144.9471  134.8693  151.6212 H   0  0  0  0  0  0  0  0  0  0  0  0
  1  2  1  0  0  0  0
  1 20  1  0  0  0  0
  1 21  1  0  0  0  0
  1 22  1  0  0  0  0
  2 19  1  0  0  0  0
  2  3  2  0  0  0  0
  3  4  1  0  0  0  0
  3 23  1  0  0  0  0
  4  5  1  0  0  0  0
  5  6  1  0  0  0  0
  5 19  2  0  0  0  0
  6  7  1  0  0  0  0
  6  8  1  0  0  0  0
  6 24  1  0  0  0  0
  7 25  1  0  0  0  0
  7 26  1  0  0  0  0
  7 27  1  0  0  0  0
  8  9  1  0  0  0  0
  8 28  1  0  0  0  0
  8 29  1  0  0  0  0
  9 10  1  0  0  0  0
  9 30  1  0  0  0  0
 10 11  2  0  0  0  0
 10 12  1  0  0  0  0
 12 13  1  0  0  0  0
 12 31  1  0  0  0  0
 13 18  1  0  0  0  0
 13 14  1  0  0  0  0
 13 32  1  0  0  0  0
 14 15  1  0  0  0  0
 14 33  1  0  0  0  0
 14 34  1  0  0  0  0
 15 16  1  0  0  0  0
 15 35  1  0  0  0  0
 15 36  1  0  0  0  0
 16 17  1  0  0  0  0
 16 37  1  0  0  0  0
 16 38  1  0  0  0  0
 17 18  1  0  0  0  0
 18 39  1  0  0  0  0
 18 40  1  0  0  0  0
M  END
> <s_m_source_file>
AV-unprocessed.smi

> <i_m_source_file_index>
2457

> <i_lp_mmshare_version>
43012

> <i_f3d_flags>
0

> <s_epik_input>
W0NIM11jMVtjSF1zYyhuMSlbQ0BIXShbQ0gzXSlbQ0gyXVtOSF1DKD1PKVtOSF1bQ0BASF0yW0NIMl1bQ0gyXVtDSDJdU1tDSDJdMg==

> <s_epik_cmdline>
J2VwaWtfcHl0aG9uJywgJy1waCcsICc3LjAnLCAnLXRuJywgJzgnLCAnLW1hJywgJzIwMCcsICctbWV0YWxfYmluZGluZycsICctaW1hZScsICc8aW5maWxlLm1hZT4nLCAnLW9tYWUnLCAnPG91dGZpbGUubWFlPic=

> <r_epik_Ionization_Penalty>
0.00154805

> <r_epik_Ionization_Penalty_Charging>
0

> <r_epik_Ionization_Penalty_Neutral>
0.00154805

> <r_epik_State_Penalty>
0.00100357

> <r_epik_Charging_Adjusted_Penalty>
0.00100357

> <i_epik_Tot_Q>
0

> <i_epik_Tot_abs_Q>
0

> <r_epik_Metal_State_Penalty>
-0

> <b_epik_Metal_Only>
0

> <s_lp_Force_Field>
OPLS_2005

> <r_lp_Energy>
-7.39523

> <b_lp_Chiralities_Consistent>
1

> <s_lp_Variant>
AV-unprocessed.smi:2457-2

> <Gold.Version>
5.8.1

> <Gold.Id.Protein>
6NUR|6NUR_protein|mol2

> <Gold.PLP.Fitness>
43.9457

> <Gold.PLP.PLP>
-36.2735

> <Gold.PLP.part.hbond>
-3.0000

> <Gold.PLP.part.metal>
0.0000

> <Gold.PLP.part.buried>
-3.7726

> <Gold.PLP.part.nonpolar>
-28.9447

> <Gold.PLP.part.repulsive>
0.1614

> <Gold.PLP.ligand.clash>
0.0000

> <Gold.PLP.ligand.torsion>
0.3913

> <Gold.PLP.Chemscore.Hbond>
2.7780

> <Gold.PLP.Chemscore.CHOScore>
0.0000

> <Gold.PLP.Chemscore.Metal>
0.0000

> <Gold.Chemscore.Hbonds>
donor molecule, donor type, donor heavy atom, donor atom, acceptor molecule, acceptor atom, score
      L1  H     9    30       P1  7948  0.70
      L1  H    12    31       P1  7948  0.93
      P1  H 10752 10765       L1    19  1.00

> <Gold.PLP.Chemscore.Internal.Correction>
0.1209

> <Gold.Rescore>
     Score         DG    S(hbond)    S(metal)    S(lipo)     H(rot)  DE(clash)    DE(int)     intcor
     18.22     -18.47       1.93        0.00      87.94       1.46       0.04       0.21       ----

> <Gold.Chemscore.Fitness>
18.2228

> <Gold.Chemscore.DG>
-18.4748

> <Gold.Chemscore.ZeroCoef>
-5.4800

> <Gold.Chemscore.Hbond>
1.9303

> <Gold.Chemscore.Metal>
0.0000

> <Gold.Chemscore.Lipo>
87.9411

> <Gold.Chemscore.Internal_Hbond>
0.0000

> <Gold.Chemscore.DEClash>
0.0370

> <Gold.Chemscore.DEInternal>
0.2149

> <Gold.Chemscore.Rot>
1.4616

> <Gold.Chemscore.Internal.Correction>
   9.000000E+99

> <Gold.Chemscore.Hbonds>
donor molecule, donor type, donor heavy atom, donor atom, acceptor molecule, acceptor atom, score
      L1  H     9    30       P1  7948  0.07
      L1  H    12    31       P1  7948  0.40
      P1  H 10752 10765       L1    19  0.92

> <Gold.Chemscore.Hbond.Weighted>
-6.4473

> <Gold.Chemscore.Metal.Weighted>
-0.0000

> <Gold.Chemscore.Lipo.Weighted>
-10.2891

> <Gold.Chemscore.Internal_Hbond.Weighted>
0.0000

> <Gold.Chemscore.DEClash.Weighted>
0.0370

> <Gold.Chemscore.DEInternal.Weighted>
0.2149

> <Gold.Chemscore.Rot.Weighted>
3.7416

> <Gold.Chemscore.Internal.Correction.Weighted>
   9.000000E+99

> <Gold.Protein.RotatedTorsions>
[ 6907 6896 6895 6894 ] final -126.63 input  -60.11 | X-H torsion
[ 7974 7965 7964 7962 ] final -158.14 input  175.53 | X-H torsion
[ 8008 7997 7996 7995 ] final   15.07 input   59.86 | X-H torsion
[ 10167 10162 10161 10158 ] final  154.38 input  -65.29 | X-H torsion
[ 10718 10713 10712 10709 ] final  -19.84 input   66.30 | X-H torsion
[ 10763 10752 10751 10750 ] final -174.92 input  -60.55 | X-H torsion
[ 11005 11000 10999 10996 ] final   64.59 input  -57.11 | X-H torsion

> <Gold.Protein.ActiveResidues>
 VAL166  LYS551  ARG553  GLY616  TRP617  ASP618  TYR619  PRO620  LYS621  CYS622 
 ASP623  PHE694  ASN695  SER759  ASP760  ASP761  ALA762  ILE779  LEU786  VAL792 
 PHE793  MET794  SER795  GLU796  ALA797  LYS798  CYS799  TRP800  GLU811  SER814 

> <Gold.Protein.RotatedAtoms>
  150.8989  133.7145  159.2884 H   0  0  0  0  0  0  0  0  0  0  0  0  # atno 6907 bound_to 6896
  151.4670  135.1041  159.9750 H   0  0  0  0  0  0  0  0  0  0  0  0  # atno 6908 bound_to 6896
  152.4865  133.8338  159.7172 H   0  0  0  0  0  0  0  0  0  0  0  0  # atno 6909 bound_to 6896
  144.7518  140.3869  143.6042 H   0  0  0  0  0  0  0  0  0  0  0  0  # atno 7974 bound_to 7965
  154.8574  140.2939  155.5560 H   0  0  0  0  0  0  0  0  0  0  0  0  # atno 8008 bound_to 7997
  156.3018  140.2484  156.3475 H   0  0  0  0  0  0  0  0  0  0  0  0  # atno 8009 bound_to 7997
  154.8956  140.0393  157.1852 H   0  0  0  0  0  0  0  0  0  0  0  0  # atno 8010 bound_to 7997
  139.4823  144.5191  151.7904 H   0  0  0  0  0  0  0  0  0  0  0  0  # atno 10167 bound_to 10162
  156.5401  130.4676  149.6503 H   0  0  0  0  0  0  0  0  0  0  0  0  # atno 10718 bound_to 10713
  154.5905  135.2844  155.0640 H   0  0  0  0  0  0  0  0  0  0  0  0  # atno 10763 bound_to 10752
  154.1943  135.6435  153.5072 H   0  0  0  0  0  0  0  0  0  0  0  0  # atno 10764 bound_to 10752
  153.0119  135.5453  154.6589 H   0  0  0  0  0  0  0  0  0  0  0  0  # atno 10765 bound_to 10752
  139.9949  134.6533  156.0027 H   0  0  0  0  0  0  0  0  0  0  0  0  # atno 11005 bound_to 11000
  145.6918  139.1641  143.2643 LP  0  0  0  0  0  0  0  0  0  0  0  0  # atno 17320 bound_to 7965
  146.1478  140.6968  142.9336 LP  0  0  0  0  0  0  0  0  0  0  0  0  # atno 17321 bound_to 7965
  140.4703  144.1596  150.5917 LP  0  0  0  0  0  0  0  0  0  0  0  0  # atno 17342 bound_to 10162
  140.4389  143.2535  151.9499 LP  0  0  0  0  0  0  0  0  0  0  0  0  # atno 17343 bound_to 10162
  156.2980  130.7161  151.2026 LP  0  0  0  0  0  0  0  0  0  0  0  0  # atno 17370 bound_to 10713
  157.7407  131.0514  150.5149 LP  0  0  0  0  0  0  0  0  0  0  0  0  # atno 17371 bound_to 10713
  141.1596  133.6540  156.4275 LP  0  0  0  0  0  0  0  0  0  0  0  0  # atno 17394 bound_to 11000
  140.4837  134.6641  157.5182 LP  0  0  0  0  0  0  0  0  0  0  0  0  # atno 17395 bound_to 11000

$$$$
