AV-unprocessed.smi:1978|AV-procd|sdf|7994|dock4
  -GOLD-   2272010173D 1   1.00000     0.00000
 Structure written by MMmdl.
 45 46  0  0  0  0  0  0  0  0  2 V2000
  151.0053  141.1084  156.5157 C   0  0  0  0  0  0  0  0  0  0  0  0
  151.2746  139.7615  155.9382 C   0  0  0  0  0  0  0  0  0  0  0  0
  150.4588  138.7724  155.4653 C   0  0  0  0  0  0  0  0  0  0  0  0
  151.3763  137.7626  155.0717 C   0  0  0  0  0  0  0  0  0  0  0  0
  150.9191  136.5410  154.5150 N   0  0  0  0  0  0  0  0  0  0  0  0
  149.8674  135.8053  154.9121 C   0  0  0  0  0  0  0  0  0  0  0  0
  149.1118  136.0889  155.8421 O   0  0  0  0  0  0  0  0  0  0  0  0
  149.7310  134.7014  154.1632 N   0  0  0  0  0  0  0  0  0  0  0  0
  148.6780  133.7061  154.3366 C   0  0  0  0  0  0  0  0  0  0  0  0
  147.2653  134.3414  154.4067 C   0  0  2  0  0  0  0  0  0  0  0  0
  146.2516  133.4486  155.1519 C   0  0  0  0  0  0  0  0  0  0  0  0
  146.7467  134.7652  153.0660 N   0  3  2  0  0  0  0  0  0  0  0  0
  145.8248  135.9377  153.1184 C   0  0  0  0  0  0  0  0  0  0  0  0
  145.5505  136.4982  151.7156 C   0  0  0  0  0  0  0  0  0  0  0  0
  144.9645  135.4147  150.8081 C   0  0  0  0  0  0  0  0  0  0  0  0
  145.9005  134.2021  150.7843 C   0  0  0  0  0  0  0  0  0  0  0  0
  146.1881  133.6692  152.2050 C   0  0  1  0  0  0  0  0  0  0  0  0
  147.1032  132.4320  152.1024 C   0  0  0  0  0  0  0  0  0  0  0  0
  152.6380  138.1049  155.2823 N   0  0  0  0  0  0  0  0  0  0  0  0
  152.5794  139.3880  155.8385 O   0  0  0  0  0  0  0  0  0  0  0  0
  149.9366  141.3231  156.5205 H   0  0  0  0  0  0  0  0  0  0  0  0
  151.5031  141.8849  155.9349 H   0  0  0  0  0  0  0  0  0  0  0  0
  151.3672  141.1681  157.5423 H   0  0  0  0  0  0  0  0  0  0  0  0
  149.3801  138.7735  155.4139 H   0  0  0  0  0  0  0  0  0  0  0  0
  151.4474  136.1938  153.7284 H   0  0  0  0  0  0  0  0  0  0  0  0
  150.3937  134.5429  153.4179 H   0  0  0  0  0  0  0  0  0  0  0  0
  148.7449  132.9810  153.5248 H   0  0  0  0  0  0  0  0  0  0  0  0
  148.8985  133.1611  155.2543 H   0  0  0  0  0  0  0  0  0  0  0  0
  147.3239  135.2335  155.0267 H   0  0  0  0  0  0  0  0  0  0  0  0
  146.5152  133.3529  156.2055 H   0  0  0  0  0  0  0  0  0  0  0  0
  146.2084  132.4390  154.7443 H   0  0  0  0  0  0  0  0  0  0  0  0
  145.2482  133.8733  155.1114 H   0  0  0  0  0  0  0  0  0  0  0  0
  144.8828  135.6493  153.5862 H   0  0  0  0  0  0  0  0  0  0  0  0
  146.2436  136.7402  153.7226 H   0  0  0  0  0  0  0  0  0  0  0  0
  144.8631  137.3423  151.7788 H   0  0  0  0  0  0  0  0  0  0  0  0
  146.4757  136.8826  151.2839 H   0  0  0  0  0  0  0  0  0  0  0  0
  143.9800  135.1174  151.1719 H   0  0  0  0  0  0  0  0  0  0  0  0
  144.8221  135.8028  149.7991 H   0  0  0  0  0  0  0  0  0  0  0  0
  145.4543  133.4177  150.1716 H   0  0  0  0  0  0  0  0  0  0  0  0
  146.8373  134.4766  150.2972 H   0  0  0  0  0  0  0  0  0  0  0  0
  145.2394  133.3456  152.6351 H   0  0  0  0  0  0  0  0  0  0  0  0
  146.7250  131.7286  151.3601 H   0  0  0  0  0  0  0  0  0  0  0  0
  147.1560  131.8809  153.0411 H   0  0  0  0  0  0  0  0  0  0  0  0
  148.1163  132.7073  151.8073 H   0  0  0  0  0  0  0  0  0  0  0  0
  147.5653  135.0893  152.5713 H   0  0  0  0  0  0  0  0  0  0  0  0
  1  2  1  0  0  0  0
  1 21  1  0  0  0  0
  1 22  1  0  0  0  0
  1 23  1  0  0  0  0
  2 20  1  0  0  0  0
  2  3  2  0  0  0  0
  3  4  1  0  0  0  0
  3 24  1  0  0  0  0
  4  5  1  0  0  0  0
  4 19  2  0  0  0  0
  5  6  1  0  0  0  0
  5 25  1  0  0  0  0
  6  7  2  0  0  0  0
  6  8  1  0  0  0  0
  8  9  1  0  0  0  0
  8 26  1  0  0  0  0
  9 10  1  0  0  0  0
  9 27  1  0  0  0  0
  9 28  1  0  0  0  0
 10 11  1  0  0  0  0
 10 12  1  0  0  0  0
 10 29  1  0  0  0  0
 11 30  1  0  0  0  0
 11 31  1  0  0  0  0
 11 32  1  0  0  0  0
 12 17  1  0  0  0  0
 12 13  1  0  0  0  0
 12 45  1  0  0  0  0
 13 14  1  0  0  0  0
 13 33  1  0  0  0  0
 13 34  1  0  0  0  0
 14 15  1  0  0  0  0
 14 35  1  0  0  0  0
 14 36  1  0  0  0  0
 15 16  1  0  0  0  0
 15 37  1  0  0  0  0
 15 38  1  0  0  0  0
 16 17  1  0  0  0  0
 16 39  1  0  0  0  0
 16 40  1  0  0  0  0
 17 18  1  0  0  0  0
 17 41  1  0  0  0  0
 18 42  1  0  0  0  0
 18 43  1  0  0  0  0
 18 44  1  0  0  0  0
 19 20  1  0  0  0  0
M  CHG  1  12   1
M  END
> <s_m_source_file>
AV-unprocessed.smi

> <i_m_source_file_index>
1978

> <i_lp_mmshare_version>
43012

> <i_f3d_flags>
0

> <s_epik_input>
W0NIM11jMVtjSF1jKG5vMSlbTkhdQyg9TylbTkhdW0NIMl1bQ0BIXShbQ0gzXSlOMltDSDJdW0NIMl1bQ0gyXVtDSDJdW0NASF0yW0NIM10=

> <s_epik_cmdline>
J2VwaWtfcHl0aG9uJywgJy1waCcsICc3LjAnLCAnLXRuJywgJzgnLCAnLW1hJywgJzIwMCcsICctbWV0YWxfYmluZGluZycsICctaW1hZScsICc8aW5maWxlLm1hZT4nLCAnLW9tYWUnLCAnPG91dGZpbGUubWFlPic=

> <r_epik_Ionization_Penalty>
0.00265971

> <r_epik_Ionization_Penalty_Charging>
0.00262393

> <r_epik_Ionization_Penalty_Neutral>
3.57846e-05

> <r_epik_State_Penalty>
0.00182566

> <r_epik_Charging_Adjusted_Penalty>
0.00444959

> <i_epik_Tot_Q>
1

> <i_epik_Tot_abs_Q>
1

> <r_epik_Metal_State_Penalty>
0.0216344

> <b_epik_Metal_Only>
0

> <s_lp_Force_Field>
OPLS_2005

> <r_lp_Energy>
19.2971

> <b_lp_Chiralities_Consistent>
1

> <s_lp_Variant>
AV-unprocessed.smi:1978-3

> <Gold.Version>
5.8.1

> <Gold.Id.Protein>
6NUR|6NUR_protein|mol2

> <Gold.PLP.Fitness>
41.6584

> <Gold.PLP.PLP>
-32.3016

> <Gold.PLP.part.hbond>
-6.0061

> <Gold.PLP.part.metal>
0.0000

> <Gold.PLP.part.buried>
-0.8941

> <Gold.PLP.part.nonpolar>
-25.3944

> <Gold.PLP.part.repulsive>
0.4484

> <Gold.PLP.ligand.clash>
0.0000

> <Gold.PLP.ligand.torsion>
0.9845

> <Gold.PLP.Chemscore.Hbond>
3.7360

> <Gold.PLP.Chemscore.CHOScore>
0.0000

> <Gold.PLP.Chemscore.Metal>
0.0000

> <Gold.Chemscore.Hbonds>
donor molecule, donor type, donor heavy atom, donor atom, acceptor molecule, acceptor atom, score
      L1  H     5    25       P1  7949  0.33
      L1  H    12    45       P1  7948  2.00
      P1  H  7997  8010       L1    20  1.00

> <Gold.PLP.Chemscore.Internal.Correction>
0.1178

> <Gold.Rescore>
     Score         DG    S(hbond)    S(metal)    S(lipo)     H(rot)  DE(clash)    DE(int)     intcor
     13.05     -16.43       2.44        0.00      57.90       1.55       0.23       3.15       ----

> <Gold.Chemscore.Fitness>
13.0466

> <Gold.Chemscore.DG>
-16.4277

> <Gold.Chemscore.ZeroCoef>
-5.4800

> <Gold.Chemscore.Hbond>
2.4353

> <Gold.Chemscore.Metal>
0.0000

> <Gold.Chemscore.Lipo>
57.9046

> <Gold.Chemscore.Internal_Hbond>
0.0000

> <Gold.Chemscore.DEClash>
0.2313

> <Gold.Chemscore.DEInternal>
3.1498

> <Gold.Chemscore.Rot>
1.5474

> <Gold.Chemscore.Internal.Correction>
   9.000000E+99

> <Gold.Chemscore.Hbonds>
donor molecule, donor type, donor heavy atom, donor atom, acceptor molecule, acceptor atom, score
      L1  H     5    25       P1  7949  0.25
      L1  H    12    45       P1  7948  0.99
      P1  H  7997  8010       L1    20  0.84

> <Gold.Chemscore.Hbond.Weighted>
-8.1341

> <Gold.Chemscore.Metal.Weighted>
-0.0000

> <Gold.Chemscore.Lipo.Weighted>
-6.7748

> <Gold.Chemscore.Internal_Hbond.Weighted>
0.0000

> <Gold.Chemscore.DEClash.Weighted>
0.2313

> <Gold.Chemscore.DEInternal.Weighted>
3.1498

> <Gold.Chemscore.Rot.Weighted>
3.9612

> <Gold.Chemscore.Internal.Correction.Weighted>
   9.000000E+99

> <Gold.Protein.RotatedTorsions>
[ 6907 6896 6895 6894 ] final -111.35 input  -60.11 | X-H torsion
[ 7974 7965 7964 7962 ] final  -61.58 input  175.53 | X-H torsion
[ 8008 7997 7996 7995 ] final   86.31 input   59.86 | X-H torsion
[ 10167 10162 10161 10158 ] final  -56.27 input  -65.29 | X-H torsion
[ 10718 10713 10712 10709 ] final  132.77 input   66.30 | X-H torsion
[ 10763 10752 10751 10750 ] final   19.85 input  -60.55 | X-H torsion
[ 11005 11000 10999 10996 ] final   30.53 input  -57.11 | X-H torsion

> <Gold.Protein.ActiveResidues>
 VAL166  LYS551  ARG553  GLY616  TRP617  ASP618  TYR619  PRO620  LYS621  CYS622 
 ASP623  PHE694  ASN695  SER759  ASP760  ASP761  ALA762  ILE779  LEU786  VAL792 
 PHE793  MET794  SER795  GLU796  ALA797  LYS798  CYS799  TRP800  GLU811  SER814 

> <Gold.Protein.RotatedAtoms>
  150.7684  133.9248  159.3408 H   0  0  0  0  0  0  0  0  0  0  0  0  # atno 6907 bound_to 6896
  151.7140  135.0905  160.0282 H   0  0  0  0  0  0  0  0  0  0  0  0  # atno 6908 bound_to 6896
  152.3691  133.6358  159.6109 H   0  0  0  0  0  0  0  0  0  0  0  0  # atno 6909 bound_to 6896
  145.8017  140.8651  143.0228 H   0  0  0  0  0  0  0  0  0  0  0  0  # atno 7974 bound_to 7965
  155.9612  140.3393  155.6492 H   0  0  0  0  0  0  0  0  0  0  0  0  # atno 8008 bound_to 7997
  155.6796  140.0736  157.2508 H   0  0  0  0  0  0  0  0  0  0  0  0  # atno 8009 bound_to 7997
  154.4143  140.1677  156.1955 H   0  0  0  0  0  0  0  0  0  0  0  0  # atno 8010 bound_to 7997
  140.6327  143.2467  151.5200 H   0  0  0  0  0  0  0  0  0  0  0  0  # atno 10167 bound_to 10162
  157.4839  131.1087  150.9646 H   0  0  0  0  0  0  0  0  0  0  0  0  # atno 10718 bound_to 10713
  153.1126  135.6700  153.9473 H   0  0  0  0  0  0  0  0  0  0  0  0  # atno 10763 bound_to 10752
  153.9012  135.3036  155.3450 H   0  0  0  0  0  0  0  0  0  0  0  0  # atno 10764 bound_to 10752
  154.7545  135.5018  153.9427 H   0  0  0  0  0  0  0  0  0  0  0  0  # atno 10765 bound_to 10752
  140.2934  134.2838  155.7770 H   0  0  0  0  0  0  0  0  0  0  0  0  # atno 11005 bound_to 11000
  144.6768  140.0269  143.7483 LP  0  0  0  0  0  0  0  0  0  0  0  0  # atno 17320 bound_to 7965
  145.9870  139.2985  143.1007 LP  0  0  0  0  0  0  0  0  0  0  0  0  # atno 17321 bound_to 7965
  139.5539  144.2324  152.1579 LP  0  0  0  0  0  0  0  0  0  0  0  0  # atno 17342 bound_to 10162
  140.1572  144.5059  150.6653 LP  0  0  0  0  0  0  0  0  0  0  0  0  # atno 17343 bound_to 10162
  157.0370  130.5734  149.5351 LP  0  0  0  0  0  0  0  0  0  0  0  0  # atno 17370 bound_to 10713
  156.0136  130.5229  150.8066 LP  0  0  0  0  0  0  0  0  0  0  0  0  # atno 17371 bound_to 10713
  141.2142  133.7600  156.9659 LP  0  0  0  0  0  0  0  0  0  0  0  0  # atno 17394 bound_to 11000
  140.1175  134.9438  157.2155 LP  0  0  0  0  0  0  0  0  0  0  0  0  # atno 17395 bound_to 11000

$$$$
