#       Name:                AV-unprocessed.smi:2879
#       Creating user name   scv26
#       Creation time:       Fri Mar 27 15:51:49 2020


#       File generated by GOLD software.
#

@<TRIPOS>MOLECULE
AV-unprocessed.smi:2879
    47    48     1
SMALL
NO_CHARGES


@<TRIPOS>ATOM
      1 ****        -4.4317   3.6193   0.3066 C.3            1 S1                 0.0000
      2 ****        -4.0684   2.3393  -0.3652 C.2            1 S1                 0.0000
      3 ****        -3.7031   2.0648  -1.6530 C.2            1 S1                 0.0000
      4 ****        -3.4815   0.6557  -1.6652 C.2            1 S1                 0.0000
      5 ****        -3.0496  -0.2045  -2.8237 C.3            1 S1                 0.0000
      6 ****        -1.5315  -0.1363  -3.0007 C.2            1 S1                 0.0000
      7 ****        -1.0491   0.3891  -4.0039 O.2            1 S1                 0.0000
      8 ****        -0.7907  -0.6741  -2.0208 N.am           1 S1                 0.0000
      9 ****         0.6654  -0.6778  -1.9856 C.3            1 S1                 0.0000
     10 ****         1.1935  -1.1780  -0.6274 C.3            1 S1                 0.0000
     11 ****         0.7340  -0.2908   0.5490 C.3            1 S1                 0.0000
     12 ****         1.2865  -0.7956   1.8944 C.3            1 S1                 0.0000
     13 ****         2.8283  -0.9344   1.9150 C.3            1 S1                 0.0000
     14 ****         3.5067   0.4527   1.8937 C.3            1 S1                 0.0000
     15 ****         3.2486  -1.6474   3.2149 C.3            1 S1                 0.0000
     16 ****         3.2795  -1.7894   0.7056 C.3            1 S1                 0.0000
     17 ****         2.7294  -1.2831  -0.6399 C.3            1 S1                 0.0000
     18 ****        -3.6989   0.1011  -0.4798 N.2            1 S1                 0.0000
     19 ****        -4.0531   1.1370   0.3031 N.pl3          1 S1                 0.0000
     20 ****        -4.2801   1.0105   1.2793 H              1 S1                 0.0000
     21 ****        -4.2992   4.4651  -0.3685 H              1 S1                 0.0000
     22 ****        -3.8065   3.7885   1.1835 H              1 S1                 0.0000
     23 ****        -5.4729   3.6055   0.6293 H              1 S1                 0.0000
     24 ****        -3.6034   2.7666  -2.4679 H              1 S1                 0.0000
     25 ****        -3.3463  -1.2437  -2.6741 H              1 S1                 0.0000
     26 ****        -3.5370   0.1270  -3.7415 H              1 S1                 0.0000
     27 ****        -1.2706  -1.0824  -1.2314 H              1 S1                 0.0000
     28 ****         1.0313  -1.3186  -2.7892 H              1 S1                 0.0000
     29 ****         1.0399   0.3280  -2.1838 H              1 S1                 0.0000
     30 ****         0.7957  -2.1813  -0.4658 H              1 S1                 0.0000
     31 ****         1.0440   0.7405   0.3798 H              1 S1                 0.0000
     32 ****        -0.3548  -0.2702   0.6044 H              1 S1                 0.0000
     33 ****         0.9583  -0.1325   2.6957 H              1 S1                 0.0000
     34 ****         0.8338  -1.7654   2.1064 H              1 S1                 0.0000
     35 ****         4.5928   0.3605   1.9281 H              1 S1                 0.0000
     36 ****         3.2037   1.0523   2.7527 H              1 S1                 0.0000
     37 ****         3.2609   1.0246   1.0001 H              1 S1                 0.0000
     38 ****         4.3304  -1.7752   3.2663 H              1 S1                 0.0000
     39 ****         2.7991  -2.6382   3.2917 H              1 S1                 0.0000
     40 ****         2.9426  -1.0811   4.0954 H              1 S1                 0.0000
     41 ****         4.3685  -1.8333   0.6617 H              1 S1                 0.0000
     42 ****         2.9449  -2.8184   0.8455 H              1 S1                 0.0000
     43 ****         3.0451  -1.9620  -1.4327 H              1 S1                 0.0000
     44 ****         3.1676  -0.3149  -0.8830 H              1 S1                 0.0000
     45 ****        -1.6498   0.7726  -4.7054 LP             1 S1                 0.0000
     46 ****        -0.0566   0.4325  -4.1174 LP             1 S1                 0.0000
     47 ****        -3.6183  -0.8630  -0.2267 LP             1 S1                 0.0000
@<TRIPOS>BOND
    1    1    2 1     
    2    1   21 1     
    3    1   22 1     
    4    1   23 1     
    5    2   19 1     
    6    2    3 2     
    7    3    4 1     
    8    3   24 1     
    9    4    5 1     
   10    4   18 2     
   11    5    6 1     
   12    5   25 1     
   13    5   26 1     
   14    6    7 2     
   15    6    8 am    
   16    8    9 1     
   17    8   27 1     
   18    9   10 1     
   19    9   28 1     
   20    9   29 1     
   21   10   17 1     
   22   10   11 1     
   23   10   30 1     
   24   11   12 1     
   25   11   31 1     
   26   11   32 1     
   27   12   13 1     
   28   12   33 1     
   29   12   34 1     
   30   13   14 1     
   31   13   15 1     
   32   13   16 1     
   33   14   35 1     
   34   14   36 1     
   35   14   37 1     
   36   15   38 1     
   37   15   39 1     
   38   15   40 1     
   39   16   17 1     
   40   16   41 1     
   41   16   42 1     
   42   17   43 1     
   43   17   44 1     
   44   18   19 1     
   45   19   20 1     
   46    7   45 1     
   47    7   46 1     
   48   18   47 1     
@<TRIPOS>SUBSTRUCTURE
      1 S1             1
@<TRIPOS>SET
LONE_PAIRS      STATIC     ATOMS    <user>   **** ""
3 45 46 47
DONOR_HYDROGENS      STATIC     ATOMS    <user>   **** ""
2 27 20
ATOM$BLUE        STATIC     ATOMS    COLORGROUP SYSTEM
3 45 46 47
ATOM$RED        STATIC     ATOMS    COLORGROUP SYSTEM
2 27 20
