AV-unprocessed.smi:793|AV-procd|sdf|3755|dock8
  -GOLD-   22720 1183D 1   1.00000     0.00000
 Structure written by MMmdl.
 38 39  0  0  0  0  0  0  0  0  2 V2000
  147.2252  145.5940  160.6903 C   0  0  0  0  0  0  0  0  0  0  0  0
  148.4921  144.7315  160.7517 C   0  0  0  0  0  0  0  0  0  0  0  0
  148.8819  144.1489  159.3800 C   0  0  1  0  0  0  0  0  0  0  0  0
  150.1411  143.4945  159.5290 O   0  0  0  0  0  0  0  0  0  0  0  0
  151.2501  144.3255  159.8652 C   0  0  0  0  0  0  0  0  0  0  0  0
  151.6415  145.1867  158.6596 C   0  0  0  0  0  0  0  0  0  0  0  0
  152.5011  144.2838  157.7650 C   0  0  0  0  0  0  0  0  0  0  0  0
  152.9609  143.1110  158.6442 C   0  0  0  0  0  0  0  0  0  0  0  0
  152.4687  143.4239  160.0603 C   0  0  0  0  0  0  0  0  0  0  0  0
  147.8229  143.1601  158.8630 C   0  0  0  0  0  0  0  0  0  0  0  0
  147.0073  142.6754  159.6477 O   0  0  0  0  0  0  0  0  0  0  0  0
  147.8706  142.8944  157.5449 N   0  0  0  0  0  0  0  0  0  0  0  0
  147.0406  142.0372  156.7698 C   0  0  0  0  0  0  0  0  0  0  0  0
  145.6695  141.8067  157.0472 C   0  0  0  0  0  0  0  0  0  0  0  0
  144.8882  140.9808  156.3181 N   0  0  0  0  0  0  0  0  0  0  0  0
  145.4504  140.3374  155.2738 C   0  0  0  0  0  0  0  0  0  0  0  0
  146.8055  140.4768  154.9183 C   0  0  0  0  0  0  0  0  0  0  0  0
  147.6166  141.3378  155.6826 C   0  0  0  0  0  0  0  0  0  0  0  0
  148.9375  141.4826  155.3587 O   0  5  0  0  0  0  0  0  0  0  0  0
  146.9745  145.9865  161.6759 H   0  0  0  0  0  0  0  0  0  0  0  0
  146.3723  145.0148  160.3359 H   0  0  0  0  0  0  0  0  0  0  0  0
  147.3568  146.4425  160.0184 H   0  0  0  0  0  0  0  0  0  0  0  0
  149.3136  145.3281  161.1511 H   0  0  0  0  0  0  0  0  0  0  0  0
  148.3272  143.9211  161.4633 H   0  0  0  0  0  0  0  0  0  0  0  0
  148.9839  144.9749  158.6728 H   0  0  0  0  0  0  0  0  0  0  0  0
  151.0618  144.9235  160.7587 H   0  0  0  0  0  0  0  0  0  0  0  0
  150.7829  145.6006  158.1309 H   0  0  0  0  0  0  0  0  0  0  0  0
  152.2444  146.0281  159.0035 H   0  0  0  0  0  0  0  0  0  0  0  0
  151.9145  143.9105  156.9247 H   0  0  0  0  0  0  0  0  0  0  0  0
  153.3468  144.8349  157.3526 H   0  0  0  0  0  0  0  0  0  0  0  0
  152.4998  142.1881  158.2904 H   0  0  0  0  0  0  0  0  0  0  0  0
  154.0416  142.9690  158.6130 H   0  0  0  0  0  0  0  0  0  0  0  0
  153.2416  143.9732  160.5994 H   0  0  0  0  0  0  0  0  0  0  0  0
  152.2415  142.5262  160.6364 H   0  0  0  0  0  0  0  0  0  0  0  0
  148.5428  143.4255  157.0099 H   0  0  0  0  0  0  0  0  0  0  0  0
  145.1699  142.2694  157.8836 H   0  0  0  0  0  0  0  0  0  0  0  0
  144.8018  139.6857  154.7075 H   0  0  0  0  0  0  0  0  0  0  0  0
  147.2112  139.9333  154.0776 H   0  0  0  0  0  0  0  0  0  0  0  0
  1  2  1  0  0  0  0
  1 20  1  0  0  0  0
  1 21  1  0  0  0  0
  1 22  1  0  0  0  0
  2  3  1  0  0  0  0
  2 23  1  0  0  0  0
  2 24  1  0  0  0  0
  3  4  1  0  0  0  0
  3 10  1  0  0  0  0
  3 25  1  0  0  0  0
  4  5  1  0  0  0  0
  5  9  1  0  0  0  0
  5  6  1  0  0  0  0
  5 26  1  0  0  0  0
  6  7  1  0  0  0  0
  6 27  1  0  0  0  0
  6 28  1  0  0  0  0
  7  8  1  0  0  0  0
  7 29  1  0  0  0  0
  7 30  1  0  0  0  0
  8  9  1  0  0  0  0
  8 31  1  0  0  0  0
  8 32  1  0  0  0  0
  9 33  1  0  0  0  0
  9 34  1  0  0  0  0
 10 11  2  0  0  0  0
 10 12  1  0  0  0  0
 12 35  1  0  0  0  0
 12 13  1  0  0  0  0
 13 18  1  0  0  0  0
 13 14  2  0  0  0  0
 14 36  1  0  0  0  0
 14 15  1  0  0  0  0
 15 16  2  0  0  0  0
 16 37  1  0  0  0  0
 16 17  1  0  0  0  0
 17 18  2  0  0  0  0
 17 38  1  0  0  0  0
 18 19  1  0  0  0  0
M  CHG  1  19  -1
M  END
> <s_m_source_file>
AV-unprocessed.smi

> <i_m_source_file_index>
793

> <i_lp_mmshare_version>
43012

> <i_f3d_flags>
0

> <s_epik_input>
W0NIMl0xW0NIMl1bQ0gyXVtDSDJdW0NIXTFPW0NAQEhdKFtDSDJdW0NIM10pQyg9TylbTkhdYzJbY0hdbltjSF1bY0hdYzJbT0hd

> <s_epik_cmdline>
J2VwaWtfcHl0aG9uJywgJy1waCcsICc3LjAnLCAnLXRuJywgJzgnLCAnLW1hJywgJzIwMCcsICctbWV0YWxfYmluZGluZycsICctaW1hZScsICc8aW5maWxlLm1hZT4nLCAnLW9tYWUnLCAnPG91dGZpbGUubWFlPic=

> <r_lp_tautomer_probability>
1

> <r_epik_Ionization_Penalty>
5.91611

> <r_epik_Ionization_Penalty_Charging>
1.01889

> <r_epik_Ionization_Penalty_Neutral>
4.89722

> <r_epik_State_Penalty>
4.89706

> <r_epik_Charging_Adjusted_Penalty>
5.91595

> <i_epik_Tot_Q>
-1

> <i_epik_Tot_abs_Q>
1

> <r_epik_Metal_State_Penalty>
1.05012

> <b_epik_Metal_Only>
1

> <s_lp_Force_Field>
OPLS_2005

> <r_lp_Energy>
29.623

> <b_lp_Chiralities_Consistent>
1

> <s_lp_Variant>
AV-unprocessed.smi:793-4

> <Gold.Version>
5.8.1

> <Gold.Id.Protein>
6NUR|6NUR_protein|mol2

> <Gold.PLP.Fitness>
41.3356

> <Gold.PLP.PLP>
-34.8162

> <Gold.PLP.part.hbond>
-4.7656

> <Gold.PLP.part.metal>
0.0000

> <Gold.PLP.part.buried>
-2.5817

> <Gold.PLP.part.nonpolar>
-29.1581

> <Gold.PLP.part.repulsive>
1.0398

> <Gold.PLP.ligand.clash>
0.0000

> <Gold.PLP.ligand.torsion>
0.7936

> <Gold.PLP.Chemscore.Hbond>
1.7355

> <Gold.PLP.Chemscore.CHOScore>
0.9474

> <Gold.PLP.Chemscore.Metal>
0.0000

> <Gold.Chemscore.Hbonds>
donor molecule, donor type, donor heavy atom, donor atom, acceptor molecule, acceptor atom, score
      L1  H    12    35       P1  8028  0.96
      P1  H  6933  6944       L1    11  0.14
      P1  H  6934  6946       L1    11  0.72
      L1  C    16    37       P1 10175  0.67

> <Gold.PLP.Chemscore.Internal.Correction>
0.0577

> <Gold.Rescore>
     Score         DG    S(hbond)    S(metal)    S(lipo)     H(rot)  DE(clash)    DE(int)     intcor
     14.80     -15.82       1.03        0.00      91.78       1.49       0.26       0.75       ----

> <Gold.Chemscore.Fitness>
14.8049

> <Gold.Chemscore.DG>
-15.8222

> <Gold.Chemscore.ZeroCoef>
-5.4800

> <Gold.Chemscore.Hbond>
1.0260

> <Gold.Chemscore.Metal>
0.0000

> <Gold.Chemscore.Lipo>
91.7773

> <Gold.Chemscore.Internal_Hbond>
0.0000

> <Gold.Chemscore.DEClash>
0.2644

> <Gold.Chemscore.DEInternal>
0.7528

> <Gold.Chemscore.Rot>
1.4932

> <Gold.Chemscore.Internal.Correction>
   9.000000E+99

> <Gold.Chemscore.Hbonds>
donor molecule, donor type, donor heavy atom, donor atom, acceptor molecule, acceptor atom, score
      L1  H    12    35       P1  8028  0.24
      P1  H  6933  6944       L1    11  0.02
      P1  H  6934  6946       L1    11  0.68

> <Gold.Chemscore.Hbond.Weighted>
-3.4269

> <Gold.Chemscore.Metal.Weighted>
-0.0000

> <Gold.Chemscore.Lipo.Weighted>
-10.7379

> <Gold.Chemscore.Internal_Hbond.Weighted>
0.0000

> <Gold.Chemscore.DEClash.Weighted>
0.2644

> <Gold.Chemscore.DEInternal.Weighted>
0.7528

> <Gold.Chemscore.Rot.Weighted>
3.8226

> <Gold.Chemscore.Internal.Correction.Weighted>
   9.000000E+99

> <Gold.Protein.RotatedTorsions>
[ 6907 6896 6895 6894 ] final   64.50 input  -60.11 | X-H torsion
[ 7974 7965 7964 7962 ] final -153.08 input  175.53 | X-H torsion
[ 8008 7997 7996 7995 ] final   -2.97 input   59.86 | X-H torsion
[ 10167 10162 10161 10158 ] final  141.16 input  -65.29 | X-H torsion
[ 10718 10713 10712 10709 ] final  167.55 input   66.30 | X-H torsion
[ 10763 10752 10751 10750 ] final   87.85 input  -60.55 | X-H torsion
[ 11005 11000 10999 10996 ] final -154.82 input  -57.11 | X-H torsion

> <Gold.Protein.ActiveResidues>
 VAL166  LYS551  ARG553  GLY616  TRP617  ASP618  TYR619  PRO620  LYS621  CYS622 
 ASP623  PHE694  ASN695  SER759  ASP760  ASP761  ALA762  ILE779  LEU786  VAL792 
 PHE793  MET794  SER795  GLU796  ALA797  LYS798  CYS799  TRP800  GLU811  SER814 

> <Gold.Protein.RotatedAtoms>
  152.4336  134.5729  159.9926 H   0  0  0  0  0  0  0  0  0  0  0  0  # atno 6907 bound_to 6896
  151.5845  133.3368  159.3023 H   0  0  0  0  0  0  0  0  0  0  0  0  # atno 6908 bound_to 6896
  150.8232  134.7485  159.6855 H   0  0  0  0  0  0  0  0  0  0  0  0  # atno 6909 bound_to 6896
  144.7759  140.4574  143.5873 H   0  0  0  0  0  0  0  0  0  0  0  0  # atno 7974 bound_to 7965
  154.6299  140.2521  155.7446 H   0  0  0  0  0  0  0  0  0  0  0  0  # atno 8008 bound_to 7997
  156.2474  140.2909  156.0566 H   0  0  0  0  0  0  0  0  0  0  0  0  # atno 8009 bound_to 7997
  155.1761  140.0388  157.2863 H   0  0  0  0  0  0  0  0  0  0  0  0  # atno 8010 bound_to 7997
  139.5028  144.6189  151.6099 H   0  0  0  0  0  0  0  0  0  0  0  0  # atno 10167 bound_to 10162
  157.0500  131.0310  151.2684 H   0  0  0  0  0  0  0  0  0  0  0  0  # atno 10718 bound_to 10713
  153.1710  135.4528  154.9902 H   0  0  0  0  0  0  0  0  0  0  0  0  # atno 10763 bound_to 10752
  154.7966  135.3240  154.7655 H   0  0  0  0  0  0  0  0  0  0  0  0  # atno 10764 bound_to 10752
  153.8132  135.6953  153.4892 H   0  0  0  0  0  0  0  0  0  0  0  0  # atno 10765 bound_to 10752
  140.6932  134.4019  157.5217 H   0  0  0  0  0  0  0  0  0  0  0  0  # atno 11005 bound_to 11000
  145.6187  139.1521  143.3035 LP  0  0  0  0  0  0  0  0  0  0  0  0  # atno 17320 bound_to 7965
  146.1938  140.6298  142.9133 LP  0  0  0  0  0  0  0  0  0  0  0  0  # atno 17321 bound_to 7965
  140.5885  143.9822  150.6310 LP  0  0  0  0  0  0  0  0  0  0  0  0  # atno 17342 bound_to 10162
  140.2994  143.3270  152.0986 LP  0  0  0  0  0  0  0  0  0  0  0  0  # atno 17343 bound_to 10162
  157.5038  130.7896  149.7632 LP  0  0  0  0  0  0  0  0  0  0  0  0  # atno 17370 bound_to 10713
  156.0011  130.3880  150.2604 LP  0  0  0  0  0  0  0  0  0  0  0  0  # atno 17371 bound_to 10713
  139.8917  134.8772  156.2304 LP  0  0  0  0  0  0  0  0  0  0  0  0  # atno 17394 bound_to 11000
  141.0225  133.7033  156.1291 LP  0  0  0  0  0  0  0  0  0  0  0  0  # atno 17395 bound_to 11000

$$$$
