AV-unprocessed.smi:3350|AV-procd|sdf|12940|dock1
  -GOLD-   2272019373D 1   1.00000     0.00000
 Structure written by MMmdl.
 41 42  0  0  0  0  0  0  0  0  1 V2000
  144.8305  135.7072  151.1929 C   0  0  0  0  0  0  0  0  0  0  0  0
  145.4550  135.4295  152.5694 C   0  0  1  0  0  0  0  0  0  0  0  0
  145.8511  133.9480  152.7212 C   0  0  0  0  0  0  0  0  0  0  0  0
  145.2342  133.1045  151.7121 N   0  0  0  0  0  0  0  0  0  0  0  0
  145.8506  132.3348  150.7482 C   0  0  0  0  0  0  0  0  0  0  0  0
  144.8662  131.7256  150.0240 C   0  0  0  0  0  0  0  0  0  0  0  0
  143.6649  132.1904  150.6285 C   0  0  0  0  0  0  0  0  0  0  0  0
  143.8880  133.0149  151.6392 N   0  0  0  0  0  0  0  0  0  0  0  0
  146.6234  136.2842  152.7688 N   0  0  0  0  0  0  0  0  0  0  0  0
  146.7619  137.1959  153.7405 C   0  0  0  0  0  0  0  0  0  0  0  0
  145.8934  137.4570  154.5732 O   0  0  0  0  0  0  0  0  0  0  0  0
  147.9644  137.7847  153.6955 N   0  0  0  0  0  0  0  0  0  0  0  0
  148.4432  138.8066  154.6229 C   0  0  2  0  0  0  0  0  0  0  0  0
  147.6179  140.0917  154.4505 C   0  0  0  0  0  0  0  0  0  0  0  0
  149.9456  139.0520  154.3895 C   0  0  2  0  0  0  0  0  0  0  0  0
  150.8087  137.7881  154.3930 C   0  0  0  0  0  0  0  0  0  0  0  0
  152.1849  138.2933  154.7982 C   0  0  0  0  0  0  0  0  0  0  0  0
  151.9236  139.7033  155.3349 C   0  0  0  0  0  0  0  0  0  0  0  0
  150.5114  139.7973  155.4560 O   0  0  0  0  0  0  0  0  0  0  0  0
  143.9456  135.0906  151.0330 H   0  0  0  0  0  0  0  0  0  0  0  0
  145.5345  135.4954  150.3875 H   0  0  0  0  0  0  0  0  0  0  0  0
  144.5229  136.7493  151.1006 H   0  0  0  0  0  0  0  0  0  0  0  0
  144.7086  135.6580  153.3328 H   0  0  0  0  0  0  0  0  0  0  0  0
  146.9325  133.8398  152.6286 H   0  0  0  0  0  0  0  0  0  0  0  0
  145.5861  133.5752  153.7121 H   0  0  0  0  0  0  0  0  0  0  0  0
  146.9259  132.2874  150.6580 H   0  0  0  0  0  0  0  0  0  0  0  0
  144.9861  131.0513  149.1892 H   0  0  0  0  0  0  0  0  0  0  0  0
  142.6447  131.9543  150.3643 H   0  0  0  0  0  0  0  0  0  0  0  0
  147.3986  136.1442  152.1373 H   0  0  0  0  0  0  0  0  0  0  0  0
  148.6063  137.4953  152.9723 H   0  0  0  0  0  0  0  0  0  0  0  0
  148.3165  138.4497  155.6468 H   0  0  0  0  0  0  0  0  0  0  0  0
  147.9436  140.8645  155.1473 H   0  0  0  0  0  0  0  0  0  0  0  0
  146.5592  139.9090  154.6378 H   0  0  0  0  0  0  0  0  0  0  0  0
  147.7136  140.4926  153.4409 H   0  0  0  0  0  0  0  0  0  0  0  0
  150.1004  139.5993  153.4572 H   0  0  0  0  0  0  0  0  0  0  0  0
  150.4440  137.0849  155.1434 H   0  0  0  0  0  0  0  0  0  0  0  0
  150.8112  137.2780  153.4295 H   0  0  0  0  0  0  0  0  0  0  0  0
  152.6251  137.6486  155.5597 H   0  0  0  0  0  0  0  0  0  0  0  0
  152.8679  138.3247  153.9484 H   0  0  0  0  0  0  0  0  0  0  0  0
  152.4140  139.8861  156.2912 H   0  0  0  0  0  0  0  0  0  0  0  0
  152.2722  140.4544  154.6247 H   0  0  0  0  0  0  0  0  0  0  0  0
  1  2  1  0  0  0  0
  1 20  1  0  0  0  0
  1 21  1  0  0  0  0
  1 22  1  0  0  0  0
  2  3  1  0  0  0  0
  2  9  1  0  0  0  0
  2 23  1  0  0  0  0
  3  4  1  0  0  0  0
  3 24  1  0  0  0  0
  3 25  1  0  0  0  0
  4  8  1  0  0  0  0
  4  5  1  0  0  0  0
  5  6  2  0  0  0  0
  5 26  1  0  0  0  0
  6  7  1  0  0  0  0
  6 27  1  0  0  0  0
  7  8  2  0  0  0  0
  7 28  1  0  0  0  0
  9 10  1  0  0  0  0
  9 29  1  0  0  0  0
 10 11  2  0  0  0  0
 10 12  1  0  0  0  0
 12 13  1  0  0  0  0
 12 30  1  0  0  0  0
 13 14  1  0  0  0  0
 13 15  1  0  0  0  0
 13 31  1  0  0  0  0
 14 32  1  0  0  0  0
 14 33  1  0  0  0  0
 14 34  1  0  0  0  0
 15 19  1  0  0  0  0
 15 16  1  0  0  0  0
 15 35  1  0  0  0  0
 16 17  1  0  0  0  0
 16 36  1  0  0  0  0
 16 37  1  0  0  0  0
 17 18  1  0  0  0  0
 17 38  1  0  0  0  0
 17 39  1  0  0  0  0
 18 19  1  0  0  0  0
 18 40  1  0  0  0  0
 18 41  1  0  0  0  0
M  END
> <s_m_source_file>
AV-unprocessed.smi

> <i_m_source_file_index>
3350

> <i_lp_mmshare_version>
43012

> <i_f3d_flags>
0

> <s_epik_input>
bjFbY0hdW2NIXVtjSF1uMVtDSDJdW0NAQEhdKFtDSDNdKVtOSF1DKD1PKVtOSF1bQ0BIXShbQ0gzXSlbQ0BASF0yW0NIMl1bQ0gyXVtDSDJdTzI=

> <s_epik_cmdline>
J2VwaWtfcHl0aG9uJywgJy1waCcsICc3LjAnLCAnLXRuJywgJzgnLCAnLW1hJywgJzIwMCcsICctbWV0YWxfYmluZGluZycsICctaW1hZScsICc8aW5maWxlLm1hZT4nLCAnLW9tYWUnLCAnPG91dGZpbGUubWFlPic=

> <r_lp_tautomer_probability>
1

> <r_epik_Ionization_Penalty>
6.42349e-05

> <r_epik_Ionization_Penalty_Charging>
0

> <r_epik_Ionization_Penalty_Neutral>
6.42349e-05

> <r_epik_State_Penalty>
-0

> <r_epik_Charging_Adjusted_Penalty>
0

> <i_epik_Tot_Q>
0

> <i_epik_Tot_abs_Q>
0

> <r_epik_Metal_State_Penalty>
-0

> <b_epik_Metal_Only>
0

> <s_lp_Force_Field>
OPLS_2005

> <r_lp_Energy>
16.0006

> <b_lp_Chiralities_Consistent>
1

> <s_lp_Variant>
AV-unprocessed.smi:3350-2

> <Gold.Version>
5.8.1

> <Gold.Id.Protein>
6NUR|6NUR_protein|mol2

> <Gold.PLP.Fitness>
41.4151

> <Gold.PLP.PLP>
-31.5599

> <Gold.PLP.part.hbond>
-1.8116

> <Gold.PLP.part.metal>
0.0000

> <Gold.PLP.part.buried>
-3.6555

> <Gold.PLP.part.nonpolar>
-27.7618

> <Gold.PLP.part.repulsive>
0.3111

> <Gold.PLP.ligand.clash>
0.0000

> <Gold.PLP.ligand.torsion>
0.7900

> <Gold.PLP.Chemscore.Hbond>
1.8800

> <Gold.PLP.Chemscore.CHOScore>
1.9094

> <Gold.PLP.Chemscore.Metal>
0.0000

> <Gold.Chemscore.Hbonds>
donor molecule, donor type, donor heavy atom, donor atom, acceptor molecule, acceptor atom, score
      L1  H     9    29       P1  7948  1.00
      L1  H    12    30       P1  7948  0.90
      L1  C     5    26       P1 10747  1.00
      L1  C     7    28       P1 10952  0.95

> <Gold.PLP.Chemscore.Internal.Correction>
0.0671

> <Gold.Rescore>
     Score         DG    S(hbond)    S(metal)    S(lipo)     H(rot)  DE(clash)    DE(int)     intcor
     14.70     -16.55       1.83        0.00      82.30       1.82       0.05       1.81       ----

> <Gold.Chemscore.Fitness>
14.6966

> <Gold.Chemscore.DG>
-16.5522

> <Gold.Chemscore.ZeroCoef>
-5.4800

> <Gold.Chemscore.Hbond>
1.8269

> <Gold.Chemscore.Metal>
0.0000

> <Gold.Chemscore.Lipo>
82.2967

> <Gold.Chemscore.Internal_Hbond>
0.0000

> <Gold.Chemscore.DEClash>
0.0503

> <Gold.Chemscore.DEInternal>
1.8054

> <Gold.Chemscore.Rot>
1.8197

> <Gold.Chemscore.Internal.Correction>
   9.000000E+99

> <Gold.Chemscore.Hbonds>
donor molecule, donor type, donor heavy atom, donor atom, acceptor molecule, acceptor atom, score
      L1  H     9    29       P1  7948  0.92
      L1  H    12    30       P1  7948  0.88

> <Gold.Chemscore.Hbond.Weighted>
-6.1018

> <Gold.Chemscore.Metal.Weighted>
-0.0000

> <Gold.Chemscore.Lipo.Weighted>
-9.6287

> <Gold.Chemscore.Internal_Hbond.Weighted>
0.0000

> <Gold.Chemscore.DEClash.Weighted>
0.0503

> <Gold.Chemscore.DEInternal.Weighted>
1.8054

> <Gold.Chemscore.Rot.Weighted>
4.6583

> <Gold.Chemscore.Internal.Correction.Weighted>
   9.000000E+99

> <Gold.Protein.RotatedTorsions>
[ 6907 6896 6895 6894 ] final   46.71 input  -60.11 | X-H torsion
[ 7974 7965 7964 7962 ] final  -41.72 input  175.53 | X-H torsion
[ 8008 7997 7996 7995 ] final   66.50 input   59.86 | X-H torsion
[ 10167 10162 10161 10158 ] final  -81.08 input  -65.29 | X-H torsion
[ 10718 10713 10712 10709 ] final -122.31 input   66.30 | X-H torsion
[ 10763 10752 10751 10750 ] final  132.69 input  -60.55 | X-H torsion
[ 11005 11000 10999 10996 ] final   73.24 input  -57.11 | X-H torsion

> <Gold.Protein.ActiveResidues>
 VAL166  LYS551  ARG553  GLY616  TRP617  ASP618  TYR619  PRO620  LYS621  CYS622 
 ASP623  PHE694  ASN695  SER759  ASP760  ASP761  ALA762  ILE779  LEU786  VAL792 
 PHE793  MET794  SER795  GLU796  ALA797  LYS798  CYS799  TRP800  GLU811  SER814 

> <Gold.Protein.RotatedAtoms>
  152.2595  134.8048  160.0432 H   0  0  0  0  0  0  0  0  0  0  0  0  # atno 6907 bound_to 6896
  151.8700  133.3468  159.3740 H   0  0  0  0  0  0  0  0  0  0  0  0  # atno 6908 bound_to 6896
  150.7112  134.5049  159.5623 H   0  0  0  0  0  0  0  0  0  0  0  0  # atno 6909 bound_to 6896
  146.0184  140.6880  142.9190 H   0  0  0  0  0  0  0  0  0  0  0  0  # atno 7974 bound_to 7965
  155.6783  140.3496  155.4845 H   0  0  0  0  0  0  0  0  0  0  0  0  # atno 8008 bound_to 7997
  155.9628  140.1140  157.0903 H   0  0  0  0  0  0  0  0  0  0  0  0  # atno 8009 bound_to 7997
  154.4147  140.1172  156.5188 H   0  0  0  0  0  0  0  0  0  0  0  0  # atno 8010 bound_to 7997
  140.4444  143.2503  151.8579 H   0  0  0  0  0  0  0  0  0  0  0  0  # atno 10167 bound_to 10162
  156.1408  130.6464  150.9767 H   0  0  0  0  0  0  0  0  0  0  0  0  # atno 10718 bound_to 10713
  153.7949  135.3150  155.3383 H   0  0  0  0  0  0  0  0  0  0  0  0  # atno 10763 bound_to 10752
  154.8111  135.4666  154.0523 H   0  0  0  0  0  0  0  0  0  0  0  0  # atno 10764 bound_to 10752
  153.1853  135.6900  153.8511 H   0  0  0  0  0  0  0  0  0  0  0  0  # atno 10765 bound_to 10752
  139.9450  134.7330  156.1003 H   0  0  0  0  0  0  0  0  0  0  0  0  # atno 11005 bound_to 11000
  144.6980  140.3522  143.7179 LP  0  0  0  0  0  0  0  0  0  0  0  0  # atno 17320 bound_to 7965
  145.7232  139.1715  143.2473 LP  0  0  0  0  0  0  0  0  0  0  0  0  # atno 17321 bound_to 7965
  139.4792  144.5192  151.8826 LP  0  0  0  0  0  0  0  0  0  0  0  0  # atno 17342 bound_to 10162
  140.4280  144.2154  150.5887 LP  0  0  0  0  0  0  0  0  0  0  0  0  # atno 17343 bound_to 10162
  157.6573  131.0887  150.7917 LP  0  0  0  0  0  0  0  0  0  0  0  0  # atno 17370 bound_to 10713
  156.7993  130.4916  149.5372 LP  0  0  0  0  0  0  0  0  0  0  0  0  # atno 17371 bound_to 10713
  141.1097  133.6647  156.2949 LP  0  0  0  0  0  0  0  0  0  0  0  0  # atno 17394 bound_to 11000
  140.5858  134.5700  157.5489 LP  0  0  0  0  0  0  0  0  0  0  0  0  # atno 17395 bound_to 11000

$$$$
