AV-unprocessed.smi:236|AV-procd|sdf|1811|dock6
  -GOLD-   2262020393D 1   1.00000     0.00000
 Structure written by MMmdl.
 58 62  0  0  0  0  0  0  0  0  1 V2000
  145.8213  130.0755  152.4213 C   0  0  0  0  0  0  0  0  0  0  0  0
  145.7179  131.5523  152.8345 C   0  0  2  0  0  0  0  0  0  0  0  0
  145.0503  132.2859  151.8143 O   0  0  0  0  0  0  0  0  0  0  0  0
  145.4474  133.6407  151.9218 C   0  0  0  0  0  0  0  0  0  0  0  0
  146.9439  133.5176  152.1614 C   0  0  0  0  0  0  0  0  0  0  0  0
  147.0529  132.3053  153.0907 C   0  0  2  0  0  0  0  0  0  0  0  0
  148.1846  131.5470  152.6964 O   0  0  0  0  0  0  0  0  0  0  0  0
  147.2047  132.6731  154.5898 C   0  0  0  0  0  0  0  0  0  0  0  0
  148.0892  133.8007  154.8457 N   0  0  0  0  0  0  0  0  0  0  0  0
  149.4271  133.7459  155.1677 C   0  0  0  0  0  0  0  0  0  0  0  0
  150.0020  134.9017  155.3601 N   0  0  0  0  0  0  0  0  0  0  0  0
  148.9797  135.8239  155.1707 C   0  0  0  0  0  0  0  0  0  0  0  0
  148.8938  137.2436  155.2325 C   0  0  0  0  0  0  0  0  0  0  0  0
  149.9214  138.0673  155.5246 N   0  0  0  0  0  0  0  0  0  0  0  0
  150.9667  138.0783  154.5103 C   0  0  0  0  0  0  0  0  0  0  0  0
  152.1554  138.9227  154.9971 C   0  0  0  0  0  0  0  0  0  0  0  0
  151.6995  140.2280  155.3407 O   0  0  0  0  0  0  0  0  0  0  0  0
  150.7440  140.2115  156.4003 C   0  0  1  0  0  0  0  0  0  0  0  0
  150.3765  141.6618  156.7395 C   0  0  0  0  0  0  0  0  0  0  0  0
  151.4548  142.2630  157.4371 O   0  0  0  0  0  0  0  0  0  0  0  0
  151.1507  143.5708  157.8904 C   0  0  0  0  0  0  0  0  0  0  0  0
  152.4089  144.2084  158.4403 C   0  0  0  0  0  0  0  0  0  0  0  0
  153.0690  143.6724  159.6912 C   0  0  0  0  0  0  0  0  0  0  0  0
  152.3581  145.0009  159.7270 C   0  0  0  0  0  0  0  0  0  0  0  0
  149.5155  139.4056  155.9344 C   0  0  0  0  0  0  0  0  0  0  0  0
  147.6918  137.8206  154.9901 N   0  0  0  0  0  0  0  0  0  0  0  0
  146.6321  137.0591  154.7020 C   0  0  0  0  0  0  0  0  0  0  0  0
  146.5593  135.7294  154.6082 N   0  0  0  0  0  0  0  0  0  0  0  0
  147.7690  135.1474  154.8521 C   0  0  0  0  0  0  0  0  0  0  0  0
  146.3290  129.4880  153.1868 H   0  0  0  0  0  0  0  0  0  0  0  0
  146.3689  129.9593  151.4856 H   0  0  0  0  0  0  0  0  0  0  0  0
  144.8305  129.6446  152.2773 H   0  0  0  0  0  0  0  0  0  0  0  0
  145.0874  131.6147  153.7229 H   0  0  0  0  0  0  0  0  0  0  0  0
  145.2093  134.2049  151.0199 H   0  0  0  0  0  0  0  0  0  0  0  0
  144.9488  134.1111  152.7709 H   0  0  0  0  0  0  0  0  0  0  0  0
  147.4279  133.3141  151.2045 H   0  0  0  0  0  0  0  0  0  0  0  0
  147.3822  134.4336  152.5537 H   0  0  0  0  0  0  0  0  0  0  0  0
  148.1463  131.4173  151.7613 H   0  0  0  0  0  0  0  0  0  0  0  0
  146.2290  132.9047  155.0192 H   0  0  0  0  0  0  0  0  0  0  0  0
  147.5835  131.8154  155.1472 H   0  0  0  0  0  0  0  0  0  0  0  0
  149.9681  132.8145  155.2539 H   0  0  0  0  0  0  0  0  0  0  0  0
  151.2926  137.0587  154.2994 H   0  0  0  0  0  0  0  0  0  0  0  0
  150.5765  138.4928  153.5797 H   0  0  0  0  0  0  0  0  0  0  0  0
  152.6398  138.4562  155.8563 H   0  0  0  0  0  0  0  0  0  0  0  0
  152.9069  139.0030  154.2117 H   0  0  0  0  0  0  0  0  0  0  0  0
  151.1765  139.7361  157.2829 H   0  0  0  0  0  0  0  0  0  0  0  0
  150.1404  142.2179  155.8307 H   0  0  0  0  0  0  0  0  0  0  0  0
  149.4903  141.6798  157.3758 H   0  0  0  0  0  0  0  0  0  0  0  0
  150.7798  144.1789  157.0639 H   0  0  0  0  0  0  0  0  0  0  0  0
  150.3789  143.5446  158.6615 H   0  0  0  0  0  0  0  0  0  0  0  0
  153.0724  144.6043  157.6736 H   0  0  0  0  0  0  0  0  0  0  0  0
  152.5937  142.8352  160.1984 H   0  0  0  0  0  0  0  0  0  0  0  0
  154.1565  143.6822  159.7273 H   0  0  0  0  0  0  0  0  0  0  0  0
  152.9710  145.8978  159.7886 H   0  0  0  0  0  0  0  0  0  0  0  0
  151.4087  145.0483  160.2567 H   0  0  0  0  0  0  0  0  0  0  0  0
  149.0312  139.9189  155.1029 H   0  0  0  0  0  0  0  0  0  0  0  0
  148.7845  139.3356  156.7411 H   0  0  0  0  0  0  0  0  0  0  0  0
  145.7095  137.5912  154.5230 H   0  0  0  0  0  0  0  0  0  0  0  0
  1  2  1  0  0  0  0
  1 30  1  0  0  0  0
  1 31  1  0  0  0  0
  1 32  1  0  0  0  0
  2  6  1  0  0  0  0
  2  3  1  0  0  0  0
  2 33  1  0  0  0  0
  3  4  1  0  0  0  0
  4  5  1  0  0  0  0
  4 34  1  0  0  0  0
  4 35  1  0  0  0  0
  5  6  1  0  0  0  0
  5 36  1  0  0  0  0
  5 37  1  0  0  0  0
  6  7  1  0  0  0  0
  6  8  1  0  0  0  0
  7 38  1  0  0  0  0
  8  9  1  0  0  0  0
  8 39  1  0  0  0  0
  8 40  1  0  0  0  0
  9 29  1  0  0  0  0
  9 10  1  0  0  0  0
 10 11  2  0  0  0  0
 10 41  1  0  0  0  0
 11 12  1  0  0  0  0
 12 29  2  0  0  0  0
 12 13  1  0  0  0  0
 13 14  1  0  0  0  0
 13 26  2  0  0  0  0
 14 25  1  0  0  0  0
 14 15  1  0  0  0  0
 15 16  1  0  0  0  0
 15 42  1  0  0  0  0
 15 43  1  0  0  0  0
 16 17  1  0  0  0  0
 16 44  1  0  0  0  0
 16 45  1  0  0  0  0
 17 18  1  0  0  0  0
 18 19  1  0  0  0  0
 18 25  1  0  0  0  0
 18 46  1  0  0  0  0
 19 20  1  0  0  0  0
 19 47  1  0  0  0  0
 19 48  1  0  0  0  0
 20 21  1  0  0  0  0
 21 22  1  0  0  0  0
 21 49  1  0  0  0  0
 21 50  1  0  0  0  0
 22 24  1  0  0  0  0
 22 23  1  0  0  0  0
 22 51  1  0  0  0  0
 23 24  1  0  0  0  0
 23 52  1  0  0  0  0
 23 53  1  0  0  0  0
 24 54  1  0  0  0  0
 24 55  1  0  0  0  0
 25 56  1  0  0  0  0
 25 57  1  0  0  0  0
 26 27  1  0  0  0  0
 27 28  2  0  0  0  0
 27 58  1  0  0  0  0
 28 29  1  0  0  0  0
M  END
> <s_m_source_file>
AV-unprocessed.smi

> <i_m_source_file_index>
236

> <i_lp_mmshare_version>
43012

> <i_f3d_flags>
0

> <s_epik_input>
W0NIMl0xW0NIMl1PW0NAQEhdKFtDSDNdKVtDQEBdMShbT0hdKVtDSDJdbihbY0hdbjIpYyhjMjMpbltjSF1uYzNONFtDSDJdW0NIMl1PW0NASF0oW0NIMl00KVtDSDJdT1tDSDJdW0NIXTVbQ0gyXVtDSDJdNQ==

> <s_epik_cmdline>
J2VwaWtfcHl0aG9uJywgJy1waCcsICc3LjAnLCAnLXRuJywgJzgnLCAnLW1hJywgJzIwMCcsICctbWV0YWxfYmluZGluZycsICctaW1hZScsICc8aW5maWxlLm1hZT4nLCAnLW9tYWUnLCAnPG91dGZpbGUubWFlPic=

> <r_lp_tautomer_probability>
1

> <r_epik_Ionization_Penalty>
7.21838e-05

> <r_epik_Ionization_Penalty_Charging>
0

> <r_epik_Ionization_Penalty_Neutral>
7.21838e-05

> <r_epik_State_Penalty>
-0

> <r_epik_Charging_Adjusted_Penalty>
0

> <i_epik_Tot_Q>
0

> <i_epik_Tot_abs_Q>
0

> <r_epik_Metal_State_Penalty>
-0

> <b_epik_Metal_Only>
0

> <s_lp_Force_Field>
OPLS_2005

> <r_lp_Energy>
49.5811

> <b_lp_Chiralities_Consistent>
1

> <s_lp_Variant>
AV-unprocessed.smi:236-3

> <Gold.Version>
5.8.1

> <Gold.Id.Protein>
6NUR|6NUR_protein|mol2

> <Gold.PLP.Fitness>
50.2151

> <Gold.PLP.PLP>
-46.5315

> <Gold.PLP.part.hbond>
-2.0000

> <Gold.PLP.part.metal>
0.0000

> <Gold.PLP.part.buried>
-2.5424

> <Gold.PLP.part.nonpolar>
-42.5641

> <Gold.PLP.part.repulsive>
0.6070

> <Gold.PLP.ligand.clash>
0.0000

> <Gold.PLP.ligand.torsion>
1.3803

> <Gold.PLP.Chemscore.Hbond>
1.8640

> <Gold.PLP.Chemscore.CHOScore>
0.0000

> <Gold.PLP.Chemscore.Metal>
0.0000

> <Gold.Chemscore.Hbonds>
donor molecule, donor type, donor heavy atom, donor atom, acceptor molecule, acceptor atom, score
      L1  H     7    38       P1 10747  0.93
      P1  H  7989  7998       L1    17  0.66

> <Gold.PLP.Chemscore.Internal.Correction>
0.8522

> <Gold.Rescore>
     Score         DG    S(hbond)    S(metal)    S(lipo)     H(rot)  DE(clash)    DE(int)     intcor
     14.51     -16.43       1.22        0.00     121.56       2.87       0.26       1.66       ----

> <Gold.Chemscore.Fitness>
14.5067

> <Gold.Chemscore.DG>
-16.4288

> <Gold.Chemscore.ZeroCoef>
-5.4800

> <Gold.Chemscore.Hbond>
1.2161

> <Gold.Chemscore.Metal>
0.0000

> <Gold.Chemscore.Lipo>
121.5615

> <Gold.Chemscore.Internal_Hbond>
0.0000

> <Gold.Chemscore.DEClash>
0.2622

> <Gold.Chemscore.DEInternal>
1.6600

> <Gold.Chemscore.Rot>
2.8655

> <Gold.Chemscore.Internal.Correction>
   9.000000E+99

> <Gold.Chemscore.Hbonds>
donor molecule, donor type, donor heavy atom, donor atom, acceptor molecule, acceptor atom, score
      L1  H     7    38       P1 10747  0.91
      P1  H  7989  7998       L1    17  0.08

> <Gold.Chemscore.Hbond.Weighted>
-4.0619

> <Gold.Chemscore.Metal.Weighted>
-0.0000

> <Gold.Chemscore.Lipo.Weighted>
-14.2227

> <Gold.Chemscore.Internal_Hbond.Weighted>
0.0000

> <Gold.Chemscore.DEClash.Weighted>
0.2622

> <Gold.Chemscore.DEInternal.Weighted>
1.6600

> <Gold.Chemscore.Rot.Weighted>
7.3358

> <Gold.Chemscore.Internal.Correction.Weighted>
   9.000000E+99

> <Gold.Protein.RotatedTorsions>
[ 6907 6896 6895 6894 ] final -162.58 input  -60.11 | X-H torsion
[ 7974 7965 7964 7962 ] final  -96.08 input  175.53 | X-H torsion
[ 8008 7997 7996 7995 ] final  122.87 input   59.86 | X-H torsion
[ 10167 10162 10161 10158 ] final   27.47 input  -65.29 | X-H torsion
[ 10718 10713 10712 10709 ] final   40.52 input   66.30 | X-H torsion
[ 10763 10752 10751 10750 ] final  147.07 input  -60.55 | X-H torsion
[ 11005 11000 10999 10996 ] final -110.08 input  -57.11 | X-H torsion

> <Gold.Protein.ActiveResidues>
 VAL166  LYS551  ARG553  GLY616  TRP617  ASP618  TYR619  PRO620  LYS621  CYS622 
 ASP623  PHE694  ASN695  SER759  ASP760  ASP761  ALA762  ILE779  LEU786  VAL792 
 PHE793  MET794  SER795  GLU796  ALA797  LYS798  CYS799  TRP800  GLU811  SER814 

> <Gold.Protein.RotatedAtoms>
  151.3826  133.3816  159.2711 H   0  0  0  0  0  0  0  0  0  0  0  0  # atno 6907 bound_to 6896
  150.9566  134.8960  159.7715 H   0  0  0  0  0  0  0  0  0  0  0  0  # atno 6908 bound_to 6896
  152.5133  134.3783  159.9394 H   0  0  0  0  0  0  0  0  0  0  0  0  # atno 6909 bound_to 6896
  145.3515  140.9477  143.2551 H   0  0  0  0  0  0  0  0  0  0  0  0  # atno 7974 bound_to 7965
  156.2744  140.2776  156.1537 H   0  0  0  0  0  0  0  0  0  0  0  0  # atno 8008 bound_to 7997
  155.0826  140.0388  157.2662 H   0  0  0  0  0  0  0  0  0  0  0  0  # atno 8009 bound_to 7997
  154.6952  140.2637  155.6779 H   0  0  0  0  0  0  0  0  0  0  0  0  # atno 8010 bound_to 7997
  140.4936  144.0428  150.6306 H   0  0  0  0  0  0  0  0  0  0  0  0  # atno 10167 bound_to 10162
  157.3831  130.7765  149.7209 H   0  0  0  0  0  0  0  0  0  0  0  0  # atno 10718 bound_to 10713
  154.0322  135.2896  155.3367 H   0  0  0  0  0  0  0  0  0  0  0  0  # atno 10763 bound_to 10752
  154.6981  135.5199  153.8490 H   0  0  0  0  0  0  0  0  0  0  0  0  # atno 10764 bound_to 10752
  153.0635  135.6622  154.0534 H   0  0  0  0  0  0  0  0  0  0  0  0  # atno 10765 bound_to 10752
  141.0812  133.9217  157.2285 H   0  0  0  0  0  0  0  0  0  0  0  0  # atno 11005 bound_to 11000
  144.8714  139.5033  143.6766 LP  0  0  0  0  0  0  0  0  0  0  0  0  # atno 17320 bound_to 7965
  146.2966  139.7296  142.9122 LP  0  0  0  0  0  0  0  0  0  0  0  0  # atno 17321 bound_to 7965
  140.3704  143.2858  152.0284 LP  0  0  0  0  0  0  0  0  0  0  0  0  # atno 17342 bound_to 10162
  139.4856  144.6234  151.7211 LP  0  0  0  0  0  0  0  0  0  0  0  0  # atno 17343 bound_to 10162
  155.9780  130.4056  150.3674 LP  0  0  0  0  0  0  0  0  0  0  0  0  # atno 17370 bound_to 10713
  157.1781  131.0385  151.2762 LP  0  0  0  0  0  0  0  0  0  0  0  0  # atno 17371 bound_to 10713
  139.9626  135.0150  156.9301 LP  0  0  0  0  0  0  0  0  0  0  0  0  # atno 17394 bound_to 11000
  140.5464  134.0669  155.7356 LP  0  0  0  0  0  0  0  0  0  0  0  0  # atno 17395 bound_to 11000

$$$$
