AV-unprocessed.smi:1667|AV-procd|sdf|6675|dock1
  -GOLD-   22720 7383D 1   1.00000     0.00000
 Structure written by MMmdl.
 45 47  0  0  0  0  0  0  0  0  1 V2000
  147.9007  135.3747  158.6991 C   0  0  0  0  0  0  0  0  0  0  0  0
  149.0379  136.0640  157.9527 C   0  0  0  0  0  0  0  0  0  0  0  0
  150.0247  136.4606  158.5715 O   0  0  0  0  0  0  0  0  0  0  0  0
  148.8868  136.2063  156.6274 N   0  0  0  0  0  0  0  0  0  0  0  0
  149.8316  136.8730  155.7331 C   0  0  1  0  0  0  0  0  0  0  0  0
  150.3128  135.9190  154.6290 C   0  0  0  0  0  0  0  0  0  0  0  0
  149.1555  138.0946  155.1623 C   0  0  0  0  0  0  0  0  0  0  0  0
  148.1348  138.0002  154.3049 N   0  0  0  0  0  0  0  0  0  0  0  0
  147.8603  139.3174  154.0022 C   0  0  0  0  0  0  0  0  0  0  0  0
  146.8843  139.8769  153.1468 C   0  0  0  0  0  0  0  0  0  0  0  0
  146.7969  141.2747  152.9816 C   0  0  0  0  0  0  0  0  0  0  0  0
  147.6841  142.1297  153.6659 C   0  0  0  0  0  0  0  0  0  0  0  0
  148.6633  141.5915  154.5226 C   0  0  0  0  0  0  0  0  0  0  0  0
  148.7433  140.1954  154.6898 C   0  0  0  0  0  0  0  0  0  0  0  0
  149.5666  139.3610  155.4431 N   0  0  0  0  0  0  0  0  0  0  0  0
  150.6504  139.7972  156.3210 C   0  0  0  0  0  0  0  0  0  0  0  0
  150.1822  140.2670  157.7193 C   0  0  1  0  0  0  0  0  0  0  0  0
  150.2219  139.1935  158.6387 O   0  0  0  0  0  0  0  0  0  0  0  0
  150.9268  141.4964  158.2250 C   0  0  0  0  0  0  0  0  0  0  0  0
  150.9946  142.6758  157.4488 C   0  0  0  0  0  0  0  0  0  0  0  0
  151.6888  143.8036  157.9276 C   0  0  0  0  0  0  0  0  0  0  0  0
  152.3207  143.7603  159.1848 C   0  0  0  0  0  0  0  0  0  0  0  0
  152.2524  142.5908  159.9657 C   0  0  0  0  0  0  0  0  0  0  0  0
  152.8535  142.5509  161.1781 F   0  0  0  0  0  0  0  0  0  0  0  0
  151.5573  141.4629  159.4874 C   0  0  0  0  0  0  0  0  0  0  0  0
  150.6889  137.1784  156.3299 H   0  0  0  0  0  0  0  0  0  0  0  0
  146.9997  135.3154  158.0874 H   0  0  0  0  0  0  0  0  0  0  0  0
  147.6582  135.9267  159.6075 H   0  0  0  0  0  0  0  0  0  0  0  0
  148.1938  134.3630  158.9799 H   0  0  0  0  0  0  0  0  0  0  0  0
  148.0435  135.8480  156.2024 H   0  0  0  0  0  0  0  0  0  0  0  0
  151.0203  136.4177  153.9661 H   0  0  0  0  0  0  0  0  0  0  0  0
  149.4809  135.5635  154.0204 H   0  0  0  0  0  0  0  0  0  0  0  0
  150.8153  135.0473  155.0490 H   0  0  0  0  0  0  0  0  0  0  0  0
  146.2032  139.2296  152.6147 H   0  0  0  0  0  0  0  0  0  0  0  0
  146.0474  141.6923  152.3252 H   0  0  0  0  0  0  0  0  0  0  0  0
  147.6127  143.1993  153.5333 H   0  0  0  0  0  0  0  0  0  0  0  0
  149.3431  142.2456  155.0478 H   0  0  0  0  0  0  0  0  0  0  0  0
  151.3923  139.0046  156.4108 H   0  0  0  0  0  0  0  0  0  0  0  0
  151.1713  140.6157  155.8228 H   0  0  0  0  0  0  0  0  0  0  0  0
  149.1292  140.5394  157.6372 H   0  0  0  0  0  0  0  0  0  0  0  0
  150.3492  139.5472  159.5058 H   0  0  0  0  0  0  0  0  0  0  0  0
  150.5080  142.7234  156.4854 H   0  0  0  0  0  0  0  0  0  0  0  0
  151.7341  144.7031  157.3317 H   0  0  0  0  0  0  0  0  0  0  0  0
  152.8508  144.6261  159.5536 H   0  0  0  0  0  0  0  0  0  0  0  0
  151.5092  140.5711  160.0949 H   0  0  0  0  0  0  0  0  0  0  0  0
  1  2  1  0  0  0  0
  1 27  1  0  0  0  0
  1 28  1  0  0  0  0
  1 29  1  0  0  0  0
  2  3  2  0  0  0  0
  2  4  1  0  0  0  0
  4  5  1  0  0  0  0
  4 30  1  0  0  0  0
  5 26  1  0  0  0  0
  5  6  1  0  0  0  0
  5  7  1  0  0  0  0
  6 31  1  0  0  0  0
  6 32  1  0  0  0  0
  6 33  1  0  0  0  0
  7 15  1  0  0  0  0
  7  8  2  0  0  0  0
  8  9  1  0  0  0  0
  9 14  2  0  0  0  0
  9 10  1  0  0  0  0
 10 11  2  0  0  0  0
 10 34  1  0  0  0  0
 11 12  1  0  0  0  0
 11 35  1  0  0  0  0
 12 13  2  0  0  0  0
 12 36  1  0  0  0  0
 13 14  1  0  0  0  0
 13 37  1  0  0  0  0
 14 15  1  0  0  0  0
 15 16  1  0  0  0  0
 16 17  1  0  0  0  0
 16 38  1  0  0  0  0
 16 39  1  0  0  0  0
 17 18  1  0  0  0  0
 17 19  1  0  0  0  0
 17 40  1  0  0  0  0
 18 41  1  0  0  0  0
 19 25  1  0  0  0  0
 19 20  2  0  0  0  0
 20 21  1  0  0  0  0
 20 42  1  0  0  0  0
 21 22  2  0  0  0  0
 21 43  1  0  0  0  0
 22 23  1  0  0  0  0
 22 44  1  0  0  0  0
 23 24  1  0  0  0  0
 23 25  2  0  0  0  0
 25 45  1  0  0  0  0
M  END
> <s_m_source_file>
AV-unprocessed.smi

> <i_m_source_file_index>
1667

> <i_lp_mmshare_version>
43012

> <i_f3d_flags>
0

> <s_epik_input>
W0NIM11DKD1PKVtOSF1bQ0BASF0oW0NIM10pYyhuMSluKGMoYzEyKVtjSF1bY0hdW2NIXVtjSF0yKVtDSDJdW0NASF0oW09IXSljM1tjSF1bY0hdW2NIXWMoRilbY0hdMw==

> <s_epik_cmdline>
J2VwaWtfcHl0aG9uJywgJy1waCcsICc3LjAnLCAnLXRuJywgJzgnLCAnLW1hJywgJzIwMCcsICctbWV0YWxfYmluZGluZycsICctaW1hZScsICc8aW5maWxlLm1hZT4nLCAnLW9tYWUnLCAnPG91dGZpbGUubWFlPic=

> <r_epik_Ionization_Penalty>
0.133011

> <r_epik_Ionization_Penalty_Charging>
0

> <r_epik_Ionization_Penalty_Neutral>
0.133011

> <r_epik_State_Penalty>
0.122384

> <r_epik_Charging_Adjusted_Penalty>
0.122384

> <i_epik_Tot_Q>
0

> <i_epik_Tot_abs_Q>
0

> <r_epik_Metal_State_Penalty>
0.0997374

> <b_epik_Metal_Only>
0

> <s_lp_Force_Field>
OPLS_2005

> <r_lp_Energy>
5.5788

> <b_lp_Chiralities_Consistent>
1

> <s_lp_Variant>
AV-unprocessed.smi:1667-3

> <Gold.Version>
5.8.1

> <Gold.Id.Protein>
6NUR|6NUR_protein|mol2

> <Gold.PLP.Fitness>
45.1846

> <Gold.PLP.PLP>
-43.8998

> <Gold.PLP.part.hbond>
-1.0000

> <Gold.PLP.part.metal>
0.0000

> <Gold.PLP.part.buried>
-4.5663

> <Gold.PLP.part.nonpolar>
-39.0507

> <Gold.PLP.part.repulsive>
0.2033

> <Gold.PLP.ligand.clash>
0.0000

> <Gold.PLP.ligand.torsion>
0.9109

> <Gold.PLP.Chemscore.Hbond>
1.0000

> <Gold.PLP.Chemscore.CHOScore>
0.0000

> <Gold.PLP.Chemscore.Metal>
0.0000

> <Gold.Chemscore.Hbonds>
donor molecule, donor type, donor heavy atom, donor atom, acceptor molecule, acceptor atom, score
      P1  H  6896  6907       L1     3  0.70

> <Gold.PLP.Chemscore.Internal.Correction>
0.1067

> <Gold.Rescore>
     Score         DG    S(hbond)    S(metal)    S(lipo)     H(rot)  DE(clash)    DE(int)     intcor
     15.49     -16.43       0.90        0.00     121.91       2.48       0.15       0.78       ----

> <Gold.Chemscore.Fitness>
15.4946

> <Gold.Chemscore.DG>
-16.4253

> <Gold.Chemscore.ZeroCoef>
-5.4800

> <Gold.Chemscore.Hbond>
0.9043

> <Gold.Chemscore.Metal>
0.0000

> <Gold.Chemscore.Lipo>
121.9100

> <Gold.Chemscore.Internal_Hbond>
0.0000

> <Gold.Chemscore.DEClash>
0.1503

> <Gold.Chemscore.DEInternal>
0.7805

> <Gold.Chemscore.Rot>
2.4760

> <Gold.Chemscore.Internal.Correction>
   9.000000E+99

> <Gold.Chemscore.Hbonds>
donor molecule, donor type, donor heavy atom, donor atom, acceptor molecule, acceptor atom, score
      P1  H  6896  6907       L1     3  0.64

> <Gold.Chemscore.Hbond.Weighted>
-3.0204

> <Gold.Chemscore.Metal.Weighted>
-0.0000

> <Gold.Chemscore.Lipo.Weighted>
-14.2635

> <Gold.Chemscore.Internal_Hbond.Weighted>
0.0000

> <Gold.Chemscore.DEClash.Weighted>
0.1503

> <Gold.Chemscore.DEInternal.Weighted>
0.7805

> <Gold.Chemscore.Rot.Weighted>
6.3385

> <Gold.Chemscore.Internal.Correction.Weighted>
   9.000000E+99

> <Gold.Protein.RotatedTorsions>
[ 6907 6896 6895 6894 ] final  -30.66 input  -60.11 | X-H torsion
[ 7974 7965 7964 7962 ] final  -36.31 input  175.53 | X-H torsion
[ 8008 7997 7996 7995 ] final  -80.74 input   59.86 | X-H torsion
[ 10167 10162 10161 10158 ] final -129.06 input  -65.29 | X-H torsion
[ 10718 10713 10712 10709 ] final   55.00 input   66.30 | X-H torsion
[ 10763 10752 10751 10750 ] final  -53.72 input  -60.55 | X-H torsion
[ 11005 11000 10999 10996 ] final -109.24 input  -57.11 | X-H torsion

> <Gold.Protein.ActiveResidues>
 VAL166  LYS551  ARG553  GLY616  TRP617  ASP618  TYR619  PRO620  LYS621  CYS622 
 ASP623  PHE694  ASN695  SER759  ASP760  ASP761  ALA762  ILE779  LEU786  VAL792 
 PHE793  MET794  SER795  GLU796  ALA797  LYS798  CYS799  TRP800  GLU811  SER814 

> <Gold.Protein.RotatedAtoms>
  151.1025  134.9980  159.8455 H   0  0  0  0  0  0  0  0  0  0  0  0  # atno 6907 bound_to 6896
  152.5438  134.1933  159.8693 H   0  0  0  0  0  0  0  0  0  0  0  0  # atno 6908 bound_to 6896
  151.1977  133.4585  159.2629 H   0  0  0  0  0  0  0  0  0  0  0  0  # atno 6909 bound_to 6896
  146.0672  140.6263  142.8969 H   0  0  0  0  0  0  0  0  0  0  0  0  # atno 7974 bound_to 7965
  154.5913  140.0658  156.9243 H   0  0  0  0  0  0  0  0  0  0  0  0  # atno 8008 bound_to 7997
  155.2290  140.3336  155.4287 H   0  0  0  0  0  0  0  0  0  0  0  0  # atno 8009 bound_to 7997
  156.2258  140.1818  156.7351 H   0  0  0  0  0  0  0  0  0  0  0  0  # atno 8010 bound_to 7997
  139.9438  143.6133  152.2496 H   0  0  0  0  0  0  0  0  0  0  0  0  # atno 10167 bound_to 10162
  157.5306  130.8628  149.8683 H   0  0  0  0  0  0  0  0  0  0  0  0  # atno 10718 bound_to 10713
  154.1634  135.6471  153.4991 H   0  0  0  0  0  0  0  0  0  0  0  0  # atno 10763 bound_to 10752
  153.0104  135.5366  154.6687 H   0  0  0  0  0  0  0  0  0  0  0  0  # atno 10764 bound_to 10752
  154.6007  135.2943  155.0510 H   0  0  0  0  0  0  0  0  0  0  0  0  # atno 10765 bound_to 10752
  141.0858  133.9141  157.2188 H   0  0  0  0  0  0  0  0  0  0  0  0  # atno 11005 bound_to 11000
  144.7209  140.4371  143.7008 LP  0  0  0  0  0  0  0  0  0  0  0  0  # atno 17320 bound_to 7965
  145.6456  139.1556  143.2891 LP  0  0  0  0  0  0  0  0  0  0  0  0  # atno 17321 bound_to 7965
  139.6683  144.7661  151.1831 LP  0  0  0  0  0  0  0  0  0  0  0  0  # atno 17342 bound_to 10162
  140.7603  143.5904  150.8802 LP  0  0  0  0  0  0  0  0  0  0  0  0  # atno 17343 bound_to 10162
  156.0420  130.3737  150.1412 LP  0  0  0  0  0  0  0  0  0  0  0  0  # atno 17370 bound_to 10713
  156.9597  130.9801  151.3481 LP  0  0  0  0  0  0  0  0  0  0  0  0  # atno 17371 bound_to 10713
  139.9676  135.0137  156.9429 LP  0  0  0  0  0  0  0  0  0  0  0  0  # atno 17394 bound_to 11000
  140.5366  134.0761  155.7330 LP  0  0  0  0  0  0  0  0  0  0  0  0  # atno 17395 bound_to 11000

$$$$
