#       Name:                AV-unprocessed.smi:2453
#       Creating user name   scv26
#       Creation time:       Fri Mar 27 13:33:16 2020


#       File generated by GOLD software.
#

@<TRIPOS>MOLECULE
AV-unprocessed.smi:2453
    45    46     1
SMALL
NO_CHARGES


@<TRIPOS>ATOM
      1 ****        -4.2391  -0.4646  -0.7636 C.3            1 S1                 0.0000
      2 ****        -4.0519   0.9660  -0.2893 C.ar           1 S1                 0.0000
      3 ****        -5.1562   1.8459  -0.2822 C.ar           1 S1                 0.0000
      4 ****        -5.0060   3.1196   0.1384 N.pl3          1 S1                 1.0000
      5 ****        -3.8255   3.6111   0.5684 C.ar           1 S1                 0.0000
      6 ****        -2.6850   2.7843   0.5876 C.ar           1 S1                 0.0000
      7 ****        -2.7865   1.4411   0.1421 C.ar           1 S1                 0.0000
      8 ****        -1.6875   0.5356   0.1533 N.am           1 S1                 0.0000
      9 ****        -0.3719   0.8091   0.1229 C.2            1 S1                 0.0000
     10 ****         0.1183   1.9350   0.0397 O.2            1 S1                 0.0000
     11 ****         0.3571  -0.3146   0.1795 N.am           1 S1                 0.0000
     12 ****         1.8177  -0.3768   0.1639 C.3            1 S1                 0.0000
     13 ****         2.3624  -0.1592   1.5919 C.3            1 S1                 0.0000
     14 ****         3.8920  -0.2808   1.6414 C.3            1 S1                 0.0000
     15 ****         4.3535  -1.6368   1.0913 C.3            1 S1                 0.0000
     16 ****         3.8359  -1.8553  -0.3382 C.3            1 S1                 0.0000
     17 ****         2.2986  -1.7324  -0.4183 C.3            1 S1                 0.0000
     18 ****         1.7799  -2.0158  -1.8463 C.3            1 S1                 0.0000
     19 ****         2.2139  -1.0342  -2.7656 O.3            1 S1                 0.0000
     20 ****        -5.2682  -0.6483  -1.0737 H              1 S1                 0.0000
     21 ****        -3.9977  -1.1663   0.0353 H              1 S1                 0.0000
     22 ****        -3.5894  -0.6721  -1.6145 H              1 S1                 0.0000
     23 ****        -6.1527   1.5712  -0.5966 H              1 S1                 0.0000
     24 ****        -3.8294   4.6425   0.8897 H              1 S1                 0.0000
     25 ****        -1.7578   3.1945   0.9571 H              1 S1                 0.0000
     26 ****        -1.9349  -0.4427   0.1293 H              1 S1                 0.0000
     27 ****        -0.1308  -1.1961   0.2426 H              1 S1                 0.0000
     28 ****         2.2004   0.4227  -0.4737 H              1 S1                 0.0000
     29 ****         2.0664   0.8228   1.9627 H              1 S1                 0.0000
     30 ****         1.9208  -0.8901   2.2709 H              1 S1                 0.0000
     31 ****         4.3424   0.5240   1.0592 H              1 S1                 0.0000
     32 ****         4.2423  -0.1554   2.6662 H              1 S1                 0.0000
     33 ****         5.4425  -1.6924   1.1050 H              1 S1                 0.0000
     34 ****         3.9945  -2.4378   1.7389 H              1 S1                 0.0000
     35 ****         4.3023  -1.1265  -1.0024 H              1 S1                 0.0000
     36 ****         4.1503  -2.8379  -0.6912 H              1 S1                 0.0000
     37 ****         1.8892  -2.5192   0.2179 H              1 S1                 0.0000
     38 ****         2.1302  -2.9903  -2.1877 H              1 S1                 0.0000
     39 ****         0.6907  -2.0551  -1.8653 H              1 S1                 0.0000
     40 ****         1.8909  -1.2615  -3.6242 H              1 S1                 0.0000
     41 ****        -5.8200   3.7350   0.1356 H              1 S1                 0.0000
     42 ****        -0.4769   2.7370  -0.0115 LP             1 S1                 0.0000
     43 ****         1.1117   2.0479   0.0234 LP             1 S1                 0.0000
     44 ****         3.2133  -1.0034  -2.7788 LP             1 S1                 0.0000
     45 ****         1.8564  -0.1396  -2.4971 LP             1 S1                 0.0000
@<TRIPOS>BOND
    1    1    2 1     
    2    1   20 1     
    3    1   21 1     
    4    1   22 1     
    5    2    7 ar    
    6    2    3 ar    
    7    3    4 ar    
    8    3   23 1     
    9    4    5 ar    
   10    4   41 1     
   11    5    6 ar    
   12    5   24 1     
   13    6    7 ar    
   14    6   25 1     
   15    7    8 1     
   16    8    9 am    
   17    8   26 1     
   18    9   10 2     
   19    9   11 am    
   20   11   12 1     
   21   11   27 1     
   22   12   17 1     
   23   12   13 1     
   24   12   28 1     
   25   13   14 1     
   26   13   29 1     
   27   13   30 1     
   28   14   15 1     
   29   14   31 1     
   30   14   32 1     
   31   15   16 1     
   32   15   33 1     
   33   15   34 1     
   34   16   17 1     
   35   16   35 1     
   36   16   36 1     
   37   17   18 1     
   38   17   37 1     
   39   18   19 1     
   40   18   38 1     
   41   18   39 1     
   42   19   40 1     
   43   10   42 1     
   44   10   43 1     
   45   19   44 1     
   46   19   45 1     
@<TRIPOS>SUBSTRUCTURE
      1 S1             1
@<TRIPOS>SET
LONE_PAIRS      STATIC     ATOMS    <user>   **** ""
4 42 43 44 45
DONOR_HYDROGENS      STATIC     ATOMS    <user>   **** ""
4 41 26 27 40
ATOM$BLUE        STATIC     ATOMS    COLORGROUP SYSTEM
4 42 43 44 45
ATOM$RED        STATIC     ATOMS    COLORGROUP SYSTEM
4 41 26 27 40
