AV-unprocessed.smi:703|AV-procd|sdf|3432|dock4
  -GOLD-   22720 0423D 1   1.00000     0.00000
 Structure written by MMmdl.
 38 39  0  0  0  0  0  0  0  0  2 V2000
  145.1016  135.8672  151.2988 C   0  0  0  0  0  0  0  0  0  0  0  0
  145.4820  136.0699  152.7715 C   0  0  0  0  0  0  0  0  0  0  0  0
  146.6806  136.9279  152.9221 N   0  3  1  0  0  0  0  0  0  0  0  0
  146.5112  138.3321  152.4725 C   0  0  0  0  0  0  0  0  0  0  0  0
  146.9675  139.2287  153.6307 C   0  0  2  0  0  0  0  0  0  0  0  0
  147.5408  140.5924  153.2106 C   0  0  0  0  0  0  0  0  0  0  0  0
  147.8795  138.3264  154.4697 C   0  0  2  0  0  0  0  0  0  0  0  0
  149.2604  138.3136  153.9687 N   0  0  0  0  0  0  0  0  0  0  0  0
  150.5257  137.8321  155.0386 S   0  0  0  0  0  0  0  0  0  0  0  0
  149.9370  137.6262  156.3709 O   0  0  0  0  0  0  0  0  0  0  0  0
  151.2628  136.7416  154.3822 O   0  0  0  0  0  0  0  0  0  0  0  0
  151.5918  139.3329  155.0975 C   0  0  0  0  0  0  0  0  0  0  0  0
  151.7951  139.7442  156.5274 C   0  0  0  0  0  0  0  0  0  0  0  0
  150.8480  140.3030  157.4297 C   0  0  0  0  0  0  0  0  0  0  0  0
  151.5681  140.4834  158.5755 C   0  0  0  0  0  0  0  0  0  0  0  0
  152.8486  140.0687  158.4020 O   0  0  0  0  0  0  0  0  0  0  0  0
  152.9833  139.5965  157.0914 N   0  0  0  0  0  0  0  0  0  0  0  0
  147.2395  136.9487  154.2935 C   0  0  0  0  0  0  0  0  0  0  0  0
  144.2439  135.2000  151.2109 H   0  0  0  0  0  0  0  0  0  0  0  0
  145.9240  135.4233  150.7370 H   0  0  0  0  0  0  0  0  0  0  0  0
  144.8348  136.8077  150.8165 H   0  0  0  0  0  0  0  0  0  0  0  0
  144.6466  136.4947  153.3299 H   0  0  0  0  0  0  0  0  0  0  0  0
  145.6910  135.0941  153.2125 H   0  0  0  0  0  0  0  0  0  0  0  0
  147.1411  138.4809  151.5948 H   0  0  0  0  0  0  0  0  0  0  0  0
  145.4852  138.5633  152.1827 H   0  0  0  0  0  0  0  0  0  0  0  0
  146.0847  139.4275  154.2406 H   0  0  0  0  0  0  0  0  0  0  0  0
  148.4223  140.4869  152.5775 H   0  0  0  0  0  0  0  0  0  0  0  0
  147.8236  141.1823  154.0823 H   0  0  0  0  0  0  0  0  0  0  0  0
  146.8024  141.1664  152.6506 H   0  0  0  0  0  0  0  0  0  0  0  0
  147.8778  138.6205  155.5203 H   0  0  0  0  0  0  0  0  0  0  0  0
  149.3285  137.8184  153.0799 H   0  0  0  0  0  0  0  0  0  0  0  0
  152.5423  139.1037  154.6162 H   0  0  0  0  0  0  0  0  0  0  0  0
  151.1066  140.1214  154.5211 H   0  0  0  0  0  0  0  0  0  0  0  0
  149.8076  140.5390  157.2614 H   0  0  0  0  0  0  0  0  0  0  0  0
  151.3241  140.8758  159.5515 H   0  0  0  0  0  0  0  0  0  0  0  0
  146.4288  136.8418  155.0166 H   0  0  0  0  0  0  0  0  0  0  0  0
  147.9354  136.1249  154.4582 H   0  0  0  0  0  0  0  0  0  0  0  0
  147.4011  136.5320  152.3353 H   0  0  0  0  0  0  0  0  0  0  0  0
  1  2  1  0  0  0  0
  1 19  1  0  0  0  0
  1 20  1  0  0  0  0
  1 21  1  0  0  0  0
  2  3  1  0  0  0  0
  2 22  1  0  0  0  0
  2 23  1  0  0  0  0
  3 18  1  0  0  0  0
  3  4  1  0  0  0  0
  3 38  1  0  0  0  0
  4  5  1  0  0  0  0
  4 24  1  0  0  0  0
  4 25  1  0  0  0  0
  5  6  1  0  0  0  0
  5  7  1  0  0  0  0
  5 26  1  0  0  0  0
  6 27  1  0  0  0  0
  6 28  1  0  0  0  0
  6 29  1  0  0  0  0
  7  8  1  0  0  0  0
  7 18  1  0  0  0  0
  7 30  1  0  0  0  0
  8  9  1  0  0  0  0
  8 31  1  0  0  0  0
  9 10  2  0  0  0  0
  9 11  2  0  0  0  0
  9 12  1  0  0  0  0
 12 13  1  0  0  0  0
 12 32  1  0  0  0  0
 12 33  1  0  0  0  0
 13 17  2  0  0  0  0
 13 14  1  0  0  0  0
 14 15  2  0  0  0  0
 14 34  1  0  0  0  0
 15 16  1  0  0  0  0
 15 35  1  0  0  0  0
 16 17  1  0  0  0  0
 18 36  1  0  0  0  0
 18 37  1  0  0  0  0
M  CHG  1   3   1
M  END
> <s_m_source_file>
AV-unprocessed.smi

> <i_m_source_file_index>
703

> <i_lp_mmshare_version>
43012

> <i_f3d_flags>
0

> <s_epik_input>
W0NIM11bQ0gyXU4xW0NIMl1bQ0BASF0oW0NIM10pW0NASF0oW0NIMl0xKVtOSF1TKD1PKSg9TylbQ0gyXWMyW2NIXVtjSF1vbjI=

> <s_epik_cmdline>
J2VwaWtfcHl0aG9uJywgJy1waCcsICc3LjAnLCAnLXRuJywgJzgnLCAnLW1hJywgJzIwMCcsICctbWV0YWxfYmluZGluZycsICctaW1hZScsICc8aW5maWxlLm1hZT4nLCAnLW9tYWUnLCAnPG91dGZpbGUubWFlPic=

> <r_epik_Ionization_Penalty>
0.00324529

> <r_epik_Ionization_Penalty_Charging>
0.0019384

> <r_epik_Ionization_Penalty_Neutral>
0.00130689

> <r_epik_State_Penalty>
0.00218682

> <r_epik_Charging_Adjusted_Penalty>
0.00412522

> <i_epik_Tot_Q>
1

> <i_epik_Tot_abs_Q>
1

> <r_epik_Metal_State_Penalty>
0.310831

> <b_epik_Metal_Only>
0

> <s_lp_Force_Field>
OPLS_2005

> <r_lp_Energy>
21.5385

> <b_lp_Chiralities_Consistent>
1

> <s_lp_Variant>
AV-unprocessed.smi:703-7

> <Gold.Version>
5.8.1

> <Gold.Id.Protein>
6NUR|6NUR_protein|mol2

> <Gold.PLP.Fitness>
39.1930

> <Gold.PLP.PLP>
-25.0508

> <Gold.PLP.part.hbond>
-4.7351

> <Gold.PLP.part.metal>
0.0000

> <Gold.PLP.part.buried>
-0.0294

> <Gold.PLP.part.nonpolar>
-21.6404

> <Gold.PLP.part.repulsive>
0.9287

> <Gold.PLP.ligand.clash>
0.0000

> <Gold.PLP.ligand.torsion>
0.5091

> <Gold.PLP.Chemscore.Hbond>
4.9913

> <Gold.PLP.Chemscore.CHOScore>
0.0000

> <Gold.PLP.Chemscore.Metal>
0.0000

> <Gold.Chemscore.Hbonds>
donor molecule, donor type, donor heavy atom, donor atom, acceptor molecule, acceptor atom, score
      L1  H     3    38       P1  7948  2.00
      L1  H     8    31       P1  7948  1.00
      P1  H  7997  8008       L1    17  1.00
      P1  H 10752 10763       L1    11  1.00

> <Gold.PLP.Chemscore.Internal.Correction>
0.1867

> <Gold.Rescore>
     Score         DG    S(hbond)    S(metal)    S(lipo)     H(rot)  DE(clash)    DE(int)     intcor
     17.25     -19.15       3.63        0.00      55.56       1.94       0.42       1.48       ----

> <Gold.Chemscore.Fitness>
17.2536

> <Gold.Chemscore.DG>
-19.1510

> <Gold.Chemscore.ZeroCoef>
-5.4800

> <Gold.Chemscore.Hbond>
3.6340

> <Gold.Chemscore.Metal>
0.0000

> <Gold.Chemscore.Lipo>
55.5552

> <Gold.Chemscore.Internal_Hbond>
0.0000

> <Gold.Chemscore.DEClash>
0.4168

> <Gold.Chemscore.DEInternal>
1.4805

> <Gold.Chemscore.Rot>
1.9400

> <Gold.Chemscore.Internal.Correction>
   9.000000E+99

> <Gold.Chemscore.Hbonds>
donor molecule, donor type, donor heavy atom, donor atom, acceptor molecule, acceptor atom, score
      L1  H     3    38       P1  7948  0.98
      L1  H     8    31       P1  7948  0.90
      P1  H  7997  8008       L1    17  0.28
      P1  H 10752 10763       L1    11  0.97

> <Gold.Chemscore.Hbond.Weighted>
-12.1375

> <Gold.Chemscore.Metal.Weighted>
-0.0000

> <Gold.Chemscore.Lipo.Weighted>
-6.5000

> <Gold.Chemscore.Internal_Hbond.Weighted>
0.0000

> <Gold.Chemscore.DEClash.Weighted>
0.4168

> <Gold.Chemscore.DEInternal.Weighted>
1.4805

> <Gold.Chemscore.Rot.Weighted>
4.9665

> <Gold.Chemscore.Internal.Correction.Weighted>
   9.000000E+99

> <Gold.Protein.RotatedTorsions>
[ 6907 6896 6895 6894 ] final  162.32 input  -60.11 | X-H torsion
[ 7974 7965 7964 7962 ] final   38.52 input  175.53 | X-H torsion
[ 8008 7997 7996 7995 ] final  -66.86 input   59.86 | X-H torsion
[ 10167 10162 10161 10158 ] final  -87.45 input  -65.29 | X-H torsion
[ 10718 10713 10712 10709 ] final -151.22 input   66.30 | X-H torsion
[ 10763 10752 10751 10750 ] final   40.40 input  -60.55 | X-H torsion
[ 11005 11000 10999 10996 ] final   81.88 input  -57.11 | X-H torsion

> <Gold.Protein.ActiveResidues>
 VAL166  LYS551  ARG553  GLY616  TRP617  ASP618  TYR619  PRO620  LYS621  CYS622 
 ASP623  PHE694  ASN695  SER759  ASP760  ASP761  ALA762  ILE779  LEU786  VAL792 
 PHE793  MET794  SER795  GLU796  ALA797  LYS798  CYS799  TRP800  GLU811  SER814 

> <Gold.Protein.RotatedAtoms>
  151.9422  133.3641  159.3968 H   0  0  0  0  0  0  0  0  0  0  0  0  # atno 6907 bound_to 6896
  150.6996  134.4427  159.5309 H   0  0  0  0  0  0  0  0  0  0  0  0  # atno 6908 bound_to 6896
  152.2086  134.8522  160.0550 H   0  0  0  0  0  0  0  0  0  0  0  0  # atno 6909 bound_to 6896
  146.1055  139.5762  142.9386 H   0  0  0  0  0  0  0  0  0  0  0  0  # atno 7974 bound_to 7965
  154.4762  140.0904  156.7267 H   0  0  0  0  0  0  0  0  0  0  0  0  # atno 8008 bound_to 7997
  155.4591  140.3460  155.4292 H   0  0  0  0  0  0  0  0  0  0  0  0  # atno 8009 bound_to 7997
  156.1120  140.1450  156.9314 H   0  0  0  0  0  0  0  0  0  0  0  0  # atno 8010 bound_to 7997
  140.3844  143.2734  151.9344 H   0  0  0  0  0  0  0  0  0  0  0  0  # atno 10167 bound_to 10162
  156.4564  130.8192  151.2423 H   0  0  0  0  0  0  0  0  0  0  0  0  # atno 10718 bound_to 10713
  152.9937  135.6192  154.2621 H   0  0  0  0  0  0  0  0  0  0  0  0  # atno 10763 bound_to 10752
  154.2356  135.2790  155.2875 H   0  0  0  0  0  0  0  0  0  0  0  0  # atno 10764 bound_to 10752
  154.5412  135.5760  153.6899 H   0  0  0  0  0  0  0  0  0  0  0  0  # atno 10765 bound_to 10752
  139.9083  134.8030  156.2100 H   0  0  0  0  0  0  0  0  0  0  0  0  # atno 11005 bound_to 11000
  145.5769  141.0387  143.2143 LP  0  0  0  0  0  0  0  0  0  0  0  0  # atno 17320 bound_to 7965
  144.7467  139.7300  143.7289 LP  0  0  0  0  0  0  0  0  0  0  0  0  # atno 17321 bound_to 7965
  139.4793  144.5788  151.7967 LP  0  0  0  0  0  0  0  0  0  0  0  0  # atno 17342 bound_to 10162
  140.4905  144.1318  150.5949 LP  0  0  0  0  0  0  0  0  0  0  0  0  # atno 17343 bound_to 10162
  157.7500  131.0121  150.3373 LP  0  0  0  0  0  0  0  0  0  0  0  0  # atno 17370 bound_to 10713
  156.3762  130.3872  149.7136 LP  0  0  0  0  0  0  0  0  0  0  0  0  # atno 17371 bound_to 10713
  141.0471  133.6907  156.1704 LP  0  0  0  0  0  0  0  0  0  0  0  0  # atno 17394 bound_to 11000
  140.6867  134.4710  157.5589 LP  0  0  0  0  0  0  0  0  0  0  0  0  # atno 17395 bound_to 11000

$$$$
