AV-unprocessed.smi:1315|AV-procd|sdf|5454|dock2
  -GOLD-   22720 5 23D 1   1.00000     0.00000
 Structure written by MMmdl.
 25 26  0  0  0  0  0  0  0  0  1 V2000
  151.1691  137.6984  153.4385 N   0  0  0  0  0  0  0  0  0  0  0  0
  151.3079  138.7705  154.3401 C   0  0  0  0  0  0  0  0  0  0  0  0
  152.4744  139.2566  154.9943 C   0  0  0  0  0  0  0  0  0  0  0  0
  152.2239  140.2910  155.7805 N   0  0  0  0  0  0  0  0  0  0  0  0
  150.8953  140.5019  155.6517 N   0  0  0  0  0  0  0  0  0  0  0  0
  150.2597  141.5821  156.3890 C   0  0  0  0  0  0  0  0  0  0  0  0
  151.2352  142.3127  157.3198 C   0  0  0  0  0  0  0  0  0  0  0  0
  152.0659  141.6878  157.9812 O   0  0  0  0  0  0  0  0  0  0  0  0
  151.1134  143.6476  157.3619 N   0  0  0  0  0  0  0  0  0  0  0  0
  151.9079  144.5287  158.1554 C   0  0  0  0  0  0  0  0  0  0  0  0
  152.1502  144.1473  159.5998 C   0  0  0  0  0  0  0  0  0  0  0  0
  151.2185  145.2814  159.2728 C   0  0  0  0  0  0  0  0  0  0  0  0
  150.3155  139.5943  154.7889 C   0  0  0  0  0  0  0  0  0  0  0  0
  150.2749  137.4509  153.0389 H   0  0  0  0  0  0  0  0  0  0  0  0
  151.9478  137.1057  153.1890 H   0  0  0  0  0  0  0  0  0  0  0  0
  153.4882  138.8911  154.9230 H   0  0  0  0  0  0  0  0  0  0  0  0
  149.8341  142.2825  155.6692 H   0  0  0  0  0  0  0  0  0  0  0  0
  149.4323  141.1834  156.9779 H   0  0  0  0  0  0  0  0  0  0  0  0
  150.4012  144.0741  156.7872 H   0  0  0  0  0  0  0  0  0  0  0  0
  152.7224  145.0536  157.6578 H   0  0  0  0  0  0  0  0  0  0  0  0
  151.7070  143.2221  159.9637 H   0  0  0  0  0  0  0  0  0  0  0  0
  153.1173  144.4001  160.0295 H   0  0  0  0  0  0  0  0  0  0  0  0
  151.5634  146.2914  159.4845 H   0  0  0  0  0  0  0  0  0  0  0  0
  150.1533  145.1133  159.4196 H   0  0  0  0  0  0  0  0  0  0  0  0
  149.2583  139.6133  154.5687 H   0  0  0  0  0  0  0  0  0  0  0  0
  1  2  1  0  0  0  0
  1 14  1  0  0  0  0
  1 15  1  0  0  0  0
  2 13  2  0  0  0  0
  2  3  1  0  0  0  0
  3  4  2  0  0  0  0
  3 16  1  0  0  0  0
  4  5  1  0  0  0  0
  5  6  1  0  0  0  0
  5 13  1  0  0  0  0
  6  7  1  0  0  0  0
  6 17  1  0  0  0  0
  6 18  1  0  0  0  0
  7  8  2  0  0  0  0
  7  9  1  0  0  0  0
  9 10  1  0  0  0  0
  9 19  1  0  0  0  0
 10 12  1  0  0  0  0
 10 11  1  0  0  0  0
 10 20  1  0  0  0  0
 11 12  1  0  0  0  0
 11 21  1  0  0  0  0
 11 22  1  0  0  0  0
 12 23  1  0  0  0  0
 12 24  1  0  0  0  0
 13 25  1  0  0  0  0
M  END
> <s_m_source_file>
AV-unprocessed.smi

> <i_m_source_file_index>
1315

> <i_lp_mmshare_version>
43012

> <i_f3d_flags>
0

> <s_epik_input>
W05IMl1jMVtjSF1ubihbY0hdMSlbQ0gyXUMoPU8pW05IXVtDSF0yW0NIMl1bQ0gyXTI=

> <s_epik_cmdline>
J2VwaWtfcHl0aG9uJywgJy1waCcsICc3LjAnLCAnLXRuJywgJzgnLCAnLW1hJywgJzIwMCcsICctbWV0YWxfYmluZGluZycsICctaW1hZScsICc8aW5maWxlLm1hZT4nLCAnLW9tYWUnLCAnPG91dGZpbGUubWFlPic=

> <r_lp_tautomer_probability>
1

> <r_epik_Ionization_Penalty>
0.000100915

> <r_epik_Ionization_Penalty_Charging>
0

> <r_epik_Ionization_Penalty_Neutral>
0.000100915

> <r_epik_State_Penalty>
-0

> <r_epik_Charging_Adjusted_Penalty>
0

> <i_epik_Tot_Q>
0

> <i_epik_Tot_abs_Q>
0

> <r_epik_Metal_State_Penalty>
-0

> <b_epik_Metal_Only>
0

> <s_lp_Force_Field>
OPLS_2005

> <r_lp_Energy>
18.5759

> <b_lp_Chiralities_Consistent>
1

> <s_lp_Variant>
AV-unprocessed.smi:1315-1

> <Gold.Version>
5.8.1

> <Gold.Id.Protein>
6NUR|6NUR_protein|mol2

> <Gold.PLP.Fitness>
39.2558

> <Gold.PLP.PLP>
-33.3710

> <Gold.PLP.part.hbond>
-3.5642

> <Gold.PLP.part.metal>
0.0000

> <Gold.PLP.part.buried>
-1.7846

> <Gold.PLP.part.nonpolar>
-27.6935

> <Gold.PLP.part.repulsive>
0.1037

> <Gold.PLP.ligand.clash>
0.0000

> <Gold.PLP.ligand.torsion>
0.3820

> <Gold.PLP.Chemscore.Hbond>
2.2036

> <Gold.PLP.Chemscore.CHOScore>
0.0000

> <Gold.PLP.Chemscore.Metal>
0.0000

> <Gold.Chemscore.Hbonds>
donor molecule, donor type, donor heavy atom, donor atom, acceptor molecule, acceptor atom, score
      L1  H     1    14       P1  7948  0.55
      L1  H     1    15       P1  7949  0.04
      L1  H     9    19       P1  8028  1.00
      P1  H  7997  8010       L1     4  0.16

> <Gold.PLP.Chemscore.Internal.Correction>
0.0380

> <Gold.Rescore>
     Score         DG    S(hbond)    S(metal)    S(lipo)     H(rot)  DE(clash)    DE(int)     intcor
     12.02     -14.26       1.63        0.00      65.08       1.67       0.18       2.07       ----

> <Gold.Chemscore.Fitness>
12.0157

> <Gold.Chemscore.DG>
-14.2611

> <Gold.Chemscore.ZeroCoef>
-5.4800

> <Gold.Chemscore.Hbond>
1.6305

> <Gold.Chemscore.Metal>
0.0000

> <Gold.Chemscore.Lipo>
65.0758

> <Gold.Chemscore.Internal_Hbond>
0.0000

> <Gold.Chemscore.DEClash>
0.1771

> <Gold.Chemscore.DEInternal>
2.0683

> <Gold.Chemscore.Rot>
1.6713

> <Gold.Chemscore.Internal.Correction>
   9.000000E+99

> <Gold.Chemscore.Hbonds>
donor molecule, donor type, donor heavy atom, donor atom, acceptor molecule, acceptor atom, score
      L1  H     1    14       P1  7948  0.04
      L1  H     1    15       P1  7949  0.06
      L1  H     9    19       P1  8028  0.97

> <Gold.Chemscore.Hbond.Weighted>
-5.4458

> <Gold.Chemscore.Metal.Weighted>
-0.0000

> <Gold.Chemscore.Lipo.Weighted>
-7.6139

> <Gold.Chemscore.Internal_Hbond.Weighted>
0.0000

> <Gold.Chemscore.DEClash.Weighted>
0.1771

> <Gold.Chemscore.DEInternal.Weighted>
2.0683

> <Gold.Chemscore.Rot.Weighted>
4.2786

> <Gold.Chemscore.Internal.Correction.Weighted>
   9.000000E+99

> <Gold.Protein.RotatedTorsions>
[ 6907 6896 6895 6894 ] final  157.37 input  -60.11 | X-H torsion
[ 7974 7965 7964 7962 ] final  112.70 input  175.53 | X-H torsion
[ 8008 7997 7996 7995 ] final   69.19 input   59.86 | X-H torsion
[ 10167 10162 10161 10158 ] final   -5.10 input  -65.29 | X-H torsion
[ 10718 10713 10712 10709 ] final   68.14 input   66.30 | X-H torsion
[ 10763 10752 10751 10750 ] final -144.63 input  -60.55 | X-H torsion
[ 11005 11000 10999 10996 ] final   15.28 input  -57.11 | X-H torsion

> <Gold.Protein.ActiveResidues>
 VAL166  LYS551  ARG553  GLY616  TRP617  ASP618  TYR619  PRO620  LYS621  CYS622 
 ASP623  PHE694  ASN695  SER759  ASP760  ASP761  ALA762  ILE779  LEU786  VAL792 
 PHE793  MET794  SER795  GLU796  ALA797  LYS798  CYS799  TRP800  GLU811  SER814 

> <Gold.Protein.RotatedAtoms>
  152.0161  133.3880  159.4239 H   0  0  0  0  0  0  0  0  0  0  0  0  # atno 6907 bound_to 6896
  150.6894  134.3677  159.4987 H   0  0  0  0  0  0  0  0  0  0  0  0  # atno 6908 bound_to 6896
  152.1444  134.9037  160.0602 H   0  0  0  0  0  0  0  0  0  0  0  0  # atno 6909 bound_to 6896
  145.2262  139.2840  143.4192 H   0  0  0  0  0  0  0  0  0  0  0  0  # atno 7974 bound_to 7965
  155.7198  140.3493  155.5011 H   0  0  0  0  0  0  0  0  0  0  0  0  # atno 8008 bound_to 7997
  155.9280  140.1079  157.1177 H   0  0  0  0  0  0  0  0  0  0  0  0  # atno 8009 bound_to 7997
  154.4080  140.1237  156.4752 H   0  0  0  0  0  0  0  0  0  0  0  0  # atno 8010 bound_to 7997
  140.6951  143.6347  150.8490 H   0  0  0  0  0  0  0  0  0  0  0  0  # atno 10167 bound_to 10162
  157.6272  130.9358  150.0337 H   0  0  0  0  0  0  0  0  0  0  0  0  # atno 10718 bound_to 10713
  154.8420  135.3435  154.6376 H   0  0  0  0  0  0  0  0  0  0  0  0  # atno 10763 bound_to 10752
  153.6986  135.6971  153.5074 H   0  0  0  0  0  0  0  0  0  0  0  0  # atno 10764 bound_to 10752
  153.2540  135.4344  155.0781 H   0  0  0  0  0  0  0  0  0  0  0  0  # atno 10765 bound_to 10752
  140.4601  134.1136  155.7715 H   0  0  0  0  0  0  0  0  0  0  0  0  # atno 11005 bound_to 11000
  146.3364  140.2583  142.8601 LP  0  0  0  0  0  0  0  0  0  0  0  0  # atno 17320 bound_to 7965
  144.9719  140.8377  143.5450 LP  0  0  0  0  0  0  0  0  0  0  0  0  # atno 17321 bound_to 7965
  140.0064  143.5689  152.2856 LP  0  0  0  0  0  0  0  0  0  0  0  0  # atno 17342 bound_to 10162
  139.6397  144.7653  151.2364 LP  0  0  0  0  0  0  0  0  0  0  0  0  # atno 17343 bound_to 10162
  156.1451  130.3642  149.9522 LP  0  0  0  0  0  0  0  0  0  0  0  0  # atno 17370 bound_to 10713
  156.7554  130.9131  151.3639 LP  0  0  0  0  0  0  0  0  0  0  0  0  # atno 17371 bound_to 10713
  141.1625  133.8766  157.1808 LP  0  0  0  0  0  0  0  0  0  0  0  0  # atno 17394 bound_to 11000
  139.9951  135.0050  157.0063 LP  0  0  0  0  0  0  0  0  0  0  0  0  # atno 17395 bound_to 11000

$$$$
