AV-unprocessed.smi:113|AV-procd|sdf|1097|dock5
  -GOLD-   2262018203D 1   1.00000     0.00000
 Structure written by MMmdl.
 52 55  0  0  0  0  0  0  0  0  1 V2000
  155.4203  139.0706  162.9760 C   0  0  0  0  0  0  0  0  0  0  0  0
  154.5789  139.6277  161.8467 C   0  0  0  0  0  0  0  0  0  0  0  0
  154.3299  138.8659  160.6913 C   0  0  0  0  0  0  0  0  0  0  0  0
  153.5411  139.4232  159.6588 C   0  0  0  0  0  0  0  0  0  0  0  0
  153.2368  138.6348  158.3800 C   0  0  0  0  0  0  0  0  0  0  0  0
  151.8380  138.5272  157.9898 N   0  0  0  0  0  0  0  0  0  0  0  0
  150.9885  137.7281  158.7932 C   0  0  0  0  0  0  0  0  0  0  0  0
  151.4119  137.1317  159.7858 O   0  0  0  0  0  0  0  0  0  0  0  0
  149.5873  137.6875  158.3682 C   0  0  0  0  0  0  0  0  0  0  0  0
  148.6146  136.8530  159.1865 C   0  0  0  0  0  0  0  0  0  0  0  0
  149.1944  138.3895  157.2780 C   0  0  0  0  0  0  0  0  0  0  0  0
  150.0467  139.1589  156.5061 N   0  0  0  0  0  0  0  0  0  0  0  0
  149.4910  139.9569  155.3472 C   0  0  2  0  0  0  0  0  0  0  0  0
  149.6164  141.4801  155.5274 C   0  0  0  0  0  0  0  0  0  0  0  0
  148.2174  141.9906  155.1969 C   0  0  2  0  0  0  0  0  0  0  0  0
  147.5820  142.4792  156.3632 O   0  0  0  0  0  0  0  0  0  0  0  0
  147.5053  140.7652  154.5950 C   0  0  2  0  0  0  0  0  0  0  0  0
  145.9772  140.6852  154.7612 C   0  0  0  0  0  0  0  0  0  0  0  0
  145.4387  139.7045  153.8995 O   0  0  0  0  0  0  0  0  0  0  0  0
  148.1387  139.6571  155.2142 O   0  0  0  0  0  0  0  0  0  0  0  0
  151.4074  139.2704  156.8679 C   0  0  0  0  0  0  0  0  0  0  0  0
  152.1771  140.0015  156.2414 O   0  0  0  0  0  0  0  0  0  0  0  0
  153.0348  140.7383  159.8448 C   0  0  0  0  0  0  0  0  0  0  0  0
  152.2336  141.3686  158.8619 C   0  0  0  0  0  0  0  0  0  0  0  0
  151.7437  142.6713  159.0645 C   0  0  0  0  0  0  0  0  0  0  0  0
  152.0486  143.3575  160.2516 C   0  0  0  0  0  0  0  0  0  0  0  0
  152.8433  142.7385  161.2330 C   0  0  0  0  0  0  0  0  0  0  0  0
  153.3456  141.4320  161.0515 C   0  0  0  0  0  0  0  0  0  0  0  0
  154.1035  140.8759  162.0222 N   0  0  0  0  0  0  0  0  0  0  0  0
  155.4898  137.9842  162.9149 H   0  0  0  0  0  0  0  0  0  0  0  0
  154.9873  139.3264  163.9437 H   0  0  0  0  0  0  0  0  0  0  0  0
  156.4293  139.4811  162.9310 H   0  0  0  0  0  0  0  0  0  0  0  0
  154.7426  137.8715  160.6136 H   0  0  0  0  0  0  0  0  0  0  0  0
  153.7786  139.0654  157.5366 H   0  0  0  0  0  0  0  0  0  0  0  0
  153.6272  137.6190  158.4599 H   0  0  0  0  0  0  0  0  0  0  0  0
  147.6069  136.8791  158.7708 H   0  0  0  0  0  0  0  0  0  0  0  0
  148.5628  137.2243  160.2107 H   0  0  0  0  0  0  0  0  0  0  0  0
  148.9359  135.8111  159.2155 H   0  0  0  0  0  0  0  0  0  0  0  0
  148.1519  138.3422  156.9967 H   0  0  0  0  0  0  0  0  0  0  0  0
  150.0149  139.6128  154.4546 H   0  0  0  0  0  0  0  0  0  0  0  0
  149.9469  141.7522  156.5307 H   0  0  0  0  0  0  0  0  0  0  0  0
  150.3560  141.8535  154.8187 H   0  0  0  0  0  0  0  0  0  0  0  0
  148.2551  142.8069  154.4747 H   0  0  0  0  0  0  0  0  0  0  0  0
  147.9103  143.3457  156.5478 H   0  0  0  0  0  0  0  0  0  0  0  0
  147.7500  140.7077  153.5325 H   0  0  0  0  0  0  0  0  0  0  0  0
  145.7330  140.4047  155.7861 H   0  0  0  0  0  0  0  0  0  0  0  0
  145.4990  141.6474  154.5771 H   0  0  0  0  0  0  0  0  0  0  0  0
  144.5695  139.9712  153.6423 H   0  0  0  0  0  0  0  0  0  0  0  0
  151.9795  140.8696  157.9393 H   0  0  0  0  0  0  0  0  0  0  0  0
  151.1334  143.1431  158.3084 H   0  0  0  0  0  0  0  0  0  0  0  0
  151.6732  144.3578  160.4104 H   0  0  0  0  0  0  0  0  0  0  0  0
  153.0709  143.2762  162.1419 H   0  0  0  0  0  0  0  0  0  0  0  0
  1  2  1  0  0  0  0
  1 30  1  0  0  0  0
  1 31  1  0  0  0  0
  1 32  1  0  0  0  0
  2 29  1  0  0  0  0
  2  3  2  0  0  0  0
  3  4  1  0  0  0  0
  3 33  1  0  0  0  0
  4  5  1  0  0  0  0
  4 23  2  0  0  0  0
  5  6  1  0  0  0  0
  5 34  1  0  0  0  0
  5 35  1  0  0  0  0
  6 21  1  0  0  0  0
  6  7  1  0  0  0  0
  7  8  2  0  0  0  0
  7  9  1  0  0  0  0
  9 10  1  0  0  0  0
  9 11  2  0  0  0  0
 10 36  1  0  0  0  0
 10 37  1  0  0  0  0
 10 38  1  0  0  0  0
 11 12  1  0  0  0  0
 11 39  1  0  0  0  0
 12 13  1  0  0  0  0
 12 21  1  0  0  0  0
 13 20  1  0  0  0  0
 13 14  1  0  0  0  0
 13 40  1  0  0  0  0
 14 15  1  0  0  0  0
 14 41  1  0  0  0  0
 14 42  1  0  0  0  0
 15 16  1  0  0  0  0
 15 17  1  0  0  0  0
 15 43  1  0  0  0  0
 16 44  1  0  0  0  0
 17 18  1  0  0  0  0
 17 20  1  0  0  0  0
 17 45  1  0  0  0  0
 18 19  1  0  0  0  0
 18 46  1  0  0  0  0
 18 47  1  0  0  0  0
 19 48  1  0  0  0  0
 21 22  2  0  0  0  0
 23 28  1  0  0  0  0
 23 24  1  0  0  0  0
 24 25  2  0  0  0  0
 24 49  1  0  0  0  0
 25 26  1  0  0  0  0
 25 50  1  0  0  0  0
 26 27  2  0  0  0  0
 26 51  1  0  0  0  0
 27 28  1  0  0  0  0
 27 52  1  0  0  0  0
 28 29  2  0  0  0  0
M  END
> <s_m_source_file>
AV-unprocessed.smi

> <i_m_source_file_index>
113

> <i_lp_mmshare_version>
43012

> <i_f3d_flags>
0

> <s_epik_input>
W2NIXTFbY0hdW2NIXVtjSF1jKGMxMiluYyhbQ0gzXSlbY0hdYzJbQ0gyXW4zYyg9TyljKFtDSDNdKVtjSF1uKGMzPU8pW0NAQEhdNFtDSDJdW0NAQEhdKFtPSF0pW0NASF0oTzQpW0NIMl1bT0hd

> <s_epik_cmdline>
J2VwaWtfcHl0aG9uJywgJy1waCcsICc3LjAnLCAnLXRuJywgJzgnLCAnLW1hJywgJzIwMCcsICctbWV0YWxfYmluZGluZycsICctaW1hZScsICc8aW5maWxlLm1hZT4nLCAnLW9tYWUnLCAnPG91dGZpbGUubWFlPic=

> <r_lp_tautomer_probability>
1

> <r_epik_Ionization_Penalty>
0.214728

> <r_epik_Ionization_Penalty_Charging>
3.04883e-08

> <r_epik_Ionization_Penalty_Neutral>
0.214728

> <r_epik_State_Penalty>
0.204913

> <r_epik_Charging_Adjusted_Penalty>
0.204913

> <i_epik_Tot_Q>
0

> <i_epik_Tot_abs_Q>
0

> <r_epik_Metal_State_Penalty>
0.000244761

> <b_epik_Metal_Only>
0

> <s_epik_Chemistry_Notes>
This compound contains an acetal/aminal-like group ( X-CH(R)-Y where X, Y are N, S, or O) that may be acid/base labile, releasing an aldehyde.

> <s_lp_Force_Field>
OPLS_2005

> <r_lp_Energy>
37.3201

> <b_lp_Chiralities_Consistent>
1

> <s_lp_Variant>
AV-unprocessed.smi:113-7

> <Gold.Version>
5.8.1

> <Gold.Id.Protein>
6NUR|6NUR_protein|mol2

> <Gold.PLP.Fitness>
59.0612

> <Gold.PLP.PLP>
-47.7030

> <Gold.PLP.part.hbond>
-4.4260

> <Gold.PLP.part.metal>
0.0000

> <Gold.PLP.part.buried>
-5.1722

> <Gold.PLP.part.nonpolar>
-38.6698

> <Gold.PLP.part.repulsive>
0.0917

> <Gold.PLP.ligand.clash>
0.0000

> <Gold.PLP.ligand.torsion>
0.2996

> <Gold.PLP.Chemscore.Hbond>
3.9750

> <Gold.PLP.Chemscore.CHOScore>
0.0000

> <Gold.PLP.Chemscore.Metal>
0.0000

> <Gold.Chemscore.Hbonds>
donor molecule, donor type, donor heavy atom, donor atom, acceptor molecule, acceptor atom, score
      L1  H    16    44       P1  8028  0.51
      L1  H    19    48       P1 10175  0.93
      P1  H  6896  6909       L1     8  1.00
      P1  H  7997  8009       L1    22  0.67

> <Gold.PLP.Chemscore.Internal.Correction>
0.0325

> <Gold.Rescore>
     Score         DG    S(hbond)    S(metal)    S(lipo)     H(rot)  DE(clash)    DE(int)     intcor
     23.03     -25.48       3.95        0.00     122.51       2.95       0.59       1.86       ----

> <Gold.Chemscore.Fitness>
23.0290

> <Gold.Chemscore.DG>
-25.4780

> <Gold.Chemscore.ZeroCoef>
-5.4800

> <Gold.Chemscore.Hbond>
3.9545

> <Gold.Chemscore.Metal>
0.0000

> <Gold.Chemscore.Lipo>
122.5121

> <Gold.Chemscore.Internal_Hbond>
0.0000

> <Gold.Chemscore.DEClash>
0.5894

> <Gold.Chemscore.DEInternal>
1.8596

> <Gold.Chemscore.Rot>
2.9469

> <Gold.Chemscore.Internal.Correction>
   9.000000E+99

> <Gold.Chemscore.Hbonds>
donor molecule, donor type, donor heavy atom, donor atom, acceptor molecule, acceptor atom, score
      L1  H    16    44       P1  8028  0.04
      L1  H    19    48       P1 10175  0.85
      P1  H  6896  6909       L1     8  0.98
      P1  H  7997  8009       L1    22  0.67

> <Gold.Chemscore.Hbond.Weighted>
-13.2080

> <Gold.Chemscore.Metal.Weighted>
-0.0000

> <Gold.Chemscore.Lipo.Weighted>
-14.3339

> <Gold.Chemscore.Internal_Hbond.Weighted>
0.0000

> <Gold.Chemscore.DEClash.Weighted>
0.5894

> <Gold.Chemscore.DEInternal.Weighted>
1.8596

> <Gold.Chemscore.Rot.Weighted>
7.5439

> <Gold.Chemscore.Internal.Correction.Weighted>
   9.000000E+99

> <Gold.Protein.RotatedTorsions>
[ 6907 6896 6895 6894 ] final  113.20 input  -60.11 | X-H torsion
[ 7974 7965 7964 7962 ] final  115.35 input  175.53 | X-H torsion
[ 8008 7997 7996 7995 ] final -157.71 input   59.86 | X-H torsion
[ 10167 10162 10161 10158 ] final  162.90 input  -65.29 | X-H torsion
[ 10718 10713 10712 10709 ] final  138.57 input   66.30 | X-H torsion
[ 10763 10752 10751 10750 ] final -114.65 input  -60.55 | X-H torsion
[ 11005 11000 10999 10996 ] final -161.84 input  -57.11 | X-H torsion

> <Gold.Protein.ActiveResidues>
 VAL166  LYS551  ARG553  GLY616  TRP617  ASP618  TYR619  PRO620  LYS621  CYS622 
 ASP623  PHE694  ASN695  SER759  ASP760  ASP761  ALA762  ILE779  LEU786  VAL792 
 PHE793  MET794  SER795  GLU796  ALA797  LYS798  CYS799  TRP800  GLU811  SER814 

> <Gold.Protein.RotatedAtoms>
  152.4874  133.8408  159.7151 H   0  0  0  0  0  0  0  0  0  0  0  0  # atno 6907 bound_to 6896
  150.8972  133.7156  159.2895 H   0  0  0  0  0  0  0  0  0  0  0  0  # atno 6908 bound_to 6896
  151.4609  135.1042  159.9777 H   0  0  0  0  0  0  0  0  0  0  0  0  # atno 6909 bound_to 6896
  145.1931  139.2990  143.4358 H   0  0  0  0  0  0  0  0  0  0  0  0  # atno 7974 bound_to 7965
  155.7365  140.0809  157.2265 H   0  0  0  0  0  0  0  0  0  0  0  0  # atno 8008 bound_to 7997
  154.4027  140.1585  156.2623 H   0  0  0  0  0  0  0  0  0  0  0  0  # atno 8009 bound_to 7997
  155.9060  140.3407  155.6065 H   0  0  0  0  0  0  0  0  0  0  0  0  # atno 8010 bound_to 7997
  139.4866  144.4391  151.8974 H   0  0  0  0  0  0  0  0  0  0  0  0  # atno 10167 bound_to 10162
  157.4239  131.1041  151.0324 H   0  0  0  0  0  0  0  0  0  0  0  0  # atno 10718 bound_to 10713
  154.8449  135.4410  154.1539 H   0  0  0  0  0  0  0  0  0  0  0  0  # atno 10763 bound_to 10752
  153.2693  135.6943  153.7503 H   0  0  0  0  0  0  0  0  0  0  0  0  # atno 10764 bound_to 10752
  153.6750  135.3412  155.3138 H   0  0  0  0  0  0  0  0  0  0  0  0  # atno 10765 bound_to 10752
  140.6159  134.4801  157.5219 H   0  0  0  0  0  0  0  0  0  0  0  0  # atno 11005 bound_to 11000
  146.3432  140.2150  142.8590 LP  0  0  0  0  0  0  0  0  0  0  0  0  # atno 17320 bound_to 7965
  145.0022  140.8642  143.5275 LP  0  0  0  0  0  0  0  0  0  0  0  0  # atno 17321 bound_to 7965
  140.3842  144.2697  150.5905 LP  0  0  0  0  0  0  0  0  0  0  0  0  # atno 17342 bound_to 10162
  140.5205  143.2267  151.8396 LP  0  0  0  0  0  0  0  0  0  0  0  0  # atno 17343 bound_to 10162
  157.1244  130.6075  149.5513 LP  0  0  0  0  0  0  0  0  0  0  0  0  # atno 17370 bound_to 10713
  155.9890  130.4935  150.7194 LP  0  0  0  0  0  0  0  0  0  0  0  0  # atno 17371 bound_to 10713
  139.9173  134.8220  156.1324 LP  0  0  0  0  0  0  0  0  0  0  0  0  # atno 17394 bound_to 11000
  141.0776  133.6768  156.2269 LP  0  0  0  0  0  0  0  0  0  0  0  0  # atno 17395 bound_to 11000

$$$$
