AV-unprocessed.smi:1020|AV-procd|sdf|4453|dock4
  -GOLD-   22720 2423D 1   1.00000     0.00000
 Structure written by MMmdl.
 46 47  0  0  0  0  0  0  0  0  1 V2000
  147.2690  134.9165  162.6124 C   0  0  0  0  0  0  0  0  0  0  0  0
  146.8613  136.3595  162.2950 C   0  0  0  0  0  0  0  0  0  0  0  0
  145.3862  136.4492  161.8742 C   0  0  0  0  0  0  0  0  0  0  0  0
  147.7044  136.8088  161.2425 O   0  0  0  0  0  0  0  0  0  0  0  0
  147.7329  135.9593  160.1038 C   0  0  0  0  0  0  0  0  0  0  0  0
  148.2795  136.7380  158.9005 C   0  0  0  0  0  0  0  0  0  0  0  0
  149.7488  136.9871  158.9900 C   0  0  0  0  0  0  0  0  0  0  0  0
  150.3599  137.9477  159.6787 N   0  0  0  0  0  0  0  0  0  0  0  0
  151.6588  137.7371  159.3274 C   0  0  0  0  0  0  0  0  0  0  0  0
  152.7855  138.5775  159.8395 C   0  0  0  0  0  0  0  0  0  0  0  0
  152.6903  140.0031  159.2921 C   0  0  0  0  0  0  0  0  0  0  0  0
  152.7704  140.2034  158.0801 O   0  0  0  0  0  0  0  0  0  0  0  0
  152.5189  140.9830  160.1943 N   0  0  0  0  0  0  0  0  0  0  0  0
  152.4382  142.4076  159.8892 C   0  0  0  0  0  0  0  0  0  0  0  0
  151.9185  143.1931  161.1112 C   0  0  0  0  0  0  0  0  0  0  0  0
  151.7429  144.6859  160.7910 C   0  0  0  0  0  0  0  0  0  0  0  0
  150.8271  144.8914  159.5744 C   0  0  0  0  0  0  0  0  0  0  0  0
  151.3465  144.1170  158.3528 C   0  0  0  0  0  0  0  0  0  0  0  0
  151.5194  142.6229  158.6716 C   0  0  0  0  0  0  0  0  0  0  0  0
  151.8750  136.7307  158.4876 N   0  0  0  0  0  0  0  0  0  0  0  0
  150.5884  136.2288  158.2447 O   0  0  0  0  0  0  0  0  0  0  0  0
  146.6666  134.5045  163.4223 H   0  0  0  0  0  0  0  0  0  0  0  0
  148.3128  134.8707  162.9208 H   0  0  0  0  0  0  0  0  0  0  0  0
  147.1503  134.2696  161.7426 H   0  0  0  0  0  0  0  0  0  0  0  0
  147.0249  136.9601  163.1915 H   0  0  0  0  0  0  0  0  0  0  0  0
  144.7342  136.0577  162.6556 H   0  0  0  0  0  0  0  0  0  0  0  0
  145.2006  135.8732  160.9671 H   0  0  0  0  0  0  0  0  0  0  0  0
  145.0815  137.4778  161.6836 H   0  0  0  0  0  0  0  0  0  0  0  0
  148.3590  135.0866  160.2888 H   0  0  0  0  0  0  0  0  0  0  0  0
  146.7267  135.5992  159.8832 H   0  0  0  0  0  0  0  0  0  0  0  0
  148.0738  136.1900  157.9803 H   0  0  0  0  0  0  0  0  0  0  0  0
  147.7673  137.6967  158.8138 H   0  0  0  0  0  0  0  0  0  0  0  0
  152.7576  138.5960  160.9299 H   0  0  0  0  0  0  0  0  0  0  0  0
  153.7419  138.1372  159.5536 H   0  0  0  0  0  0  0  0  0  0  0  0
  152.4620  140.7236  161.1688 H   0  0  0  0  0  0  0  0  0  0  0  0
  153.4346  142.7726  159.6319 H   0  0  0  0  0  0  0  0  0  0  0  0
  150.9624  142.7787  161.4347 H   0  0  0  0  0  0  0  0  0  0  0  0
  152.6045  143.0809  161.9517 H   0  0  0  0  0  0  0  0  0  0  0  0
  151.3329  145.2051  161.6577 H   0  0  0  0  0  0  0  0  0  0  0  0
  152.7180  145.1338  160.5947 H   0  0  0  0  0  0  0  0  0  0  0  0
  149.8173  144.5578  159.8164 H   0  0  0  0  0  0  0  0  0  0  0  0
  150.7543  145.9534  159.3383 H   0  0  0  0  0  0  0  0  0  0  0  0
  150.6598  144.2410  157.5148 H   0  0  0  0  0  0  0  0  0  0  0  0
  152.3023  144.5352  158.0340 H   0  0  0  0  0  0  0  0  0  0  0  0
  151.9253  142.1071  157.8006 H   0  0  0  0  0  0  0  0  0  0  0  0
  150.5405  142.1807  158.8639 H   0  0  0  0  0  0  0  0  0  0  0  0
  1  2  1  0  0  0  0
  1 22  1  0  0  0  0
  1 23  1  0  0  0  0
  1 24  1  0  0  0  0
  2  3  1  0  0  0  0
  2  4  1  0  0  0  0
  2 25  1  0  0  0  0
  3 26  1  0  0  0  0
  3 27  1  0  0  0  0
  3 28  1  0  0  0  0
  4  5  1  0  0  0  0
  5  6  1  0  0  0  0
  5 29  1  0  0  0  0
  5 30  1  0  0  0  0
  6  7  1  0  0  0  0
  6 31  1  0  0  0  0
  6 32  1  0  0  0  0
  7 21  1  0  0  0  0
  7  8  2  0  0  0  0
  8  9  1  0  0  0  0
  9 10  1  0  0  0  0
  9 20  2  0  0  0  0
 10 11  1  0  0  0  0
 10 33  1  0  0  0  0
 10 34  1  0  0  0  0
 11 12  2  0  0  0  0
 11 13  1  0  0  0  0
 13 14  1  0  0  0  0
 13 35  1  0  0  0  0
 14 19  1  0  0  0  0
 14 15  1  0  0  0  0
 14 36  1  0  0  0  0
 15 16  1  0  0  0  0
 15 37  1  0  0  0  0
 15 38  1  0  0  0  0
 16 17  1  0  0  0  0
 16 39  1  0  0  0  0
 16 40  1  0  0  0  0
 17 18  1  0  0  0  0
 17 41  1  0  0  0  0
 17 42  1  0  0  0  0
 18 19  1  0  0  0  0
 18 43  1  0  0  0  0
 18 44  1  0  0  0  0
 19 45  1  0  0  0  0
 19 46  1  0  0  0  0
 20 21  1  0  0  0  0
M  END
> <s_m_source_file>
AV-unprocessed.smi

> <i_m_source_file_index>
1020

> <i_lp_mmshare_version>
43012

> <i_f3d_flags>
0

> <s_epik_input>
W0NIM11bQ0hdKFtDSDNdKU9bQ0gyXVtDSDJdYzFuYyhubzEpW0NIMl1DKD1PKVtOSF1bQ0hdMltDSDJdW0NIMl1bQ0gyXVtDSDJdW0NIMl0y

> <s_epik_cmdline>
J2VwaWtfcHl0aG9uJywgJy1waCcsICc3LjAnLCAnLXRuJywgJzgnLCAnLW1hJywgJzIwMCcsICctbWV0YWxfYmluZGluZycsICctaW1hZScsICc8aW5maWxlLm1hZT4nLCAnLW9tYWUnLCAnPG91dGZpbGUubWFlPic=

> <r_lp_tautomer_probability>
1

> <r_epik_Ionization_Penalty>
6.23671e-08

> <r_epik_Ionization_Penalty_Charging>
0

> <r_epik_Ionization_Penalty_Neutral>
6.23671e-08

> <r_epik_State_Penalty>
-0

> <r_epik_Charging_Adjusted_Penalty>
0

> <i_epik_Tot_Q>
0

> <i_epik_Tot_abs_Q>
0

> <r_epik_Metal_State_Penalty>
-0

> <b_epik_Metal_Only>
0

> <s_lp_Force_Field>
OPLS_2005

> <r_lp_Energy>
5.58856

> <b_lp_Chiralities_Consistent>
1

> <s_lp_Variant>
AV-unprocessed.smi:1020-1

> <Gold.Version>
5.8.1

> <Gold.Id.Protein>
6NUR|6NUR_protein|mol2

> <Gold.PLP.Fitness>
56.4388

> <Gold.PLP.PLP>
-49.2581

> <Gold.PLP.part.hbond>
-5.9351

> <Gold.PLP.part.metal>
0.0000

> <Gold.PLP.part.buried>
-5.3247

> <Gold.PLP.part.nonpolar>
-37.0634

> <Gold.PLP.part.repulsive>
0.1192

> <Gold.PLP.ligand.clash>
0.0000

> <Gold.PLP.ligand.torsion>
0.6502

> <Gold.PLP.Chemscore.Hbond>
2.7680

> <Gold.PLP.Chemscore.CHOScore>
0.0000

> <Gold.PLP.Chemscore.Metal>
0.0000

> <Gold.Chemscore.Hbonds>
donor molecule, donor type, donor heavy atom, donor atom, acceptor molecule, acceptor atom, score
      P1  H  6931  6943       L1     4  0.91
      P1  H  6934  6947       L1     4  0.31
      P1  H  7997  8009       L1    12  0.85

> <Gold.PLP.Chemscore.Internal.Correction>
0.1771

> <Gold.Rescore>
     Score         DG    S(hbond)    S(metal)    S(lipo)     H(rot)  DE(clash)    DE(int)     intcor
     14.28     -16.36       1.01        0.00     110.01       2.10       0.07       2.01       ----

> <Gold.Chemscore.Fitness>
14.2754

> <Gold.Chemscore.DG>
-16.3556

> <Gold.Chemscore.ZeroCoef>
-5.4800

> <Gold.Chemscore.Hbond>
1.0106

> <Gold.Chemscore.Metal>
0.0000

> <Gold.Chemscore.Lipo>
110.0126

> <Gold.Chemscore.Internal_Hbond>
0.0000

> <Gold.Chemscore.DEClash>
0.0732

> <Gold.Chemscore.DEInternal>
2.0070

> <Gold.Chemscore.Rot>
2.0982

> <Gold.Chemscore.Internal.Correction>
   9.000000E+99

> <Gold.Chemscore.Hbonds>
donor molecule, donor type, donor heavy atom, donor atom, acceptor molecule, acceptor atom, score
      P1  H  6931  6943       L1     4  0.67
      P1  H  6934  6947       L1     4  0.16
      P1  H  7997  8009       L1    12  0.79

> <Gold.Chemscore.Hbond.Weighted>
-3.3754

> <Gold.Chemscore.Metal.Weighted>
-0.0000

> <Gold.Chemscore.Lipo.Weighted>
-12.8715

> <Gold.Chemscore.Internal_Hbond.Weighted>
0.0000

> <Gold.Chemscore.DEClash.Weighted>
0.0732

> <Gold.Chemscore.DEInternal.Weighted>
2.0070

> <Gold.Chemscore.Rot.Weighted>
5.3713

> <Gold.Chemscore.Internal.Correction.Weighted>
   9.000000E+99

> <Gold.Protein.RotatedTorsions>
[ 6907 6896 6895 6894 ] final  -24.08 input  -60.11 | X-H torsion
[ 7974 7965 7964 7962 ] final  167.12 input  175.53 | X-H torsion
[ 8008 7997 7996 7995 ] final  161.81 input   59.86 | X-H torsion
[ 10167 10162 10161 10158 ] final   13.26 input  -65.29 | X-H torsion
[ 10718 10713 10712 10709 ] final  114.49 input   66.30 | X-H torsion
[ 10763 10752 10751 10750 ] final  -78.34 input  -60.55 | X-H torsion
[ 11005 11000 10999 10996 ] final  -19.63 input  -57.11 | X-H torsion

> <Gold.Protein.ActiveResidues>
 VAL166  LYS551  ARG553  GLY616  TRP617  ASP618  TYR619  PRO620  LYS621  CYS622 
 ASP623  PHE694  ASN695  SER759  ASP760  ASP761  ALA762  ILE779  LEU786  VAL792 
 PHE793  MET794  SER795  GLU796  ALA797  LYS798  CYS799  TRP800  GLU811  SER814 

> <Gold.Protein.RotatedAtoms>
  151.1946  135.0417  159.8846 H   0  0  0  0  0  0  0  0  0  0  0  0  # atno 6907 bound_to 6896
  152.5437  134.0917  159.8290 H   0  0  0  0  0  0  0  0  0  0  0  0  # atno 6908 bound_to 6896
  151.1050  133.5167  159.2640 H   0  0  0  0  0  0  0  0  0  0  0  0  # atno 6909 bound_to 6896
  144.7436  139.8714  143.6389 H   0  0  0  0  0  0  0  0  0  0  0  0  # atno 7974 bound_to 7965
  156.2076  140.1767  156.7765 H   0  0  0  0  0  0  0  0  0  0  0  0  # atno 8008 bound_to 7997
  154.5677  140.0688  156.8947 H   0  0  0  0  0  0  0  0  0  0  0  0  # atno 8009 bound_to 7997
  155.2730  140.3344  155.4266 H   0  0  0  0  0  0  0  0  0  0  0  0  # atno 8010 bound_to 7997
  140.6014  143.8596  150.6969 H   0  0  0  0  0  0  0  0  0  0  0  0  # atno 10167 bound_to 10162
  157.6278  131.0999  150.7193 H   0  0  0  0  0  0  0  0  0  0  0  0  # atno 10718 bound_to 10713
  154.5247  135.5733  153.6709 H   0  0  0  0  0  0  0  0  0  0  0  0  # atno 10763 bound_to 10752
  152.9925  135.6190  154.2708 H   0  0  0  0  0  0  0  0  0  0  0  0  # atno 10764 bound_to 10752
  154.2631  135.2855  155.2749 H   0  0  0  0  0  0  0  0  0  0  0  0  # atno 10765 bound_to 10752
  140.8385  133.7943  155.9835 H   0  0  0  0  0  0  0  0  0  0  0  0  # atno 11005 bound_to 11000
  146.1277  139.4306  143.0188 LP  0  0  0  0  0  0  0  0  0  0  0  0  # atno 17320 bound_to 7965
  145.7210  141.0075  143.1402 LP  0  0  0  0  0  0  0  0  0  0  0  0  # atno 17321 bound_to 7965
  140.2143  143.3859  152.1693 LP  0  0  0  0  0  0  0  0  0  0  0  0  # atno 17342 bound_to 10162
  139.5294  144.7141  151.5111 LP  0  0  0  0  0  0  0  0  0  0  0  0  # atno 17343 bound_to 10162
  156.7538  130.4777  149.5451 LP  0  0  0  0  0  0  0  0  0  0  0  0  # atno 17370 bound_to 10713
  156.1461  130.6278  151.0533 LP  0  0  0  0  0  0  0  0  0  0  0  0  # atno 17371 bound_to 10713
  140.8920  134.2483  157.5089 LP  0  0  0  0  0  0  0  0  0  0  0  0  # atno 17394 bound_to 11000
  139.8703  134.9666  156.4568 LP  0  0  0  0  0  0  0  0  0  0  0  0  # atno 17395 bound_to 11000

$$$$
