#       Name:                AV-unprocessed.smi:3252
#       Creating user name   scv26
#       Creation time:       Fri Mar 27 18:33:27 2020


#       File generated by GOLD software.
#

@<TRIPOS>MOLECULE
AV-unprocessed.smi:3252
    41    42     1
SMALL
NO_CHARGES


@<TRIPOS>ATOM
      1 ****        -2.5945  -3.9890  -0.4285 C.3            1 S1                 0.0000
      2 ****        -2.6877  -2.4741  -0.1992 C.3            1 S1                 0.0000
      3 ****        -2.0278  -1.6956  -1.2807 N.4            1 S1                 1.0000
      4 ****        -2.5077  -0.2960  -1.3797 C.3            1 S1                 0.0000
      5 ****        -1.8713   0.5862  -0.2920 C.3            1 S1                 0.0000
      6 ****        -0.4562   0.5124  -0.4008 O.3            1 S1                 0.0000
      7 ****         0.0459  -0.8020  -0.1797 C.3            1 S1                 0.0000
      8 ****         1.5831  -0.7678  -0.2473 C.3            1 S1                 0.0000
      9 ****         2.1800  -0.1058   0.9074 N.pl3          1 S1                 0.0000
     10 ****         2.3610   1.2845   0.9511 C.ar           1 S1                 0.0000
     11 ****         2.7724   1.8713   2.1664 C.ar           1 S1                 0.0000
     12 ****         2.9572   3.2669   2.2202 C.ar           1 S1                 0.0000
     13 ****         2.7244   4.0268   1.0570 C.ar           1 S1                 0.0000
     14 ****         2.8989   5.4690   1.0614 C.1            1 S1                 0.0000
     15 ****         3.0377   6.6176   1.0651 N.1            1 S1                 0.0000
     16 ****         2.3181   3.3521  -0.1117 C.ar           1 S1                 0.0000
     17 ****         2.1410   2.0144  -0.1685 N.ar           1 S1                 0.0000
     18 ****        -0.5422  -1.7348  -1.2623 C.3            1 S1                 0.0000
     19 ****        -3.1708  -4.5261   0.3252 H              1 S1                 0.0000
     20 ****        -1.5687  -4.3508  -0.3679 H              1 S1                 0.0000
     21 ****        -2.9929  -4.2647  -1.4055 H              1 S1                 0.0000
     22 ****        -3.7459  -2.2117  -0.1692 H              1 S1                 0.0000
     23 ****        -2.2815  -2.2110   0.7772 H              1 S1                 0.0000
     24 ****        -2.2334   0.0917  -2.3616 H              1 S1                 0.0000
     25 ****        -3.5962  -0.2540  -1.3280 H              1 S1                 0.0000
     26 ****        -2.1794   1.6236  -0.4238 H              1 S1                 0.0000
     27 ****        -2.1925   0.2847   0.7061 H              1 S1                 0.0000
     28 ****        -0.2523  -1.1472   0.8115 H              1 S1                 0.0000
     29 ****         1.9619  -1.7901  -0.2504 H              1 S1                 0.0000
     30 ****         1.9236  -0.3199  -1.1813 H              1 S1                 0.0000
     31 ****         2.3362  -0.6484   1.7447 H              1 S1                 0.0000
     32 ****         2.9438   1.2669   3.0454 H              1 S1                 0.0000
     33 ****         3.2711   3.7395   3.1399 H              1 S1                 0.0000
     34 ****         2.1283   3.8936  -1.0274 H              1 S1                 0.0000
     35 ****        -0.1803  -2.7538  -1.1311 H              1 S1                 0.0000
     36 ****        -0.1872  -1.4142  -2.2429 H              1 S1                 0.0000
     37 ****        -2.3162  -2.1446  -2.1384 H              1 S1                 0.0000
     38 ****        -0.0511   1.1273   0.2758 LP             1 S1                 0.0000
     39 ****        -0.1905   0.8058  -1.3192 LP             1 S1                 0.0000
     40 ****         3.1577   7.6104   1.0683 LP             1 S1                 0.0000
     41 ****         1.8538   1.5726  -1.0184 LP             1 S1                 0.0000
@<TRIPOS>BOND
    1    1    2 1     
    2    1   19 1     
    3    1   20 1     
    4    1   21 1     
    5    2    3 1     
    6    2   22 1     
    7    2   23 1     
    8    3   18 1     
    9    3    4 1     
   10    3   37 1     
   11    4    5 1     
   12    4   24 1     
   13    4   25 1     
   14    5    6 1     
   15    5   26 1     
   16    5   27 1     
   17    6    7 1     
   18    7    8 1     
   19    7   18 1     
   20    7   28 1     
   21    8    9 1     
   22    8   29 1     
   23    8   30 1     
   24    9   10 1     
   25    9   31 1     
   26   10   17 ar    
   27   10   11 ar    
   28   11   12 ar    
   29   11   32 1     
   30   12   13 ar    
   31   12   33 1     
   32   13   14 1     
   33   13   16 ar    
   34   14   15 3     
   35   16   17 ar    
   36   16   34 1     
   37   18   35 1     
   38   18   36 1     
   39    6   38 1     
   40    6   39 1     
   41   15   40 1     
   42   17   41 1     
@<TRIPOS>SUBSTRUCTURE
      1 S1             1
@<TRIPOS>SET
LONE_PAIRS      STATIC     ATOMS    <user>   **** ""
4 38 39 40 41
DONOR_HYDROGENS      STATIC     ATOMS    <user>   **** ""
2 37 31
ATOM$BLUE        STATIC     ATOMS    COLORGROUP SYSTEM
4 38 39 40 41
ATOM$RED        STATIC     ATOMS    COLORGROUP SYSTEM
2 37 31
