#       Name:                AV-unprocessed.smi:632
#       Creating user name   scv26
#       Creation time:       Fri Mar 27 00:05:06 2020


#       File generated by GOLD software.
#

@<TRIPOS>MOLECULE
AV-unprocessed.smi:632
    48    49     1
SMALL
NO_CHARGES


@<TRIPOS>ATOM
      1 ****        -5.8281   0.8207  -0.0527 C.3            1 S1                 0.0000
      2 ****        -4.9520   2.0673  -0.2843 C.3            1 S1                 0.0000
      3 ****        -4.9802   2.3795  -1.7967 C.3            1 S1                 0.0000
      4 ****        -5.5381   3.2872   0.4526 C.3            1 S1                 0.0000
      5 ****        -3.5452   1.8030   0.1997 C.2            1 S1                 0.0000
      6 ****        -3.2777   1.5041   1.4770 N.2            1 S1                 0.0000
      7 ****        -1.9259   1.2989   1.7070 N.2            1 S1                 0.0000
      8 ****        -1.1782   1.4350   0.6043 C.2            1 S1                 0.0000
      9 ****         0.1559   1.2780   0.6146 N.pl3          1 S1                -1.0000
     10 ****         0.7011   0.1055   0.2180 C.2            1 S1                 0.0000
     11 ****         0.0873  -0.8883  -0.1772 O.2            1 S1                 0.0000
     12 ****         2.0404   0.0842   0.2831 N.am           1 S1                 0.0000
     13 ****         2.9032  -1.0368  -0.0807 C.3            1 S1                 0.0000
     14 ****         2.9890  -2.0563   1.0746 C.3            1 S1                 0.0000
     15 ****         3.9545  -3.2048   0.7404 C.3            1 S1                 0.0000
     16 ****         5.3490  -2.6685   0.3744 C.3            1 S1                 0.0000
     17 ****         6.1867  -3.7438   0.0055 O.3            1 S1                 0.0000
     18 ****         5.2673  -1.6599  -0.7843 C.3            1 S1                 0.0000
     19 ****         4.3031  -0.5102  -0.4499 C.3            1 S1                 0.0000
     20 ****        -2.1123   1.8592  -0.8277 S.3            1 S1                 0.0000
     21 ****        -6.8467   0.9779  -0.4091 H              1 S1                 0.0000
     22 ****        -5.8913   0.5678   1.0062 H              1 S1                 0.0000
     23 ****        -5.4264  -0.0485  -0.5746 H              1 S1                 0.0000
     24 ****        -4.5899   1.5494  -2.3866 H              1 S1                 0.0000
     25 ****        -4.3907   3.2652  -2.0362 H              1 S1                 0.0000
     26 ****        -5.9969   2.5686  -2.1430 H              1 S1                 0.0000
     27 ****        -6.5492   3.5110   0.1111 H              1 S1                 0.0000
     28 ****        -4.9297   4.1776   0.2900 H              1 S1                 0.0000
     29 ****        -5.5897   3.1174   1.5285 H              1 S1                 0.0000
     30 ****         2.4980   0.9210   0.6138 H              1 S1                 0.0000
     31 ****         2.4884  -1.5334  -0.9600 H              1 S1                 0.0000
     32 ****         3.3234  -1.5555   1.9844 H              1 S1                 0.0000
     33 ****         2.0012  -2.4637   1.2929 H              1 S1                 0.0000
     34 ****         4.0245  -3.8860   1.5893 H              1 S1                 0.0000
     35 ****         3.5492  -3.7846  -0.0902 H              1 S1                 0.0000
     36 ****         5.7899  -2.1833   1.2461 H              1 S1                 0.0000
     37 ****         5.8069  -4.1749  -0.7447 H              1 S1                 0.0000
     38 ****         6.2575  -1.2588  -1.0036 H              1 S1                 0.0000
     39 ****         4.9281  -2.1620  -1.6916 H              1 S1                 0.0000
     40 ****         4.2341   0.1692  -1.3003 H              1 S1                 0.0000
     41 ****         4.7096   0.0719   0.3785 H              1 S1                 0.0000
     42 ****        -3.9773   1.4362   2.1884 LP             1 S1                 0.0000
     43 ****        -1.5478   1.0724   2.6047 LP             1 S1                 0.0000
     44 ****         0.7456   2.0276   0.9154 LP             1 S1                 0.0000
     45 ****        -0.9114  -0.8724  -0.2262 LP             1 S1                 0.0000
     46 ****         0.5882  -1.7101  -0.4486 LP             1 S1                 0.0000
     47 ****         6.2603  -4.3903   0.7649 LP             1 S1                 0.0000
     48 ****         7.0958  -3.3988  -0.2278 LP             1 S1                 0.0000
@<TRIPOS>BOND
    1    1    2 1     
    2    1   21 1     
    3    1   22 1     
    4    1   23 1     
    5    2    3 1     
    6    2    4 1     
    7    2    5 1     
    8    3   24 1     
    9    3   25 1     
   10    3   26 1     
   11    4   27 1     
   12    4   28 1     
   13    4   29 1     
   14    5   20 1     
   15    5    6 2     
   16    6    7 1     
   17    7    8 2     
   18    8    9 1     
   19    8   20 1     
   20    9   10 1     
   21   10   11 2     
   22   10   12 am    
   23   12   13 1     
   24   12   30 1     
   25   13   19 1     
   26   13   14 1     
   27   13   31 1     
   28   14   15 1     
   29   14   32 1     
   30   14   33 1     
   31   15   16 1     
   32   15   34 1     
   33   15   35 1     
   34   16   17 1     
   35   16   18 1     
   36   16   36 1     
   37   17   37 1     
   38   18   19 1     
   39   18   38 1     
   40   18   39 1     
   41   19   40 1     
   42   19   41 1     
   43    6   42 1     
   44    7   43 1     
   45    9   44 1     
   46   11   45 1     
   47   11   46 1     
   48   17   47 1     
   49   17   48 1     
@<TRIPOS>SUBSTRUCTURE
      1 S1             1
@<TRIPOS>SET
LONE_PAIRS      STATIC     ATOMS    <user>   **** ""
7 42 43 44 45 46 47 48
DONOR_HYDROGENS      STATIC     ATOMS    <user>   **** ""
2 30 37
ATOM$BLUE        STATIC     ATOMS    COLORGROUP SYSTEM
7 42 43 44 45 46 47 48
ATOM$RED        STATIC     ATOMS    COLORGROUP SYSTEM
2 30 37
