AV-unprocessed.smi:2245|AV-procd|sdf|9081|dock5
  -GOLD-   2272012283D 1   1.00000     0.00000
 Structure written by MMmdl.
 45 46  0  0  0  0  0  0  0  0  2 V2000
  152.0535  144.6904  160.5552 C   0  0  0  0  0  0  0  0  0  0  0  0
  151.9028  143.5156  159.6116 C   0  0  0  0  0  0  0  0  0  0  0  0
  152.6676  142.3474  159.7898 C   0  0  0  0  0  0  0  0  0  0  0  0
  152.4882  141.2894  158.8771 C   0  0  0  0  0  0  0  0  0  0  0  0
  153.2750  140.0027  159.0110 C   0  0  0  0  0  0  0  0  0  0  0  0
  151.6195  141.3463  157.8451 N   0  0  0  0  0  0  0  0  0  0  0  0
  150.8776  142.4667  157.6635 C   0  0  0  0  0  0  0  0  0  0  0  0
  149.9396  142.6272  156.6091 N   0  0  0  0  0  0  0  0  0  0  0  0
  149.4440  141.6838  155.7889 C   0  0  0  0  0  0  0  0  0  0  0  0
  149.7179  140.4843  155.8330 O   0  0  0  0  0  0  0  0  0  0  0  0
  148.5989  142.2130  154.8921 N   0  0  0  0  0  0  0  0  0  0  0  0
  147.8838  141.4594  153.8667 C   0  0  0  0  0  0  0  0  0  0  0  0
  146.3567  141.6569  153.9469 C   0  0  1  0  0  0  0  0  0  0  0  0
  145.6899  140.8966  155.0916 C   0  0  0  0  0  0  0  0  0  0  0  0
  144.3825  141.6582  155.3491 C   0  0  0  0  0  0  0  0  0  0  0  0
  144.5089  142.9720  154.6722 N   0  3  1  0  0  0  0  0  0  0  0  0
  144.0213  144.1398  155.4454 C   0  0  0  0  0  0  0  0  0  0  0  0
  143.3788  145.2151  154.5514 C   0  0  0  0  0  0  0  0  0  0  0  0
  143.2287  146.3343  155.2578 F   0  0  0  0  0  0  0  0  0  0  0  0
  144.1667  145.4708  153.5070 F   0  0  0  0  0  0  0  0  0  0  0  0
  142.1813  144.8281  154.1135 F   0  0  0  0  0  0  0  0  0  0  0  0
  145.9051  143.0938  154.2082 C   0  0  0  0  0  0  0  0  0  0  0  0
  150.9973  143.5743  158.5327 C   0  0  0  0  0  0  0  0  0  0  0  0
  152.4455  144.3691  161.5206 H   0  0  0  0  0  0  0  0  0  0  0  0
  151.0915  145.1747  160.7248 H   0  0  0  0  0  0  0  0  0  0  0  0
  152.7392  145.4251  160.1326 H   0  0  0  0  0  0  0  0  0  0  0  0
  153.3727  142.2648  160.6042 H   0  0  0  0  0  0  0  0  0  0  0  0
  154.0661  140.0992  159.7554 H   0  0  0  0  0  0  0  0  0  0  0  0
  153.7357  139.7354  158.0595 H   0  0  0  0  0  0  0  0  0  0  0  0
  152.6165  139.1886  159.3148 H   0  0  0  0  0  0  0  0  0  0  0  0
  149.6138  143.5706  156.4603 H   0  0  0  0  0  0  0  0  0  0  0  0
  148.4248  143.2067  154.9317 H   0  0  0  0  0  0  0  0  0  0  0  0
  148.2500  141.7471  152.8798 H   0  0  0  0  0  0  0  0  0  0  0  0
  148.1327  140.4051  153.9912 H   0  0  0  0  0  0  0  0  0  0  0  0
  145.8994  141.3208  153.0146 H   0  0  0  0  0  0  0  0  0  0  0  0
  145.5228  139.8455  154.8541 H   0  0  0  0  0  0  0  0  0  0  0  0
  146.3162  140.9382  155.9841 H   0  0  0  0  0  0  0  0  0  0  0  0
  143.5304  141.1274  154.9239 H   0  0  0  0  0  0  0  0  0  0  0  0
  144.2087  141.7599  156.4210 H   0  0  0  0  0  0  0  0  0  0  0  0
  143.3285  143.8143  156.2230 H   0  0  0  0  0  0  0  0  0  0  0  0
  144.8739  144.5878  155.9580 H   0  0  0  0  0  0  0  0  0  0  0  0
  146.5170  143.5415  154.9937 H   0  0  0  0  0  0  0  0  0  0  0  0
  145.9761  143.7246  153.3214 H   0  0  0  0  0  0  0  0  0  0  0  0
  150.4012  144.4617  158.3760 H   0  0  0  0  0  0  0  0  0  0  0  0
  143.9463  142.9143  153.8349 H   0  0  0  0  0  0  0  0  0  0  0  0
  1  2  1  0  0  0  0
  1 24  1  0  0  0  0
  1 25  1  0  0  0  0
  1 26  1  0  0  0  0
  2 23  1  0  0  0  0
  2  3  2  0  0  0  0
  3  4  1  0  0  0  0
  3 27  1  0  0  0  0
  4  5  1  0  0  0  0
  4  6  2  0  0  0  0
  5 28  1  0  0  0  0
  5 29  1  0  0  0  0
  5 30  1  0  0  0  0
  6  7  1  0  0  0  0
  7  8  1  0  0  0  0
  7 23  2  0  0  0  0
  8  9  1  0  0  0  0
  8 31  1  0  0  0  0
  9 10  2  0  0  0  0
  9 11  1  0  0  0  0
 11 12  1  0  0  0  0
 11 32  1  0  0  0  0
 12 13  1  0  0  0  0
 12 33  1  0  0  0  0
 12 34  1  0  0  0  0
 13 22  1  0  0  0  0
 13 14  1  0  0  0  0
 13 35  1  0  0  0  0
 14 15  1  0  0  0  0
 14 36  1  0  0  0  0
 14 37  1  0  0  0  0
 15 16  1  0  0  0  0
 15 38  1  0  0  0  0
 15 39  1  0  0  0  0
 16 17  1  0  0  0  0
 16 22  1  0  0  0  0
 16 45  1  0  0  0  0
 17 18  1  0  0  0  0
 17 40  1  0  0  0  0
 17 41  1  0  0  0  0
 18 19  1  0  0  0  0
 18 20  1  0  0  0  0
 18 21  1  0  0  0  0
 22 42  1  0  0  0  0
 22 43  1  0  0  0  0
 23 44  1  0  0  0  0
M  CHG  1  16   1
M  END
> <s_m_source_file>
AV-unprocessed.smi

> <i_m_source_file_index>
2245

> <i_lp_mmshare_version>
43012

> <i_f3d_flags>
0

> <s_epik_input>
W0NIM11jMVtjSF1jKFtDSDNdKW5jKFtjSF0xKVtOSF1DKD1PKVtOSF1bQ0gyXVtDQEBIXTJbQ0gyXVtDSDJdTihbQ0gyXTIpW0NIMl1DKEYpKEYpRg==

> <s_epik_cmdline>
J2VwaWtfcHl0aG9uJywgJy1waCcsICc3LjAnLCAnLXRuJywgJzgnLCAnLW1hJywgJzIwMCcsICctbWV0YWxfYmluZGluZycsICctaW1hZScsICc8aW5maWxlLm1hZT4nLCAnLW9tYWUnLCAnPG91dGZpbGUubWFlPic=

> <r_epik_Ionization_Penalty>
0.628315

> <r_epik_Ionization_Penalty_Charging>
0.628113

> <r_epik_Ionization_Penalty_Neutral>
0.000202271

> <r_epik_State_Penalty>
0.644725

> <r_epik_Charging_Adjusted_Penalty>
1.27284

> <i_epik_Tot_Q>
1

> <i_epik_Tot_abs_Q>
1

> <r_epik_Metal_State_Penalty>
0.644752

> <b_epik_Metal_Only>
0

> <s_lp_Force_Field>
OPLS_2005

> <r_lp_Energy>
28.8991

> <b_lp_Chiralities_Consistent>
1

> <s_lp_Variant>
AV-unprocessed.smi:2245-6

> <Gold.Version>
5.8.1

> <Gold.Id.Protein>
6NUR|6NUR_protein|mol2

> <Gold.PLP.Fitness>
51.6444

> <Gold.PLP.PLP>
-44.1588

> <Gold.PLP.part.hbond>
-2.2976

> <Gold.PLP.part.metal>
0.0000

> <Gold.PLP.part.buried>
-4.1889

> <Gold.PLP.part.nonpolar>
-39.6547

> <Gold.PLP.part.repulsive>
0.2955

> <Gold.PLP.ligand.clash>
0.0000

> <Gold.PLP.ligand.torsion>
0.7247

> <Gold.PLP.Chemscore.Hbond>
2.8375

> <Gold.PLP.Chemscore.CHOScore>
0.0000

> <Gold.PLP.Chemscore.Metal>
0.0000

> <Gold.Chemscore.Hbonds>
donor molecule, donor type, donor heavy atom, donor atom, acceptor molecule, acceptor atom, score
      L1  H     8    31       P1  8028  1.00
      L1  H    11    32       P1  8028  0.94
      L1  H    16    45       P1 10174  0.93

> <Gold.PLP.Chemscore.Internal.Correction>
0.4226

> <Gold.Rescore>
     Score         DG    S(hbond)    S(metal)    S(lipo)     H(rot)  DE(clash)    DE(int)     intcor
     17.02     -19.19       1.97        0.00      96.21       1.61       0.22       1.95       ----

> <Gold.Chemscore.Fitness>
17.0240

> <Gold.Chemscore.DG>
-19.1949

> <Gold.Chemscore.ZeroCoef>
-5.4800

> <Gold.Chemscore.Hbond>
1.9734

> <Gold.Chemscore.Metal>
0.0000

> <Gold.Chemscore.Lipo>
96.2059

> <Gold.Chemscore.Internal_Hbond>
0.0000

> <Gold.Chemscore.DEClash>
0.2182

> <Gold.Chemscore.DEInternal>
1.9527

> <Gold.Chemscore.Rot>
1.6143

> <Gold.Chemscore.Internal.Correction>
   9.000000E+99

> <Gold.Chemscore.Hbonds>
donor molecule, donor type, donor heavy atom, donor atom, acceptor molecule, acceptor atom, score
      L1  H     8    31       P1  8028  0.96
      L1  H    11    32       P1  8028  0.91
      L1  H    16    45       P1 10174  0.05

> <Gold.Chemscore.Hbond.Weighted>
-6.5913

> <Gold.Chemscore.Metal.Weighted>
-0.0000

> <Gold.Chemscore.Lipo.Weighted>
-11.2561

> <Gold.Chemscore.Internal_Hbond.Weighted>
0.0000

> <Gold.Chemscore.DEClash.Weighted>
0.2182

> <Gold.Chemscore.DEInternal.Weighted>
1.9527

> <Gold.Chemscore.Rot.Weighted>
4.1325

> <Gold.Chemscore.Internal.Correction.Weighted>
   9.000000E+99

> <Gold.Protein.RotatedTorsions>
[ 6907 6896 6895 6894 ] final   32.06 input  -60.11 | X-H torsion
[ 7974 7965 7964 7962 ] final   42.43 input  175.53 | X-H torsion
[ 8008 7997 7996 7995 ] final    1.15 input   59.86 | X-H torsion
[ 10167 10162 10161 10158 ] final -107.22 input  -65.29 | X-H torsion
[ 10718 10713 10712 10709 ] final  114.15 input   66.30 | X-H torsion
[ 10763 10752 10751 10750 ] final  -34.17 input  -60.55 | X-H torsion
[ 11005 11000 10999 10996 ] final   -0.25 input  -57.11 | X-H torsion

> <Gold.Protein.ActiveResidues>
 VAL166  LYS551  ARG553  GLY616  TRP617  ASP618  TYR619  PRO620  LYS621  CYS622 
 ASP623  PHE694  ASN695  SER759  ASP760  ASP761  ALA762  ILE779  LEU786  VAL792 
 PHE793  MET794  SER795  GLU796  ALA797  LYS798  CYS799  TRP800  GLU811  SER814 

> <Gold.Protein.RotatedAtoms>
  152.0691  134.9545  160.0574 H   0  0  0  0  0  0  0  0  0  0  0  0  # atno 6907 bound_to 6896
  152.0878  133.4180  159.4538 H   0  0  0  0  0  0  0  0  0  0  0  0  # atno 6908 bound_to 6896
  150.6836  134.2827  159.4677 H   0  0  0  0  0  0  0  0  0  0  0  0  # atno 6909 bound_to 6896
  146.0741  139.5301  142.9579 H   0  0  0  0  0  0  0  0  0  0  0  0  # atno 7974 bound_to 7965
  154.6764  140.2623  155.6953 H   0  0  0  0  0  0  0  0  0  0  0  0  # atno 8008 bound_to 7997
  156.2679  140.2819  156.1215 H   0  0  0  0  0  0  0  0  0  0  0  0  # atno 8009 bound_to 7997
  155.1094  140.0375  157.2710 H   0  0  0  0  0  0  0  0  0  0  0  0  # atno 8010 bound_to 7997
  140.1793  143.3980  152.1294 H   0  0  0  0  0  0  0  0  0  0  0  0  # atno 10167 bound_to 10162
  157.6298  131.0994  150.7144 H   0  0  0  0  0  0  0  0  0  0  0  0  # atno 10718 bound_to 10713
  153.8424  135.6856  153.4801 H   0  0  0  0  0  0  0  0  0  0  0  0  # atno 10763 bound_to 10752
  153.1446  135.4643  154.9545 H   0  0  0  0  0  0  0  0  0  0  0  0  # atno 10764 bound_to 10752
  154.7839  135.3278  154.7876 H   0  0  0  0  0  0  0  0  0  0  0  0  # atno 10765 bound_to 10752
  140.6342  133.9548  155.8290 H   0  0  0  0  0  0  0  0  0  0  0  0  # atno 11005 bound_to 11000
  145.6338  141.0298  143.1849 LP  0  0  0  0  0  0  0  0  0  0  0  0  # atno 17320 bound_to 7965
  144.7250  139.7904  143.7368 LP  0  0  0  0  0  0  0  0  0  0  0  0  # atno 17321 bound_to 7965
  139.5303  144.7151  151.5079 LP  0  0  0  0  0  0  0  0  0  0  0  0  # atno 17342 bound_to 10162
  140.6530  143.8657  150.6806 LP  0  0  0  0  0  0  0  0  0  0  0  0  # atno 17343 bound_to 10162
  156.7486  130.4761  149.5461 LP  0  0  0  0  0  0  0  0  0  0  0  0  # atno 17370 bound_to 10713
  156.1493  130.6299  151.0574 LP  0  0  0  0  0  0  0  0  0  0  0  0  # atno 17371 bound_to 10713
  141.0654  134.0285  157.3601 LP  0  0  0  0  0  0  0  0  0  0  0  0  # atno 17394 bound_to 11000
  139.9104  135.0189  156.7669 LP  0  0  0  0  0  0  0  0  0  0  0  0  # atno 17395 bound_to 11000

$$$$
