AV-unprocessed.smi:193|AV-procd|sdf|1519|dock7
  -GOLD-   2262019353D 1   1.00000     0.00000
 Structure written by MMmdl.
 61 65  0  0  0  0  0  0  0  0  1 V2000
  151.8453  145.0111  157.8524 C   0  0  0  0  0  0  0  0  0  0  0  0
  151.6642  143.9042  158.9014 C   0  0  1  0  0  0  0  0  0  0  0  0
  150.4653  142.9924  158.5586 C   0  0  0  0  0  0  0  0  0  0  0  0
  150.8018  141.8085  157.7693 N   0  0  0  0  0  0  0  0  0  0  0  0
  149.8701  141.5359  156.8203 C   0  0  0  0  0  0  0  0  0  0  0  0
  150.2328  141.4349  155.5128 N   0  0  0  0  0  0  0  0  0  0  0  0
  149.3220  141.1387  154.5811 C   0  0  0  0  0  0  0  0  0  0  0  0
  148.0171  140.9062  154.7341 N   0  0  0  0  0  0  0  0  0  0  0  0
  147.6467  141.0066  156.0427 C   0  0  0  0  0  0  0  0  0  0  0  0
  148.5026  141.3090  157.1394 C   0  0  0  0  0  0  0  0  0  0  0  0
  147.7727  141.3163  158.3211 N   0  0  0  0  0  0  0  0  0  0  0  0
  146.5557  141.0325  157.9460 C   0  0  0  0  0  0  0  0  0  0  0  0
  146.3873  140.8419  156.5930 N   0  0  0  0  0  0  0  0  0  0  0  0
  145.1438  140.5213  155.9081 C   0  0  0  0  0  0  0  0  0  0  0  0
  144.1751  141.7217  155.7583 C   0  0  0  0  0  0  0  0  0  0  0  0
  142.9647  141.2356  155.2049 O   0  0  0  0  0  0  0  0  0  0  0  0
  143.8645  142.3357  157.1383 C   0  0  0  0  0  0  0  0  0  0  0  0
  143.0412  143.6312  157.0261 C   0  0  0  0  0  0  0  0  0  0  0  0
  143.7119  144.5620  156.1855 O   0  0  0  0  0  0  0  0  0  0  0  0
  143.8564  144.0921  154.8508 C   0  0  0  0  0  0  0  0  0  0  0  0
  144.7272  142.8230  154.8268 C   0  0  0  0  0  0  0  0  0  0  0  0
  151.2915  140.6709  158.5502 C   0  0  0  0  0  0  0  0  0  0  0  0
  152.7366  140.8394  159.0398 C   0  0  0  0  0  0  0  0  0  0  0  0
  152.9057  141.9725  159.9511 N   0  0  0  0  0  0  0  0  0  0  0  0
  154.1627  141.7763  160.6583 C   0  0  1  0  0  0  0  0  0  0  0  0
  154.1001  141.6494  162.1638 C   0  0  0  0  0  0  0  0  0  0  0  0
  154.3927  140.4332  161.3174 C   0  0  2  0  0  0  0  0  0  0  0  0
  155.7689  139.8047  161.3274 C   0  0  0  0  0  0  0  0  0  0  0  0
  153.0152  143.2057  159.1697 C   0  0  0  0  0  0  0  0  0  0  0  0
  152.1659  144.5999  156.8956 H   0  0  0  0  0  0  0  0  0  0  0  0
  152.5996  145.7316  158.1696 H   0  0  0  0  0  0  0  0  0  0  0  0
  150.9177  145.5601  157.6877 H   0  0  0  0  0  0  0  0  0  0  0  0
  151.3855  144.4109  159.8264 H   0  0  0  0  0  0  0  0  0  0  0  0
  150.0211  142.6461  159.4929 H   0  0  0  0  0  0  0  0  0  0  0  0
  149.6812  143.5823  158.0811 H   0  0  0  0  0  0  0  0  0  0  0  0
  149.6919  141.0765  153.5684 H   0  0  0  0  0  0  0  0  0  0  0  0
  145.7396  140.9616  158.6503 H   0  0  0  0  0  0  0  0  0  0  0  0
  145.3878  140.1044  154.9299 H   0  0  0  0  0  0  0  0  0  0  0  0
  144.6563  139.7194  156.4641 H   0  0  0  0  0  0  0  0  0  0  0  0
  143.1710  140.5696  154.5671 H   0  0  0  0  0  0  0  0  0  0  0  0
  143.3442  141.6146  157.7703 H   0  0  0  0  0  0  0  0  0  0  0  0
  144.8002  142.5679  157.6485 H   0  0  0  0  0  0  0  0  0  0  0  0
  142.0399  143.4309  156.6415 H   0  0  0  0  0  0  0  0  0  0  0  0
  142.9154  144.0784  158.0122 H   0  0  0  0  0  0  0  0  0  0  0  0
  142.8757  143.9039  154.4115 H   0  0  0  0  0  0  0  0  0  0  0  0
  144.3235  144.8747  154.2527 H   0  0  0  0  0  0  0  0  0  0  0  0
  145.7362  143.0888  155.1448 H   0  0  0  0  0  0  0  0  0  0  0  0
  144.8136  142.4604  153.8017 H   0  0  0  0  0  0  0  0  0  0  0  0
  150.6285  140.4945  159.3984 H   0  0  0  0  0  0  0  0  0  0  0  0
  151.2594  139.7654  157.9427 H   0  0  0  0  0  0  0  0  0  0  0  0
  152.9924  139.9241  159.5756 H   0  0  0  0  0  0  0  0  0  0  0  0
  153.4312  140.8945  158.2001 H   0  0  0  0  0  0  0  0  0  0  0  0
  155.0557  142.2658  160.2722 H   0  0  0  0  0  0  0  0  0  0  0  0
  154.9199  142.0795  162.7355 H   0  0  0  0  0  0  0  0  0  0  0  0
  153.1235  141.7027  162.6410 H   0  0  0  0  0  0  0  0  0  0  0  0
  153.5847  139.7087  161.2320 H   0  0  0  0  0  0  0  0  0  0  0  0
  156.5424  140.5674  161.4223 H   0  0  0  0  0  0  0  0  0  0  0  0
  155.9345  139.2545  160.4010 H   0  0  0  0  0  0  0  0  0  0  0  0
  155.8574  139.1127  162.1646 H   0  0  0  0  0  0  0  0  0  0  0  0
  153.5461  143.0197  158.2347 H   0  0  0  0  0  0  0  0  0  0  0  0
  153.6341  143.9229  159.7116 H   0  0  0  0  0  0  0  0  0  0  0  0
  1  2  1  0  0  0  0
  1 30  1  0  0  0  0
  1 31  1  0  0  0  0
  1 32  1  0  0  0  0
  2 29  1  0  0  0  0
  2  3  1  0  0  0  0
  2 33  1  0  0  0  0
  3  4  1  0  0  0  0
  3 34  1  0  0  0  0
  3 35  1  0  0  0  0
  4  5  1  0  0  0  0
  4 22  1  0  0  0  0
  5 10  1  0  0  0  0
  5  6  2  0  0  0  0
  6  7  1  0  0  0  0
  7  8  2  0  0  0  0
  7 36  1  0  0  0  0
  8  9  1  0  0  0  0
  9 13  1  0  0  0  0
  9 10  2  0  0  0  0
 10 11  1  0  0  0  0
 11 12  2  0  0  0  0
 12 13  1  0  0  0  0
 12 37  1  0  0  0  0
 13 14  1  0  0  0  0
 14 15  1  0  0  0  0
 14 38  1  0  0  0  0
 14 39  1  0  0  0  0
 15 21  1  0  0  0  0
 15 16  1  0  0  0  0
 15 17  1  0  0  0  0
 16 40  1  0  0  0  0
 17 18  1  0  0  0  0
 17 41  1  0  0  0  0
 17 42  1  0  0  0  0
 18 19  1  0  0  0  0
 18 43  1  0  0  0  0
 18 44  1  0  0  0  0
 19 20  1  0  0  0  0
 20 21  1  0  0  0  0
 20 45  1  0  0  0  0
 20 46  1  0  0  0  0
 21 47  1  0  0  0  0
 21 48  1  0  0  0  0
 22 23  1  0  0  0  0
 22 49  1  0  0  0  0
 22 50  1  0  0  0  0
 23 24  1  0  0  0  0
 23 51  1  0  0  0  0
 23 52  1  0  0  0  0
 24 25  1  0  0  0  0
 24 29  1  0  0  0  0
 25 27  1  0  0  0  0
 25 26  1  0  0  0  0
 25 53  1  0  0  0  0
 26 27  1  0  0  0  0
 26 54  1  0  0  0  0
 26 55  1  0  0  0  0
 27 28  1  0  0  0  0
 27 56  1  0  0  0  0
 28 57  1  0  0  0  0
 28 58  1  0  0  0  0
 28 59  1  0  0  0  0
 29 60  1  0  0  0  0
 29 61  1  0  0  0  0
M  END
> <s_m_source_file>
AV-unprocessed.smi

> <i_m_source_file_index>
193

> <i_lp_mmshare_version>
43012

> <i_f3d_flags>
0

> <s_epik_input>
W0NIM11bQ0BASF0xW0NIMl1bQ0BIXTFOKFtDSDJdMilbQ0gyXVtDSDJdTihbQ0gyXVtDQEhdMltDSDNdKWMobltjSF1uMyljKGMzNCluW2NIXW40W0NIMl1DNShbT0hdKVtDSDJdW0NIMl1PW0NIMl1bQ0gyXTU=

> <s_epik_cmdline>
J2VwaWtfcHl0aG9uJywgJy1waCcsICc3LjAnLCAnLXRuJywgJzgnLCAnLW1hJywgJzIwMCcsICctbWV0YWxfYmluZGluZycsICctaW1hZScsICc8aW5maWxlLm1hZT4nLCAnLW9tYWUnLCAnPG91dGZpbGUubWFlPic=

> <r_lp_tautomer_probability>
1

> <r_epik_Ionization_Penalty>
1.45227

> <r_epik_Ionization_Penalty_Charging>
0

> <r_epik_Ionization_Penalty_Neutral>
1.45227

> <r_epik_State_Penalty>
2.02377

> <r_epik_Charging_Adjusted_Penalty>
2.02377

> <i_epik_Tot_Q>
0

> <i_epik_Tot_abs_Q>
0

> <r_epik_Metal_State_Penalty>
2.01937

> <b_epik_Metal_Only>
0

> <s_lp_Force_Field>
OPLS_2005

> <r_lp_Energy>
55.8214

> <b_lp_Chiralities_Consistent>
1

> <s_lp_Variant>
AV-unprocessed.smi:193-24

> <Gold.Version>
5.8.1

> <Gold.Id.Protein>
6NUR|6NUR_protein|mol2

> <Gold.PLP.Fitness>
50.7895

> <Gold.PLP.PLP>
-45.9498

> <Gold.PLP.part.hbond>
-2.6120

> <Gold.PLP.part.metal>
0.0000

> <Gold.PLP.part.buried>
-5.4643

> <Gold.PLP.part.nonpolar>
-38.5342

> <Gold.PLP.part.repulsive>
0.4298

> <Gold.PLP.ligand.clash>
0.0000

> <Gold.PLP.ligand.torsion>
1.2878

> <Gold.PLP.Chemscore.Hbond>
1.0000

> <Gold.PLP.Chemscore.CHOScore>
1.0000

> <Gold.PLP.Chemscore.Metal>
0.0000

> <Gold.Chemscore.Hbonds>
donor molecule, donor type, donor heavy atom, donor atom, acceptor molecule, acceptor atom, score
      L1  H    16    40       P1 10175  0.60
      L1  C     7    36       P1  7957  0.79

> <Gold.PLP.Chemscore.Internal.Correction>
1.4154

> <Gold.Rescore>
     Score         DG    S(hbond)    S(metal)    S(lipo)     H(rot)  DE(clash)    DE(int)     intcor
     13.23     -15.36       0.73        0.00     110.95       2.17       0.27       1.86       ----

> <Gold.Chemscore.Fitness>
13.2266

> <Gold.Chemscore.DG>
-15.3555

> <Gold.Chemscore.ZeroCoef>
-5.4800

> <Gold.Chemscore.Hbond>
0.7305

> <Gold.Chemscore.Metal>
0.0000

> <Gold.Chemscore.Lipo>
110.9543

> <Gold.Chemscore.Internal_Hbond>
0.0000

> <Gold.Chemscore.DEClash>
0.2737

> <Gold.Chemscore.DEInternal>
1.8552

> <Gold.Chemscore.Rot>
2.1664

> <Gold.Chemscore.Internal.Correction>
   9.000000E+99

> <Gold.Chemscore.Hbonds>
donor molecule, donor type, donor heavy atom, donor atom, acceptor molecule, acceptor atom, score
      L1  H    16    40       P1 10175  0.58

> <Gold.Chemscore.Hbond.Weighted>
-2.4398

> <Gold.Chemscore.Metal.Weighted>
-0.0000

> <Gold.Chemscore.Lipo.Weighted>
-12.9817

> <Gold.Chemscore.Internal_Hbond.Weighted>
0.0000

> <Gold.Chemscore.DEClash.Weighted>
0.2737

> <Gold.Chemscore.DEInternal.Weighted>
1.8552

> <Gold.Chemscore.Rot.Weighted>
5.5459

> <Gold.Chemscore.Internal.Correction.Weighted>
   9.000000E+99

> <Gold.Protein.RotatedTorsions>
[ 6907 6896 6895 6894 ] final  -17.81 input  -60.11 | X-H torsion
[ 7974 7965 7964 7962 ] final   56.52 input  175.53 | X-H torsion
[ 8008 7997 7996 7995 ] final  177.11 input   59.86 | X-H torsion
[ 10167 10162 10161 10158 ] final  -38.73 input  -65.29 | X-H torsion
[ 10718 10713 10712 10709 ] final  162.27 input   66.30 | X-H torsion
[ 10763 10752 10751 10750 ] final -144.58 input  -60.55 | X-H torsion
[ 11005 11000 10999 10996 ] final  134.53 input  -57.11 | X-H torsion

> <Gold.Protein.ActiveResidues>
 VAL166  LYS551  ARG553  GLY616  TRP617  ASP618  TYR619  PRO620  LYS621  CYS622 
 ASP623  PHE694  ASN695  SER759  ASP760  ASP761  ALA762  ILE779  LEU786  VAL792 
 PHE793  MET794  SER795  GLU796  ALA797  LYS798  CYS799  TRP800  GLU811  SER814 

> <Gold.Protein.RotatedAtoms>
  151.2877  135.0732  159.9192 H   0  0  0  0  0  0  0  0  0  0  0  0  # atno 6907 bound_to 6896
  152.5322  133.9964  159.7885 H   0  0  0  0  0  0  0  0  0  0  0  0  # atno 6908 bound_to 6896
  151.0229  133.5809  159.2700 H   0  0  0  0  0  0  0  0  0  0  0  0  # atno 6909 bound_to 6896
  145.9389  139.3871  143.0376 H   0  0  0  0  0  0  0  0  0  0  0  0  # atno 7974 bound_to 7965
  156.0692  140.1366  156.9849 H   0  0  0  0  0  0  0  0  0  0  0  0  # atno 8008 bound_to 7997
  154.4522  140.0975  156.6704 H   0  0  0  0  0  0  0  0  0  0  0  0  # atno 8009 bound_to 7997
  155.5255  140.3457  155.4418 H   0  0  0  0  0  0  0  0  0  0  0  0  # atno 8010 bound_to 7997
  140.7084  143.3259  151.2682 H   0  0  0  0  0  0  0  0  0  0  0  0  # atno 10167 bound_to 10162
  157.1249  131.0502  151.2398 H   0  0  0  0  0  0  0  0  0  0  0  0  # atno 10718 bound_to 10713
  154.8422  135.3436  154.6369 H   0  0  0  0  0  0  0  0  0  0  0  0  # atno 10763 bound_to 10752
  153.6979  135.6971  153.5076 H   0  0  0  0  0  0  0  0  0  0  0  0  # atno 10764 bound_to 10752
  153.2545  135.4343  155.0786 H   0  0  0  0  0  0  0  0  0  0  0  0  # atno 10765 bound_to 10752
  139.9921  134.9511  156.9879 H   0  0  0  0  0  0  0  0  0  0  0  0  # atno 11005 bound_to 11000
  145.8327  140.9622  143.0841 LP  0  0  0  0  0  0  0  0  0  0  0  0  # atno 17320 bound_to 7965
  144.6776  140.0183  143.7484 LP  0  0  0  0  0  0  0  0  0  0  0  0  # atno 17321 bound_to 7965
  139.6727  143.9992  152.2762 LP  0  0  0  0  0  0  0  0  0  0  0  0  # atno 17342 bound_to 10162
  139.9596  144.6566  150.8092 LP  0  0  0  0  0  0  0  0  0  0  0  0  # atno 17343 bound_to 10162
  157.4443  130.7562  149.7096 LP  0  0  0  0  0  0  0  0  0  0  0  0  # atno 17370 bound_to 10713
  155.9820  130.4014  150.3439 LP  0  0  0  0  0  0  0  0  0  0  0  0  # atno 17371 bound_to 10713
  140.4889  134.1213  155.7229 LP  0  0  0  0  0  0  0  0  0  0  0  0  # atno 17394 bound_to 11000
  141.1574  133.8857  157.1940 LP  0  0  0  0  0  0  0  0  0  0  0  0  # atno 17395 bound_to 11000

$$$$
