AV-unprocessed.smi:1642|AV-procd|sdf|6571|dock2
  -GOLD-   22720 7253D 1   1.00000     0.00000
 Structure written by MMmdl.
 34 35  0  0  0  0  0  0  0  0  3 V2000
  150.6063  141.3675  156.1007 C   0  0  0  0  0  0  0  0  0  0  0  0
  151.0802  140.0390  155.6201 C   0  0  0  0  0  0  0  0  0  0  0  0
  152.3378  139.8209  155.2285 N   0  0  0  0  0  0  0  0  0  0  0  0
  152.5384  138.5105  154.8204 N   0  0  0  0  0  0  0  0  0  0  0  0
  151.4308  137.7598  154.8987 C   0  0  0  0  0  0  0  0  0  0  0  0
  151.4138  136.4636  154.5463 N   0  5  0  0  0  0  0  0  0  0  0  0
  150.3862  135.6748  154.9302 C   0  0  0  0  0  0  0  0  0  0  0  0
  149.7161  135.7934  155.9583 O   0  0  0  0  0  0  0  0  0  0  0  0
  150.1295  134.6739  154.0768 N   0  0  0  0  0  0  0  0  0  0  0  0
  149.1217  133.6323  154.2588 C   0  0  0  0  0  0  0  0  0  0  0  0
  147.6811  134.1796  154.1858 C   0  0  0  0  0  0  0  0  0  0  0  0
  147.1820  134.2886  152.7943 N   0  3  0  0  0  0  0  0  0  0  0  0
  147.2681  133.0400  152.0160 C   0  0  0  0  0  0  0  0  0  0  0  0
  146.3143  133.2276  150.8329 C   0  0  0  0  0  0  0  0  0  0  0  0
  145.3483  134.3415  151.2557 C   0  0  0  0  0  0  0  0  0  0  0  0
  145.7888  134.7553  152.6627 C   0  0  0  0  0  0  0  0  0  0  0  0
  150.0316  138.6344  155.5210 S   0  0  0  0  0  0  0  0  0  0  0  0
  150.5805  142.0760  155.2727 H   0  0  0  0  0  0  0  0  0  0  0  0
  151.2766  141.7501  156.8706 H   0  0  0  0  0  0  0  0  0  0  0  0
  149.6038  141.2837  156.5212 H   0  0  0  0  0  0  0  0  0  0  0  0
  150.6898  134.6281  153.2380 H   0  0  0  0  0  0  0  0  0  0  0  0
  149.2655  132.8393  153.5233 H   0  0  0  0  0  0  0  0  0  0  0  0
  149.2933  133.1778  155.2347 H   0  0  0  0  0  0  0  0  0  0  0  0
  147.0202  133.5033  154.7296 H   0  0  0  0  0  0  0  0  0  0  0  0
  147.6132  135.1437  154.6913 H   0  0  0  0  0  0  0  0  0  0  0  0
  148.2915  132.8346  151.7005 H   0  0  0  0  0  0  0  0  0  0  0  0
  146.9298  132.2043  152.6308 H   0  0  0  0  0  0  0  0  0  0  0  0
  146.8686  133.5367  149.9459 H   0  0  0  0  0  0  0  0  0  0  0  0
  145.7930  132.3014  150.5886 H   0  0  0  0  0  0  0  0  0  0  0  0
  145.4335  135.1849  150.5692 H   0  0  0  0  0  0  0  0  0  0  0  0
  144.3087  134.0121  151.2430 H   0  0  0  0  0  0  0  0  0  0  0  0
  145.1642  134.2530  153.4032 H   0  0  0  0  0  0  0  0  0  0  0  0
  145.7055  135.8304  152.8249 H   0  0  0  0  0  0  0  0  0  0  0  0
  147.7646  134.9628  152.3172 H   0  0  0  0  0  0  0  0  0  0  0  0
  1  2  1  0  0  0  0
  1 18  1  0  0  0  0
  1 19  1  0  0  0  0
  1 20  1  0  0  0  0
  2 17  1  0  0  0  0
  2  3  2  0  0  0  0
  3  4  1  0  0  0  0
  4  5  2  0  0  0  0
  5  6  1  0  0  0  0
  5 17  1  0  0  0  0
  6  7  1  0  0  0  0
  7  8  2  0  0  0  0
  7  9  1  0  0  0  0
  9 10  1  0  0  0  0
  9 21  1  0  0  0  0
 10 11  1  0  0  0  0
 10 22  1  0  0  0  0
 10 23  1  0  0  0  0
 11 12  1  0  0  0  0
 11 24  1  0  0  0  0
 11 25  1  0  0  0  0
 12 16  1  0  0  0  0
 12 13  1  0  0  0  0
 12 34  1  0  0  0  0
 13 14  1  0  0  0  0
 13 26  1  0  0  0  0
 13 27  1  0  0  0  0
 14 15  1  0  0  0  0
 14 28  1  0  0  0  0
 14 29  1  0  0  0  0
 15 16  1  0  0  0  0
 15 30  1  0  0  0  0
 15 31  1  0  0  0  0
 16 32  1  0  0  0  0
 16 33  1  0  0  0  0
M  CHG  1   6  -1
M  CHG  1  12   1
M  END
> <s_m_source_file>
AV-unprocessed.smi

> <i_m_source_file_index>
1642

> <i_lp_mmshare_version>
43012

> <i_f3d_flags>
0

> <s_epik_input>
W0NIM11jMW5uYyhzMSlbTkhdQyg9TylbTkhdW0NIMl1bQ0gyXU4yW0NIMl1bQ0gyXVtDSDJdW0NIMl0y

> <s_epik_cmdline>
J2VwaWtfcHl0aG9uJywgJy1waCcsICc3LjAnLCAnLXRuJywgJzgnLCAnLW1hJywgJzIwMCcsICctbWV0YWxfYmluZGluZycsICctaW1hZScsICc8aW5maWxlLm1hZT4nLCAnLW9tYWUnLCAnPG91dGZpbGUubWFlPic=

> <r_lp_tautomer_probability>
1

> <r_epik_Ionization_Penalty>
3.03741

> <r_epik_Ionization_Penalty_Charging>
2.9298

> <r_epik_Ionization_Penalty_Neutral>
0.107609

> <r_epik_State_Penalty>
2.92509

> <r_epik_Charging_Adjusted_Penalty>
5.85489

> <i_epik_Tot_Q>
0

> <i_epik_Tot_abs_Q>
2

> <r_epik_Metal_State_Penalty>
0.448209

> <b_epik_Metal_Only>
1

> <s_lp_Force_Field>
OPLS_2005

> <r_lp_Energy>
24.3805

> <b_lp_Chiralities_Consistent>
1

> <s_lp_Variant>
AV-unprocessed.smi:1642-2

> <Gold.Version>
5.8.1

> <Gold.Id.Protein>
6NUR|6NUR_protein|mol2

> <Gold.PLP.Fitness>
42.6606

> <Gold.PLP.PLP>
-28.3211

> <Gold.PLP.part.hbond>
-5.6738

> <Gold.PLP.part.metal>
0.0000

> <Gold.PLP.part.buried>
-1.9055

> <Gold.PLP.part.nonpolar>
-20.6336

> <Gold.PLP.part.repulsive>
0.3002

> <Gold.PLP.ligand.clash>
0.0000

> <Gold.PLP.ligand.torsion>
0.4115

> <Gold.PLP.Chemscore.Hbond>
5.0419

> <Gold.PLP.Chemscore.CHOScore>
0.0000

> <Gold.PLP.Chemscore.Metal>
0.0000

> <Gold.Chemscore.Hbonds>
donor molecule, donor type, donor heavy atom, donor atom, acceptor molecule, acceptor atom, score
      L1  H     9    21       P1  7949  0.06
      L1  H    12    34       P1  7948  2.00
      P1  H  7989  7998       L1     3  0.05
      P1  H  7997  8010       L1     3  0.35
      P1  H 10752 10763       L1     6  2.00

> <Gold.PLP.Chemscore.Internal.Correction>
0.0366

> <Gold.Rescore>
     Score         DG    S(hbond)    S(metal)    S(lipo)     H(rot)  DE(clash)    DE(int)     intcor
     13.38     -15.40       2.60        0.00      45.45       1.60       0.14       1.87       ----

> <Gold.Chemscore.Fitness>
13.3840

> <Gold.Chemscore.DG>
-15.3991

> <Gold.Chemscore.ZeroCoef>
-5.4800

> <Gold.Chemscore.Hbond>
2.6048

> <Gold.Chemscore.Metal>
0.0000

> <Gold.Chemscore.Lipo>
45.4460

> <Gold.Chemscore.Internal_Hbond>
0.0000

> <Gold.Chemscore.DEClash>
0.1423

> <Gold.Chemscore.DEInternal>
1.8728

> <Gold.Chemscore.Rot>
1.6008

> <Gold.Chemscore.Internal.Correction>
   9.000000E+99

> <Gold.Chemscore.Hbonds>
donor molecule, donor type, donor heavy atom, donor atom, acceptor molecule, acceptor atom, score
      L1  H    12    34       P1  7948  0.91
      P1  H  7997  8010       L1     3  0.05
      P1  H 10752 10763       L1     6  0.79

> <Gold.Chemscore.Hbond.Weighted>
-8.7000

> <Gold.Chemscore.Metal.Weighted>
-0.0000

> <Gold.Chemscore.Lipo.Weighted>
-5.3172

> <Gold.Chemscore.Internal_Hbond.Weighted>
0.0000

> <Gold.Chemscore.DEClash.Weighted>
0.1423

> <Gold.Chemscore.DEInternal.Weighted>
1.8728

> <Gold.Chemscore.Rot.Weighted>
4.0982

> <Gold.Chemscore.Internal.Correction.Weighted>
   9.000000E+99

> <Gold.Protein.RotatedTorsions>
[ 6907 6896 6895 6894 ] final -156.88 input  -60.11 | X-H torsion
[ 7974 7965 7964 7962 ] final   22.17 input  175.53 | X-H torsion
[ 8008 7997 7996 7995 ] final  107.19 input   59.86 | X-H torsion
[ 10167 10162 10161 10158 ] final   13.10 input  -65.29 | X-H torsion
[ 10718 10713 10712 10709 ] final   30.42 input   66.30 | X-H torsion
[ 10763 10752 10751 10750 ] final   56.58 input  -60.55 | X-H torsion
[ 11005 11000 10999 10996 ] final -126.42 input  -57.11 | X-H torsion

> <Gold.Protein.ActiveResidues>
 VAL166  LYS551  ARG553  GLY616  TRP617  ASP618  TYR619  PRO620  LYS621  CYS622 
 ASP623  PHE694  ASN695  SER759  ASP760  ASP761  ALA762  ILE779  LEU786  VAL792 
 PHE793  MET794  SER795  GLU796  ALA797  LYS798  CYS799  TRP800  GLU811  SER814 

> <Gold.Protein.RotatedAtoms>
  151.2943  133.4151  159.2634 H   0  0  0  0  0  0  0  0  0  0  0  0  # atno 6907 bound_to 6896
  151.0250  134.9498  159.8090 H   0  0  0  0  0  0  0  0  0  0  0  0  # atno 6908 bound_to 6896
  152.5333  134.2905  159.9094 H   0  0  0  0  0  0  0  0  0  0  0  0  # atno 6909 bound_to 6896
  146.2040  139.7923  142.8740 H   0  0  0  0  0  0  0  0  0  0  0  0  # atno 7974 bound_to 7965
  156.1804  140.3099  155.9138 H   0  0  0  0  0  0  0  0  0  0  0  0  # atno 8008 bound_to 7997
  155.3396  140.0465  157.3061 H   0  0  0  0  0  0  0  0  0  0  0  0  # atno 8009 bound_to 7997
  154.5336  140.2239  155.8771 H   0  0  0  0  0  0  0  0  0  0  0  0  # atno 8010 bound_to 7997
  140.6025  143.8576  150.6979 H   0  0  0  0  0  0  0  0  0  0  0  0  # atno 10167 bound_to 10162
  157.2593  130.7153  149.6445 H   0  0  0  0  0  0  0  0  0  0  0  0  # atno 10718 bound_to 10713
  152.9834  135.5671  154.5251 H   0  0  0  0  0  0  0  0  0  0  0  0  # atno 10763 bound_to 10752
  154.4732  135.2785  155.1628 H   0  0  0  0  0  0  0  0  0  0  0  0  # atno 10764 bound_to 10752
  154.3168  135.6277  153.5543 H   0  0  0  0  0  0  0  0  0  0  0  0  # atno 10765 bound_to 10752
  140.9683  134.0841  157.3897 H   0  0  0  0  0  0  0  0  0  0  0  0  # atno 11005 bound_to 11000
  145.3384  141.0282  143.3406 LP  0  0  0  0  0  0  0  0  0  0  0  0  # atno 17320 bound_to 7965
  144.8749  139.4985  143.6750 LP  0  0  0  0  0  0  0  0  0  0  0  0  # atno 17321 bound_to 7965
  140.2125  143.3872  152.1707 LP  0  0  0  0  0  0  0  0  0  0  0  0  # atno 17342 bound_to 10162
  139.5301  144.7149  151.5087 LP  0  0  0  0  0  0  0  0  0  0  0  0  # atno 17343 bound_to 10162
  155.9664  130.4402  150.5292 LP  0  0  0  0  0  0  0  0  0  0  0  0  # atno 17370 bound_to 10713
  157.3193  131.0679  151.1944 LP  0  0  0  0  0  0  0  0  0  0  0  0  # atno 17371 bound_to 10713
  139.8902  135.0111  156.6726 LP  0  0  0  0  0  0  0  0  0  0  0  0  # atno 17394 bound_to 11000
  140.7367  133.9013  155.8249 LP  0  0  0  0  0  0  0  0  0  0  0  0  # atno 17395 bound_to 11000

$$$$
