AV-unprocessed.smi:160|AV-procd|sdf|1352|dock8
  -GOLD-   2262019 53D 1   1.00000     0.00000
 Structure written by MMmdl.
 29 30  0  0  0  0  0  0  0  0  1 V2000
  142.5215  134.5804  154.9260 N   0  0  0  0  0  0  0  0  0  0  0  0
  142.9209  135.8189  154.6187 C   0  0  0  0  0  0  0  0  0  0  0  0
  142.6695  136.7878  155.3334 O   0  0  0  0  0  0  0  0  0  0  0  0
  143.7069  135.9668  153.3450 C   0  0  0  0  0  0  0  0  0  0  0  0
  144.3173  137.1459  153.0259 N   0  0  0  0  0  0  0  0  0  0  0  0
  144.8512  136.7962  151.8627 C   0  0  0  0  0  0  0  0  0  0  0  0
  144.6124  135.5273  151.5085 N   0  0  0  0  0  0  0  0  0  0  0  0
  144.9826  134.7574  150.2765 C   0  0  1  0  0  0  0  0  0  0  0  0
  145.7220  133.6398  150.6572 O   0  0  0  0  0  0  0  0  0  0  0  0
  144.8324  132.5659  150.9323 C   0  0  2  0  0  0  0  0  0  0  0  0
  145.5898  131.2304  150.8816 C   0  0  0  0  0  0  0  0  0  0  0  0
  146.6960  131.2661  151.7578 O   0  0  0  0  0  0  0  0  0  0  0  0
  143.7849  132.7178  149.8226 C   0  0  1  0  0  0  0  0  0  0  0  0
  142.5325  132.2383  150.2693 O   0  0  0  0  0  0  0  0  0  0  0  0
  143.7229  134.2253  149.5673 C   0  0  2  0  0  0  0  0  0  0  0  0
  143.7580  134.4962  148.1808 O   0  0  0  0  0  0  0  0  0  0  0  0
  143.8343  134.9685  152.4687 N   0  0  0  0  0  0  0  0  0  0  0  0
  145.5785  135.4593  149.6912 H   0  0  0  0  0  0  0  0  0  0  0  0
  144.3664  132.7139  151.9087 H   0  0  0  0  0  0  0  0  0  0  0  0
  144.0994  132.1801  148.9264 H   0  0  0  0  0  0  0  0  0  0  0  0
  142.8254  134.6760  149.9938 H   0  0  0  0  0  0  0  0  0  0  0  0
  141.9912  134.4170  155.7692 H   0  0  0  0  0  0  0  0  0  0  0  0
  142.7554  133.8150  154.3105 H   0  0  0  0  0  0  0  0  0  0  0  0
  145.4260  137.4818  151.2573 H   0  0  0  0  0  0  0  0  0  0  0  0
  144.9394  130.4194  151.2103 H   0  0  0  0  0  0  0  0  0  0  0  0
  145.9146  130.9954  149.8674 H   0  0  0  0  0  0  0  0  0  0  0  0
  147.4881  131.2600  151.2423 H   0  0  0  0  0  0  0  0  0  0  0  0
  142.2680  131.5264  149.7070 H   0  0  0  0  0  0  0  0  0  0  0  0
  144.6328  134.7700  147.9510 H   0  0  0  0  0  0  0  0  0  0  0  0
  1  2  1  0  0  0  0
  1 22  1  0  0  0  0
  1 23  1  0  0  0  0
  2  3  2  0  0  0  0
  2  4  1  0  0  0  0
  4 17  2  0  0  0  0
  4  5  1  0  0  0  0
  5  6  2  0  0  0  0
  6  7  1  0  0  0  0
  6 24  1  0  0  0  0
  7  8  1  0  0  0  0
  7 17  1  0  0  0  0
  8 18  1  0  0  0  0
  8 15  1  0  0  0  0
  8  9  1  0  0  0  0
  9 10  1  0  0  0  0
 10 19  1  0  0  0  0
 10 11  1  0  0  0  0
 10 13  1  0  0  0  0
 11 12  1  0  0  0  0
 11 25  1  0  0  0  0
 11 26  1  0  0  0  0
 12 27  1  0  0  0  0
 13 20  1  0  0  0  0
 13 14  1  0  0  0  0
 13 15  1  0  0  0  0
 14 28  1  0  0  0  0
 15 21  1  0  0  0  0
 15 16  1  0  0  0  0
 16 29  1  0  0  0  0
M  END
> <s_m_source_file>
AV-unprocessed.smi

> <i_m_source_file_index>
160

> <i_lp_mmshare_version>
43012

> <i_f3d_flags>
0

> <s_epik_input>
W05IMl1DKD1PKWMxbltjSF1uKG4xKVtDQEBIXTJPW0NASF0oW0NIMl1bT0hdKVtDQEBIXShbT0hdKVtDQEhdMltPSF0=

> <s_epik_cmdline>
J2VwaWtfcHl0aG9uJywgJy1waCcsICc3LjAnLCAnLXRuJywgJzgnLCAnLW1hJywgJzIwMCcsICctbWV0YWxfYmluZGluZycsICctaW1hZScsICc8aW5maWxlLm1hZT4nLCAnLW9tYWUnLCAnPG91dGZpbGUubWFlPic=

> <r_lp_tautomer_probability>
1

> <r_epik_Ionization_Penalty>
1.06932e-05

> <r_epik_Ionization_Penalty_Charging>
0

> <r_epik_Ionization_Penalty_Neutral>
1.06932e-05

> <r_epik_State_Penalty>
-0

> <r_epik_Charging_Adjusted_Penalty>
0

> <i_epik_Tot_Q>
0

> <i_epik_Tot_abs_Q>
0

> <r_epik_Metal_State_Penalty>
0.0142097

> <b_epik_Metal_Only>
0

> <s_epik_Chemistry_Notes>
This compound contains an acetal/aminal-like group ( X-CH(R)-Y where X, Y are N, S, or O) that may be acid/base labile, releasing an aldehyde.

> <s_lp_Force_Field>
OPLS_2005

> <r_lp_Energy>
33.6029

> <b_lp_Chiralities_Consistent>
1

> <s_lp_Variant>
AV-unprocessed.smi:160-10

> <Gold.Version>
5.8.1

> <Gold.Id.Protein>
6NUR|6NUR_protein|mol2

> <Gold.PLP.Fitness>
40.0724

> <Gold.PLP.PLP>
-23.4953

> <Gold.PLP.part.hbond>
-7.5133

> <Gold.PLP.part.metal>
0.0000

> <Gold.PLP.part.buried>
1.4688

> <Gold.PLP.part.nonpolar>
-18.4984

> <Gold.PLP.part.repulsive>
0.4842

> <Gold.PLP.ligand.clash>
0.0000

> <Gold.PLP.ligand.torsion>
0.0970

> <Gold.PLP.Chemscore.Hbond>
5.0123

> <Gold.PLP.Chemscore.CHOScore>
0.5635

> <Gold.PLP.Chemscore.Metal>
0.0000

> <Gold.Chemscore.Hbonds>
donor molecule, donor type, donor heavy atom, donor atom, acceptor molecule, acceptor atom, score
      L1  H     1    22       P1 11000  1.00
      L1  H     1    23       P1 10957  0.42
      L1  H    12    27       P1 10747  1.00
      L1  H    14    28       P1 10952  0.74
      L1  H    16    29       P1  7921  0.96
      P1  H 10192 10197       L1    16  0.76
      L1  C     6    24       P1 10171  0.54

> <Gold.PLP.Chemscore.Internal.Correction>
0.0437

> <Gold.Rescore>
     Score         DG    S(hbond)    S(metal)    S(lipo)     H(rot)  DE(clash)    DE(int)     intcor
     13.65     -16.63       5.08        0.00      39.22       4.06       1.98       1.00       ----

> <Gold.Chemscore.Fitness>
13.6471

> <Gold.Chemscore.DG>
-16.6267

> <Gold.Chemscore.ZeroCoef>
-5.4800

> <Gold.Chemscore.Hbond>
5.0752

> <Gold.Chemscore.Metal>
0.0000

> <Gold.Chemscore.Lipo>
39.2231

> <Gold.Chemscore.Internal_Hbond>
0.0000

> <Gold.Chemscore.DEClash>
1.9834

> <Gold.Chemscore.DEInternal>
0.9962

> <Gold.Chemscore.Rot>
4.0600

> <Gold.Chemscore.Internal.Correction>
   9.000000E+99

> <Gold.Chemscore.Hbonds>
donor molecule, donor type, donor heavy atom, donor atom, acceptor molecule, acceptor atom, score
      L1  H     1    22       P1 11000  0.53
      L1  H     1    23       P1 10957  0.42
      L1  H    12    27       P1 10747  1.00
      L1  H    14    28       P1 10952  0.73
      L1  H    16    29       P1  7921  0.91
      P1  H 10192 10197       L1    16  0.73

> <Gold.Chemscore.Hbond.Weighted>
-16.9512

> <Gold.Chemscore.Metal.Weighted>
-0.0000

> <Gold.Chemscore.Lipo.Weighted>
-4.5891

> <Gold.Chemscore.Internal_Hbond.Weighted>
0.0000

> <Gold.Chemscore.DEClash.Weighted>
1.9834

> <Gold.Chemscore.DEInternal.Weighted>
0.9962

> <Gold.Chemscore.Rot.Weighted>
10.3936

> <Gold.Chemscore.Internal.Correction.Weighted>
   9.000000E+99

> <Gold.Protein.RotatedTorsions>
[ 6907 6896 6895 6894 ] final  174.52 input  -60.11 | X-H torsion
[ 7974 7965 7964 7962 ] final  -69.23 input  175.53 | X-H torsion
[ 8008 7997 7996 7995 ] final   66.69 input   59.86 | X-H torsion
[ 10167 10162 10161 10158 ] final   -3.30 input  -65.29 | X-H torsion
[ 10718 10713 10712 10709 ] final  -97.34 input   66.30 | X-H torsion
[ 10763 10752 10751 10750 ] final   95.50 input  -60.55 | X-H torsion
[ 11005 11000 10999 10996 ] final  162.55 input  -57.11 | X-H torsion

> <Gold.Protein.ActiveResidues>
 VAL166  LYS551  ARG553  GLY616  TRP617  ASP618  TYR619  PRO620  LYS621  CYS622 
 ASP623  PHE694  ASN695  SER759  ASP760  ASP761  ALA762  ILE779  LEU786  VAL792 
 PHE793  MET794  SER795  GLU796  ALA797  LYS798  CYS799  TRP800  GLU811  SER814 

> <Gold.Protein.RotatedAtoms>
  151.7509  133.3327  159.3391 H   0  0  0  0  0  0  0  0  0  0  0  0  # atno 6907 bound_to 6896
  150.7535  134.6193  159.6137 H   0  0  0  0  0  0  0  0  0  0  0  0  # atno 6908 bound_to 6896
  152.3469  134.7061  160.0299 H   0  0  0  0  0  0  0  0  0  0  0  0  # atno 6909 bound_to 6896
  145.7064  140.9096  143.0704 H   0  0  0  0  0  0  0  0  0  0  0  0  # atno 7974 bound_to 7965
  155.6812  140.3496  155.4856 H   0  0  0  0  0  0  0  0  0  0  0  0  # atno 8008 bound_to 7997
  155.9605  140.1136  157.0922 H   0  0  0  0  0  0  0  0  0  0  0  0  # atno 8009 bound_to 7997
  154.4142  140.1176  156.5158 H   0  0  0  0  0  0  0  0  0  0  0  0  # atno 8010 bound_to 7997
  140.6885  143.6556  150.8311 H   0  0  0  0  0  0  0  0  0  0  0  0  # atno 10167 bound_to 10162
  156.0081  130.5190  150.6360 H   0  0  0  0  0  0  0  0  0  0  0  0  # atno 10718 bound_to 10713
  153.2539  135.4252  155.0825 H   0  0  0  0  0  0  0  0  0  0  0  0  # atno 10763 bound_to 10752
  154.8393  135.3432  154.6473 H   0  0  0  0  0  0  0  0  0  0  0  0  # atno 10764 bound_to 10752
  153.6894  135.7034  153.5151 H   0  0  0  0  0  0  0  0  0  0  0  0  # atno 10765 bound_to 10752
  140.2269  134.8153  157.3278 H   0  0  0  0  0  0  0  0  0  0  0  0  # atno 11005 bound_to 11000
  144.6954  139.9016  143.7459 LP  0  0  0  0  0  0  0  0  0  0  0  0  # atno 17320 bound_to 7965
  146.0752  139.3740  143.0498 LP  0  0  0  0  0  0  0  0  0  0  0  0  # atno 17321 bound_to 7965
  140.0266  143.5487  152.2778 LP  0  0  0  0  0  0  0  0  0  0  0  0  # atno 17342 bound_to 10162
  139.6264  144.7638  151.2629 LP  0  0  0  0  0  0  0  0  0  0  0  0  # atno 17343 bound_to 10162
  157.4149  131.0829  151.1186 LP  0  0  0  0  0  0  0  0  0  0  0  0  # atno 17370 bound_to 10713
  157.1806  130.6307  149.5670 LP  0  0  0  0  0  0  0  0  0  0  0  0  # atno 17371 bound_to 10713
  140.1791  134.4512  155.7783 LP  0  0  0  0  0  0  0  0  0  0  0  0  # atno 17394 bound_to 11000
  141.2220  133.6975  156.7838 LP  0  0  0  0  0  0  0  0  0  0  0  0  # atno 17395 bound_to 11000

$$$$
