AV-unprocessed.smi:2315|AV-procd|sdf|9268|dock9
  -GOLD-   2272012493D 1   1.00000     0.00000
 Structure written by MMmdl.
 40 41  0  0  0  0  0  0  0  0  1 V2000
  144.6248  136.6731  152.6020 O   0  0  0  0  0  0  0  0  0  0  0  0
  145.8246  136.5732  152.3460 C   0  0  0  0  0  0  0  0  0  0  0  0
  146.7303  137.5029  152.6827 N   0  0  0  0  0  0  0  0  0  0  0  0
  146.4325  138.7523  153.3746 C   0  0  0  0  0  0  0  0  0  0  0  0
  147.1595  138.8365  154.7327 C   0  0  0  0  0  0  0  0  0  0  0  0
  148.5882  138.2643  154.7107 C   0  0  0  0  0  0  0  0  0  0  0  0
  148.7453  137.0482  154.8321 O   0  0  0  0  0  0  0  0  0  0  0  0
  149.6332  139.1140  154.5543 N   0  0  0  0  0  0  0  0  0  0  0  0
  151.0528  138.7337  154.5658 C   0  0  0  0  0  0  0  0  0  0  0  0
  151.6964  139.2582  155.8624 C   0  0  0  0  0  0  0  0  0  0  0  0
  151.5070  140.7817  155.9917 C   0  0  0  0  0  0  0  0  0  0  0  0
  150.0368  141.1918  155.7843 C   0  0  0  0  0  0  0  0  0  0  0  0
  149.4667  140.5725  154.4944 C   0  0  0  0  0  0  0  0  0  0  0  0
  146.4060  135.5345  151.7213 N   0  0  0  0  0  0  0  0  0  0  0  0
  145.8075  134.3553  151.1977 C   0  0  0  0  0  0  0  0  0  0  0  0
  144.5622  134.3236  150.5239 C   0  0  0  0  0  0  0  0  0  0  0  0
  144.0895  133.0883  150.0362 C   0  0  0  0  0  0  0  0  0  0  0  0
  144.7648  131.9274  150.1707 N   0  0  0  0  0  0  0  0  0  0  0  0
  145.9568  131.9631  150.8026 C   0  0  0  0  0  0  0  0  0  0  0  0
  146.5202  133.1440  151.3263 C   0  0  0  0  0  0  0  0  0  0  0  0
  147.7252  133.1098  151.9453 F   0  0  0  0  0  0  0  0  0  0  0  0
  147.6960  137.3383  152.4386 H   0  0  0  0  0  0  0  0  0  0  0  0
  146.7486  139.5705  152.7265 H   0  0  0  0  0  0  0  0  0  0  0  0
  145.3535  138.8559  153.5051 H   0  0  0  0  0  0  0  0  0  0  0  0
  147.2083  139.8794  155.0484 H   0  0  0  0  0  0  0  0  0  0  0  0
  146.5805  138.2959  155.4825 H   0  0  0  0  0  0  0  0  0  0  0  0
  151.2229  137.6623  154.4741 H   0  0  0  0  0  0  0  0  0  0  0  0
  151.5477  139.1775  153.7006 H   0  0  0  0  0  0  0  0  0  0  0  0
  151.2460  138.7581  156.7210 H   0  0  0  0  0  0  0  0  0  0  0  0
  152.7582  139.0119  155.8818 H   0  0  0  0  0  0  0  0  0  0  0  0
  151.8615  141.1254  156.9638 H   0  0  0  0  0  0  0  0  0  0  0  0
  152.1242  141.2816  155.2441 H   0  0  0  0  0  0  0  0  0  0  0  0
  149.4421  140.8632  156.6378 H   0  0  0  0  0  0  0  0  0  0  0  0
  149.9543  142.2784  155.7490 H   0  0  0  0  0  0  0  0  0  0  0  0
  149.9977  140.9614  153.6244 H   0  0  0  0  0  0  0  0  0  0  0  0
  148.4273  140.8769  154.3662 H   0  0  0  0  0  0  0  0  0  0  0  0
  147.4128  135.5676  151.6533 H   0  0  0  0  0  0  0  0  0  0  0  0
  143.9704  135.2104  150.3602 H   0  0  0  0  0  0  0  0  0  0  0  0
  143.1438  133.0333  149.5177 H   0  0  0  0  0  0  0  0  0  0  0  0
  146.4792  131.0222  150.8916 H   0  0  0  0  0  0  0  0  0  0  0  0
  1  2  2  0  0  0  0
  2  3  1  0  0  0  0
  2 14  1  0  0  0  0
  3  4  1  0  0  0  0
  3 22  1  0  0  0  0
  4  5  1  0  0  0  0
  4 23  1  0  0  0  0
  4 24  1  0  0  0  0
  5  6  1  0  0  0  0
  5 25  1  0  0  0  0
  5 26  1  0  0  0  0
  6  7  2  0  0  0  0
  6  8  1  0  0  0  0
  8 13  1  0  0  0  0
  8  9  1  0  0  0  0
  9 10  1  0  0  0  0
  9 27  1  0  0  0  0
  9 28  1  0  0  0  0
 10 11  1  0  0  0  0
 10 29  1  0  0  0  0
 10 30  1  0  0  0  0
 11 12  1  0  0  0  0
 11 31  1  0  0  0  0
 11 32  1  0  0  0  0
 12 13  1  0  0  0  0
 12 33  1  0  0  0  0
 12 34  1  0  0  0  0
 13 35  1  0  0  0  0
 13 36  1  0  0  0  0
 14 15  1  0  0  0  0
 14 37  1  0  0  0  0
 15 20  1  0  0  0  0
 15 16  2  0  0  0  0
 16 17  1  0  0  0  0
 16 38  1  0  0  0  0
 17 18  2  0  0  0  0
 17 39  1  0  0  0  0
 18 19  1  0  0  0  0
 19 20  2  0  0  0  0
 19 40  1  0  0  0  0
 20 21  1  0  0  0  0
M  END
> <s_m_source_file>
AV-unprocessed.smi

> <i_m_source_file_index>
2315

> <i_lp_mmshare_version>
43012

> <i_f3d_flags>
0

> <s_epik_input>
RmMxW2NIXW5bY0hdW2NIXWMxW05IXUMoPU8pW05IXVtDSDJdW0NIMl1DKD1PKU4yW0NIMl1bQ0gyXVtDSDJdW0NIMl1bQ0gyXTI=

> <s_epik_cmdline>
J2VwaWtfcHl0aG9uJywgJy1waCcsICc3LjAnLCAnLXRuJywgJzgnLCAnLW1hJywgJzIwMCcsICctbWV0YWxfYmluZGluZycsICctaW1hZScsICc8aW5maWxlLm1hZT4nLCAnLW9tYWUnLCAnPG91dGZpbGUubWFlPic=

> <r_epik_Ionization_Penalty>
0.00291221

> <r_epik_Ionization_Penalty_Charging>
0

> <r_epik_Ionization_Penalty_Neutral>
0.00291221

> <r_epik_State_Penalty>
0.0020173

> <r_epik_Charging_Adjusted_Penalty>
0.0020173

> <i_epik_Tot_Q>
0

> <i_epik_Tot_abs_Q>
0

> <r_epik_Metal_State_Penalty>
-0

> <b_epik_Metal_Only>
0

> <s_lp_Force_Field>
OPLS_2005

> <r_lp_Energy>
31.5376

> <b_lp_Chiralities_Consistent>
1

> <s_lp_Variant>
AV-unprocessed.smi:2315-1

> <Gold.Version>
5.8.1

> <Gold.Id.Protein>
6NUR|6NUR_protein|mol2

> <Gold.PLP.Fitness>
45.8632

> <Gold.PLP.PLP>
-36.6611

> <Gold.PLP.part.hbond>
-2.0000

> <Gold.PLP.part.metal>
0.0000

> <Gold.PLP.part.buried>
-2.8955

> <Gold.PLP.part.nonpolar>
-31.6803

> <Gold.PLP.part.repulsive>
1.0142

> <Gold.PLP.ligand.clash>
0.0000

> <Gold.PLP.ligand.torsion>
0.7221

> <Gold.PLP.Chemscore.Hbond>
2.0000

> <Gold.PLP.Chemscore.CHOScore>
1.5415

> <Gold.PLP.Chemscore.Metal>
0.0000

> <Gold.Chemscore.Hbonds>
donor molecule, donor type, donor heavy atom, donor atom, acceptor molecule, acceptor atom, score
      L1  H     3    22       P1  7948  0.99
      L1  H    14    37       P1  7948  1.00
      L1  C    17    39       P1 10186  0.96
      L1  C    19    40       P1 10747  0.73

> <Gold.PLP.Chemscore.Internal.Correction>
0.0219

> <Gold.Rescore>
     Score         DG    S(hbond)    S(metal)    S(lipo)     H(rot)  DE(clash)    DE(int)     intcor
     15.03     -16.89       1.95        0.00      76.28       1.57       0.01       1.85       ----

> <Gold.Chemscore.Fitness>
15.0309

> <Gold.Chemscore.DG>
-16.8899

> <Gold.Chemscore.ZeroCoef>
-5.4800

> <Gold.Chemscore.Hbond>
1.9498

> <Gold.Chemscore.Metal>
0.0000

> <Gold.Chemscore.Lipo>
76.2789

> <Gold.Chemscore.Internal_Hbond>
0.0000

> <Gold.Chemscore.DEClash>
0.0101

> <Gold.Chemscore.DEInternal>
1.8489

> <Gold.Chemscore.Rot>
1.5731

> <Gold.Chemscore.Internal.Correction>
   9.000000E+99

> <Gold.Chemscore.Hbonds>
donor molecule, donor type, donor heavy atom, donor atom, acceptor molecule, acceptor atom, score
      L1  H     3    22       P1  7948  0.94
      L1  H    14    37       P1  7948  0.98

> <Gold.Chemscore.Hbond.Weighted>
-6.5124

> <Gold.Chemscore.Metal.Weighted>
-0.0000

> <Gold.Chemscore.Lipo.Weighted>
-8.9246

> <Gold.Chemscore.Internal_Hbond.Weighted>
0.0000

> <Gold.Chemscore.DEClash.Weighted>
0.0101

> <Gold.Chemscore.DEInternal.Weighted>
1.8489

> <Gold.Chemscore.Rot.Weighted>
4.0271

> <Gold.Chemscore.Internal.Correction.Weighted>
   9.000000E+99

> <Gold.Protein.RotatedTorsions>
[ 6907 6896 6895 6894 ] final  103.58 input  -60.11 | X-H torsion
[ 7974 7965 7964 7962 ] final  138.44 input  175.53 | X-H torsion
[ 8008 7997 7996 7995 ] final  174.68 input   59.86 | X-H torsion
[ 10167 10162 10161 10158 ] final -145.01 input  -65.29 | X-H torsion
[ 10718 10713 10712 10709 ] final  -64.98 input   66.30 | X-H torsion
[ 10763 10752 10751 10750 ] final   36.37 input  -60.55 | X-H torsion
[ 11005 11000 10999 10996 ] final  163.96 input  -57.11 | X-H torsion

> <Gold.Protein.ActiveResidues>
 VAL166  LYS551  ARG553  GLY616  TRP617  ASP618  TYR619  PRO620  LYS621  CYS622 
 ASP623  PHE694  ASN695  SER759  ASP760  ASP761  ALA762  ILE779  LEU786  VAL792 
 PHE793  MET794  SER795  GLU796  ALA797  LYS798  CYS799  TRP800  GLU811  SER814 

> <Gold.Protein.RotatedAtoms>
  152.5291  133.9805  159.7804 H   0  0  0  0  0  0  0  0  0  0  0  0  # atno 6907 bound_to 6896
  151.0060  133.6003  159.2696 H   0  0  0  0  0  0  0  0  0  0  0  0  # atno 6908 bound_to 6896
  151.3095  135.0797  159.9320 H   0  0  0  0  0  0  0  0  0  0  0  0  # atno 6909 bound_to 6896
  144.9372  139.4975  143.5589 H   0  0  0  0  0  0  0  0  0  0  0  0  # atno 7974 bound_to 7965
  156.0949  140.1428  156.9543 H   0  0  0  0  0  0  0  0  0  0  0  0  # atno 8008 bound_to 7997
  154.4665  140.0924  156.7081 H   0  0  0  0  0  0  0  0  0  0  0  0  # atno 8009 bound_to 7997
  155.4857  140.3446  155.4349 H   0  0  0  0  0  0  0  0  0  0  0  0  # atno 8010 bound_to 7997
  139.7845  143.8053  152.2643 H   0  0  0  0  0  0  0  0  0  0  0  0  # atno 10167 bound_to 10162
  156.0696  130.4241  150.1498 H   0  0  0  0  0  0  0  0  0  0  0  0  # atno 10718 bound_to 10713
  153.0080  135.6307  154.1975 H   0  0  0  0  0  0  0  0  0  0  0  0  # atno 10763 bound_to 10752
  154.1718  135.2818  155.3080 H   0  0  0  0  0  0  0  0  0  0  0  0  # atno 10764 bound_to 10752
  154.5903  135.5620  153.7332 H   0  0  0  0  0  0  0  0  0  0  0  0  # atno 10765 bound_to 10752
  140.2411  134.8050  157.3412 H   0  0  0  0  0  0  0  0  0  0  0  0  # atno 11005 bound_to 11000
  146.3271  139.8365  142.8898 LP  0  0  0  0  0  0  0  0  0  0  0  0  # atno 17320 bound_to 7965
  145.3048  141.0204  143.3588 LP  0  0  0  0  0  0  0  0  0  0  0  0  # atno 17321 bound_to 7965
  139.8126  144.7329  150.9677 LP  0  0  0  0  0  0  0  0  0  0  0  0  # atno 17342 bound_to 10162
  140.7819  143.4236  151.0803 LP  0  0  0  0  0  0  0  0  0  0  0  0  # atno 17343 bound_to 10162
  156.9552  130.9787  151.3490 LP  0  0  0  0  0  0  0  0  0  0  0  0  # atno 17370 bound_to 10713
  157.5759  130.8343  149.8455 LP  0  0  0  0  0  0  0  0  0  0  0  0  # atno 17371 bound_to 10713
  140.1652  134.4678  155.7868 LP  0  0  0  0  0  0  0  0  0  0  0  0  # atno 17394 bound_to 11000
  141.2210  133.6918  156.7613 LP  0  0  0  0  0  0  0  0  0  0  0  0  # atno 17395 bound_to 11000

$$$$
