#       Name:                AV-unprocessed.smi:432
#       Creating user name   scv26
#       Creation time:       Thu Mar 26 22:51:27 2020


#       File generated by GOLD software.
#

@<TRIPOS>MOLECULE
AV-unprocessed.smi:432
    36    37     1
SMALL
NO_CHARGES


@<TRIPOS>ATOM
      1 ****        -0.4306   1.2516  -0.8008 O.2            1 S1                 0.0000
      2 ****         0.2243   0.2240  -0.6190 C.2            1 S1                 0.0000
      3 ****         1.7588   0.2646  -0.5573 C.3            1 S1                 0.0000
      4 ****         2.3063   1.6150  -0.3560 N.am           1 S1                 0.0000
      5 ****         2.7995   2.2005  -1.5089 N.2            1 S1                 0.0000
      6 ****         3.2935   3.3892  -1.4553 C.2            1 S1                 0.0000
      7 ****         3.3549   4.1434  -0.2228 C.2            1 S1                 0.0000
      8 ****         4.0267   5.7359  -0.2134 Cl             1 S1                 0.0000
      9 ****         2.8745   3.5579   0.9029 C.2            1 S1                 0.0000
     10 ****         2.9139   4.3975   2.4156 Cl             1 S1                 0.0000
     11 ****         2.3079   2.2022   0.8806 C.2            1 S1                 0.0000
     12 ****         1.8683   1.6337   1.8812 O.2            1 S1                 0.0000
     13 ****        -0.3344  -0.9869  -0.4736 N.am           1 S1                 0.0000
     14 ****        -1.7697  -1.2580  -0.4802 C.3            1 S1                 0.0000
     15 ****        -2.3828  -1.0556   0.9197 C.3            1 S1                 0.0000
     16 ****        -2.7093  -2.4550   1.4419 C.3            1 S1                 0.0000
     17 ****        -3.0297  -3.2561   0.1842 C.3            1 S1                 0.0000
     18 ****        -2.0498  -2.7241  -0.8631 C.3            1 S1                 0.0000
     19 ****         2.1061  -0.3970   0.2387 H              1 S1                 0.0000
     20 ****         2.1445  -0.1657  -1.4833 H              1 S1                 0.0000
     21 ****         3.6924   3.8906  -2.3372 H              1 S1                 0.0000
     22 ****         0.2774  -1.7778  -0.3332 H              1 S1                 0.0000
     23 ****        -2.2677  -0.5979  -1.1929 H              1 S1                 0.0000
     24 ****        -1.7346  -0.5056   1.6038 H              1 S1                 0.0000
     25 ****        -3.3064  -0.4828   0.8268 H              1 S1                 0.0000
     26 ****        -1.8323  -2.8785   1.9335 H              1 S1                 0.0000
     27 ****        -3.5285  -2.4546   2.1615 H              1 S1                 0.0000
     28 ****        -2.9392  -4.3320   0.3357 H              1 S1                 0.0000
     29 ****        -4.0531  -3.0485  -0.1311 H              1 S1                 0.0000
     30 ****        -2.4471  -2.8160  -1.8745 H              1 S1                 0.0000
     31 ****        -1.1334  -3.3153  -0.8236 H              1 S1                 0.0000
     32 ****         0.0362   2.1291  -0.9107 LP             1 S1                 0.0000
     33 ****        -1.4290   1.2082  -0.8384 LP             1 S1                 0.0000
     34 ****         2.7726   1.7048  -2.3769 LP             1 S1                 0.0000
     35 ****         1.4928   0.7099   1.8069 LP             1 S1                 0.0000
     36 ****         1.8869   2.0961   2.7677 LP             1 S1                 0.0000
@<TRIPOS>BOND
    1    1    2 2     
    2    2    3 1     
    3    2   13 am    
    4    3    4 1     
    5    3   19 1     
    6    3   20 1     
    7    4   11 am    
    8    4    5 1     
    9    5    6 2     
   10    6    7 1     
   11    6   21 1     
   12    7    8 1     
   13    7    9 2     
   14    9   10 1     
   15    9   11 1     
   16   11   12 2     
   17   13   14 1     
   18   13   22 1     
   19   14   18 1     
   20   14   15 1     
   21   14   23 1     
   22   15   16 1     
   23   15   24 1     
   24   15   25 1     
   25   16   17 1     
   26   16   26 1     
   27   16   27 1     
   28   17   18 1     
   29   17   28 1     
   30   17   29 1     
   31   18   30 1     
   32   18   31 1     
   33    1   32 1     
   34    1   33 1     
   35    5   34 1     
   36   12   35 1     
   37   12   36 1     
@<TRIPOS>SUBSTRUCTURE
      1 S1             1
@<TRIPOS>SET
LONE_PAIRS      STATIC     ATOMS    <user>   **** ""
5 32 33 34 35 36
DONOR_HYDROGENS      STATIC     ATOMS    <user>   **** ""
1 22
ATOM$BLUE        STATIC     ATOMS    COLORGROUP SYSTEM
5 32 33 34 35 36
ATOM$RED        STATIC     ATOMS    COLORGROUP SYSTEM
1 22
