AV-unprocessed.smi:209|AV-procd|sdf|1610|dock8
  -GOLD-   2262019533D 1   1.00000     0.00000
 Structure written by MMmdl.
 48 52  0  0  0  0  0  0  0  0  1 V2000
  150.8327  145.1805  160.3442 O   0  0  0  0  0  0  0  0  0  0  0  0
  151.2222  144.6778  159.2922 C   0  0  0  0  0  0  0  0  0  0  0  0
  150.5710  144.6910  158.1303 N   0  0  0  0  0  0  0  0  0  0  0  0
  151.2474  143.9366  157.0886 C   0  0  0  0  0  0  0  0  0  0  0  0
  152.3397  143.1325  157.8365 C   0  0  1  0  0  0  0  0  0  0  0  0
  152.5577  143.9680  159.1219 C   0  0  2  0  0  0  0  0  0  0  0  0
  153.0792  143.1843  160.3449 C   0  0  0  0  0  0  0  0  0  0  0  0
  152.3935  141.8238  160.4957 C   0  0  0  0  0  0  0  0  0  0  0  0
  152.5191  141.0336  159.1901 C   0  0  0  0  0  0  0  0  0  0  0  0
  151.8754  141.7568  158.0969 N   0  0  0  0  0  0  0  0  0  0  0  0
  151.6425  140.9550  157.0258 C   0  0  0  0  0  0  0  0  0  0  0  0
  152.4990  139.9401  156.7329 N   0  0  0  0  0  0  0  0  0  0  0  0
  152.2643  139.1407  155.6885 C   0  0  0  0  0  0  0  0  0  0  0  0
  151.2516  139.1780  154.8203 N   0  0  0  0  0  0  0  0  0  0  0  0
  150.3925  140.1983  155.1053 C   0  0  0  0  0  0  0  0  0  0  0  0
  150.5116  141.1240  156.1794 C   0  0  0  0  0  0  0  0  0  0  0  0
  149.4532  142.0233  156.1491 N   0  0  0  0  0  0  0  0  0  0  0  0
  148.7443  141.6458  155.1201 C   0  0  0  0  0  0  0  0  0  0  0  0
  149.2404  140.5623  154.4293 N   0  0  0  0  0  0  0  0  0  0  0  0
  148.6547  139.9282  153.2570 C   0  0  0  0  0  0  0  0  0  0  0  0
  147.3386  139.1713  153.5289 C   0  0  0  0  0  0  0  0  0  0  0  0
  146.6388  138.8925  152.1833 C   0  0  0  0  0  0  0  0  0  0  0  0
  147.3644  137.9962  151.3658 O   0  0  0  0  0  0  0  0  0  0  0  0
  147.4984  137.9848  154.4920 C   0  0  0  0  0  0  0  0  0  0  0  0
  146.8853  138.7091  155.5811 O   0  0  0  0  0  0  0  0  0  0  0  0
  146.4668  139.7395  154.6589 C   0  0  0  0  0  0  0  0  0  0  0  0
  153.2637  143.0996  157.2576 H   0  0  0  0  0  0  0  0  0  0  0  0
  153.2735  144.7618  158.9035 H   0  0  0  0  0  0  0  0  0  0  0  0
  149.6633  145.1123  157.9952 H   0  0  0  0  0  0  0  0  0  0  0  0
  150.5406  143.3245  156.5277 H   0  0  0  0  0  0  0  0  0  0  0  0
  151.7013  144.6418  156.3917 H   0  0  0  0  0  0  0  0  0  0  0  0
  154.1522  143.0269  160.2287 H   0  0  0  0  0  0  0  0  0  0  0  0
  152.9607  143.7675  161.2587 H   0  0  0  0  0  0  0  0  0  0  0  0
  152.8492  141.2670  161.3149 H   0  0  0  0  0  0  0  0  0  0  0  0
  151.3417  141.9562  160.7528 H   0  0  0  0  0  0  0  0  0  0  0  0
  153.5697  140.8725  158.9445 H   0  0  0  0  0  0  0  0  0  0  0  0
  152.0730  140.0482  159.3267 H   0  0  0  0  0  0  0  0  0  0  0  0
  152.9914  138.3590  155.5252 H   0  0  0  0  0  0  0  0  0  0  0  0
  147.8317  142.1509  154.8395 H   0  0  0  0  0  0  0  0  0  0  0  0
  148.5007  140.6944  152.4961 H   0  0  0  0  0  0  0  0  0  0  0  0
  149.4024  139.2512  152.8410 H   0  0  0  0  0  0  0  0  0  0  0  0
  145.6516  138.4562  152.3356 H   0  0  0  0  0  0  0  0  0  0  0  0
  146.4953  139.8171  151.6235 H   0  0  0  0  0  0  0  0  0  0  0  0
  147.6768  137.2843  151.9032 H   0  0  0  0  0  0  0  0  0  0  0  0
  146.9261  137.0954  154.2257 H   0  0  0  0  0  0  0  0  0  0  0  0
  148.5358  137.7208  154.7008 H   0  0  0  0  0  0  0  0  0  0  0  0
  146.7542  140.7346  154.9960 H   0  0  0  0  0  0  0  0  0  0  0  0
  145.3941  139.6966  154.4657 H   0  0  0  0  0  0  0  0  0  0  0  0
  1  2  2  0  0  0  0
  2  6  1  0  0  0  0
  2  3  1  0  0  0  0
  3  4  1  0  0  0  0
  3 29  1  0  0  0  0
  4  5  1  0  0  0  0
  4 30  1  0  0  0  0
  4 31  1  0  0  0  0
  5 27  1  0  0  0  0
  5 10  1  0  0  0  0
  5  6  1  0  0  0  0
  6 28  1  0  0  0  0
  6  7  1  0  0  0  0
  7  8  1  0  0  0  0
  7 32  1  0  0  0  0
  7 33  1  0  0  0  0
  8  9  1  0  0  0  0
  8 34  1  0  0  0  0
  8 35  1  0  0  0  0
  9 10  1  0  0  0  0
  9 36  1  0  0  0  0
  9 37  1  0  0  0  0
 10 11  1  0  0  0  0
 11 16  1  0  0  0  0
 11 12  2  0  0  0  0
 12 13  1  0  0  0  0
 13 14  2  0  0  0  0
 13 38  1  0  0  0  0
 14 15  1  0  0  0  0
 15 19  1  0  0  0  0
 15 16  2  0  0  0  0
 16 17  1  0  0  0  0
 17 18  2  0  0  0  0
 18 19  1  0  0  0  0
 18 39  1  0  0  0  0
 19 20  1  0  0  0  0
 20 21  1  0  0  0  0
 20 40  1  0  0  0  0
 20 41  1  0  0  0  0
 21 26  1  0  0  0  0
 21 22  1  0  0  0  0
 21 24  1  0  0  0  0
 22 23  1  0  0  0  0
 22 42  1  0  0  0  0
 22 43  1  0  0  0  0
 23 44  1  0  0  0  0
 24 25  1  0  0  0  0
 24 45  1  0  0  0  0
 24 46  1  0  0  0  0
 25 26  1  0  0  0  0
 26 47  1  0  0  0  0
 26 48  1  0  0  0  0
M  END
> <s_m_source_file>
AV-unprocessed.smi

> <i_m_source_file_index>
209

> <i_lp_mmshare_version>
43012

> <i_f3d_flags>
0

> <s_epik_input>
W0NIMl0xW05IXUMoPU8pW0NAQEhdKFtDQEBIXTEyKVtDSDJdW0NIMl1bQ0gyXU4yYyhuW2NIXW4zKWMoYzM0KW5bY0hdbjRbQ0gyXUM1KFtDSDJdW09IXSlbQ0gyXU9bQ0gyXTU=

> <s_epik_cmdline>
J2VwaWtfcHl0aG9uJywgJy1waCcsICc3LjAnLCAnLXRuJywgJzgnLCAnLW1hJywgJzIwMCcsICctbWV0YWxfYmluZGluZycsICctaW1hZScsICc8aW5maWxlLm1hZT4nLCAnLW9tYWUnLCAnPG91dGZpbGUubWFlPic=

> <r_lp_tautomer_probability>
1

> <r_epik_Ionization_Penalty>
0.00113306

> <r_epik_Ionization_Penalty_Charging>
0

> <r_epik_Ionization_Penalty_Neutral>
0.00113306

> <r_epik_State_Penalty>
0.000624042

> <r_epik_Charging_Adjusted_Penalty>
0.000624042

> <i_epik_Tot_Q>
0

> <i_epik_Tot_abs_Q>
0

> <r_epik_Metal_State_Penalty>
-0

> <b_epik_Metal_Only>
0

> <s_lp_Force_Field>
OPLS_2005

> <r_lp_Energy>
50.5129

> <b_lp_Chiralities_Consistent>
1

> <s_lp_Variant>
AV-unprocessed.smi:209-4

> <Gold.Version>
5.8.1

> <Gold.Id.Protein>
6NUR|6NUR_protein|mol2

> <Gold.PLP.Fitness>
53.4028

> <Gold.PLP.PLP>
-43.1673

> <Gold.PLP.part.hbond>
-6.8271

> <Gold.PLP.part.metal>
0.0000

> <Gold.PLP.part.buried>
4.6565

> <Gold.PLP.part.nonpolar>
-43.8735

> <Gold.PLP.part.repulsive>
2.5678

> <Gold.PLP.ligand.clash>
0.0000

> <Gold.PLP.ligand.torsion>
0.9479

> <Gold.PLP.Chemscore.Hbond>
3.8140

> <Gold.PLP.Chemscore.CHOScore>
0.0000

> <Gold.PLP.Chemscore.Metal>
0.0000

> <Gold.Chemscore.Hbonds>
donor molecule, donor type, donor heavy atom, donor atom, acceptor molecule, acceptor atom, score
      L1  H     3    29       P1  8029  0.77
      L1  H    23    44       P1  7948  0.69
      P1  H  7954  7966       L1    23  1.00
      P1  H  7997  8010       L1    12  0.90
      L1  C    18    39       P1  8028  0.04

> <Gold.PLP.Chemscore.Internal.Correction>
0.6893

> <Gold.Rescore>
     Score         DG    S(hbond)    S(metal)    S(lipo)     H(rot)  DE(clash)    DE(int)     intcor
      8.95     -16.32       1.84        0.00      98.42       2.66       4.40       2.97       ----

> <Gold.Chemscore.Fitness>
8.9550

> <Gold.Chemscore.DG>
-16.3203

> <Gold.Chemscore.ZeroCoef>
-5.4800

> <Gold.Chemscore.Hbond>
1.8382

> <Gold.Chemscore.Metal>
0.0000

> <Gold.Chemscore.Lipo>
98.4241

> <Gold.Chemscore.Internal_Hbond>
0.0000

> <Gold.Chemscore.DEClash>
4.4002

> <Gold.Chemscore.DEInternal>
2.9651

> <Gold.Chemscore.Rot>
2.6620

> <Gold.Chemscore.Internal.Correction>
   9.000000E+99

> <Gold.Chemscore.Hbonds>
donor molecule, donor type, donor heavy atom, donor atom, acceptor molecule, acceptor atom, score
      L1  H     3    29       P1  8029  0.13
      L1  H    23    44       P1  7948  0.68
      P1  H  7954  7966       L1    23  0.55
      P1  H  7997  8010       L1    12  0.18

> <Gold.Chemscore.Hbond.Weighted>
-6.1395

> <Gold.Chemscore.Metal.Weighted>
-0.0000

> <Gold.Chemscore.Lipo.Weighted>
-11.5156

> <Gold.Chemscore.Internal_Hbond.Weighted>
0.0000

> <Gold.Chemscore.DEClash.Weighted>
4.4002

> <Gold.Chemscore.DEInternal.Weighted>
2.9651

> <Gold.Chemscore.Rot.Weighted>
6.8148

> <Gold.Chemscore.Internal.Correction.Weighted>
   9.000000E+99

> <Gold.Protein.RotatedTorsions>
[ 6907 6896 6895 6894 ] final -105.76 input  -60.11 | X-H torsion
[ 7974 7965 7964 7962 ] final  -81.99 input  175.53 | X-H torsion
[ 8008 7997 7996 7995 ] final   65.61 input   59.86 | X-H torsion
[ 10167 10162 10161 10158 ] final  179.82 input  -65.29 | X-H torsion
[ 10718 10713 10712 10709 ] final  -17.77 input   66.30 | X-H torsion
[ 10763 10752 10751 10750 ] final  107.30 input  -60.55 | X-H torsion
[ 11005 11000 10999 10996 ] final  111.20 input  -57.11 | X-H torsion

> <Gold.Protein.ActiveResidues>
 VAL166  LYS551  ARG553  GLY616  TRP617  ASP618  TYR619  PRO620  LYS621  CYS622 
 ASP623  PHE694  ASN695  SER759  ASP760  ASP761  ALA762  ILE779  LEU786  VAL792 
 PHE793  MET794  SER795  GLU796  ALA797  LYS798  CYS799  TRP800  GLU811  SER814 

> <Gold.Protein.RotatedAtoms>
  150.7353  134.0078  159.3659 H   0  0  0  0  0  0  0  0  0  0  0  0  # atno 6907 bound_to 6896
  151.8035  135.0699  160.0413 H   0  0  0  0  0  0  0  0  0  0  0  0  # atno 6908 bound_to 6896
  152.3123  133.5730  159.5725 H   0  0  0  0  0  0  0  0  0  0  0  0  # atno 6909 bound_to 6896
  145.5393  140.9511  143.1560 H   0  0  0  0  0  0  0  0  0  0  0  0  # atno 7974 bound_to 7965
  155.6644  140.3497  155.4795 H   0  0  0  0  0  0  0  0  0  0  0  0  # atno 8008 bound_to 7997
  155.9741  140.1161  157.0809 H   0  0  0  0  0  0  0  0  0  0  0  0  # atno 8009 bound_to 7997
  154.4174  140.1151  156.5332 H   0  0  0  0  0  0  0  0  0  0  0  0  # atno 8010 bound_to 7997
  139.5353  144.2515  152.0780 H   0  0  0  0  0  0  0  0  0  0  0  0  # atno 10167 bound_to 10162
  156.5689  130.4744  149.6372 H   0  0  0  0  0  0  0  0  0  0  0  0  # atno 10718 bound_to 10713
  153.4048  135.3849  155.2011 H   0  0  0  0  0  0  0  0  0  0  0  0  # atno 10763 bound_to 10752
  154.8732  135.3780  154.4574 H   0  0  0  0  0  0  0  0  0  0  0  0  # atno 10764 bound_to 10752
  153.5075  135.7087  153.5860 H   0  0  0  0  0  0  0  0  0  0  0  0  # atno 10765 bound_to 10752
  139.8898  134.9502  156.6396 H   0  0  0  0  0  0  0  0  0  0  0  0  # atno 11005 bound_to 11000
  144.7585  139.7014  143.7244 LP  0  0  0  0  0  0  0  0  0  0  0  0  # atno 17320 bound_to 7965
  146.1992  139.5276  142.9754 LP  0  0  0  0  0  0  0  0  0  0  0  0  # atno 17321 bound_to 7965
  140.1985  144.4681  150.6443 LP  0  0  0  0  0  0  0  0  0  0  0  0  # atno 17342 bound_to 10162
  140.6556  143.2236  151.5977 LP  0  0  0  0  0  0  0  0  0  0  0  0  # atno 17343 bound_to 10162
  156.2732  130.7029  151.1832 LP  0  0  0  0  0  0  0  0  0  0  0  0  # atno 17370 bound_to 10713
  157.7352  131.0574  150.5481 LP  0  0  0  0  0  0  0  0  0  0  0  0  # atno 17371 bound_to 10713
  140.7604  133.8822  155.8414 LP  0  0  0  0  0  0  0  0  0  0  0  0  # atno 17394 bound_to 11000
  140.9927  134.1257  157.4393 LP  0  0  0  0  0  0  0  0  0  0  0  0  # atno 17395 bound_to 11000

$$$$
