AV-unprocessed.smi:278|AV-procd|sdf|2091|dock2
  -GOLD-   2262021373D 1   1.00000     0.00000
 Structure written by MMmdl.
 50 54  0  0  0  0  0  0  0  0  1 V2000
  152.6827  144.5337  162.2070 O   0  0  0  0  0  0  0  0  0  0  0  0
  151.9740  143.7751  161.1652 S   0  0  0  0  0  0  0  0  0  0  0  0
  151.2561  142.5344  161.4966 O   0  0  0  0  0  0  0  0  0  0  0  0
  150.8341  144.9051  160.2757 C   0  0  0  0  0  0  0  0  0  0  0  0
  151.5158  145.2441  158.9435 C   0  0  0  0  0  0  0  0  0  0  0  0
  152.4188  144.0696  158.5246 C   0  0  2  0  0  0  0  0  0  0  0  0
  151.6546  142.8618  157.9718 C   0  0  0  0  0  0  0  0  0  0  0  0
  152.4814  141.7085  158.2984 N   0  0  0  0  0  0  0  0  0  0  0  0
  152.0456  140.4417  158.0727 C   0  0  0  0  0  0  0  0  0  0  0  0
  152.1319  139.5308  159.0789 N   0  0  0  0  0  0  0  0  0  0  0  0
  151.7129  138.2753  158.8977 C   0  0  0  0  0  0  0  0  0  0  0  0
  151.1740  137.7249  157.8089 N   0  0  0  0  0  0  0  0  0  0  0  0
  151.0701  138.6339  156.7984 C   0  0  0  0  0  0  0  0  0  0  0  0
  151.4765  139.9990  156.8418 C   0  0  0  0  0  0  0  0  0  0  0  0
  151.1985  140.6059  155.6208 N   0  0  0  0  0  0  0  0  0  0  0  0
  150.6698  139.6561  154.8990 C   0  0  0  0  0  0  0  0  0  0  0  0
  150.5533  138.4398  155.5305 N   0  0  0  0  0  0  0  0  0  0  0  0
  150.0020  137.2182  154.9724 C   0  0  0  0  0  0  0  0  0  0  0  0
  150.1899  136.0089  155.9078 C   0  0  2  0  0  0  0  0  0  0  0  0
  151.5534  135.6338  155.9688 O   0  0  0  0  0  0  0  0  0  0  0  0
  149.3095  134.8061  155.5111 C   0  0  2  0  0  0  0  0  0  0  0  0
  149.7784  133.9816  154.3090 C   0  0  0  0  0  0  0  0  0  0  0  0
  148.4832  133.3302  153.8780 C   0  0  0  0  0  0  0  0  0  0  0  0
  147.4771  134.4548  154.1105 C   0  0  0  0  0  0  0  0  0  0  0  0
  147.9672  135.1939  155.2265 O   0  0  0  0  0  0  0  0  0  0  0  0
  153.3424  142.0078  159.4353 C   0  0  0  0  0  0  0  0  0  0  0  0
  153.1254  143.4943  159.7532 C   0  0  2  0  0  0  0  0  0  0  0  0
  153.1565  144.3896  157.7873 H   0  0  0  0  0  0  0  0  0  0  0  0
  154.0594  144.0130  159.9707 H   0  0  0  0  0  0  0  0  0  0  0  0
  149.8978  144.3728  160.1073 H   0  0  0  0  0  0  0  0  0  0  0  0
  150.6262  145.7861  160.8831 H   0  0  0  0  0  0  0  0  0  0  0  0
  150.7893  145.4968  158.1706 H   0  0  0  0  0  0  0  0  0  0  0  0
  152.1417  146.1254  159.0882 H   0  0  0  0  0  0  0  0  0  0  0  0
  150.6817  142.7564  158.4537 H   0  0  0  0  0  0  0  0  0  0  0  0
  151.4955  142.9482  156.8964 H   0  0  0  0  0  0  0  0  0  0  0  0
  151.8242  137.6184  159.7477 H   0  0  0  0  0  0  0  0  0  0  0  0
  150.3491  139.8168  153.8799 H   0  0  0  0  0  0  0  0  0  0  0  0
  148.9420  137.3811  154.7748 H   0  0  0  0  0  0  0  0  0  0  0  0
  150.4746  137.0348  154.0064 H   0  0  0  0  0  0  0  0  0  0  0  0
  149.9069  136.3080  156.9178 H   0  0  0  0  0  0  0  0  0  0  0  0
  151.6973  135.1583  156.7725 H   0  0  0  0  0  0  0  0  0  0  0  0
  149.2467  134.1334  156.3683 H   0  0  0  0  0  0  0  0  0  0  0  0
  150.1521  134.6155  153.5044 H   0  0  0  0  0  0  0  0  0  0  0  0
  150.5560  133.2610  154.5646 H   0  0  0  0  0  0  0  0  0  0  0  0
  148.4999  132.9789  152.8460 H   0  0  0  0  0  0  0  0  0  0  0  0
  148.2558  132.4822  154.5256 H   0  0  0  0  0  0  0  0  0  0  0  0
  147.4444  135.1188  153.2456 H   0  0  0  0  0  0  0  0  0  0  0  0
  146.4680  134.0822  154.2891 H   0  0  0  0  0  0  0  0  0  0  0  0
  153.1342  141.3700  160.2946 H   0  0  0  0  0  0  0  0  0  0  0  0
  154.3776  141.8372  159.1384 H   0  0  0  0  0  0  0  0  0  0  0  0
  1  2  2  0  0  0  0
  2 27  1  0  0  0  0
  2  3  2  0  0  0  0
  2  4  1  0  0  0  0
  4  5  1  0  0  0  0
  4 30  1  0  0  0  0
  4 31  1  0  0  0  0
  5  6  1  0  0  0  0
  5 32  1  0  0  0  0
  5 33  1  0  0  0  0
  6 28  1  0  0  0  0
  6 27  1  0  0  0  0
  6  7  1  0  0  0  0
  7  8  1  0  0  0  0
  7 34  1  0  0  0  0
  7 35  1  0  0  0  0
  8  9  1  0  0  0  0
  8 26  1  0  0  0  0
  9 14  1  0  0  0  0
  9 10  2  0  0  0  0
 10 11  1  0  0  0  0
 11 12  2  0  0  0  0
 11 36  1  0  0  0  0
 12 13  1  0  0  0  0
 13 17  1  0  0  0  0
 13 14  2  0  0  0  0
 14 15  1  0  0  0  0
 15 16  2  0  0  0  0
 16 17  1  0  0  0  0
 16 37  1  0  0  0  0
 17 18  1  0  0  0  0
 18 19  1  0  0  0  0
 18 38  1  0  0  0  0
 18 39  1  0  0  0  0
 19 20  1  0  0  0  0
 19 21  1  0  0  0  0
 19 40  1  0  0  0  0
 20 41  1  0  0  0  0
 21 25  1  0  0  0  0
 21 22  1  0  0  0  0
 21 42  1  0  0  0  0
 22 23  1  0  0  0  0
 22 43  1  0  0  0  0
 22 44  1  0  0  0  0
 23 24  1  0  0  0  0
 23 45  1  0  0  0  0
 23 46  1  0  0  0  0
 24 25  1  0  0  0  0
 24 47  1  0  0  0  0
 24 48  1  0  0  0  0
 26 27  1  0  0  0  0
 26 49  1  0  0  0  0
 26 50  1  0  0  0  0
 27 29  1  0  0  0  0
M  END
> <s_m_source_file>
AV-unprocessed.smi

> <i_m_source_file_index>
278

> <i_lp_mmshare_version>
43012

> <i_f3d_flags>
0

> <s_epik_input>
W0NIMl0xW0NIMl1TKD1PKSg9TylbQ0BASF0oW0NAQEhdMTIpW0NIMl1OKFtDSDJdMiljKG5bY0hdbjMpYyhjMzQpbltjSF1uNFtDSDJdW0NASF0oW09IXSlbQ0BASF01W0NIMl1bQ0gyXVtDSDJdTzU=

> <s_epik_cmdline>
J2VwaWtfcHl0aG9uJywgJy1waCcsICc3LjAnLCAnLXRuJywgJzgnLCAnLW1hJywgJzIwMCcsICctbWV0YWxfYmluZGluZycsICctaW1hZScsICc8aW5maWxlLm1hZT4nLCAnLW9tYWUnLCAnPG91dGZpbGUubWFlPic=

> <r_lp_tautomer_probability>
1

> <r_epik_Ionization_Penalty>
0.000636766

> <r_epik_Ionization_Penalty_Charging>
0

> <r_epik_Ionization_Penalty_Neutral>
0.000636766

> <r_epik_State_Penalty>
0.000329976

> <r_epik_Charging_Adjusted_Penalty>
0.000329976

> <i_epik_Tot_Q>
0

> <i_epik_Tot_abs_Q>
0

> <r_epik_Metal_State_Penalty>
-0

> <b_epik_Metal_Only>
0

> <s_lp_Force_Field>
OPLS_2005

> <r_lp_Energy>
50.4142

> <b_lp_Chiralities_Consistent>
1

> <s_lp_Variant>
AV-unprocessed.smi:278-5

> <Gold.Version>
5.8.1

> <Gold.Id.Protein>
6NUR|6NUR_protein|mol2

> <Gold.PLP.Fitness>
44.8075

> <Gold.PLP.PLP>
-41.0785

> <Gold.PLP.part.hbond>
-2.3400

> <Gold.PLP.part.metal>
0.0000

> <Gold.PLP.part.buried>
-1.9375

> <Gold.PLP.part.nonpolar>
-37.2390

> <Gold.PLP.part.repulsive>
0.7176

> <Gold.PLP.ligand.clash>
0.2314

> <Gold.PLP.ligand.torsion>
0.7935

> <Gold.PLP.Chemscore.Hbond>
1.4960

> <Gold.PLP.Chemscore.CHOScore>
0.2591

> <Gold.PLP.Chemscore.Metal>
0.0000

> <Gold.Chemscore.Hbonds>
donor molecule, donor type, donor heavy atom, donor atom, acceptor molecule, acceptor atom, score
      P1  H  6933  6945       L1     3  0.46
      P1  H 10752 10763       L1    20  1.00
      L1  C    16    37       P1  7957  0.28

> <Gold.PLP.Chemscore.Internal.Correction>
0.2819

> <Gold.Rescore>
     Score         DG    S(hbond)    S(metal)    S(lipo)     H(rot)  DE(clash)    DE(int)     intcor
     13.55     -17.57       1.65        0.00     102.94       2.13       1.78       2.23       ----

> <Gold.Chemscore.Fitness>
13.5542

> <Gold.Chemscore.DG>
-17.5711

> <Gold.Chemscore.ZeroCoef>
-5.4800

> <Gold.Chemscore.Hbond>
1.6504

> <Gold.Chemscore.Metal>
0.0000

> <Gold.Chemscore.Lipo>
102.9363

> <Gold.Chemscore.Internal_Hbond>
0.0000

> <Gold.Chemscore.DEClash>
1.7843

> <Gold.Chemscore.DEInternal>
2.2326

> <Gold.Chemscore.Rot>
2.1346

> <Gold.Chemscore.Internal.Correction>
   9.000000E+99

> <Gold.Chemscore.Hbonds>
donor molecule, donor type, donor heavy atom, donor atom, acceptor molecule, acceptor atom, score
      P1  H  6933  6945       L1     3  0.46
      P1  H 10752 10763       L1    20  0.87

> <Gold.Chemscore.Hbond.Weighted>
-5.5122

> <Gold.Chemscore.Metal.Weighted>
-0.0000

> <Gold.Chemscore.Lipo.Weighted>
-12.0436

> <Gold.Chemscore.Internal_Hbond.Weighted>
0.0000

> <Gold.Chemscore.DEClash.Weighted>
1.7843

> <Gold.Chemscore.DEInternal.Weighted>
2.2326

> <Gold.Chemscore.Rot.Weighted>
5.4646

> <Gold.Chemscore.Internal.Correction.Weighted>
   9.000000E+99

> <Gold.Protein.RotatedTorsions>
[ 6907 6896 6895 6894 ] final -130.48 input  -60.11 | X-H torsion
[ 7974 7965 7964 7962 ] final  -90.72 input  175.53 | X-H torsion
[ 8008 7997 7996 7995 ] final  169.53 input   59.86 | X-H torsion
[ 10167 10162 10161 10158 ] final  110.51 input  -65.29 | X-H torsion
[ 10718 10713 10712 10709 ] final  -77.30 input   66.30 | X-H torsion
[ 10763 10752 10751 10750 ] final   69.30 input  -60.55 | X-H torsion
[ 11005 11000 10999 10996 ] final -105.74 input  -57.11 | X-H torsion

> <Gold.Protein.ActiveResidues>
 VAL166  LYS551  ARG553  GLY616  TRP617  ASP618  TYR619  PRO620  LYS621  CYS622 
 ASP623  PHE694  ASN695  SER759  ASP760  ASP761  ALA762  ILE779  LEU786  VAL792 
 PHE793  MET794  SER795  GLU796  ALA797  LYS798  CYS799  TRP800  GLU811  SER814 

> <Gold.Protein.RotatedAtoms>
  150.9402  133.6665  159.2792 H   0  0  0  0  0  0  0  0  0  0  0  0  # atno 6907 bound_to 6896
  151.4057  135.0976  159.9579 H   0  0  0  0  0  0  0  0  0  0  0  0  # atno 6908 bound_to 6896
  152.5066  133.8886  159.7437 H   0  0  0  0  0  0  0  0  0  0  0  0  # atno 6909 bound_to 6896
  145.4228  140.9552  143.2172 H   0  0  0  0  0  0  0  0  0  0  0  0  # atno 7974 bound_to 7965
  156.1449  140.1562  156.8863 H   0  0  0  0  0  0  0  0  0  0  0  0  # atno 8008 bound_to 7997
  154.5019  140.0823  156.7853 H   0  0  0  0  0  0  0  0  0  0  0  0  # atno 8009 bound_to 7997
  155.4008  140.3414  155.4259 H   0  0  0  0  0  0  0  0  0  0  0  0  # atno 8010 bound_to 7997
  139.6683  144.7126  151.1736 H   0  0  0  0  0  0  0  0  0  0  0  0  # atno 10167 bound_to 10162
  156.0149  130.4488  150.3324 H   0  0  0  0  0  0  0  0  0  0  0  0  # atno 10718 bound_to 10713
  153.0280  135.5215  154.7268 H   0  0  0  0  0  0  0  0  0  0  0  0  # atno 10763 bound_to 10752
  154.6307  135.2900  155.0222 H   0  0  0  0  0  0  0  0  0  0  0  0  # atno 10764 bound_to 10752
  154.1175  135.6612  153.4949 H   0  0  0  0  0  0  0  0  0  0  0  0  # atno 10765 bound_to 10752
  141.1038  133.8834  157.1772 H   0  0  0  0  0  0  0  0  0  0  0  0  # atno 11005 bound_to 11000
  144.8234  139.5752  143.6976 LP  0  0  0  0  0  0  0  0  0  0  0  0  # atno 17320 bound_to 7965
  146.2648  139.6494  142.9337 LP  0  0  0  0  0  0  0  0  0  0  0  0  # atno 17321 bound_to 7965
  140.7608  143.5885  150.8821 LP  0  0  0  0  0  0  0  0  0  0  0  0  # atno 17342 bound_to 10162
  139.9548  143.6231  152.3019 LP  0  0  0  0  0  0  0  0  0  0  0  0  # atno 17343 bound_to 10162
  157.1422  131.0299  151.2922 LP  0  0  0  0  0  0  0  0  0  0  0  0  # atno 17370 bound_to 10713
  157.4462  130.7572  149.7112 LP  0  0  0  0  0  0  0  0  0  0  0  0  # atno 17371 bound_to 10713
  139.9900  135.0068  156.9953 LP  0  0  0  0  0  0  0  0  0  0  0  0  # atno 17394 bound_to 11000
  140.4953  134.1151  155.7240 LP  0  0  0  0  0  0  0  0  0  0  0  0  # atno 17395 bound_to 11000

$$$$
