AV-unprocessed.smi:2293|AV-procd|sdf|9215|dock4
  -GOLD-   2272012433D 1   1.00000     0.00000
 Structure written by MMmdl.
 34 35  0  0  0  0  0  0  0  0  1 V2000
  152.5262  143.4069  161.1792 C   0  0  0  0  0  0  0  0  0  0  0  0
  152.2154  142.3753  160.1093 C   0  0  0  0  0  0  0  0  0  0  0  0
  151.0447  142.5973  159.3790 N   0  0  0  0  0  0  0  0  0  0  0  0
  150.7006  141.7709  158.4463 C   0  0  0  0  0  0  0  0  0  0  0  0
  151.4744  140.6388  158.1394 N   0  0  0  0  0  0  0  0  0  0  0  0
  150.9741  139.7813  157.0506 C   0  0  0  0  0  0  0  0  0  0  0  0
  151.0160  140.4896  155.6773 C   0  0  1  0  0  0  0  0  0  0  0  0
  152.0298  139.9019  154.8865 O   0  0  0  0  0  0  0  0  0  0  0  0
  149.6656  140.4101  154.9817 C   0  0  0  0  0  0  0  0  0  0  0  0
  149.1689  139.1723  154.5157 C   0  0  0  0  0  0  0  0  0  0  0  0
  147.9153  139.1049  153.8773 C   0  0  0  0  0  0  0  0  0  0  0  0
  147.1497  140.2737  153.7029 C   0  0  0  0  0  0  0  0  0  0  0  0
  147.6373  141.5095  154.1695 C   0  0  0  0  0  0  0  0  0  0  0  0
  146.9003  142.6334  154.0050 F   0  0  0  0  0  0  0  0  0  0  0  0
  148.8911  141.5774  154.8078 C   0  0  0  0  0  0  0  0  0  0  0  0
  152.6307  140.3482  158.8028 C   0  0  0  0  0  0  0  0  0  0  0  0
  153.3045  139.3538  158.5275 O   0  0  0  0  0  0  0  0  0  0  0  0
  153.0109  141.2993  159.8601 C   0  0  0  0  0  0  0  0  0  0  0  0
  154.2975  141.0077  160.6224 C   0  0  0  0  0  0  0  0  0  0  0  0
  153.4815  143.8913  160.9765 H   0  0  0  0  0  0  0  0  0  0  0  0
  152.5744  142.9361  162.1614 H   0  0  0  0  0  0  0  0  0  0  0  0
  151.7602  144.1823  161.2181 H   0  0  0  0  0  0  0  0  0  0  0  0
  149.8006  141.9012  157.8429 H   0  0  0  0  0  0  0  0  0  0  0  0
  151.4975  138.8242  157.0070 H   0  0  0  0  0  0  0  0  0  0  0  0
  149.9412  139.5085  157.2775 H   0  0  0  0  0  0  0  0  0  0  0  0
  151.2713  141.5421  155.8085 H   0  0  0  0  0  0  0  0  0  0  0  0
  152.6452  139.4702  155.4593 H   0  0  0  0  0  0  0  0  0  0  0  0
  149.7481  138.2701  154.6487 H   0  0  0  0  0  0  0  0  0  0  0  0
  147.5407  138.1562  153.5222 H   0  0  0  0  0  0  0  0  0  0  0  0
  146.1886  140.2221  153.2128 H   0  0  0  0  0  0  0  0  0  0  0  0
  149.2548  142.5304  155.1635 H   0  0  0  0  0  0  0  0  0  0  0  0
  154.2244  140.0441  161.1277 H   0  0  0  0  0  0  0  0  0  0  0  0
  154.5291  141.7569  161.3774 H   0  0  0  0  0  0  0  0  0  0  0  0
  155.1418  140.9661  159.9336 H   0  0  0  0  0  0  0  0  0  0  0  0
  1  2  1  0  0  0  0
  1 20  1  0  0  0  0
  1 21  1  0  0  0  0
  1 22  1  0  0  0  0
  2 18  2  0  0  0  0
  2  3  1  0  0  0  0
  3  4  2  0  0  0  0
  4  5  1  0  0  0  0
  4 23  1  0  0  0  0
  5  6  1  0  0  0  0
  5 16  1  0  0  0  0
  6  7  1  0  0  0  0
  6 24  1  0  0  0  0
  6 25  1  0  0  0  0
  7  8  1  0  0  0  0
  7  9  1  0  0  0  0
  7 26  1  0  0  0  0
  8 27  1  0  0  0  0
  9 15  1  0  0  0  0
  9 10  2  0  0  0  0
 10 11  1  0  0  0  0
 10 28  1  0  0  0  0
 11 12  2  0  0  0  0
 11 29  1  0  0  0  0
 12 13  1  0  0  0  0
 12 30  1  0  0  0  0
 13 14  1  0  0  0  0
 13 15  2  0  0  0  0
 15 31  1  0  0  0  0
 16 17  2  0  0  0  0
 16 18  1  0  0  0  0
 18 19  1  0  0  0  0
 19 32  1  0  0  0  0
 19 33  1  0  0  0  0
 19 34  1  0  0  0  0
M  END
> <s_m_source_file>
AV-unprocessed.smi

> <i_m_source_file_index>
2293

> <i_lp_mmshare_version>
43012

> <i_f3d_flags>
0

> <s_epik_input>
W0NIM11jMW5bY0hdbihjKD1PKWMxW0NIM10pW0NIMl1bQ0BIXShbT0hdKWMyW2NIXVtjSF1bY0hdYyhGKVtjSF0y

> <s_epik_cmdline>
J2VwaWtfcHl0aG9uJywgJy1waCcsICc3LjAnLCAnLXRuJywgJzgnLCAnLW1hJywgJzIwMCcsICctbWV0YWxfYmluZGluZycsICctaW1hZScsICc8aW5maWxlLm1hZT4nLCAnLW9tYWUnLCAnPG91dGZpbGUubWFlPic=

> <r_lp_tautomer_probability>
1

> <r_epik_Ionization_Penalty>
5.08222e-05

> <r_epik_Ionization_Penalty_Charging>
7.56727e-08

> <r_epik_Ionization_Penalty_Neutral>
5.07465e-05

> <r_epik_State_Penalty>
-0

> <r_epik_Charging_Adjusted_Penalty>
7.56727e-08

> <i_epik_Tot_Q>
0

> <i_epik_Tot_abs_Q>
0

> <r_epik_Metal_State_Penalty>
-0

> <b_epik_Metal_Only>
0

> <s_lp_Force_Field>
OPLS_2005

> <r_lp_Energy>
19.6901

> <b_lp_Chiralities_Consistent>
1

> <s_lp_Variant>
AV-unprocessed.smi:2293-2

> <Gold.Version>
5.8.1

> <Gold.Id.Protein>
6NUR|6NUR_protein|mol2

> <Gold.PLP.Fitness>
46.5906

> <Gold.PLP.PLP>
-43.2726

> <Gold.PLP.part.hbond>
-2.1741

> <Gold.PLP.part.metal>
0.0000

> <Gold.PLP.part.buried>
-3.5635

> <Gold.PLP.part.nonpolar>
-37.4778

> <Gold.PLP.part.repulsive>
0.0084

> <Gold.PLP.ligand.clash>
0.0000

> <Gold.PLP.ligand.torsion>
0.8669

> <Gold.PLP.Chemscore.Hbond>
1.6800

> <Gold.PLP.Chemscore.CHOScore>
0.0000

> <Gold.PLP.Chemscore.Metal>
0.0000

> <Gold.Chemscore.Hbonds>
donor molecule, donor type, donor heavy atom, donor atom, acceptor molecule, acceptor atom, score
      P1  H  7989  7998       L1     8  0.59
      P1  H  7997  8010       L1    17  0.68

> <Gold.PLP.Chemscore.Internal.Correction>
0.0117

> <Gold.Rescore>
     Score         DG    S(hbond)    S(metal)    S(lipo)     H(rot)  DE(clash)    DE(int)     intcor
     13.75     -14.52       1.14        0.00      88.97       2.02       0.04       0.72       ----

> <Gold.Chemscore.Fitness>
13.7535

> <Gold.Chemscore.DG>
-14.5181

> <Gold.Chemscore.ZeroCoef>
-5.4800

> <Gold.Chemscore.Hbond>
1.1363

> <Gold.Chemscore.Metal>
0.0000

> <Gold.Chemscore.Lipo>
88.9673

> <Gold.Chemscore.Internal_Hbond>
0.0000

> <Gold.Chemscore.DEClash>
0.0407

> <Gold.Chemscore.DEInternal>
0.7239

> <Gold.Chemscore.Rot>
2.0181

> <Gold.Chemscore.Internal.Correction>
   9.000000E+99

> <Gold.Chemscore.Hbonds>
donor molecule, donor type, donor heavy atom, donor atom, acceptor molecule, acceptor atom, score
      P1  H  7989  7998       L1     8  0.06
      P1  H  7997  8010       L1    17  0.40

> <Gold.Chemscore.Hbond.Weighted>
-3.7952

> <Gold.Chemscore.Metal.Weighted>
-0.0000

> <Gold.Chemscore.Lipo.Weighted>
-10.4092

> <Gold.Chemscore.Internal_Hbond.Weighted>
0.0000

> <Gold.Chemscore.DEClash.Weighted>
0.0407

> <Gold.Chemscore.DEInternal.Weighted>
0.7239

> <Gold.Chemscore.Rot.Weighted>
5.1663

> <Gold.Chemscore.Internal.Correction.Weighted>
   9.000000E+99

> <Gold.Protein.RotatedTorsions>
[ 6907 6896 6895 6894 ] final  -40.33 input  -60.11 | X-H torsion
[ 7974 7965 7964 7962 ] final -137.47 input  175.53 | X-H torsion
[ 8008 7997 7996 7995 ] final    9.77 input   59.86 | X-H torsion
[ 10167 10162 10161 10158 ] final   62.48 input  -65.29 | X-H torsion
[ 10718 10713 10712 10709 ] final   23.24 input   66.30 | X-H torsion
[ 10763 10752 10751 10750 ] final   93.26 input  -60.55 | X-H torsion
[ 11005 11000 10999 10996 ] final   58.90 input  -57.11 | X-H torsion

> <Gold.Protein.ActiveResidues>
 VAL166  LYS551  ARG553  GLY616  TRP617  ASP618  TYR619  PRO620  LYS621  CYS622 
 ASP623  PHE694  ASN695  SER759  ASP760  ASP761  ALA762  ILE779  LEU786  VAL792 
 PHE793  MET794  SER795  GLU796  ALA797  LYS798  CYS799  TRP800  GLU811  SER814 

> <Gold.Protein.RotatedAtoms>
  150.9797  134.9154  159.7836 H   0  0  0  0  0  0  0  0  0  0  0  0  # atno 6907 bound_to 6896
  152.5218  134.3427  159.9233 H   0  0  0  0  0  0  0  0  0  0  0  0  # atno 6908 bound_to 6896
  151.3435  133.3912  159.2708 H   0  0  0  0  0  0  0  0  0  0  0  0  # atno 6909 bound_to 6896
  144.8839  140.6547  143.5188 H   0  0  0  0  0  0  0  0  0  0  0  0  # atno 7974 bound_to 7965
  154.7845  140.2825  155.6038 H   0  0  0  0  0  0  0  0  0  0  0  0  # atno 8008 bound_to 7997
  156.2955  140.2616  156.2606 H   0  0  0  0  0  0  0  0  0  0  0  0  # atno 8009 bound_to 7997
  154.9744  140.0375  157.2239 H   0  0  0  0  0  0  0  0  0  0  0  0  # atno 8010 bound_to 7997
  140.1435  144.4531  150.6798 H   0  0  0  0  0  0  0  0  0  0  0  0  # atno 10167 bound_to 10162
  157.1634  130.6727  149.6052 H   0  0  0  0  0  0  0  0  0  0  0  0  # atno 10718 bound_to 10713
  153.2283  135.4332  155.0566 H   0  0  0  0  0  0  0  0  0  0  0  0  # atno 10763 bound_to 10752
  154.8284  135.3373  154.6825 H   0  0  0  0  0  0  0  0  0  0  0  0  # atno 10764 bound_to 10752
  153.7254  135.7014  153.5058 H   0  0  0  0  0  0  0  0  0  0  0  0  # atno 10765 bound_to 10752
  140.0343  134.5966  155.9465 H   0  0  0  0  0  0  0  0  0  0  0  0  # atno 11005 bound_to 11000
  145.3904  139.1618  143.4232 LP  0  0  0  0  0  0  0  0  0  0  0  0  # atno 17320 bound_to 7965
  146.3012  140.3992  142.8703 LP  0  0  0  0  0  0  0  0  0  0  0  0  # atno 17321 bound_to 7965
  140.6746  143.2300  151.5539 LP  0  0  0  0  0  0  0  0  0  0  0  0  # atno 17342 bound_to 10162
  139.5460  144.2519  152.1443 LP  0  0  0  0  0  0  0  0  0  0  0  0  # atno 17343 bound_to 10162
  155.9750  130.4704  150.6427 LP  0  0  0  0  0  0  0  0  0  0  0  0  # atno 17370 bound_to 10713
  157.4111  131.0823  151.1220 LP  0  0  0  0  0  0  0  0  0  0  0  0  # atno 17371 bound_to 10713
  141.1849  133.6554  156.5174 LP  0  0  0  0  0  0  0  0  0  0  0  0  # atno 17394 bound_to 11000
  140.4173  134.7219  157.4870 LP  0  0  0  0  0  0  0  0  0  0  0  0  # atno 17395 bound_to 11000

$$$$
