AV-unprocessed.smi:2775|AV-procd|sdf|10702|dock3
  -GOLD-   2272015143D 1   1.00000     0.00000
 Structure written by MMmdl.
 43 46  0  0  0  0  0  0  0  0  2 V2000
  144.4919  131.8056  150.5594 C   0  0  0  0  0  0  0  0  0  0  0  0
  144.3380  133.0563  151.4033 C   0  0  0  0  0  0  0  0  0  0  0  0
  143.0852  133.4504  151.7200 N   0  3  0  0  0  0  0  0  0  0  0  0
  142.8252  134.5489  152.4584 C   0  0  0  0  0  0  0  0  0  0  0  0
  143.8860  135.3407  152.9394 C   0  0  0  0  0  0  0  0  0  0  0  0
  145.2232  134.9680  152.6464 C   0  0  0  0  0  0  0  0  0  0  0  0
  146.3648  135.7030  153.0738 N   0  0  0  0  0  0  0  0  0  0  0  0
  146.4875  136.6377  154.0358 C   0  0  0  0  0  0  0  0  0  0  0  0
  145.5885  136.9941  154.7932 O   0  0  0  0  0  0  0  0  0  0  0  0
  147.7218  137.1621  154.1253 N   0  0  0  0  0  0  0  0  0  0  0  0
  148.1866  138.1904  155.0563 C   0  0  2  0  0  0  0  0  0  0  0  0
  148.5257  139.5035  154.3477 C   0  0  1  0  0  0  0  0  0  0  0  0
  147.9009  140.8511  154.3112 C   0  0  0  0  0  0  0  0  0  0  0  0
  149.1990  141.6856  154.4571 C   0  0  0  0  0  0  0  0  0  0  0  0
  150.2455  140.7355  154.7734 O   0  0  0  0  0  0  0  0  0  0  0  0
  149.5736  139.6806  155.4350 C   0  0  2  0  0  0  0  0  0  0  0  0
  149.7258  138.1553  155.3394 C   0  0  0  0  0  0  0  0  0  0  0  0
  150.7708  137.5084  154.4112 C   0  0  0  0  0  0  0  0  0  0  0  0
  151.6127  137.2177  155.6580 C   0  0  0  0  0  0  0  0  0  0  0  0
  150.3393  137.3607  156.4991 C   0  0  0  0  0  0  0  0  0  0  0  0
  145.4448  133.8110  151.8582 C   0  0  0  0  0  0  0  0  0  0  0  0
  147.0557  133.3199  151.4510 Cl  0  0  0  0  0  0  0  0  0  0  0  0
  145.0666  131.0517  151.0987 H   0  0  0  0  0  0  0  0  0  0  0  0
  145.0132  132.0367  149.6300 H   0  0  0  0  0  0  0  0  0  0  0  0
  143.5226  131.3748  150.3050 H   0  0  0  0  0  0  0  0  0  0  0  0
  141.7816  134.7636  152.6376 H   0  0  0  0  0  0  0  0  0  0  0  0
  143.6429  136.2200  153.5142 H   0  0  0  0  0  0  0  0  0  0  0  0
  147.2173  135.4837  152.5789 H   0  0  0  0  0  0  0  0  0  0  0  0
  148.4151  136.8019  153.4851 H   0  0  0  0  0  0  0  0  0  0  0  0
  147.5652  138.3274  155.9455 H   0  0  0  0  0  0  0  0  0  0  0  0
  148.9791  139.2866  153.3731 H   0  0  0  0  0  0  0  0  0  0  0  0
  147.3758  141.0507  153.3768 H   0  0  0  0  0  0  0  0  0  0  0  0
  147.2181  141.0074  155.1474 H   0  0  0  0  0  0  0  0  0  0  0  0
  149.4502  142.2152  153.5377 H   0  0  0  0  0  0  0  0  0  0  0  0
  149.0991  142.4216  155.2560 H   0  0  0  0  0  0  0  0  0  0  0  0
  149.1626  140.0025  156.3976 H   0  0  0  0  0  0  0  0  0  0  0  0
  150.4175  136.5967  153.9278 H   0  0  0  0  0  0  0  0  0  0  0  0
  151.2386  138.1882  153.6986 H   0  0  0  0  0  0  0  0  0  0  0  0
  152.0663  136.2264  155.6813 H   0  0  0  0  0  0  0  0  0  0  0  0
  152.3429  138.0020  155.8635 H   0  0  0  0  0  0  0  0  0  0  0  0
  150.4658  137.9241  157.4239 H   0  0  0  0  0  0  0  0  0  0  0  0
  149.8482  136.4037  156.6749 H   0  0  0  0  0  0  0  0  0  0  0  0
  142.2994  132.8943  151.3818 H   0  0  0  0  0  0  0  0  0  0  0  0
  1  2  1  0  0  0  0
  1 23  1  0  0  0  0
  1 24  1  0  0  0  0
  1 25  1  0  0  0  0
  2 21  1  0  0  0  0
  2  3  2  0  0  0  0
  3  4  1  0  0  0  0
  3 43  1  0  0  0  0
  4  5  2  0  0  0  0
  4 26  1  0  0  0  0
  5  6  1  0  0  0  0
  5 27  1  0  0  0  0
  6  7  1  0  0  0  0
  6 21  2  0  0  0  0
  7  8  1  0  0  0  0
  7 28  1  0  0  0  0
  8  9  2  0  0  0  0
  8 10  1  0  0  0  0
 10 11  1  0  0  0  0
 10 29  1  0  0  0  0
 11 17  1  0  0  0  0
 11 12  1  0  0  0  0
 11 30  1  0  0  0  0
 12 16  1  0  0  0  0
 12 13  1  0  0  0  0
 12 31  1  0  0  0  0
 13 14  1  0  0  0  0
 13 32  1  0  0  0  0
 13 33  1  0  0  0  0
 14 15  1  0  0  0  0
 14 34  1  0  0  0  0
 14 35  1  0  0  0  0
 15 16  1  0  0  0  0
 16 17  1  0  0  0  0
 16 36  1  0  0  0  0
 17 20  1  0  0  0  0
 17 18  1  0  0  0  0
 18 19  1  0  0  0  0
 18 37  1  0  0  0  0
 18 38  1  0  0  0  0
 19 20  1  0  0  0  0
 19 39  1  0  0  0  0
 19 40  1  0  0  0  0
 20 41  1  0  0  0  0
 20 42  1  0  0  0  0
 21 22  1  0  0  0  0
M  CHG  1   3   1
M  END
> <s_m_source_file>
AV-unprocessed.smi

> <i_m_source_file_index>
2775

> <i_lp_mmshare_version>
43012

> <i_f3d_flags>
0

> <s_epik_input>
W0NIM11jMW5bY0hdW2NIXWMoYzFDbClbTkhdQyg9TylbTkhdW0NAQEhdMltDQEhdKFtDSDJdW0NIMl1PMylbQ0BASF0zQzI0W0NIMl1bQ0gyXVtDSDJdNA==

> <s_epik_cmdline>
J2VwaWtfcHl0aG9uJywgJy1waCcsICc3LjAnLCAnLXRuJywgJzgnLCAnLW1hJywgJzIwMCcsICctbWV0YWxfYmluZGluZycsICctaW1hZScsICc8aW5maWxlLm1hZT4nLCAnLW9tYWUnLCAnPG91dGZpbGUubWFlPic=

> <r_epik_Ionization_Penalty>
2.4104

> <r_epik_Ionization_Penalty_Charging>
2.41038

> <r_epik_Ionization_Penalty_Neutral>
1.9872e-05

> <r_epik_State_Penalty>
2.56896

> <r_epik_Charging_Adjusted_Penalty>
4.97934

> <i_epik_Tot_Q>
1

> <i_epik_Tot_abs_Q>
1

> <r_epik_Metal_State_Penalty>
2.57906

> <b_epik_Metal_Only>
0

> <s_lp_Force_Field>
OPLS_2005

> <r_lp_Energy>
84.5881

> <b_lp_Chiralities_Consistent>
1

> <s_lp_Variant>
AV-unprocessed.smi:2775-15

> <Gold.Version>
5.8.1

> <Gold.Id.Protein>
6NUR|6NUR_protein|mol2

> <Gold.PLP.Fitness>
39.3712

> <Gold.PLP.PLP>
-31.2090

> <Gold.PLP.part.hbond>
-3.7722

> <Gold.PLP.part.metal>
0.0000

> <Gold.PLP.part.buried>
-3.9656

> <Gold.PLP.part.nonpolar>
-23.7961

> <Gold.PLP.part.repulsive>
0.1416

> <Gold.PLP.ligand.clash>
0.0000

> <Gold.PLP.ligand.torsion>
0.2672

> <Gold.PLP.Chemscore.Hbond>
2.7920

> <Gold.PLP.Chemscore.CHOScore>
0.0000

> <Gold.PLP.Chemscore.Metal>
0.0000

> <Gold.Chemscore.Hbonds>
donor molecule, donor type, donor heavy atom, donor atom, acceptor molecule, acceptor atom, score
      L1  H     7    28       P1  7948  0.93
      L1  H    10    29       P1  7948  1.00
      P1  H  7989  7998       L1    15  0.83

> <Gold.PLP.Chemscore.Internal.Correction>
0.3206

> <Gold.Rescore>
     Score         DG    S(hbond)    S(metal)    S(lipo)     H(rot)  DE(clash)    DE(int)     intcor
     21.09     -21.77       2.68        0.00      84.76       1.00       0.30       0.38       ----

> <Gold.Chemscore.Fitness>
21.0850

> <Gold.Chemscore.DG>
-21.7731

> <Gold.Chemscore.ZeroCoef>
-5.4800

> <Gold.Chemscore.Hbond>
2.6757

> <Gold.Chemscore.Metal>
0.0000

> <Gold.Chemscore.Lipo>
84.7558

> <Gold.Chemscore.Internal_Hbond>
0.0000

> <Gold.Chemscore.DEClash>
0.3045

> <Gold.Chemscore.DEInternal>
0.3836

> <Gold.Chemscore.Rot>
1.0000

> <Gold.Chemscore.Internal.Correction>
   9.000000E+99

> <Gold.Chemscore.Hbonds>
donor molecule, donor type, donor heavy atom, donor atom, acceptor molecule, acceptor atom, score
      L1  H     7    28       P1  7948  0.86
      L1  H    10    29       P1  7948  0.97
      P1  H  7989  7998       L1    15  0.58

> <Gold.Chemscore.Hbond.Weighted>
-8.9367

> <Gold.Chemscore.Metal.Weighted>
-0.0000

> <Gold.Chemscore.Lipo.Weighted>
-9.9164

> <Gold.Chemscore.Internal_Hbond.Weighted>
0.0000

> <Gold.Chemscore.DEClash.Weighted>
0.3045

> <Gold.Chemscore.DEInternal.Weighted>
0.3836

> <Gold.Chemscore.Rot.Weighted>
2.5600

> <Gold.Chemscore.Internal.Correction.Weighted>
   9.000000E+99

> <Gold.Protein.RotatedTorsions>
[ 6907 6896 6895 6894 ] final  -55.35 input  -60.11 | X-H torsion
[ 7974 7965 7964 7962 ] final -149.20 input  175.53 | X-H torsion
[ 8008 7997 7996 7995 ] final  -29.87 input   59.86 | X-H torsion
[ 10167 10162 10161 10158 ] final    1.04 input  -65.29 | X-H torsion
[ 10718 10713 10712 10709 ] final -105.44 input   66.30 | X-H torsion
[ 10763 10752 10751 10750 ] final   12.92 input  -60.55 | X-H torsion
[ 11005 11000 10999 10996 ] final -173.01 input  -57.11 | X-H torsion

> <Gold.Protein.ActiveResidues>
 VAL166  LYS551  ARG553  GLY616  TRP617  ASP618  TYR619  PRO620  LYS621  CYS622 
 ASP623  PHE694  ASN695  SER759  ASP760  ASP761  ALA762  ILE779  LEU786  VAL792 
 PHE793  MET794  SER795  GLU796  ALA797  LYS798  CYS799  TRP800  GLU811  SER814 

> <Gold.Protein.RotatedAtoms>
  150.8259  134.7490  159.6812 H   0  0  0  0  0  0  0  0  0  0  0  0  # atno 6907 bound_to 6896
  152.4370  134.5663  159.9918 H   0  0  0  0  0  0  0  0  0  0  0  0  # atno 6908 bound_to 6896
  151.5836  133.3337  159.3049 H   0  0  0  0  0  0  0  0  0  0  0  0  # atno 6909 bound_to 6896
  144.7982  140.5096  143.5725 H   0  0  0  0  0  0  0  0  0  0  0  0  # atno 7974 bound_to 7965
  154.4272  140.1806  156.1317 H   0  0  0  0  0  0  0  0  0  0  0  0  # atno 8008 bound_to 7997
  156.0062  140.3355  155.6870 H   0  0  0  0  0  0  0  0  0  0  0  0  # atno 8009 bound_to 7997
  155.6174  140.0656  157.2679 H   0  0  0  0  0  0  0  0  0  0  0  0  # atno 8010 bound_to 7997
  140.6701  143.7072  150.7905 H   0  0  0  0  0  0  0  0  0  0  0  0  # atno 10167 bound_to 10162
  156.0346  130.5564  150.7540 H   0  0  0  0  0  0  0  0  0  0  0  0  # atno 10718 bound_to 10713
  153.1773  135.6822  153.8526 H   0  0  0  0  0  0  0  0  0  0  0  0  # atno 10763 bound_to 10752
  153.7869  135.3174  155.3374 H   0  0  0  0  0  0  0  0  0  0  0  0  # atno 10764 bound_to 10752
  154.8037  135.4762  154.0433 H   0  0  0  0  0  0  0  0  0  0  0  0  # atno 10765 bound_to 10752
  140.4905  134.5989  157.4953 H   0  0  0  0  0  0  0  0  0  0  0  0  # atno 11005 bound_to 11000
  145.5620  139.1480  143.3336 LP  0  0  0  0  0  0  0  0  0  0  0  0  # atno 17320 bound_to 7965
  146.2256  140.5755  142.8998 LP  0  0  0  0  0  0  0  0  0  0  0  0  # atno 17321 bound_to 7965
  140.0756  143.5018  152.2557 LP  0  0  0  0  0  0  0  0  0  0  0  0  # atno 17342 bound_to 10162
  139.5966  144.7569  151.3272 LP  0  0  0  0  0  0  0  0  0  0  0  0  # atno 17343 bound_to 10162
  157.5077  131.0923  151.0237 LP  0  0  0  0  0  0  0  0  0  0  0  0  # atno 17370 bound_to 10713
  157.0601  130.5822  149.5384 LP  0  0  0  0  0  0  0  0  0  0  0  0  # atno 17371 bound_to 10713
  139.9772  134.7196  155.9927 LP  0  0  0  0  0  0  0  0  0  0  0  0  # atno 17394 bound_to 11000
  141.1486  133.6552  156.3944 LP  0  0  0  0  0  0  0  0  0  0  0  0  # atno 17395 bound_to 11000

$$$$
