AV-unprocessed.smi:411|AV-procd|sdf|2509|dock5
  -GOLD-   2262022463D 1   1.00000     0.00000
 Structure written by MMmdl.
 35 36  0  0  0  0  0  0  0  0  1 V2000
  150.9285  140.6730  156.5072 O   0  0  0  0  0  0  0  0  0  0  0  0
  150.2474  141.6473  156.1846 C   0  0  0  0  0  0  0  0  0  0  0  0
  149.5578  141.7119  154.8137 C   0  0  0  0  0  0  0  0  0  0  0  0
  148.3593  140.8603  154.7160 N   0  0  0  0  0  0  0  0  0  0  0  0
  148.4363  139.7517  153.8543 C   0  0  0  0  0  0  0  0  0  0  0  0
  147.4054  138.9116  153.6915 C   0  0  0  0  0  0  0  0  0  0  0  0
  146.1934  139.1679  154.4304 C   0  0  0  0  0  0  0  0  0  0  0  0
  146.0871  140.2297  155.2624 C   0  0  0  0  0  0  0  0  0  0  0  0
  144.8132  140.5129  156.0551 C   0  0  0  0  0  0  0  0  0  0  0  0
  145.0554  140.4707  157.3658 F   0  0  0  0  0  0  0  0  0  0  0  0
  144.3376  141.7228  155.7580 F   0  0  0  0  0  0  0  0  0  0  0  0
  143.8566  139.6220  155.7895 F   0  0  0  0  0  0  0  0  0  0  0  0
  147.2287  141.1522  155.4310 C   0  0  0  0  0  0  0  0  0  0  0  0
  147.1787  142.1355  156.1721 O   0  0  0  0  0  0  0  0  0  0  0  0
  150.0418  142.6982  156.9929 N   0  0  0  0  0  0  0  0  0  0  0  0
  150.5952  142.8503  158.3361 C   0  0  1  0  0  0  0  0  0  0  0  0
  152.1472  142.7821  158.3113 C   0  0  0  0  0  0  0  0  0  0  0  0
  152.7675  144.0499  158.9182 C   0  0  0  0  0  0  0  0  0  0  0  0
  151.5014  144.7164  160.0447 S   0  0  0  0  0  0  0  0  0  0  0  0
  151.5048  143.9213  161.2819 O   0  0  0  0  0  0  0  0  0  0  0  0
  151.5655  146.1854  160.0785 O   0  0  0  0  0  0  0  0  0  0  0  0
  150.1194  144.1616  158.9950 C   0  0  0  0  0  0  0  0  0  0  0  0
  149.3028  142.7532  154.6118 H   0  0  0  0  0  0  0  0  0  0  0  0
  150.2753  141.4404  154.0372 H   0  0  0  0  0  0  0  0  0  0  0  0
  149.3756  139.6348  153.3336 H   0  0  0  0  0  0  0  0  0  0  0  0
  147.4787  138.0667  153.0227 H   0  0  0  0  0  0  0  0  0  0  0  0
  145.3636  138.4885  154.3046 H   0  0  0  0  0  0  0  0  0  0  0  0
  149.4667  143.4537  156.6494 H   0  0  0  0  0  0  0  0  0  0  0  0
  150.2474  142.0170  158.9500 H   0  0  0  0  0  0  0  0  0  0  0  0
  152.4641  141.9219  158.9024 H   0  0  0  0  0  0  0  0  0  0  0  0
  152.5375  142.6148  157.3066 H   0  0  0  0  0  0  0  0  0  0  0  0
  153.6969  143.8639  159.4569 H   0  0  0  0  0  0  0  0  0  0  0  0
  152.9520  144.7961  158.1451 H   0  0  0  0  0  0  0  0  0  0  0  0
  149.9426  144.9392  158.2508 H   0  0  0  0  0  0  0  0  0  0  0  0
  149.2156  144.0395  159.5926 H   0  0  0  0  0  0  0  0  0  0  0  0
  1  2  2  0  0  0  0
  2  3  1  0  0  0  0
  2 15  1  0  0  0  0
  3  4  1  0  0  0  0
  3 23  1  0  0  0  0
  3 24  1  0  0  0  0
  4 13  1  0  0  0  0
  4  5  1  0  0  0  0
  5  6  2  0  0  0  0
  5 25  1  0  0  0  0
  6  7  1  0  0  0  0
  6 26  1  0  0  0  0
  7  8  2  0  0  0  0
  7 27  1  0  0  0  0
  8  9  1  0  0  0  0
  8 13  1  0  0  0  0
  9 10  1  0  0  0  0
  9 11  1  0  0  0  0
  9 12  1  0  0  0  0
 13 14  2  0  0  0  0
 15 16  1  0  0  0  0
 15 28  1  0  0  0  0
 16 22  1  0  0  0  0
 16 17  1  0  0  0  0
 16 29  1  0  0  0  0
 17 18  1  0  0  0  0
 17 30  1  0  0  0  0
 17 31  1  0  0  0  0
 18 19  1  0  0  0  0
 18 32  1  0  0  0  0
 18 33  1  0  0  0  0
 19 20  2  0  0  0  0
 19 21  2  0  0  0  0
 19 22  1  0  0  0  0
 22 34  1  0  0  0  0
 22 35  1  0  0  0  0
M  END
> <s_m_source_file>
AV-unprocessed.smi

> <i_m_source_file_index>
411

> <i_lp_mmshare_version>
43012

> <i_f3d_flags>
0

> <s_epik_input>
Tz1TMSg9TylbQ0gyXVtDSDJdW0NASF0oW0NIMl0xKVtOSF1DKD1PKVtDSDJdbjJbY0hdW2NIXVtjSF1jKEMoRikoRilGKWMyPU8=

> <s_epik_cmdline>
J2VwaWtfcHl0aG9uJywgJy1waCcsICc3LjAnLCAnLXRuJywgJzgnLCAnLW1hJywgJzIwMCcsICctbWV0YWxfYmluZGluZycsICctaW1hZScsICc8aW5maWxlLm1hZT4nLCAnLW9tYWUnLCAnPG91dGZpbGUubWFlPic=

> <r_lp_tautomer_probability>
1

> <r_epik_Ionization_Penalty>
1.08759e-07

> <r_epik_Ionization_Penalty_Charging>
1.56656e-09

> <r_epik_Ionization_Penalty_Neutral>
1.07193e-07

> <r_epik_State_Penalty>
-0

> <r_epik_Charging_Adjusted_Penalty>
1.56656e-09

> <i_epik_Tot_Q>
0

> <i_epik_Tot_abs_Q>
0

> <r_epik_Metal_State_Penalty>
-0

> <b_epik_Metal_Only>
0

> <s_lp_Force_Field>
OPLS_2005

> <r_lp_Energy>
15.8783

> <b_lp_Chiralities_Consistent>
1

> <s_lp_Variant>
AV-unprocessed.smi:411-2

> <Gold.Version>
5.8.1

> <Gold.Id.Protein>
6NUR|6NUR_protein|mol2

> <Gold.PLP.Fitness>
36.6298

> <Gold.PLP.PLP>
-31.4073

> <Gold.PLP.part.hbond>
-3.0000

> <Gold.PLP.part.metal>
0.0000

> <Gold.PLP.part.buried>
-3.4641

> <Gold.PLP.part.nonpolar>
-25.0587

> <Gold.PLP.part.repulsive>
0.6587

> <Gold.PLP.ligand.clash>
0.3223

> <Gold.PLP.ligand.torsion>
0.2781

> <Gold.PLP.Chemscore.Hbond>
1.0000

> <Gold.PLP.Chemscore.CHOScore>
0.9198

> <Gold.PLP.Chemscore.Metal>
0.0000

> <Gold.Chemscore.Hbonds>
donor molecule, donor type, donor heavy atom, donor atom, acceptor molecule, acceptor atom, score
      L1  H    15    28       P1  8028  1.00
      L1  C     5    25       P1  7957  0.86

> <Gold.PLP.Chemscore.Internal.Correction>
0.3416

> <Gold.Rescore>
     Score         DG    S(hbond)    S(metal)    S(lipo)     H(rot)  DE(clash)    DE(int)     intcor
      9.54     -12.47       1.38        0.00      58.25       1.73       0.26       2.67       ----

> <Gold.Chemscore.Fitness>
9.5377

> <Gold.Chemscore.DG>
-12.4712

> <Gold.Chemscore.ZeroCoef>
-5.4800

> <Gold.Chemscore.Hbond>
1.3799

> <Gold.Chemscore.Metal>
0.0000

> <Gold.Chemscore.Lipo>
58.2456

> <Gold.Chemscore.Internal_Hbond>
0.0000

> <Gold.Chemscore.DEClash>
0.2610

> <Gold.Chemscore.DEInternal>
2.6725

> <Gold.Chemscore.Rot>
1.7314

> <Gold.Chemscore.Internal.Correction>
   9.000000E+99

> <Gold.Chemscore.Hbonds>
donor molecule, donor type, donor heavy atom, donor atom, acceptor molecule, acceptor atom, score
      L1  H    15    28       P1  8028  0.99

> <Gold.Chemscore.Hbond.Weighted>
-4.6089

> <Gold.Chemscore.Metal.Weighted>
-0.0000

> <Gold.Chemscore.Lipo.Weighted>
-6.8147

> <Gold.Chemscore.Internal_Hbond.Weighted>
0.0000

> <Gold.Chemscore.DEClash.Weighted>
0.2610

> <Gold.Chemscore.DEInternal.Weighted>
2.6725

> <Gold.Chemscore.Rot.Weighted>
4.4324

> <Gold.Chemscore.Internal.Correction.Weighted>
   9.000000E+99

> <Gold.Protein.RotatedTorsions>
[ 6907 6896 6895 6894 ] final  -51.25 input  -60.11 | X-H torsion
[ 7974 7965 7964 7962 ] final   -0.55 input  175.53 | X-H torsion
[ 8008 7997 7996 7995 ] final   67.33 input   59.86 | X-H torsion
[ 10167 10162 10161 10158 ] final   45.17 input  -65.29 | X-H torsion
[ 10718 10713 10712 10709 ] final  169.06 input   66.30 | X-H torsion
[ 10763 10752 10751 10750 ] final  105.79 input  -60.55 | X-H torsion
[ 11005 11000 10999 10996 ] final   10.32 input  -57.11 | X-H torsion

> <Gold.Protein.ActiveResidues>
 VAL166  LYS551  ARG553  GLY616  TRP617  ASP618  TYR619  PRO620  LYS621  CYS622 
 ASP623  PHE694  ASN695  SER759  ASP760  ASP761  ALA762  ILE779  LEU786  VAL792 
 PHE793  MET794  SER795  GLU796  ALA797  LYS798  CYS799  TRP800  GLU811  SER814 

> <Gold.Protein.RotatedAtoms>
  150.8629  134.7985  159.7096 H   0  0  0  0  0  0  0  0  0  0  0  0  # atno 6907 bound_to 6896
  152.4660  134.5070  159.9752 H   0  0  0  0  0  0  0  0  0  0  0  0  # atno 6908 bound_to 6896
  151.5171  133.3435  159.2930 H   0  0  0  0  0  0  0  0  0  0  0  0  # atno 6909 bound_to 6896
  146.2426  140.1286  142.8338 H   0  0  0  0  0  0  0  0  0  0  0  0  # atno 7974 bound_to 7965
  155.6913  140.3496  155.4894 H   0  0  0  0  0  0  0  0  0  0  0  0  # atno 8008 bound_to 7997
  155.9522  140.1121  157.0989 H   0  0  0  0  0  0  0  0  0  0  0  0  # atno 8009 bound_to 7997
  154.4124  140.1192  156.5053 H   0  0  0  0  0  0  0  0  0  0  0  0  # atno 8010 bound_to 7997
  140.3269  144.2637  150.6174 H   0  0  0  0  0  0  0  0  0  0  0  0  # atno 10167 bound_to 10162
  157.0282  131.0251  151.2753 H   0  0  0  0  0  0  0  0  0  0  0  0  # atno 10718 bound_to 10713
  153.3841  135.3898  155.1878 H   0  0  0  0  0  0  0  0  0  0  0  0  # atno 10763 bound_to 10752
  154.8711  135.3732  154.4819 H   0  0  0  0  0  0  0  0  0  0  0  0  # atno 10764 bound_to 10752
  153.5299  135.7086  153.5749 H   0  0  0  0  0  0  0  0  0  0  0  0  # atno 10765 bound_to 10752
  140.5158  134.0607  155.7831 H   0  0  0  0  0  0  0  0  0  0  0  0  # atno 11005 bound_to 11000
  145.0345  140.8897  143.5089 LP  0  0  0  0  0  0  0  0  0  0  0  0  # atno 17320 bound_to 7965
  145.1356  139.2604  143.5517 LP  0  0  0  0  0  0  0  0  0  0  0  0  # atno 17321 bound_to 7965
  140.5433  143.2219  151.8049 LP  0  0  0  0  0  0  0  0  0  0  0  0  # atno 17342 bound_to 10162
  139.4863  144.4572  151.9584 LP  0  0  0  0  0  0  0  0  0  0  0  0  # atno 17343 bound_to 10162
  157.5198  130.7991  149.7796 LP  0  0  0  0  0  0  0  0  0  0  0  0  # atno 17370 bound_to 10713
  156.0079  130.3847  150.2367 LP  0  0  0  0  0  0  0  0  0  0  0  0  # atno 17371 bound_to 10713
  141.1361  133.9219  157.2431 LP  0  0  0  0  0  0  0  0  0  0  0  0  # atno 17394 bound_to 11000
  139.9633  135.0148  156.9320 LP  0  0  0  0  0  0  0  0  0  0  0  0  # atno 17395 bound_to 11000

$$$$
