AV-unprocessed.smi:2812|AV-procd|sdf|10833|dock10
  -GOLD-   2272015273D 1   1.00000     0.00000
 Structure written by MMmdl.
 55 56  0  0  0  0  0  0  0  0  2 V2000
  151.5834  139.1886  158.0160 C   0  0  0  0  0  0  0  0  0  0  0  0
  151.7814  140.6137  158.5083 C   0  0  0  0  0  0  0  0  0  0  0  0
  152.9003  140.9096  159.3789 C   0  0  0  0  0  0  0  0  0  0  0  0
  153.0740  142.1599  159.8275 C   0  0  0  0  0  0  0  0  0  0  0  0
  152.2063  143.1999  159.4646 N   0  0  0  0  0  0  0  0  0  0  0  0
  152.4870  144.5354  159.9984 C   0  0  0  0  0  0  0  0  0  0  0  0
  151.1488  143.0077  158.6245 C   0  0  0  0  0  0  0  0  0  0  0  0
  150.4471  143.9564  158.2663 O   0  0  0  0  0  0  0  0  0  0  0  0
  150.9244  141.6132  158.1709 C   0  0  0  0  0  0  0  0  0  0  0  0
  149.8526  141.3257  157.3109 N   0  0  0  0  0  0  0  0  0  0  0  0
  149.9474  140.9215  156.0321 C   0  0  0  0  0  0  0  0  0  0  0  0
  151.0046  140.7289  155.4296 O   0  0  0  0  0  0  0  0  0  0  0  0
  148.7387  140.7793  155.4706 N   0  0  0  0  0  0  0  0  0  0  0  0
  148.5088  140.3682  154.0896 C   0  0  0  0  0  0  0  0  0  0  0  0
  147.0672  140.6832  153.6028 C   0  0  2  0  0  0  0  0  0  0  0  0
  146.7059  142.1861  153.6732 C   0  0  0  0  0  0  0  0  0  0  0  0
  146.4851  142.6613  155.1147 C   0  0  0  0  0  0  0  0  0  0  0  0
  145.4189  141.7903  155.7869 C   0  0  0  0  0  0  0  0  0  0  0  0
  145.7868  140.3004  155.7033 C   0  0  0  0  0  0  0  0  0  0  0  0
  146.0178  139.8712  154.2972 N   0  3  2  0  0  0  0  0  0  0  0  0
  146.1558  138.3911  154.1873 C   0  0  0  0  0  0  0  0  0  0  0  0
  145.6960  137.7962  152.8366 C   0  0  0  0  0  0  0  0  0  0  0  0
  145.7545  136.2594  152.8291 C   0  0  0  0  0  0  0  0  0  0  0  0
  146.5376  138.3686  151.6866 C   0  0  0  0  0  0  0  0  0  0  0  0
  152.3543  138.5248  158.4083 H   0  0  0  0  0  0  0  0  0  0  0  0
  151.6296  139.1490  156.9273 H   0  0  0  0  0  0  0  0  0  0  0  0
  150.6148  138.8036  158.3369 H   0  0  0  0  0  0  0  0  0  0  0  0
  153.5889  140.1313  159.6734 H   0  0  0  0  0  0  0  0  0  0  0  0
  153.8877  142.4398  160.4804 H   0  0  0  0  0  0  0  0  0  0  0  0
  151.6204  144.9232  160.5362 H   0  0  0  0  0  0  0  0  0  0  0  0
  152.7238  145.2289  159.1902 H   0  0  0  0  0  0  0  0  0  0  0  0
  153.3273  144.5434  160.6935 H   0  0  0  0  0  0  0  0  0  0  0  0
  148.9352  141.5660  157.6569 H   0  0  0  0  0  0  0  0  0  0  0  0
  147.9231  140.9627  156.0369 H   0  0  0  0  0  0  0  0  0  0  0  0
  149.2528  140.8624  153.4645 H   0  0  0  0  0  0  0  0  0  0  0  0
  148.7179  139.3011  154.0245 H   0  0  0  0  0  0  0  0  0  0  0  0
  147.0151  140.4308  152.5450 H   0  0  0  0  0  0  0  0  0  0  0  0
  147.4681  142.7979  153.1903 H   0  0  0  0  0  0  0  0  0  0  0  0
  145.7908  142.3564  153.1041 H   0  0  0  0  0  0  0  0  0  0  0  0
  147.4185  142.6123  155.6763 H   0  0  0  0  0  0  0  0  0  0  0  0
  146.1736  143.7063  155.1213 H   0  0  0  0  0  0  0  0  0  0  0  0
  145.2978  142.0869  156.8290 H   0  0  0  0  0  0  0  0  0  0  0  0
  144.4545  141.9564  155.3047 H   0  0  0  0  0  0  0  0  0  0  0  0
  146.6708  140.0931  156.3074 H   0  0  0  0  0  0  0  0  0  0  0  0
  144.9741  139.7146  156.1347 H   0  0  0  0  0  0  0  0  0  0  0  0
  147.1866  138.1034  154.3954 H   0  0  0  0  0  0  0  0  0  0  0  0
  145.5601  137.9344  154.9791 H   0  0  0  0  0  0  0  0  0  0  0  0
  144.6685  138.1009  152.6388 H   0  0  0  0  0  0  0  0  0  0  0  0
  146.7666  135.9002  153.0177 H   0  0  0  0  0  0  0  0  0  0  0  0
  145.4364  135.8611  151.8652 H   0  0  0  0  0  0  0  0  0  0  0  0
  145.1004  135.8288  153.5873 H   0  0  0  0  0  0  0  0  0  0  0  0
  147.5900  138.1026  151.7923 H   0  0  0  0  0  0  0  0  0  0  0  0
  146.4706  139.4564  151.6533 H   0  0  0  0  0  0  0  0  0  0  0  0
  146.1949  137.9907  150.7228 H   0  0  0  0  0  0  0  0  0  0  0  0
  145.1586  140.0885  153.8127 H   0  0  0  0  0  0  0  0  0  0  0  0
  1  2  1  0  0  0  0
  1 25  1  0  0  0  0
  1 26  1  0  0  0  0
  1 27  1  0  0  0  0
  2  9  2  0  0  0  0
  2  3  1  0  0  0  0
  3  4  2  0  0  0  0
  3 28  1  0  0  0  0
  4  5  1  0  0  0  0
  4 29  1  0  0  0  0
  5  6  1  0  0  0  0
  5  7  1  0  0  0  0
  6 30  1  0  0  0  0
  6 31  1  0  0  0  0
  6 32  1  0  0  0  0
  7  8  2  0  0  0  0
  7  9  1  0  0  0  0
  9 10  1  0  0  0  0
 10 11  1  0  0  0  0
 10 33  1  0  0  0  0
 11 12  2  0  0  0  0
 11 13  1  0  0  0  0
 13 14  1  0  0  0  0
 13 34  1  0  0  0  0
 14 15  1  0  0  0  0
 14 35  1  0  0  0  0
 14 36  1  0  0  0  0
 15 20  1  0  0  0  0
 15 16  1  0  0  0  0
 15 37  1  0  0  0  0
 16 17  1  0  0  0  0
 16 38  1  0  0  0  0
 16 39  1  0  0  0  0
 17 18  1  0  0  0  0
 17 40  1  0  0  0  0
 17 41  1  0  0  0  0
 18 19  1  0  0  0  0
 18 42  1  0  0  0  0
 18 43  1  0  0  0  0
 19 20  1  0  0  0  0
 19 44  1  0  0  0  0
 19 45  1  0  0  0  0
 20 21  1  0  0  0  0
 20 55  1  0  0  0  0
 21 22  1  0  0  0  0
 21 46  1  0  0  0  0
 21 47  1  0  0  0  0
 22 23  1  0  0  0  0
 22 24  1  0  0  0  0
 22 48  1  0  0  0  0
 23 49  1  0  0  0  0
 23 50  1  0  0  0  0
 23 51  1  0  0  0  0
 24 52  1  0  0  0  0
 24 53  1  0  0  0  0
 24 54  1  0  0  0  0
M  CHG  1  20   1
M  END
> <s_m_source_file>
AV-unprocessed.smi

> <i_m_source_file_index>
2812

> <i_lp_mmshare_version>
43012

> <i_f3d_flags>
0

> <s_epik_input>
W0NIM11jMVtjSF1bY0hdbihbQ0gzXSljKD1PKWMxW05IXUMoPU8pW05IXVtDSDJdW0NAQEhdMltDSDJdW0NIMl1bQ0gyXVtDSDJdTjJbQ0gyXVtDSF0oW0NIM10pW0NIM10=

> <s_epik_cmdline>
J2VwaWtfcHl0aG9uJywgJy1waCcsICc3LjAnLCAnLXRuJywgJzgnLCAnLW1hJywgJzIwMCcsICctbWV0YWxfYmluZGluZycsICctaW1hZScsICc8aW5maWxlLm1hZT4nLCAnLW9tYWUnLCAnPG91dGZpbGUubWFlPic=

> <r_lp_tautomer_probability>
1

> <r_epik_Ionization_Penalty>
0.0010902

> <r_epik_Ionization_Penalty_Charging>
0.00107091

> <r_epik_Ionization_Penalty_Neutral>
1.92854e-05

> <r_epik_State_Penalty>
0.000697184

> <r_epik_Charging_Adjusted_Penalty>
0.0017681

> <i_epik_Tot_Q>
1

> <i_epik_Tot_abs_Q>
1

> <r_epik_Metal_State_Penalty>
-0

> <b_epik_Metal_Only>
0

> <s_lp_Force_Field>
OPLS_2005

> <r_lp_Energy>
39.0226

> <b_lp_Chiralities_Consistent>
1

> <s_lp_Variant>
AV-unprocessed.smi:2812-1

> <Gold.Version>
5.8.1

> <Gold.Id.Protein>
6NUR|6NUR_protein|mol2

> <Gold.PLP.Fitness>
47.3401

> <Gold.PLP.PLP>
-41.7123

> <Gold.PLP.part.hbond>
-2.0000

> <Gold.PLP.part.metal>
0.0000

> <Gold.PLP.part.buried>
-4.3534

> <Gold.PLP.part.nonpolar>
-35.8956

> <Gold.PLP.part.repulsive>
0.4656

> <Gold.PLP.ligand.clash>
1.4205

> <Gold.PLP.ligand.torsion>
1.0074

> <Gold.PLP.Chemscore.Hbond>
2.8000

> <Gold.PLP.Chemscore.CHOScore>
0.0000

> <Gold.PLP.Chemscore.Metal>
0.0000

> <Gold.Chemscore.Hbonds>
donor molecule, donor type, donor heavy atom, donor atom, acceptor molecule, acceptor atom, score
      L1  H    20    55       P1 10175  2.00
      P1  H  7989  7998       L1    12  0.83

> <Gold.PLP.Chemscore.Internal.Correction>
0.6631

> <Gold.Rescore>
     Score         DG    S(hbond)    S(metal)    S(lipo)     H(rot)  DE(clash)    DE(int)     intcor
     15.11     -19.51       1.80        0.00     101.54       1.52       0.17       4.23       ----

> <Gold.Chemscore.Fitness>
15.1056

> <Gold.Chemscore.DG>
-19.5081

> <Gold.Chemscore.ZeroCoef>
-5.4800

> <Gold.Chemscore.Hbond>
1.8047

> <Gold.Chemscore.Metal>
0.0000

> <Gold.Chemscore.Lipo>
101.5447

> <Gold.Chemscore.Internal_Hbond>
0.0000

> <Gold.Chemscore.DEClash>
0.1710

> <Gold.Chemscore.DEInternal>
4.2316

> <Gold.Chemscore.Rot>
1.5157

> <Gold.Chemscore.Internal.Correction>
   9.000000E+99

> <Gold.Chemscore.Hbonds>
donor molecule, donor type, donor heavy atom, donor atom, acceptor molecule, acceptor atom, score
      L1  H    20    55       P1 10175  0.93
      P1  H  7989  7998       L1    12  0.76

> <Gold.Chemscore.Hbond.Weighted>
-6.0277

> <Gold.Chemscore.Metal.Weighted>
-0.0000

> <Gold.Chemscore.Lipo.Weighted>
-11.8807

> <Gold.Chemscore.Internal_Hbond.Weighted>
0.0000

> <Gold.Chemscore.DEClash.Weighted>
0.1710

> <Gold.Chemscore.DEInternal.Weighted>
4.2316

> <Gold.Chemscore.Rot.Weighted>
3.8803

> <Gold.Chemscore.Internal.Correction.Weighted>
   9.000000E+99

> <Gold.Protein.RotatedTorsions>
[ 6907 6896 6895 6894 ] final  -78.63 input  -60.11 | X-H torsion
[ 7974 7965 7964 7962 ] final  139.71 input  175.53 | X-H torsion
[ 8008 7997 7996 7995 ] final   89.60 input   59.86 | X-H torsion
[ 10167 10162 10161 10158 ] final   27.05 input  -65.29 | X-H torsion
[ 10718 10713 10712 10709 ] final  -65.22 input   66.30 | X-H torsion
[ 10763 10752 10751 10750 ] final  116.47 input  -60.55 | X-H torsion
[ 11005 11000 10999 10996 ] final   80.21 input  -57.11 | X-H torsion

> <Gold.Protein.ActiveResidues>
 VAL166  LYS551  ARG553  GLY616  TRP617  ASP618  TYR619  PRO620  LYS621  CYS622 
 ASP623  PHE694  ASN695  SER759  ASP760  ASP761  ALA762  ILE779  LEU786  VAL792 
 PHE793  MET794  SER795  GLU796  ALA797  LYS798  CYS799  TRP800  GLU811  SER814 

> <Gold.Protein.RotatedAtoms>
  150.6968  134.4242  159.5218 H   0  0  0  0  0  0  0  0  0  0  0  0  # atno 6907 bound_to 6896
  152.1980  134.8610  160.0520 H   0  0  0  0  0  0  0  0  0  0  0  0  # atno 6908 bound_to 6896
  151.9541  133.3640  159.4048 H   0  0  0  0  0  0  0  0  0  0  0  0  # atno 6909 bound_to 6896
  144.9253  139.5115  143.5644 H   0  0  0  0  0  0  0  0  0  0  0  0  # atno 7974 bound_to 7965
  156.0019  140.3359  155.6854 H   0  0  0  0  0  0  0  0  0  0  0  0  # atno 8008 bound_to 7997
  155.6278  140.0682  157.2676 H   0  0  0  0  0  0  0  0  0  0  0  0  # atno 8009 bound_to 7997
  154.4252  140.1765  156.1428 H   0  0  0  0  0  0  0  0  0  0  0  0  # atno 8010 bound_to 7997
  140.4971  144.0374  150.6318 H   0  0  0  0  0  0  0  0  0  0  0  0  # atno 10167 bound_to 10162
  156.0682  130.4244  150.1532 H   0  0  0  0  0  0  0  0  0  0  0  0  # atno 10718 bound_to 10713
  153.5377  135.3565  155.2704 H   0  0  0  0  0  0  0  0  0  0  0  0  # atno 10763 bound_to 10752
  154.8720  135.4083  154.3079 H   0  0  0  0  0  0  0  0  0  0  0  0  # atno 10764 bound_to 10752
  153.3780  135.7067  153.6655 H   0  0  0  0  0  0  0  0  0  0  0  0  # atno 10765 bound_to 10752
  139.9143  134.7903  156.1880 H   0  0  0  0  0  0  0  0  0  0  0  0  # atno 11005 bound_to 11000
  146.3223  139.8163  142.8935 LP  0  0  0  0  0  0  0  0  0  0  0  0  # atno 17320 bound_to 7965
  145.3229  141.0248  143.3490 LP  0  0  0  0  0  0  0  0  0  0  0  0  # atno 17321 bound_to 7965
  140.3659  143.2881  152.0332 LP  0  0  0  0  0  0  0  0  0  0  0  0  # atno 17342 bound_to 10162
  139.4864  144.6267  151.7150 LP  0  0  0  0  0  0  0  0  0  0  0  0  # atno 17343 bound_to 10162
  156.9588  130.9798  151.3483 LP  0  0  0  0  0  0  0  0  0  0  0  0  # atno 17370 bound_to 10713
  157.5738  130.8328  149.8427 LP  0  0  0  0  0  0  0  0  0  0  0  0  # atno 17371 bound_to 10713
  141.0601  133.6846  156.1936 LP  0  0  0  0  0  0  0  0  0  0  0  0  # atno 17394 bound_to 11000
  140.6674  134.4904  157.5586 LP  0  0  0  0  0  0  0  0  0  0  0  0  # atno 17395 bound_to 11000

$$$$
