AV-unprocessed.smi:2416|AV-procd|sdf|9544|dock8
  -GOLD-   2272013173D 1   1.00000     0.00000
 Structure written by MMmdl.
 40 41  0  0  0  0  0  0  0  0  1 V2000
  148.4188  141.5149  154.8176 C   0  0  0  0  0  0  0  0  0  0  0  0
  148.9660  140.4938  155.6429 O   0  0  0  0  0  0  0  0  0  0  0  0
  149.5045  139.3353  154.9916 C   0  0  1  0  0  0  0  0  0  0  0  0
  148.4425  138.6895  154.0918 C   0  0  0  0  0  0  0  0  0  0  0  0
  150.8955  139.6518  154.4098 C   0  0  0  0  0  0  0  0  0  0  0  0
  151.5152  139.2606  155.7533 C   0  0  1  0  0  0  0  0  0  0  0  0
  151.7157  140.4325  156.6063 N   0  0  0  0  0  0  0  0  0  0  0  0
  152.1014  140.3846  157.8885 C   0  0  0  0  0  0  0  0  0  0  0  0
  152.3508  139.3349  158.4821 O   0  0  0  0  0  0  0  0  0  0  0  0
  152.1665  141.6167  158.4231 N   0  0  0  0  0  0  0  0  0  0  0  0
  152.4874  141.9783  159.7585 C   0  0  0  0  0  0  0  0  0  0  0  0
  153.4468  141.1528  160.3880 C   0  0  0  0  0  0  0  0  0  0  0  0
  153.8393  141.4308  161.7119 C   0  0  0  0  0  0  0  0  0  0  0  0
  153.2603  142.5294  162.3714 C   0  0  0  0  0  0  0  0  0  0  0  0
  153.6075  142.8372  163.6435 F   0  0  0  0  0  0  0  0  0  0  0  0
  152.3113  143.3002  161.6750 C   0  0  0  0  0  0  0  0  0  0  0  0
  151.9344  143.0346  160.4062 N   0  0  0  0  0  0  0  0  0  0  0  0
  150.2244  138.4545  156.0644 C   0  0  0  0  0  0  0  0  0  0  0  0
  149.6576  138.4958  157.4936 C   0  0  0  0  0  0  0  0  0  0  0  0
  150.3521  136.9616  155.7262 C   0  0  0  0  0  0  0  0  0  0  0  0
  148.1973  142.3866  155.4329 H   0  0  0  0  0  0  0  0  0  0  0  0
  147.4821  141.2014  154.3571 H   0  0  0  0  0  0  0  0  0  0  0  0
  149.1063  141.8309  154.0338 H   0  0  0  0  0  0  0  0  0  0  0  0
  148.7894  137.7504  153.6623 H   0  0  0  0  0  0  0  0  0  0  0  0
  148.1806  139.3266  153.2476 H   0  0  0  0  0  0  0  0  0  0  0  0
  147.5290  138.4769  154.6478 H   0  0  0  0  0  0  0  0  0  0  0  0
  151.1785  138.9661  153.6099 H   0  0  0  0  0  0  0  0  0  0  0  0
  151.0697  140.6845  154.1082 H   0  0  0  0  0  0  0  0  0  0  0  0
  152.4064  138.6411  155.6376 H   0  0  0  0  0  0  0  0  0  0  0  0
  151.5208  141.3335  156.1950 H   0  0  0  0  0  0  0  0  0  0  0  0
  151.9411  142.3841  157.8077 H   0  0  0  0  0  0  0  0  0  0  0  0
  153.8823  140.3137  159.8649 H   0  0  0  0  0  0  0  0  0  0  0  0
  154.5716  140.8129  162.2102 H   0  0  0  0  0  0  0  0  0  0  0  0
  151.8434  144.1522  162.1461 H   0  0  0  0  0  0  0  0  0  0  0  0
  150.3165  137.9873  158.1981 H   0  0  0  0  0  0  0  0  0  0  0  0
  148.6822  138.0120  157.5485 H   0  0  0  0  0  0  0  0  0  0  0  0
  149.5251  139.5114  157.8657 H   0  0  0  0  0  0  0  0  0  0  0  0
  151.0245  136.4534  156.4183 H   0  0  0  0  0  0  0  0  0  0  0  0
  150.7528  136.8025  154.7248 H   0  0  0  0  0  0  0  0  0  0  0  0
  149.3891  136.4522  155.7742 H   0  0  0  0  0  0  0  0  0  0  0  0
  1  2  1  0  0  0  0
  1 21  1  0  0  0  0
  1 22  1  0  0  0  0
  1 23  1  0  0  0  0
  2  3  1  0  0  0  0
  3 18  1  0  0  0  0
  3  4  1  0  0  0  0
  3  5  1  0  0  0  0
  4 24  1  0  0  0  0
  4 25  1  0  0  0  0
  4 26  1  0  0  0  0
  5  6  1  0  0  0  0
  5 27  1  0  0  0  0
  5 28  1  0  0  0  0
  6  7  1  0  0  0  0
  6 18  1  0  0  0  0
  6 29  1  0  0  0  0
  7  8  1  0  0  0  0
  7 30  1  0  0  0  0
  8  9  2  0  0  0  0
  8 10  1  0  0  0  0
 10 11  1  0  0  0  0
 10 31  1  0  0  0  0
 11 17  1  0  0  0  0
 11 12  2  0  0  0  0
 12 13  1  0  0  0  0
 12 32  1  0  0  0  0
 13 14  2  0  0  0  0
 13 33  1  0  0  0  0
 14 15  1  0  0  0  0
 14 16  1  0  0  0  0
 16 17  2  0  0  0  0
 16 34  1  0  0  0  0
 18 19  1  0  0  0  0
 18 20  1  0  0  0  0
 19 35  1  0  0  0  0
 19 36  1  0  0  0  0
 19 37  1  0  0  0  0
 20 38  1  0  0  0  0
 20 39  1  0  0  0  0
 20 40  1  0  0  0  0
M  END
> <s_m_source_file>
AV-unprocessed.smi

> <i_m_source_file_index>
2416

> <i_lp_mmshare_version>
43012

> <i_f3d_flags>
0

> <s_epik_input>
W0NIM11PW0NAQF0xKFtDSDNdKVtDSDJdW0NASF0oQzEoW0NIM10pW0NIM10pW05IXUMoPU8pW05IXWMyW2NIXVtjSF1jKEYpW2NIXW4y

> <s_epik_cmdline>
J2VwaWtfcHl0aG9uJywgJy1waCcsICc3LjAnLCAnLXRuJywgJzgnLCAnLW1hJywgJzIwMCcsICctbWV0YWxfYmluZGluZycsICctaW1hZScsICc8aW5maWxlLm1hZT4nLCAnLW9tYWUnLCAnPG91dGZpbGUubWFlPic=

> <r_lp_tautomer_probability>
1

> <r_epik_Ionization_Penalty>
3.67756e-05

> <r_epik_Ionization_Penalty_Charging>
0

> <r_epik_Ionization_Penalty_Neutral>
3.67756e-05

> <r_epik_State_Penalty>
-0

> <r_epik_Charging_Adjusted_Penalty>
0

> <i_epik_Tot_Q>
0

> <i_epik_Tot_abs_Q>
0

> <r_epik_Metal_State_Penalty>
-0

> <b_epik_Metal_Only>
0

> <s_lp_Force_Field>
OPLS_2005

> <r_lp_Energy>
27.553

> <b_lp_Chiralities_Consistent>
1

> <s_lp_Variant>
AV-unprocessed.smi:2416-1

> <Gold.Version>
5.8.1

> <Gold.Id.Protein>
6NUR|6NUR_protein|mol2

> <Gold.PLP.Fitness>
36.9134

> <Gold.PLP.PLP>
-37.4243

> <Gold.PLP.part.hbond>
0.0000

> <Gold.PLP.part.metal>
0.0000

> <Gold.PLP.part.buried>
-2.9849

> <Gold.PLP.part.nonpolar>
-33.7111

> <Gold.PLP.part.repulsive>
0.3216

> <Gold.PLP.ligand.clash>
0.0000

> <Gold.PLP.ligand.torsion>
0.4468

> <Gold.PLP.Chemscore.Hbond>
0.0000

> <Gold.PLP.Chemscore.CHOScore>
0.0000

> <Gold.PLP.Chemscore.Metal>
0.0000

> <Gold.PLP.Chemscore.Internal.Correction>
0.3828

> <Gold.Rescore>
     Score         DG    S(hbond)    S(metal)    S(lipo)     H(rot)  DE(clash)    DE(int)     intcor
      9.87     -11.68       0.00        0.00      80.71       1.27       0.03       1.78       ----

> <Gold.Chemscore.Fitness>
9.8721

> <Gold.Chemscore.DG>
-11.6838

> <Gold.Chemscore.ZeroCoef>
-5.4800

> <Gold.Chemscore.Hbond>
0.0000

> <Gold.Chemscore.Metal>
0.0000

> <Gold.Chemscore.Lipo>
80.7096

> <Gold.Chemscore.Internal_Hbond>
0.0000

> <Gold.Chemscore.DEClash>
0.0305

> <Gold.Chemscore.DEInternal>
1.7811

> <Gold.Chemscore.Rot>
1.2653

> <Gold.Chemscore.Internal.Correction>
   9.000000E+99

> <Gold.Chemscore.Hbond.Weighted>
-0.0000

> <Gold.Chemscore.Metal.Weighted>
-0.0000

> <Gold.Chemscore.Lipo.Weighted>
-9.4430

> <Gold.Chemscore.Internal_Hbond.Weighted>
0.0000

> <Gold.Chemscore.DEClash.Weighted>
0.0305

> <Gold.Chemscore.DEInternal.Weighted>
1.7811

> <Gold.Chemscore.Rot.Weighted>
3.2392

> <Gold.Chemscore.Internal.Correction.Weighted>
   9.000000E+99

> <Gold.Protein.RotatedTorsions>
[ 6907 6896 6895 6894 ] final   -8.97 input  -60.11 | X-H torsion
[ 7974 7965 7964 7962 ] final -121.63 input  175.53 | X-H torsion
[ 8008 7997 7996 7995 ] final  176.47 input   59.86 | X-H torsion
[ 10167 10162 10161 10158 ] final -148.94 input  -65.29 | X-H torsion
[ 10718 10713 10712 10709 ] final  172.30 input   66.30 | X-H torsion
[ 10763 10752 10751 10750 ] final  -64.31 input  -60.55 | X-H torsion
[ 11005 11000 10999 10996 ] final   89.96 input  -57.11 | X-H torsion

> <Gold.Protein.ActiveResidues>
 VAL166  LYS551  ARG553  GLY616  TRP617  ASP618  TYR619  PRO620  LYS621  CYS622 
 ASP623  PHE694  ASN695  SER759  ASP760  ASP761  ALA762  ILE779  LEU786  VAL792 
 PHE793  MET794  SER795  GLU796  ALA797  LYS798  CYS799  TRP800  GLU811  SER814 

> <Gold.Protein.RotatedAtoms>
  151.4252  135.1003  159.9625 H   0  0  0  0  0  0  0  0  0  0  0  0  # atno 6907 bound_to 6896
  152.4975  133.8669  159.7289 H   0  0  0  0  0  0  0  0  0  0  0  0  # atno 6908 bound_to 6896
  150.9194  133.6841  159.2863 H   0  0  0  0  0  0  0  0  0  0  0  0  # atno 6909 bound_to 6896
  145.0383  140.8124  143.4282 H   0  0  0  0  0  0  0  0  0  0  0  0  # atno 7974 bound_to 7965
  156.0761  140.1383  156.9769 H   0  0  0  0  0  0  0  0  0  0  0  0  # atno 8008 bound_to 7997
  154.4559  140.0961  156.6805 H   0  0  0  0  0  0  0  0  0  0  0  0  # atno 8009 bound_to 7997
  155.5150  140.3454  155.4398 H   0  0  0  0  0  0  0  0  0  0  0  0  # atno 8010 bound_to 7997
  139.7486  143.8552  152.2581 H   0  0  0  0  0  0  0  0  0  0  0  0  # atno 10167 bound_to 10162
  156.9809  131.0118  151.2882 H   0  0  0  0  0  0  0  0  0  0  0  0  # atno 10718 bound_to 10713
  154.3282  135.6182  153.5539 H   0  0  0  0  0  0  0  0  0  0  0  0  # atno 10763 bound_to 10752
  152.9813  135.5740  154.4992 H   0  0  0  0  0  0  0  0  0  0  0  0  # atno 10764 bound_to 10752
  154.4673  135.2858  155.1645 H   0  0  0  0  0  0  0  0  0  0  0  0  # atno 10765 bound_to 10752
  139.8865  134.8584  156.3216 H   0  0  0  0  0  0  0  0  0  0  0  0  # atno 11005 bound_to 11000
  145.1681  139.2420  143.5356 LP  0  0  0  0  0  0  0  0  0  0  0  0  # atno 17320 bound_to 7965
  146.3506  140.1425  142.8594 LP  0  0  0  0  0  0  0  0  0  0  0  0  # atno 17321 bound_to 7965
  139.8524  144.7158  150.9198 LP  0  0  0  0  0  0  0  0  0  0  0  0  # atno 17342 bound_to 10162
  140.7795  143.3888  151.1346 LP  0  0  0  0  0  0  0  0  0  0  0  0  # atno 17343 bound_to 10162
  157.5527  130.8193  149.8165 LP  0  0  0  0  0  0  0  0  0  0  0  0  # atno 17370 bound_to 10713
  156.0245  130.3784  150.1864 LP  0  0  0  0  0  0  0  0  0  0  0  0  # atno 17371 bound_to 10713
  140.9783  133.7283  156.0634 LP  0  0  0  0  0  0  0  0  0  0  0  0  # atno 17394 bound_to 11000
  140.7782  134.3755  157.5493 LP  0  0  0  0  0  0  0  0  0  0  0  0  # atno 17395 bound_to 11000

$$$$
