AV-unprocessed.smi:2923|AV-procd|sdf|11205|dock7
  -GOLD-   2272016 93D 1   1.00000     0.00000
 Structure written by MMmdl.
 47 49  0  0  0  0  0  0  0  0  2 V2000
  151.7108  145.4141  160.3768 C   0  0  0  0  0  0  0  0  0  0  0  0
  152.1067  144.4183  159.3874 N   0  0  0  0  0  0  0  0  0  0  0  0
  151.8572  144.6499  157.9707 C   0  0  0  0  0  0  0  0  0  0  0  0
  152.6658  143.1931  159.8109 C   0  0  0  0  0  0  0  0  0  0  0  0
  153.1262  142.9651  161.1306 C   0  0  0  0  0  0  0  0  0  0  0  0
  153.6758  141.7133  161.4750 C   0  0  0  0  0  0  0  0  0  0  0  0
  153.7707  140.6945  160.5043 C   0  0  0  0  0  0  0  0  0  0  0  0
  154.3299  139.4511  160.9086 N   0  0  0  0  0  0  0  0  0  0  0  0
  155.2853  139.2104  161.8230 C   0  0  0  0  0  0  0  0  0  0  0  0
  155.8573  140.0632  162.5010 O   0  0  0  0  0  0  0  0  0  0  0  0
  155.5455  137.8998  161.9159 N   0  0  0  0  0  0  0  0  0  0  0  0
  156.5425  137.3095  162.8106 C   0  0  1  0  0  0  0  0  0  0  0  0
  156.0365  137.1624  164.2633 C   0  0  1  0  0  0  0  0  0  0  0  0
  154.7550  137.7903  164.7557 C   0  0  0  0  0  0  0  0  0  0  0  0
  153.7523  136.6372  164.6552 C   0  0  0  0  0  0  0  0  0  0  0  0
  154.3309  135.7323  163.7173 O   0  0  0  0  0  0  0  0  0  0  0  0
  155.7379  135.7060  163.9476 C   0  0  1  0  0  0  0  0  0  0  0  0
  156.6368  135.7638  162.6951 C   0  0  0  0  0  0  0  0  0  0  0  0
  156.0893  135.0735  161.4381 C   0  0  0  0  0  0  0  0  0  0  0  0
  158.0469  135.2063  162.9101 C   0  0  0  0  0  0  0  0  0  0  0  0
  153.2863  140.9673  159.2024 C   0  0  0  0  0  0  0  0  0  0  0  0
  152.7668  142.1805  158.9159 N   0  3  0  0  0  0  0  0  0  0  0  0
  152.5772  145.7546  160.9448 H   0  0  0  0  0  0  0  0  0  0  0  0
  150.9823  144.9961  161.0723 H   0  0  0  0  0  0  0  0  0  0  0  0
  151.2575  146.2856  159.9043 H   0  0  0  0  0  0  0  0  0  0  0  0
  151.1566  143.9117  157.5797 H   0  0  0  0  0  0  0  0  0  0  0  0
  152.7856  144.5870  157.4024 H   0  0  0  0  0  0  0  0  0  0  0  0
  151.4302  145.6383  157.7995 H   0  0  0  0  0  0  0  0  0  0  0  0
  153.0684  143.7317  161.8884 H   0  0  0  0  0  0  0  0  0  0  0  0
  154.0261  141.5418  162.4825 H   0  0  0  0  0  0  0  0  0  0  0  0
  153.9298  138.6353  160.4686 H   0  0  0  0  0  0  0  0  0  0  0  0
  155.0362  137.2631  161.3205 H   0  0  0  0  0  0  0  0  0  0  0  0
  157.5154  137.8033  162.7686 H   0  0  0  0  0  0  0  0  0  0  0  0
  156.8637  137.2453  164.9700 H   0  0  0  0  0  0  0  0  0  0  0  0
  154.8389  138.1474  165.7825 H   0  0  0  0  0  0  0  0  0  0  0  0
  154.4485  138.6376  164.1429 H   0  0  0  0  0  0  0  0  0  0  0  0
  153.6517  136.1331  165.6173 H   0  0  0  0  0  0  0  0  0  0  0  0
  152.7629  136.9658  164.3361 H   0  0  0  0  0  0  0  0  0  0  0  0
  156.0417  135.0078  164.7289 H   0  0  0  0  0  0  0  0  0  0  0  0
  156.1073  133.9879  161.5391 H   0  0  0  0  0  0  0  0  0  0  0  0
  156.6741  135.3310  160.5545 H   0  0  0  0  0  0  0  0  0  0  0  0
  155.0553  135.3505  161.2325 H   0  0  0  0  0  0  0  0  0  0  0  0
  158.0340  134.1252  163.0528 H   0  0  0  0  0  0  0  0  0  0  0  0
  158.5220  135.6399  163.7906 H   0  0  0  0  0  0  0  0  0  0  0  0
  158.6939  135.4197  162.0586 H   0  0  0  0  0  0  0  0  0  0  0  0
  153.2811  140.2727  158.3767 H   0  0  0  0  0  0  0  0  0  0  0  0
  152.4290  142.3426  157.9672 H   0  0  0  0  0  0  0  0  0  0  0  0
  1  2  1  0  0  0  0
  1 23  1  0  0  0  0
  1 24  1  0  0  0  0
  1 25  1  0  0  0  0
  2  3  1  0  0  0  0
  2  4  1  0  0  0  0
  3 26  1  0  0  0  0
  3 27  1  0  0  0  0
  3 28  1  0  0  0  0
  4 22  1  0  0  0  0
  4  5  2  0  0  0  0
  5  6  1  0  0  0  0
  5 29  1  0  0  0  0
  6  7  2  0  0  0  0
  6 30  1  0  0  0  0
  7  8  1  0  0  0  0
  7 21  1  0  0  0  0
  8  9  1  0  0  0  0
  8 31  1  0  0  0  0
  9 10  2  0  0  0  0
  9 11  1  0  0  0  0
 11 12  1  0  0  0  0
 11 32  1  0  0  0  0
 12 18  1  0  0  0  0
 12 13  1  0  0  0  0
 12 33  1  0  0  0  0
 13 17  1  0  0  0  0
 13 14  1  0  0  0  0
 13 34  1  0  0  0  0
 14 15  1  0  0  0  0
 14 35  1  0  0  0  0
 14 36  1  0  0  0  0
 15 16  1  0  0  0  0
 15 37  1  0  0  0  0
 15 38  1  0  0  0  0
 16 17  1  0  0  0  0
 17 18  1  0  0  0  0
 17 39  1  0  0  0  0
 18 19  1  0  0  0  0
 18 20  1  0  0  0  0
 19 40  1  0  0  0  0
 19 41  1  0  0  0  0
 19 42  1  0  0  0  0
 20 43  1  0  0  0  0
 20 44  1  0  0  0  0
 20 45  1  0  0  0  0
 21 22  2  0  0  0  0
 21 46  1  0  0  0  0
 22 47  1  0  0  0  0
M  CHG  1  22   1
M  END
> <s_m_source_file>
AV-unprocessed.smi

> <i_m_source_file_index>
2923

> <i_lp_mmshare_version>
43012

> <i_f3d_flags>
0

> <s_epik_input>
W0NIM11OKFtDSDNdKWMxW2NIXVtjSF1jKFtjSF1uMSlbTkhdQyg9TylbTkhdW0NASF0yQyhbQ0gzXSkoW0NIM10pW0NAQEhdKFtDQEhdMjMpT1tDSDJdW0NIMl0z

> <s_epik_cmdline>
J2VwaWtfcHl0aG9uJywgJy1waCcsICc3LjAnLCAnLXRuJywgJzgnLCAnLW1hJywgJzIwMCcsICctbWV0YWxfYmluZGluZycsICctaW1hZScsICc8aW5maWxlLm1hZT4nLCAnLW9tYWUnLCAnPG91dGZpbGUubWFlPic=

> <r_lp_tautomer_probability>
0.999994

> <r_epik_Ionization_Penalty>
0.252205

> <r_epik_Ionization_Penalty_Charging>
0.252185

> <r_epik_Ionization_Penalty_Neutral>
1.99479e-05

> <r_epik_State_Penalty>
0.243573

> <r_epik_Charging_Adjusted_Penalty>
0.495758

> <i_epik_Tot_Q>
1

> <i_epik_Tot_abs_Q>
1

> <r_epik_Metal_State_Penalty>
0.534372

> <b_epik_Metal_Only>
0

> <s_lp_Force_Field>
OPLS_2005

> <r_lp_Energy>
46.5408

> <b_lp_Chiralities_Consistent>
1

> <s_lp_Variant>
AV-unprocessed.smi:2923-4

> <Gold.Version>
5.8.1

> <Gold.Id.Protein>
6NUR|6NUR_protein|mol2

> <Gold.PLP.Fitness>
40.9567

> <Gold.PLP.PLP>
-41.5981

> <Gold.PLP.part.hbond>
-0.5866

> <Gold.PLP.part.metal>
0.0000

> <Gold.PLP.part.buried>
-5.4789

> <Gold.PLP.part.nonpolar>
-35.1444

> <Gold.PLP.part.repulsive>
0.1404

> <Gold.PLP.ligand.clash>
0.0000

> <Gold.PLP.ligand.torsion>
0.4142

> <Gold.PLP.Chemscore.Hbond>
0.0000

> <Gold.PLP.Chemscore.CHOScore>
0.0000

> <Gold.PLP.Chemscore.Metal>
0.0000

> <Gold.PLP.Chemscore.Internal.Correction>
0.1871

> <Gold.Rescore>
     Score         DG    S(hbond)    S(metal)    S(lipo)     H(rot)  DE(clash)    DE(int)     intcor
     13.16     -14.81       0.00        0.00     101.59       1.00       0.00       1.64       ----

> <Gold.Chemscore.Fitness>
13.1650

> <Gold.Chemscore.DG>
-14.8063

> <Gold.Chemscore.ZeroCoef>
-5.4800

> <Gold.Chemscore.Hbond>
0.0000

> <Gold.Chemscore.Metal>
0.0000

> <Gold.Chemscore.Lipo>
101.5922

> <Gold.Chemscore.Internal_Hbond>
0.0000

> <Gold.Chemscore.DEClash>
0.0048

> <Gold.Chemscore.DEInternal>
1.6365

> <Gold.Chemscore.Rot>
1.0000

> <Gold.Chemscore.Internal.Correction>
   9.000000E+99

> <Gold.Chemscore.Hbond.Weighted>
-0.0000

> <Gold.Chemscore.Metal.Weighted>
-0.0000

> <Gold.Chemscore.Lipo.Weighted>
-11.8863

> <Gold.Chemscore.Internal_Hbond.Weighted>
0.0000

> <Gold.Chemscore.DEClash.Weighted>
0.0048

> <Gold.Chemscore.DEInternal.Weighted>
1.6365

> <Gold.Chemscore.Rot.Weighted>
2.5600

> <Gold.Chemscore.Internal.Correction.Weighted>
   9.000000E+99

> <Gold.Protein.RotatedTorsions>
[ 6907 6896 6895 6894 ] final   68.16 input  -60.11 | X-H torsion
[ 7974 7965 7964 7962 ] final -178.73 input  175.53 | X-H torsion
[ 8008 7997 7996 7995 ] final   -3.92 input   59.86 | X-H torsion
[ 10167 10162 10161 10158 ] final  101.99 input  -65.29 | X-H torsion
[ 10718 10713 10712 10709 ] final   14.15 input   66.30 | X-H torsion
[ 10763 10752 10751 10750 ] final  -27.31 input  -60.55 | X-H torsion
[ 11005 11000 10999 10996 ] final -139.70 input  -57.11 | X-H torsion

> <Gold.Protein.ActiveResidues>
 VAL166  LYS551  ARG553  GLY616  TRP617  ASP618  TYR619  PRO620  LYS621  CYS622 
 ASP623  PHE694  ASN695  SER759  ASP760  ASP761  ALA762  ILE779  LEU786  VAL792 
 PHE793  MET794  SER795  GLU796  ALA797  LYS798  CYS799  TRP800  GLU811  SER814 

> <Gold.Protein.RotatedAtoms>
  152.4601  134.5203  159.9780 H   0  0  0  0  0  0  0  0  0  0  0  0  # atno 6907 bound_to 6896
  151.5254  133.3453  159.2916 H   0  0  0  0  0  0  0  0  0  0  0  0  # atno 6908 bound_to 6896
  150.8561  134.7930  159.7109 H   0  0  0  0  0  0  0  0  0  0  0  0  # atno 6909 bound_to 6896
  144.7132  140.0824  143.6425 H   0  0  0  0  0  0  0  0  0  0  0  0  # atno 7974 bound_to 7965
  154.6197  140.2497  155.7564 H   0  0  0  0  0  0  0  0  0  0  0  0  # atno 8008 bound_to 7997
  156.2420  140.2929  156.0419 H   0  0  0  0  0  0  0  0  0  0  0  0  # atno 8009 bound_to 7997
  155.1916  140.0392  157.2892 H   0  0  0  0  0  0  0  0  0  0  0  0  # atno 8010 bound_to 7997
  139.7389  144.7016  151.0605 H   0  0  0  0  0  0  0  0  0  0  0  0  # atno 10167 bound_to 10162
  157.0349  130.6208  149.5741 H   0  0  0  0  0  0  0  0  0  0  0  0  # atno 10718 bound_to 10713
  153.7300  135.6939  153.4991 H   0  0  0  0  0  0  0  0  0  0  0  0  # atno 10763 bound_to 10752
  153.2143  135.4392  155.0414 H   0  0  0  0  0  0  0  0  0  0  0  0  # atno 10764 bound_to 10752
  154.8256  135.3444  154.6830 H   0  0  0  0  0  0  0  0  0  0  0  0  # atno 10765 bound_to 10752
  140.8495  134.2304  157.4768 H   0  0  0  0  0  0  0  0  0  0  0  0  # atno 11005 bound_to 11000
  145.9690  139.2856  143.1110 LP  0  0  0  0  0  0  0  0  0  0  0  0  # atno 17320 bound_to 7965
  145.9137  140.9162  143.0441 LP  0  0  0  0  0  0  0  0  0  0  0  0  # atno 17321 bound_to 7965
  140.7783  143.4949  150.9846 LP  0  0  0  0  0  0  0  0  0  0  0  0  # atno 17342 bound_to 10162
  139.8637  143.7281  152.3171 LP  0  0  0  0  0  0  0  0  0  0  0  0  # atno 17343 bound_to 10162
  156.0057  130.5143  150.7821 LP  0  0  0  0  0  0  0  0  0  0  0  0  # atno 17370 bound_to 10713
  157.5149  131.0928  151.0152 LP  0  0  0  0  0  0  0  0  0  0  0  0  # atno 17371 bound_to 10713
  139.8704  134.9676  156.4602 LP  0  0  0  0  0  0  0  0  0  0  0  0  # atno 17394 bound_to 11000
  140.8806  133.7920  155.9463 LP  0  0  0  0  0  0  0  0  0  0  0  0  # atno 17395 bound_to 11000

$$$$
