AV-unprocessed.smi:1272|AV-procd|sdf|5335|dock3
  -GOLD-   22720 4463D 1   1.00000     0.00000
 Structure written by MMmdl.
 45 47  0  0  0  0  0  0  0  0  1 V2000
  149.8066  142.2637  157.7745 C   0  0  0  0  0  0  0  0  0  0  0  0
  151.3064  142.3783  157.4749 C   0  0  0  0  0  0  0  0  0  0  0  0
  152.1079  141.8484  158.5753 N   0  0  0  0  0  0  0  0  0  0  0  0
  152.7435  140.6533  158.6085 C   0  0  0  0  0  0  0  0  0  0  0  0
  152.7604  139.8176  157.7047 O   0  0  0  0  0  0  0  0  0  0  0  0
  153.3560  140.5355  159.8103 N   0  0  0  0  0  0  0  0  0  0  0  0
  154.1595  139.4029  160.2693 C   0  0  0  0  0  0  0  0  0  0  0  0
  153.3555  138.0861  160.2518 C   0  0  1  0  0  0  0  0  0  0  0  0
  153.4286  137.5665  158.9382 O   0  0  0  0  0  0  0  0  0  0  0  0
  153.9534  137.0325  161.2102 C   0  0  0  0  0  0  0  0  0  0  0  0
  154.1315  137.4751  162.5939 N   0  0  0  0  0  0  0  0  0  0  0  0
  155.3902  138.1964  162.7528 C   0  0  0  0  0  0  0  0  0  0  0  0
  155.6016  138.6765  164.1989 C   0  0  0  0  0  0  0  0  0  0  0  0
  155.5458  137.5616  165.0827 O   0  0  0  0  0  0  0  0  0  0  0  0
  154.3126  136.8556  164.9960 C   0  0  0  0  0  0  0  0  0  0  0  0
  154.0925  136.3721  163.5517 C   0  0  0  0  0  0  0  0  0  0  0  0
  153.1018  141.6870  160.5697 C   0  0  0  0  0  0  0  0  0  0  0  0
  153.5084  142.0508  161.8655 C   0  0  0  0  0  0  0  0  0  0  0  0
  153.0706  143.3046  162.3527 C   0  0  0  0  0  0  0  0  0  0  0  0
  152.2556  144.1500  161.5559 C   0  0  0  0  0  0  0  0  0  0  0  0
  151.8630  143.7607  160.2541 C   0  0  0  0  0  0  0  0  0  0  0  0
  152.3137  142.5112  159.7937 C   0  0  0  0  0  0  0  0  0  0  0  0
  149.2151  142.6557  156.9469 H   0  0  0  0  0  0  0  0  0  0  0  0
  149.5384  142.8250  158.6700 H   0  0  0  0  0  0  0  0  0  0  0  0
  149.5136  141.2248  157.9290 H   0  0  0  0  0  0  0  0  0  0  0  0
  151.5412  141.8433  156.5535 H   0  0  0  0  0  0  0  0  0  0  0  0
  151.5735  143.4200  157.2950 H   0  0  0  0  0  0  0  0  0  0  0  0
  155.0778  139.3125  159.6880 H   0  0  0  0  0  0  0  0  0  0  0  0
  154.4810  139.6253  161.2879 H   0  0  0  0  0  0  0  0  0  0  0  0
  152.3156  138.2807  160.5185 H   0  0  0  0  0  0  0  0  0  0  0  0
  153.5328  138.2888  158.3378 H   0  0  0  0  0  0  0  0  0  0  0  0
  153.3748  136.1078  161.1741 H   0  0  0  0  0  0  0  0  0  0  0  0
  154.9398  136.7658  160.8290 H   0  0  0  0  0  0  0  0  0  0  0  0
  156.2236  137.5546  162.4620 H   0  0  0  0  0  0  0  0  0  0  0  0
  155.4115  139.0570  162.0830 H   0  0  0  0  0  0  0  0  0  0  0  0
  156.5715  139.1638  164.2993 H   0  0  0  0  0  0  0  0  0  0  0  0
  154.8433  139.4101  164.4777 H   0  0  0  0  0  0  0  0  0  0  0  0
  154.3385  136.0073  165.6803 H   0  0  0  0  0  0  0  0  0  0  0  0
  153.4928  137.5007  165.3164 H   0  0  0  0  0  0  0  0  0  0  0  0
  153.1309  135.8623  163.5006 H   0  0  0  0  0  0  0  0  0  0  0  0
  154.8544  135.6339  163.2973 H   0  0  0  0  0  0  0  0  0  0  0  0
  154.1301  141.4052  162.4677 H   0  0  0  0  0  0  0  0  0  0  0  0
  153.3602  143.6219  163.3436 H   0  0  0  0  0  0  0  0  0  0  0  0
  151.9314  145.1028  161.9480 H   0  0  0  0  0  0  0  0  0  0  0  0
  151.2432  144.3998  159.6430 H   0  0  0  0  0  0  0  0  0  0  0  0
  1  2  1  0  0  0  0
  1 23  1  0  0  0  0
  1 24  1  0  0  0  0
  1 25  1  0  0  0  0
  2  3  1  0  0  0  0
  2 26  1  0  0  0  0
  2 27  1  0  0  0  0
  3 22  1  0  0  0  0
  3  4  1  0  0  0  0
  4  5  2  0  0  0  0
  4  6  1  0  0  0  0
  6  7  1  0  0  0  0
  6 17  1  0  0  0  0
  7  8  1  0  0  0  0
  7 28  1  0  0  0  0
  7 29  1  0  0  0  0
  8  9  1  0  0  0  0
  8 10  1  0  0  0  0
  8 30  1  0  0  0  0
  9 31  1  0  0  0  0
 10 11  1  0  0  0  0
 10 32  1  0  0  0  0
 10 33  1  0  0  0  0
 11 16  1  0  0  0  0
 11 12  1  0  0  0  0
 12 13  1  0  0  0  0
 12 34  1  0  0  0  0
 12 35  1  0  0  0  0
 13 14  1  0  0  0  0
 13 36  1  0  0  0  0
 13 37  1  0  0  0  0
 14 15  1  0  0  0  0
 15 16  1  0  0  0  0
 15 38  1  0  0  0  0
 15 39  1  0  0  0  0
 16 40  1  0  0  0  0
 16 41  1  0  0  0  0
 17 22  2  0  0  0  0
 17 18  1  0  0  0  0
 18 19  2  0  0  0  0
 18 42  1  0  0  0  0
 19 20  1  0  0  0  0
 19 43  1  0  0  0  0
 20 21  2  0  0  0  0
 20 44  1  0  0  0  0
 21 22  1  0  0  0  0
 21 45  1  0  0  0  0
M  END
> <s_m_source_file>
AV-unprocessed.smi

> <i_m_source_file_index>
1272

> <i_lp_mmshare_version>
43012

> <i_f3d_flags>
0

> <s_epik_input>
W2NIXTFbY0hdW2NIXVtjSF1jKGMxMiluKFtDSDJdW0NIM10pYyg9TyluMltDSDJdW0NASF0oW09IXSlbQ0gyXU4zW0NIMl1bQ0gyXU9bQ0gyXVtDSDJdMw==

> <s_epik_cmdline>
J2VwaWtfcHl0aG9uJywgJy1waCcsICc3LjAnLCAnLXRuJywgJzgnLCAnLW1hJywgJzIwMCcsICctbWV0YWxfYmluZGluZycsICctaW1hZScsICc8aW5maWxlLm1hZT4nLCAnLW9tYWUnLCAnPG91dGZpbGUubWFlPic=

> <r_epik_Ionization_Penalty>
0.214359

> <r_epik_Ionization_Penalty_Charging>
2.31431e-09

> <r_epik_Ionization_Penalty_Neutral>
0.214359

> <r_epik_State_Penalty>
0.204533

> <r_epik_Charging_Adjusted_Penalty>
0.204533

> <i_epik_Tot_Q>
0

> <i_epik_Tot_abs_Q>
0

> <r_epik_Metal_State_Penalty>
0.204533

> <b_epik_Metal_Only>
0

> <s_lp_Force_Field>
OPLS_2005

> <r_lp_Energy>
62.2606

> <b_lp_Chiralities_Consistent>
1

> <s_lp_Variant>
AV-unprocessed.smi:1272-2

> <Gold.Version>
5.8.1

> <Gold.Id.Protein>
6NUR|6NUR_protein|mol2

> <Gold.PLP.Fitness>
50.6276

> <Gold.PLP.PLP>
-49.0257

> <Gold.PLP.part.hbond>
-1.0000

> <Gold.PLP.part.metal>
0.0000

> <Gold.PLP.part.buried>
-4.2768

> <Gold.PLP.part.nonpolar>
-42.9592

> <Gold.PLP.part.repulsive>
0.0893

> <Gold.PLP.ligand.clash>
0.0000

> <Gold.PLP.ligand.torsion>
0.7648

> <Gold.PLP.Chemscore.Hbond>
1.0000

> <Gold.PLP.Chemscore.CHOScore>
0.0000

> <Gold.PLP.Chemscore.Metal>
0.0000

> <Gold.Chemscore.Hbonds>
donor molecule, donor type, donor heavy atom, donor atom, acceptor molecule, acceptor atom, score
      P1  H  7997  8010       L1     5  1.00

> <Gold.PLP.Chemscore.Internal.Correction>
0.1315

> <Gold.Rescore>
     Score         DG    S(hbond)    S(metal)    S(lipo)     H(rot)  DE(clash)    DE(int)     intcor
     17.56     -18.38       0.91        0.00     130.99       2.14       0.24       0.58       ----

> <Gold.Chemscore.Fitness>
17.5629

> <Gold.Chemscore.DG>
-18.3812

> <Gold.Chemscore.ZeroCoef>
-5.4800

> <Gold.Chemscore.Hbond>
0.9133

> <Gold.Chemscore.Metal>
0.0000

> <Gold.Chemscore.Lipo>
130.9878

> <Gold.Chemscore.Internal_Hbond>
0.0000

> <Gold.Chemscore.DEClash>
0.2398

> <Gold.Chemscore.DEInternal>
0.5785

> <Gold.Chemscore.Rot>
2.1386

> <Gold.Chemscore.Internal.Correction>
   9.000000E+99

> <Gold.Chemscore.Hbonds>
donor molecule, donor type, donor heavy atom, donor atom, acceptor molecule, acceptor atom, score
      P1  H  7997  8010       L1     5  0.50

> <Gold.Chemscore.Hbond.Weighted>
-3.0505

> <Gold.Chemscore.Metal.Weighted>
-0.0000

> <Gold.Chemscore.Lipo.Weighted>
-15.3256

> <Gold.Chemscore.Internal_Hbond.Weighted>
0.0000

> <Gold.Chemscore.DEClash.Weighted>
0.2398

> <Gold.Chemscore.DEInternal.Weighted>
0.5785

> <Gold.Chemscore.Rot.Weighted>
5.4749

> <Gold.Chemscore.Internal.Correction.Weighted>
   9.000000E+99

> <Gold.Protein.RotatedTorsions>
[ 6907 6896 6895 6894 ] final  129.71 input  -60.11 | X-H torsion
[ 7974 7965 7964 7962 ] final  126.21 input  175.53 | X-H torsion
[ 8008 7997 7996 7995 ] final   47.22 input   59.86 | X-H torsion
[ 10167 10162 10161 10158 ] final -117.50 input  -65.29 | X-H torsion
[ 10718 10713 10712 10709 ] final   42.60 input   66.30 | X-H torsion
[ 10763 10752 10751 10750 ] final  167.72 input  -60.55 | X-H torsion
[ 11005 11000 10999 10996 ] final -147.91 input  -57.11 | X-H torsion

> <Gold.Protein.ActiveResidues>
 VAL166  LYS551  ARG553  GLY616  TRP617  ASP618  TYR619  PRO620  LYS621  CYS622 
 ASP623  PHE694  ASN695  SER759  ASP760  ASP761  ALA762  ILE779  LEU786  VAL792 
 PHE793  MET794  SER795  GLU796  ALA797  LYS798  CYS799  TRP800  GLU811  SER814 

> <Gold.Protein.RotatedAtoms>
  152.3597  133.6281  159.6005 H   0  0  0  0  0  0  0  0  0  0  0  0  # atno 6907 bound_to 6896
  150.7593  133.9443  159.3475 H   0  0  0  0  0  0  0  0  0  0  0  0  # atno 6908 bound_to 6896
  151.7283  135.0881  160.0347 H   0  0  0  0  0  0  0  0  0  0  0  0  # atno 6909 bound_to 6896
  145.0642  139.3781  143.4990 H   0  0  0  0  0  0  0  0  0  0  0  0  # atno 7974 bound_to 7965
  155.3654  140.3421  155.4242 H   0  0  0  0  0  0  0  0  0  0  0  0  # atno 8008 bound_to 7997
  156.1691  140.1626  156.8513 H   0  0  0  0  0  0  0  0  0  0  0  0  # atno 8009 bound_to 7997
  154.5215  140.0766  156.8163 H   0  0  0  0  0  0  0  0  0  0  0  0  # atno 8010 bound_to 7997
  140.0677  143.4907  152.1997 H   0  0  0  0  0  0  0  0  0  0  0  0  # atno 10167 bound_to 10162
  157.4066  130.7890  149.7394 H   0  0  0  0  0  0  0  0  0  0  0  0  # atno 10718 bound_to 10713
  154.3580  135.2753  155.2335 H   0  0  0  0  0  0  0  0  0  0  0  0  # atno 10763 bound_to 10752
  154.4536  135.5925  153.6211 H   0  0  0  0  0  0  0  0  0  0  0  0  # atno 10764 bound_to 10752
  152.9845  135.6048  154.3798 H   0  0  0  0  0  0  0  0  0  0  0  0  # atno 10765 bound_to 10752
  140.7668  134.3235  157.5086 H   0  0  0  0  0  0  0  0  0  0  0  0  # atno 11005 bound_to 11000
  146.3526  140.0356  142.8647 LP  0  0  0  0  0  0  0  0  0  0  0  0  # atno 17320 bound_to 7965
  145.1371  140.9550  143.4510 LP  0  0  0  0  0  0  0  0  0  0  0  0  # atno 17321 bound_to 7965
  139.5855  144.7529  151.3532 LP  0  0  0  0  0  0  0  0  0  0  0  0  # atno 17342 bound_to 10162
  140.7141  143.7313  150.7621 LP  0  0  0  0  0  0  0  0  0  0  0  0  # atno 17343 bound_to 10162
  155.9838  130.3997  150.3343 LP  0  0  0  0  0  0  0  0  0  0  0  0  # atno 17370 bound_to 10713
  157.1476  131.0312  151.2899 LP  0  0  0  0  0  0  0  0  0  0  0  0  # atno 17371 bound_to 10713
  139.8762  134.9236  156.3329 LP  0  0  0  0  0  0  0  0  0  0  0  0  # atno 17394 bound_to 11000
  140.9612  133.7388  156.0403 LP  0  0  0  0  0  0  0  0  0  0  0  0  # atno 17395 bound_to 11000

$$$$
