AV-unprocessed.smi:1762|AV-procd|sdf|7113|dock3
  -GOLD-   22720 8343D 1   1.00000     0.00000
 Structure written by MMmdl.
 53 54  0  0  0  0  0  0  0  0  2 V2000
  152.2473  143.7085  159.6153 C   0  0  0  0  0  0  0  0  0  0  0  0
  152.9207  142.3532  159.3724 C   0  0  2  0  0  0  0  0  0  0  0  0
  152.0260  141.4012  158.5604 C   0  0  0  0  0  0  0  0  0  0  0  0
  152.6752  140.0701  158.3926 N   0  3  2  0  0  0  0  0  0  0  0  0
  151.9123  139.1553  157.4747 C   0  0  1  0  0  0  0  0  0  0  0  0
  150.4481  139.0020  157.9408 C   0  0  0  0  0  0  0  0  0  0  0  0
  149.6999  139.9803  157.9616 O   0  0  0  0  0  0  0  0  0  0  0  0
  150.0571  137.7726  158.3094 N   0  0  0  0  0  0  0  0  0  0  0  0
  148.7160  137.4260  158.7612 C   0  0  0  0  0  0  0  0  0  0  0  0
  148.6483  135.9452  159.1597 C   0  0  0  0  0  0  0  0  0  0  0  0
  147.8673  135.7310  160.4426 C   0  0  0  0  0  0  0  0  0  0  0  0
  147.5576  134.4286  160.8889 C   0  0  0  0  0  0  0  0  0  0  0  0
  146.8371  134.2848  162.0905 C   0  0  0  0  0  0  0  0  0  0  0  0
  146.4581  135.4426  162.7968 C   0  0  0  0  0  0  0  0  0  0  0  0
  146.8171  136.6982  162.2672 C   0  0  0  0  0  0  0  0  0  0  0  0
  147.5067  136.8471  161.1155 N   0  0  0  0  0  0  0  0  0  0  0  0
  151.9685  139.5635  155.9629 C   0  0  0  0  0  0  0  0  0  0  0  0
  151.1101  140.7973  155.6129 C   0  0  0  0  0  0  0  0  0  0  0  0
  151.6385  138.4020  155.0044 C   0  0  0  0  0  0  0  0  0  0  0  0
  152.9820  139.5146  159.7405 C   0  0  0  0  0  0  0  0  0  0  0  0
  153.8271  140.4940  160.5793 C   0  0  1  0  0  0  0  0  0  0  0  0
  155.2926  140.5874  160.1167 C   0  0  0  0  0  0  0  0  0  0  0  0
  153.1971  141.7709  160.6408 O   0  0  0  0  0  0  0  0  0  0  0  0
  152.0163  144.2072  158.6737 H   0  0  0  0  0  0  0  0  0  0  0  0
  152.8979  144.3691  160.1889 H   0  0  0  0  0  0  0  0  0  0  0  0
  151.3161  143.5938  160.1711 H   0  0  0  0  0  0  0  0  0  0  0  0
  153.8510  142.5320  158.8331 H   0  0  0  0  0  0  0  0  0  0  0  0
  151.0622  141.2739  159.0568 H   0  0  0  0  0  0  0  0  0  0  0  0
  151.8211  141.8686  157.5976 H   0  0  0  0  0  0  0  0  0  0  0  0
  152.3893  138.1766  157.5563 H   0  0  0  0  0  0  0  0  0  0  0  0
  150.7315  137.0222  158.2634 H   0  0  0  0  0  0  0  0  0  0  0  0
  148.4555  138.0581  159.6112 H   0  0  0  0  0  0  0  0  0  0  0  0
  147.9865  137.6273  157.9745 H   0  0  0  0  0  0  0  0  0  0  0  0
  148.1821  135.3648  158.3619 H   0  0  0  0  0  0  0  0  0  0  0  0
  149.6554  135.5443  159.2821 H   0  0  0  0  0  0  0  0  0  0  0  0
  147.8651  133.5590  160.3267 H   0  0  0  0  0  0  0  0  0  0  0  0
  146.5812  133.3042  162.4639 H   0  0  0  0  0  0  0  0  0  0  0  0
  145.9059  135.3705  163.7221 H   0  0  0  0  0  0  0  0  0  0  0  0
  146.5436  137.6074  162.7820 H   0  0  0  0  0  0  0  0  0  0  0  0
  153.0024  139.8058  155.7220 H   0  0  0  0  0  0  0  0  0  0  0  0
  150.0445  140.5870  155.7071 H   0  0  0  0  0  0  0  0  0  0  0  0
  151.2867  141.1114  154.5839 H   0  0  0  0  0  0  0  0  0  0  0  0
  151.3350  141.6495  156.2534 H   0  0  0  0  0  0  0  0  0  0  0  0
  150.5873  138.1164  155.0499 H   0  0  0  0  0  0  0  0  0  0  0  0
  152.2369  137.5197  155.2329 H   0  0  0  0  0  0  0  0  0  0  0  0
  151.8507  138.6799  153.9715 H   0  0  0  0  0  0  0  0  0  0  0  0
  152.0454  139.2965  160.2560 H   0  0  0  0  0  0  0  0  0  0  0  0
  153.5372  138.5808  159.6818 H   0  0  0  0  0  0  0  0  0  0  0  0
  153.8459  140.1203  161.6035 H   0  0  0  0  0  0  0  0  0  0  0  0
  155.7903  139.6221  160.2129 H   0  0  0  0  0  0  0  0  0  0  0  0
  155.8466  141.3045  160.7228 H   0  0  0  0  0  0  0  0  0  0  0  0
  155.3805  140.8913  159.0738 H   0  0  0  0  0  0  0  0  0  0  0  0
  153.5645  140.2338  157.9421 H   0  0  0  0  0  0  0  0  0  0  0  0
  1  2  1  0  0  0  0
  1 24  1  0  0  0  0
  1 25  1  0  0  0  0
  1 26  1  0  0  0  0
  2 23  1  0  0  0  0
  2  3  1  0  0  0  0
  2 27  1  0  0  0  0
  3  4  1  0  0  0  0
  3 28  1  0  0  0  0
  3 29  1  0  0  0  0
  4  5  1  0  0  0  0
  4 20  1  0  0  0  0
  4 53  1  0  0  0  0
  5  6  1  0  0  0  0
  5 17  1  0  0  0  0
  5 30  1  0  0  0  0
  6  7  2  0  0  0  0
  6  8  1  0  0  0  0
  8  9  1  0  0  0  0
  8 31  1  0  0  0  0
  9 10  1  0  0  0  0
  9 32  1  0  0  0  0
  9 33  1  0  0  0  0
 10 11  1  0  0  0  0
 10 34  1  0  0  0  0
 10 35  1  0  0  0  0
 11 16  1  0  0  0  0
 11 12  2  0  0  0  0
 12 13  1  0  0  0  0
 12 36  1  0  0  0  0
 13 14  2  0  0  0  0
 13 37  1  0  0  0  0
 14 15  1  0  0  0  0
 14 38  1  0  0  0  0
 15 16  2  0  0  0  0
 15 39  1  0  0  0  0
 17 18  1  0  0  0  0
 17 19  1  0  0  0  0
 17 40  1  0  0  0  0
 18 41  1  0  0  0  0
 18 42  1  0  0  0  0
 18 43  1  0  0  0  0
 19 44  1  0  0  0  0
 19 45  1  0  0  0  0
 19 46  1  0  0  0  0
 20 21  1  0  0  0  0
 20 47  1  0  0  0  0
 20 48  1  0  0  0  0
 21 22  1  0  0  0  0
 21 23  1  0  0  0  0
 21 49  1  0  0  0  0
 22 50  1  0  0  0  0
 22 51  1  0  0  0  0
 22 52  1  0  0  0  0
M  CHG  1   4   1
M  END
> <s_m_source_file>
AV-unprocessed.smi

> <i_m_source_file_index>
1762

> <i_lp_mmshare_version>
43012

> <i_f3d_flags>
0

> <s_epik_input>
W0NIM11bQ0BASF0xW0NIMl1OKFtDSDJdW0NASF0oTzEpW0NIM10pW0NAQEhdKFtDSF0oW0NIM10pW0NIM10pQyg9TylbTkhdW0NIMl1bQ0gyXWMyW2NIXVtjSF1bY0hdW2NIXW4y

> <s_epik_cmdline>
J2VwaWtfcHl0aG9uJywgJy1waCcsICc3LjAnLCAnLXRuJywgJzgnLCAnLW1hJywgJzIwMCcsICctbWV0YWxfYmluZGluZycsICctaW1hZScsICc8aW5maWxlLm1hZT4nLCAnLW9tYWUnLCAnPG91dGZpbGUubWFlPic=

> <r_epik_Ionization_Penalty>
2.27005

> <r_epik_Ionization_Penalty_Charging>
2.24983

> <r_epik_Ionization_Penalty_Neutral>
0.0202209

> <r_epik_State_Penalty>
2.40228

> <r_epik_Charging_Adjusted_Penalty>
4.65211

> <i_epik_Tot_Q>
1

> <i_epik_Tot_abs_Q>
1

> <r_epik_Metal_State_Penalty>
2.40762

> <b_epik_Metal_Only>
0

> <s_lp_Force_Field>
OPLS_2005

> <r_lp_Energy>
25.3597

> <b_lp_Chiralities_Consistent>
1

> <s_lp_Variant>
AV-unprocessed.smi:1762-15

> <Gold.Version>
5.8.1

> <Gold.Id.Protein>
6NUR|6NUR_protein|mol2

> <Gold.PLP.Fitness>
50.0856

> <Gold.PLP.PLP>
-46.1452

> <Gold.PLP.part.hbond>
-2.0000

> <Gold.PLP.part.metal>
0.0000

> <Gold.PLP.part.buried>
-5.5088

> <Gold.PLP.part.nonpolar>
-40.2017

> <Gold.PLP.part.repulsive>
0.2416

> <Gold.PLP.ligand.clash>
0.0000

> <Gold.PLP.ligand.torsion>
0.7565

> <Gold.PLP.Chemscore.Hbond>
1.7455

> <Gold.PLP.Chemscore.CHOScore>
0.0000

> <Gold.PLP.Chemscore.Metal>
0.0000

> <Gold.Chemscore.Hbonds>
donor molecule, donor type, donor heavy atom, donor atom, acceptor molecule, acceptor atom, score
      P1  H  6931  6943       L1    16  0.46
      P1  H  6934  6947       L1    16  0.46

> <Gold.PLP.Chemscore.Internal.Correction>
0.2169

> <Gold.Rescore>
     Score         DG    S(hbond)    S(metal)    S(lipo)     H(rot)  DE(clash)    DE(int)     intcor
     15.15     -20.89       1.08        0.00     137.36       1.66       1.68       4.06       ----

> <Gold.Chemscore.Fitness>
15.1481

> <Gold.Chemscore.DG>
-20.8907

> <Gold.Chemscore.ZeroCoef>
-5.4800

> <Gold.Chemscore.Hbond>
1.0774

> <Gold.Chemscore.Metal>
0.0000

> <Gold.Chemscore.Lipo>
137.3566

> <Gold.Chemscore.Internal_Hbond>
0.0000

> <Gold.Chemscore.DEClash>
1.6793

> <Gold.Chemscore.DEInternal>
4.0633

> <Gold.Chemscore.Rot>
1.6635

> <Gold.Chemscore.Internal.Correction>
   9.000000E+99

> <Gold.Chemscore.Hbonds>
donor molecule, donor type, donor heavy atom, donor atom, acceptor molecule, acceptor atom, score
      P1  H  6931  6943       L1    16  0.07
      P1  H  6934  6947       L1    16  0.06

> <Gold.Chemscore.Hbond.Weighted>
-3.5986

> <Gold.Chemscore.Metal.Weighted>
-0.0000

> <Gold.Chemscore.Lipo.Weighted>
-16.0707

> <Gold.Chemscore.Internal_Hbond.Weighted>
0.0000

> <Gold.Chemscore.DEClash.Weighted>
1.6793

> <Gold.Chemscore.DEInternal.Weighted>
4.0633

> <Gold.Chemscore.Rot.Weighted>
4.2586

> <Gold.Chemscore.Internal.Correction.Weighted>
   9.000000E+99

> <Gold.Protein.RotatedTorsions>
[ 6907 6896 6895 6894 ] final  136.42 input  -60.11 | X-H torsion
[ 7974 7965 7964 7962 ] final -153.65 input  175.53 | X-H torsion
[ 8008 7997 7996 7995 ] final  143.08 input   59.86 | X-H torsion
[ 10167 10162 10161 10158 ] final -143.00 input  -65.29 | X-H torsion
[ 10718 10713 10712 10709 ] final  177.89 input   66.30 | X-H torsion
[ 10763 10752 10751 10750 ] final   77.90 input  -60.55 | X-H torsion
[ 11005 11000 10999 10996 ] final -154.00 input  -57.11 | X-H torsion

> <Gold.Protein.ActiveResidues>
 VAL166  LYS551  ARG553  GLY616  TRP617  ASP618  TYR619  PRO620  LYS621  CYS622 
 ASP623  PHE694  ASN695  SER759  ASP760  ASP761  ALA762  ILE779  LEU786  VAL792 
 PHE793  MET794  SER795  GLU796  ALA797  LYS798  CYS799  TRP800  GLU811  SER814 

> <Gold.Protein.RotatedAtoms>
  152.2896  133.5548  159.5548 H   0  0  0  0  0  0  0  0  0  0  0  0  # atno 6907 bound_to 6896
  150.7229  134.0448  159.3787 H   0  0  0  0  0  0  0  0  0  0  0  0  # atno 6908 bound_to 6896
  151.8355  135.0608  160.0492 H   0  0  0  0  0  0  0  0  0  0  0  0  # atno 6909 bound_to 6896
  144.7730  140.4497  143.5893 H   0  0  0  0  0  0  0  0  0  0  0  0  # atno 7974 bound_to 7965
  156.2937  140.2272  156.4832 H   0  0  0  0  0  0  0  0  0  0  0  0  # atno 8008 bound_to 7997
  154.7835  140.0459  157.1167 H   0  0  0  0  0  0  0  0  0  0  0  0  # atno 8009 bound_to 7997
  154.9730  140.3069  155.4983 H   0  0  0  0  0  0  0  0  0  0  0  0  # atno 8010 bound_to 7997
  139.8035  143.7800  152.2659 H   0  0  0  0  0  0  0  0  0  0  0  0  # atno 10167 bound_to 10162
  156.8986  130.9871  151.3039 H   0  0  0  0  0  0  0  0  0  0  0  0  # atno 10718 bound_to 10713
  153.0833  135.4897  154.8546 H   0  0  0  0  0  0  0  0  0  0  0  0  # atno 10763 bound_to 10752
  154.7179  135.3033  154.9097 H   0  0  0  0  0  0  0  0  0  0  0  0  # atno 10764 bound_to 10752
  153.9771  135.6794  153.4802 H   0  0  0  0  0  0  0  0  0  0  0  0  # atno 10765 bound_to 10752
  140.7021  134.3926  157.5208 H   0  0  0  0  0  0  0  0  0  0  0  0  # atno 11005 bound_to 11000
  145.6268  139.1531  143.2991 LP  0  0  0  0  0  0  0  0  0  0  0  0  # atno 17320 bound_to 7965
  146.1890  140.6375  142.9154 LP  0  0  0  0  0  0  0  0  0  0  0  0  # atno 17321 bound_to 7965
  139.7928  144.7404  150.9932 LP  0  0  0  0  0  0  0  0  0  0  0  0  # atno 17342 bound_to 10162
  140.7820  143.4425  151.0531 LP  0  0  0  0  0  0  0  0  0  0  0  0  # atno 17343 bound_to 10162
  157.6040  130.8533  149.8846 LP  0  0  0  0  0  0  0  0  0  0  0  0  # atno 17370 bound_to 10713
  156.0593  130.3702  150.1019 LP  0  0  0  0  0  0  0  0  0  0  0  0  # atno 17371 bound_to 10713
  139.8894  134.8831  156.2423 LP  0  0  0  0  0  0  0  0  0  0  0  0  # atno 17394 bound_to 11000
  141.0155  133.7071  156.1182 LP  0  0  0  0  0  0  0  0  0  0  0  0  # atno 17395 bound_to 11000

$$$$
