AV-unprocessed.smi:3166|AV-procd|sdf|12096|dock10
  -GOLD-   2272017533D 1   1.00000     0.00000
 Structure written by MMmdl.
 40 41  0  0  0  0  0  0  0  0  1 V2000
  144.1179  136.1138  152.4407 C   0  0  0  0  0  0  0  0  0  0  0  0
  145.5630  135.5965  152.3627 C   0  0  1  0  0  0  0  0  0  0  0  0
  145.9499  135.1342  150.9352 C   0  0  0  0  0  0  0  0  0  0  0  0
  145.3987  133.8387  150.5692 N   0  0  0  0  0  0  0  0  0  0  0  0
  146.0744  132.6725  150.2750 C   0  0  0  0  0  0  0  0  0  0  0  0
  145.1390  131.7189  149.9933 C   0  0  0  0  0  0  0  0  0  0  0  0
  143.9017  132.4045  150.1467 C   0  0  0  0  0  0  0  0  0  0  0  0
  144.0598  133.6709  150.4958 N   0  0  0  0  0  0  0  0  0  0  0  0
  146.4717  136.6149  152.9001 N   0  0  0  0  0  0  0  0  0  0  0  0
  146.2199  137.9885  152.4576 C   0  0  0  0  0  0  0  0  0  0  0  0
  147.0903  139.0188  153.2122 C   0  0  0  0  0  0  0  0  0  0  0  0
  148.4430  138.7108  152.9253 O   0  0  0  0  0  0  0  0  0  0  0  0
  146.8063  140.4350  152.6573 C   0  0  0  0  0  0  0  0  0  0  0  0
  147.5615  141.5432  153.4130 C   0  0  0  0  0  0  0  0  0  0  0  0
  147.2704  141.4874  154.9188 C   0  0  0  0  0  0  0  0  0  0  0  0
  147.6081  140.1036  155.4904 C   0  0  0  0  0  0  0  0  0  0  0  0
  146.8557  138.9872  154.7443 C   0  0  0  0  0  0  0  0  0  0  0  0
  143.4158  135.3719  152.0597 H   0  0  0  0  0  0  0  0  0  0  0  0
  143.9831  137.0282  151.8619 H   0  0  0  0  0  0  0  0  0  0  0  0
  143.8361  136.3331  153.4710 H   0  0  0  0  0  0  0  0  0  0  0  0
  145.6165  134.7195  153.0089 H   0  0  0  0  0  0  0  0  0  0  0  0
  145.6481  135.8631  150.1836 H   0  0  0  0  0  0  0  0  0  0  0  0
  147.0370  135.0767  150.8594 H   0  0  0  0  0  0  0  0  0  0  0  0
  147.1529  132.6199  150.2887 H   0  0  0  0  0  0  0  0  0  0  0  0
  145.3120  130.6887  149.7195 H   0  0  0  0  0  0  0  0  0  0  0  0
  142.9000  132.0217  150.0176 H   0  0  0  0  0  0  0  0  0  0  0  0
  147.4307  136.3648  152.6797 H   0  0  0  0  0  0  0  0  0  0  0  0
  146.4022  138.0731  151.3853 H   0  0  0  0  0  0  0  0  0  0  0  0
  145.1715  138.2411  152.6116 H   0  0  0  0  0  0  0  0  0  0  0  0
  148.4617  137.9771  152.3300 H   0  0  0  0  0  0  0  0  0  0  0  0
  147.0524  140.4822  151.5953 H   0  0  0  0  0  0  0  0  0  0  0  0
  145.7368  140.6388  152.7260 H   0  0  0  0  0  0  0  0  0  0  0  0
  148.6342  141.4450  153.2422 H   0  0  0  0  0  0  0  0  0  0  0  0
  147.2772  142.5188  153.0176 H   0  0  0  0  0  0  0  0  0  0  0  0
  147.8444  142.2554  155.4381 H   0  0  0  0  0  0  0  0  0  0  0  0
  146.2182  141.7116  155.0985 H   0  0  0  0  0  0  0  0  0  0  0  0
  148.6833  139.9324  155.4244 H   0  0  0  0  0  0  0  0  0  0  0  0
  147.3584  140.0711  156.5513 H   0  0  0  0  0  0  0  0  0  0  0  0
  145.7883  139.0902  154.9443 H   0  0  0  0  0  0  0  0  0  0  0  0
  147.1487  138.0226  155.1601 H   0  0  0  0  0  0  0  0  0  0  0  0
  1  2  1  0  0  0  0
  1 18  1  0  0  0  0
  1 19  1  0  0  0  0
  1 20  1  0  0  0  0
  2  3  1  0  0  0  0
  2  9  1  0  0  0  0
  2 21  1  0  0  0  0
  3  4  1  0  0  0  0
  3 22  1  0  0  0  0
  3 23  1  0  0  0  0
  4  8  1  0  0  0  0
  4  5  1  0  0  0  0
  5  6  2  0  0  0  0
  5 24  1  0  0  0  0
  6  7  1  0  0  0  0
  6 25  1  0  0  0  0
  7  8  2  0  0  0  0
  7 26  1  0  0  0  0
  9 10  1  0  0  0  0
  9 27  1  0  0  0  0
 10 11  1  0  0  0  0
 10 28  1  0  0  0  0
 10 29  1  0  0  0  0
 11 17  1  0  0  0  0
 11 12  1  0  0  0  0
 11 13  1  0  0  0  0
 12 30  1  0  0  0  0
 13 14  1  0  0  0  0
 13 31  1  0  0  0  0
 13 32  1  0  0  0  0
 14 15  1  0  0  0  0
 14 33  1  0  0  0  0
 14 34  1  0  0  0  0
 15 16  1  0  0  0  0
 15 35  1  0  0  0  0
 15 36  1  0  0  0  0
 16 17  1  0  0  0  0
 16 37  1  0  0  0  0
 16 38  1  0  0  0  0
 17 39  1  0  0  0  0
 17 40  1  0  0  0  0
M  END
> <s_m_source_file>
AV-unprocessed.smi

> <i_m_source_file_index>
3166

> <i_lp_mmshare_version>
43012

> <i_f3d_flags>
0

> <s_epik_input>
bjFbY0hdW2NIXVtjSF1uMVtDSDJdW0NAQEhdKFtDSDNdKVtOSF1bQ0gyXUMyKFtPSF0pW0NIMl1bQ0gyXVtDSDJdW0NIMl1bQ0gyXTI=

> <s_epik_cmdline>
J2VwaWtfcHl0aG9uJywgJy1waCcsICc3LjAnLCAnLXRuJywgJzgnLCAnLW1hJywgJzIwMCcsICctbWV0YWxfYmluZGluZycsICctaW1hZScsICc8aW5maWxlLm1hZT4nLCAnLW9tYWUnLCAnPG91dGZpbGUubWFlPic=

> <r_lp_tautomer_probability>
1

> <r_epik_Ionization_Penalty>
2.35964

> <r_epik_Ionization_Penalty_Charging>
0

> <r_epik_Ionization_Penalty_Neutral>
2.35964

> <r_epik_State_Penalty>
2.51455

> <r_epik_Charging_Adjusted_Penalty>
2.51455

> <i_epik_Tot_Q>
0

> <i_epik_Tot_abs_Q>
0

> <r_epik_Metal_State_Penalty>
2.51451

> <b_epik_Metal_Only>
0

> <s_lp_Force_Field>
OPLS_2005

> <r_lp_Energy>
22.3921

> <b_lp_Chiralities_Consistent>
1

> <s_lp_Variant>
AV-unprocessed.smi:3166-4

> <Gold.Version>
5.8.1

> <Gold.Id.Protein>
6NUR|6NUR_protein|mol2

> <Gold.PLP.Fitness>
40.6970

> <Gold.PLP.PLP>
-30.2372

> <Gold.PLP.part.hbond>
-2.8530

> <Gold.PLP.part.metal>
0.0000

> <Gold.PLP.part.buried>
-4.6775

> <Gold.PLP.part.nonpolar>
-24.1632

> <Gold.PLP.part.repulsive>
0.1770

> <Gold.PLP.ligand.clash>
0.0000

> <Gold.PLP.ligand.torsion>
0.3571

> <Gold.PLP.Chemscore.Hbond>
2.0000

> <Gold.PLP.Chemscore.CHOScore>
1.7132

> <Gold.PLP.Chemscore.Metal>
0.0000

> <Gold.Chemscore.Hbonds>
donor molecule, donor type, donor heavy atom, donor atom, acceptor molecule, acceptor atom, score
      L1  H     9    27       P1  7948  1.00
      L1  H    12    30       P1  7948  1.00
      L1  C     5    24       P1 10747  1.00
      L1  C     7    26       P1 10952  0.57

> <Gold.PLP.Chemscore.Internal.Correction>
0.0342

> <Gold.Rescore>
     Score         DG    S(hbond)    S(metal)    S(lipo)     H(rot)  DE(clash)    DE(int)     intcor
     15.94     -16.35       1.98        0.00      82.88       2.12       0.14       0.27       ----

> <Gold.Chemscore.Fitness>
15.9381

> <Gold.Chemscore.DG>
-16.3490

> <Gold.Chemscore.ZeroCoef>
-5.4800

> <Gold.Chemscore.Hbond>
1.9765

> <Gold.Chemscore.Metal>
0.0000

> <Gold.Chemscore.Lipo>
82.8806

> <Gold.Chemscore.Internal_Hbond>
0.0000

> <Gold.Chemscore.DEClash>
0.1417

> <Gold.Chemscore.DEInternal>
0.2691

> <Gold.Chemscore.Rot>
2.1209

> <Gold.Chemscore.Internal.Correction>
   9.000000E+99

> <Gold.Chemscore.Hbonds>
donor molecule, donor type, donor heavy atom, donor atom, acceptor molecule, acceptor atom, score
      L1  H     9    27       P1  7948  1.00
      L1  H    12    30       P1  7948  0.97

> <Gold.Chemscore.Hbond.Weighted>
-6.6016

> <Gold.Chemscore.Metal.Weighted>
-0.0000

> <Gold.Chemscore.Lipo.Weighted>
-9.6970

> <Gold.Chemscore.Internal_Hbond.Weighted>
0.0000

> <Gold.Chemscore.DEClash.Weighted>
0.1417

> <Gold.Chemscore.DEInternal.Weighted>
0.2691

> <Gold.Chemscore.Rot.Weighted>
5.4296

> <Gold.Chemscore.Internal.Correction.Weighted>
   9.000000E+99

> <Gold.Protein.RotatedTorsions>
[ 6907 6896 6895 6894 ] final  134.13 input  -60.11 | X-H torsion
[ 7974 7965 7964 7962 ] final  -74.49 input  175.53 | X-H torsion
[ 8008 7997 7996 7995 ] final   22.42 input   59.86 | X-H torsion
[ 10167 10162 10161 10158 ] final   68.58 input  -65.29 | X-H torsion
[ 10718 10713 10712 10709 ] final   81.98 input   66.30 | X-H torsion
[ 10763 10752 10751 10750 ] final  -26.25 input  -60.55 | X-H torsion
[ 11005 11000 10999 10996 ] final -170.91 input  -57.11 | X-H torsion

> <Gold.Protein.ActiveResidues>
 VAL166  LYS551  ARG553  GLY616  TRP617  ASP618  TYR619  PRO620  LYS621  CYS622 
 ASP623  PHE694  ASN695  SER759  ASP760  ASP761  ALA762  ILE779  LEU786  VAL792 
 PHE793  MET794  SER795  GLU796  ALA797  LYS798  CYS799  TRP800  GLU811  SER814 

> <Gold.Protein.RotatedAtoms>
  152.3146  133.5788  159.5702 H   0  0  0  0  0  0  0  0  0  0  0  0  # atno 6907 bound_to 6896
  150.7340  134.0102  159.3676 H   0  0  0  0  0  0  0  0  0  0  0  0  # atno 6908 bound_to 6896
  151.7992  135.0714  160.0449 H   0  0  0  0  0  0  0  0  0  0  0  0  # atno 6909 bound_to 6896
  145.6384  140.9318  143.1049 H   0  0  0  0  0  0  0  0  0  0  0  0  # atno 7974 bound_to 7965
  154.9654  140.3083  155.5012 H   0  0  0  0  0  0  0  0  0  0  0  0  # atno 8008 bound_to 7997
  156.2972  140.2293  156.4682 H   0  0  0  0  0  0  0  0  0  0  0  0  # atno 8009 bound_to 7997
  154.7926  140.0439  157.1200 H   0  0  0  0  0  0  0  0  0  0  0  0  # atno 8010 bound_to 7997
  140.0771  144.5103  150.7187 H   0  0  0  0  0  0  0  0  0  0  0  0  # atno 10167 bound_to 10162
  157.6846  131.0028  150.2307 H   0  0  0  0  0  0  0  0  0  0  0  0  # atno 10718 bound_to 10713
  153.7129  135.6949  153.5032 H   0  0  0  0  0  0  0  0  0  0  0  0  # atno 10763 bound_to 10752
  153.2259  135.4354  155.0541 H   0  0  0  0  0  0  0  0  0  0  0  0  # atno 10764 bound_to 10752
  154.8309  135.3472  154.6665 H   0  0  0  0  0  0  0  0  0  0  0  0  # atno 10765 bound_to 10752
  140.5141  134.5773  157.5028 H   0  0  0  0  0  0  0  0  0  0  0  0  # atno 11005 bound_to 11000
  144.7167  139.8173  143.7396 LP  0  0  0  0  0  0  0  0  0  0  0  0  # atno 17320 bound_to 7965
  146.1301  139.4334  143.0174 LP  0  0  0  0  0  0  0  0  0  0  0  0  # atno 17321 bound_to 7965
  140.7096  143.2495  151.4621 LP  0  0  0  0  0  0  0  0  0  0  0  0  # atno 17342 bound_to 10162
  139.5801  144.1729  152.1957 LP  0  0  0  0  0  0  0  0  0  0  0  0  # atno 17343 bound_to 10162
  156.2940  130.3749  149.7814 LP  0  0  0  0  0  0  0  0  0  0  0  0  # atno 17370 bound_to 10713
  156.5465  130.8323  151.3286 LP  0  0  0  0  0  0  0  0  0  0  0  0  # atno 17371 bound_to 10713
  139.9642  134.7401  156.0173 LP  0  0  0  0  0  0  0  0  0  0  0  0  # atno 17394 bound_to 11000
  141.1369  133.6573  156.3620 LP  0  0  0  0  0  0  0  0  0  0  0  0  # atno 17395 bound_to 11000

$$$$
