AV-unprocessed.smi:1190|AV-procd|sdf|4980|dock5
  -GOLD-   22720 3573D 1   1.00000     0.00000
 Structure written by MMmdl.
 43 44  0  0  0  0  0  0  0  0  1 V2000
  147.4613  129.3645  153.3887 C   0  0  0  0  0  0  0  0  0  0  0  0
  148.3895  129.8921  154.3301 O   0  0  0  0  0  0  0  0  0  0  0  0
  148.6843  131.2389  154.2747 C   0  0  0  0  0  0  0  0  0  0  0  0
  149.6798  131.7464  155.1327 C   0  0  0  0  0  0  0  0  0  0  0  0
  149.9844  133.1194  155.0795 C   0  0  0  0  0  0  0  0  0  0  0  0
  149.2858  133.9465  154.1771 C   0  0  0  0  0  0  0  0  0  0  0  0
  149.6338  135.3244  154.1405 N   0  0  0  0  0  0  0  0  0  0  0  0
  150.5139  135.9962  154.9024 C   0  0  0  0  0  0  0  0  0  0  0  0
  151.2191  135.5043  155.7829 O   0  0  0  0  0  0  0  0  0  0  0  0
  150.5371  137.2953  154.5742 N   0  0  0  0  0  0  0  0  0  0  0  0
  151.3471  138.3258  155.2212 C   0  0  0  0  0  0  0  0  0  0  0  0
  150.4979  139.5425  155.6747 C   0  0  2  0  0  0  0  0  0  0  0  0
  149.8134  140.1513  154.4298 C   0  0  0  0  0  0  0  0  0  0  0  0
  151.2473  140.5324  156.4798 N   0  0  0  0  0  0  0  0  0  0  0  0
  150.3841  141.5828  157.0279 C   0  0  0  0  0  0  0  0  0  0  0  0
  151.1626  142.6037  157.8759 C   0  0  0  0  0  0  0  0  0  0  0  0
  151.8444  141.9315  158.9269 O   0  0  0  0  0  0  0  0  0  0  0  0
  152.7451  140.9460  158.4385 C   0  0  0  0  0  0  0  0  0  0  0  0
  151.9773  139.9160  157.5918 C   0  0  0  0  0  0  0  0  0  0  0  0
  148.3098  133.3388  153.3488 C   0  0  0  0  0  0  0  0  0  0  0  0
  148.0121  132.0227  153.3961 N   0  0  0  0  0  0  0  0  0  0  0  0
  147.3479  128.2933  153.5547 H   0  0  0  0  0  0  0  0  0  0  0  0
  147.8071  129.5042  152.3635 H   0  0  0  0  0  0  0  0  0  0  0  0
  146.4777  129.8229  153.5007 H   0  0  0  0  0  0  0  0  0  0  0  0
  150.2013  131.0941  155.8178 H   0  0  0  0  0  0  0  0  0  0  0  0
  150.7457  133.5301  155.7267 H   0  0  0  0  0  0  0  0  0  0  0  0
  149.1762  135.8630  153.4197 H   0  0  0  0  0  0  0  0  0  0  0  0
  149.9211  137.6070  153.8377 H   0  0  0  0  0  0  0  0  0  0  0  0
  151.8935  137.9139  156.0713 H   0  0  0  0  0  0  0  0  0  0  0  0
  152.1265  138.6331  154.5250 H   0  0  0  0  0  0  0  0  0  0  0  0
  149.6976  139.1414  156.2984 H   0  0  0  0  0  0  0  0  0  0  0  0
  149.3763  139.3758  153.8000 H   0  0  0  0  0  0  0  0  0  0  0  0
  150.5203  140.7119  153.8175 H   0  0  0  0  0  0  0  0  0  0  0  0
  148.9963  140.8203  154.6979 H   0  0  0  0  0  0  0  0  0  0  0  0
  149.8926  142.1313  156.2256 H   0  0  0  0  0  0  0  0  0  0  0  0
  149.5954  141.1352  157.6345 H   0  0  0  0  0  0  0  0  0  0  0  0
  151.8769  143.1523  157.2600 H   0  0  0  0  0  0  0  0  0  0  0  0
  150.4809  143.3374  158.3060 H   0  0  0  0  0  0  0  0  0  0  0  0
  153.5317  141.4205  157.8497 H   0  0  0  0  0  0  0  0  0  0  0  0
  153.2290  140.4560  159.2836 H   0  0  0  0  0  0  0  0  0  0  0  0
  151.2835  139.3679  158.2311 H   0  0  0  0  0  0  0  0  0  0  0  0
  152.7023  139.1936  157.2211 H   0  0  0  0  0  0  0  0  0  0  0  0
  147.7544  133.8936  152.6100 H   0  0  0  0  0  0  0  0  0  0  0  0
  1  2  1  0  0  0  0
  1 22  1  0  0  0  0
  1 23  1  0  0  0  0
  1 24  1  0  0  0  0
  2  3  1  0  0  0  0
  3 21  1  0  0  0  0
  3  4  2  0  0  0  0
  4  5  1  0  0  0  0
  4 25  1  0  0  0  0
  5  6  2  0  0  0  0
  5 26  1  0  0  0  0
  6  7  1  0  0  0  0
  6 20  1  0  0  0  0
  7  8  1  0  0  0  0
  7 27  1  0  0  0  0
  8  9  2  0  0  0  0
  8 10  1  0  0  0  0
 10 11  1  0  0  0  0
 10 28  1  0  0  0  0
 11 12  1  0  0  0  0
 11 29  1  0  0  0  0
 11 30  1  0  0  0  0
 12 13  1  0  0  0  0
 12 14  1  0  0  0  0
 12 31  1  0  0  0  0
 13 32  1  0  0  0  0
 13 33  1  0  0  0  0
 13 34  1  0  0  0  0
 14 19  1  0  0  0  0
 14 15  1  0  0  0  0
 15 16  1  0  0  0  0
 15 35  1  0  0  0  0
 15 36  1  0  0  0  0
 16 17  1  0  0  0  0
 16 37  1  0  0  0  0
 16 38  1  0  0  0  0
 17 18  1  0  0  0  0
 18 19  1  0  0  0  0
 18 39  1  0  0  0  0
 18 40  1  0  0  0  0
 19 41  1  0  0  0  0
 19 42  1  0  0  0  0
 20 21  2  0  0  0  0
 20 43  1  0  0  0  0
M  END
> <s_m_source_file>
AV-unprocessed.smi

> <i_m_source_file_index>
1190

> <i_lp_mmshare_version>
43012

> <i_f3d_flags>
0

> <s_epik_input>
W0NIM11PYzFbY0hdW2NIXWMoW2NIXW4xKVtOSF1DKD1PKVtOSF1bQ0gyXVtDQEhdKFtDSDNdKU4yW0NIMl1bQ0gyXU9bQ0gyXVtDSDJdMg==

> <s_epik_cmdline>
J2VwaWtfcHl0aG9uJywgJy1waCcsICc3LjAnLCAnLXRuJywgJzgnLCAnLW1hJywgJzIwMCcsICctbWV0YWxfYmluZGluZycsICctaW1hZScsICc8aW5maWxlLm1hZT4nLCAnLW9tYWUnLCAnPG91dGZpbGUubWFlPic=

> <r_lp_tautomer_probability>
1

> <r_epik_Ionization_Penalty>
0.266084

> <r_epik_Ionization_Penalty_Charging>
0

> <r_epik_Ionization_Penalty_Neutral>
0.266084

> <r_epik_State_Penalty>
0.257924

> <r_epik_Charging_Adjusted_Penalty>
0.257924

> <i_epik_Tot_Q>
0

> <i_epik_Tot_abs_Q>
0

> <r_epik_Metal_State_Penalty>
0.257922

> <b_epik_Metal_Only>
0

> <s_lp_Force_Field>
OPLS_2005

> <r_lp_Energy>
36.3321

> <b_lp_Chiralities_Consistent>
1

> <s_lp_Variant>
AV-unprocessed.smi:1190-1

> <Gold.Version>
5.8.1

> <Gold.Id.Protein>
6NUR|6NUR_protein|mol2

> <Gold.PLP.Fitness>
38.9860

> <Gold.PLP.PLP>
-31.6344

> <Gold.PLP.part.hbond>
-3.0000

> <Gold.PLP.part.metal>
0.0000

> <Gold.PLP.part.buried>
-0.5888

> <Gold.PLP.part.nonpolar>
-26.3815

> <Gold.PLP.part.repulsive>
0.3605

> <Gold.PLP.ligand.clash>
0.0000

> <Gold.PLP.ligand.torsion>
0.1072

> <Gold.PLP.Chemscore.Hbond>
2.0000

> <Gold.PLP.Chemscore.CHOScore>
0.5038

> <Gold.PLP.Chemscore.Metal>
0.0000

> <Gold.Chemscore.Hbonds>
donor molecule, donor type, donor heavy atom, donor atom, acceptor molecule, acceptor atom, score
      L1  H     7    27       P1  7948  0.98
      P1  H 10752 10764       L1     9  0.98
      L1  C    20    43       P1  7948  0.42

> <Gold.PLP.Chemscore.Internal.Correction>
0.0545

> <Gold.Rescore>
     Score         DG    S(hbond)    S(metal)    S(lipo)     H(rot)  DE(clash)    DE(int)     intcor
     12.68     -14.76       1.60        0.00      71.31       1.73       0.59       1.48       ----

> <Gold.Chemscore.Fitness>
12.6849

> <Gold.Chemscore.DG>
-14.7574

> <Gold.Chemscore.ZeroCoef>
-5.4800

> <Gold.Chemscore.Hbond>
1.6050

> <Gold.Chemscore.Metal>
0.0000

> <Gold.Chemscore.Lipo>
71.3132

> <Gold.Chemscore.Internal_Hbond>
0.0000

> <Gold.Chemscore.DEClash>
0.5883

> <Gold.Chemscore.DEInternal>
1.4843

> <Gold.Chemscore.Rot>
1.7292

> <Gold.Chemscore.Internal.Correction>
   9.000000E+99

> <Gold.Chemscore.Hbonds>
donor molecule, donor type, donor heavy atom, donor atom, acceptor molecule, acceptor atom, score
      L1  H     7    27       P1  7948  0.68
      P1  H 10752 10764       L1     9  0.50

> <Gold.Chemscore.Hbond.Weighted>
-5.3606

> <Gold.Chemscore.Metal.Weighted>
-0.0000

> <Gold.Chemscore.Lipo.Weighted>
-8.3436

> <Gold.Chemscore.Internal_Hbond.Weighted>
0.0000

> <Gold.Chemscore.DEClash.Weighted>
0.5883

> <Gold.Chemscore.DEInternal.Weighted>
1.4843

> <Gold.Chemscore.Rot.Weighted>
4.4268

> <Gold.Chemscore.Internal.Correction.Weighted>
   9.000000E+99

> <Gold.Protein.RotatedTorsions>
[ 6907 6896 6895 6894 ] final -103.96 input  -60.11 | X-H torsion
[ 7974 7965 7964 7962 ] final  -90.58 input  175.53 | X-H torsion
[ 8008 7997 7996 7995 ] final   70.74 input   59.86 | X-H torsion
[ 10167 10162 10161 10158 ] final    0.79 input  -65.29 | X-H torsion
[ 10718 10713 10712 10709 ] final   68.70 input   66.30 | X-H torsion
[ 10763 10752 10751 10750 ] final  -31.20 input  -60.55 | X-H torsion
[ 11005 11000 10999 10996 ] final -159.31 input  -57.11 | X-H torsion

> <Gold.Protein.ActiveResidues>
 VAL166  LYS551  ARG553  GLY616  TRP617  ASP618  TYR619  PRO620  LYS621  CYS622 
 ASP623  PHE694  ASN695  SER759  ASP760  ASP761  ALA762  ILE779  LEU786  VAL792 
 PHE793  MET794  SER795  GLU796  ALA797  LYS798  CYS799  TRP800  GLU811  SER814 

> <Gold.Protein.RotatedAtoms>
  150.7265  134.0349  159.3745 H   0  0  0  0  0  0  0  0  0  0  0  0  # atno 6907 bound_to 6896
  151.8320  135.0616  160.0447 H   0  0  0  0  0  0  0  0  0  0  0  0  # atno 6908 bound_to 6896
  152.2926  133.5540  159.5604 H   0  0  0  0  0  0  0  0  0  0  0  0  # atno 6909 bound_to 6896
  145.4245  140.9553  143.2162 H   0  0  0  0  0  0  0  0  0  0  0  0  # atno 7974 bound_to 7965
  155.7433  140.3490  155.5115 H   0  0  0  0  0  0  0  0  0  0  0  0  # atno 8008 bound_to 7997
  155.9073  140.1044  157.1327 H   0  0  0  0  0  0  0  0  0  0  0  0  # atno 8009 bound_to 7997
  154.4051  140.1274  156.4499 H   0  0  0  0  0  0  0  0  0  0  0  0  # atno 8010 bound_to 7997
  140.6713  143.7042  150.7928 H   0  0  0  0  0  0  0  0  0  0  0  0  # atno 10167 bound_to 10162
  157.6304  130.9387  150.0413 H   0  0  0  0  0  0  0  0  0  0  0  0  # atno 10718 bound_to 10713
  153.7934  135.6896  153.4867 H   0  0  0  0  0  0  0  0  0  0  0  0  # atno 10763 bound_to 10752
  153.1735  135.4533  154.9932 H   0  0  0  0  0  0  0  0  0  0  0  0  # atno 10764 bound_to 10752
  154.8035  135.3347  154.7428 H   0  0  0  0  0  0  0  0  0  0  0  0  # atno 10765 bound_to 10752
  140.6440  134.4521  157.5234 H   0  0  0  0  0  0  0  0  0  0  0  0  # atno 11005 bound_to 11000
  144.8223  139.5770  143.6981 LP  0  0  0  0  0  0  0  0  0  0  0  0  # atno 17320 bound_to 7965
  146.2639  139.6474  142.9343 LP  0  0  0  0  0  0  0  0  0  0  0  0  # atno 17321 bound_to 7965
  140.0727  143.5045  152.2571 LP  0  0  0  0  0  0  0  0  0  0  0  0  # atno 17342 bound_to 10162
  139.5982  144.7574  151.3235 LP  0  0  0  0  0  0  0  0  0  0  0  0  # atno 17343 bound_to 10162
  156.1504  130.3642  149.9447 LP  0  0  0  0  0  0  0  0  0  0  0  0  # atno 17370 bound_to 10713
  156.7468  130.9100  151.3635 LP  0  0  0  0  0  0  0  0  0  0  0  0  # atno 17371 bound_to 10713
  139.9070  134.8428  156.1670 LP  0  0  0  0  0  0  0  0  0  0  0  0  # atno 17394 bound_to 11000
  141.0586  133.6853  156.1908 LP  0  0  0  0  0  0  0  0  0  0  0  0  # atno 17395 bound_to 11000

$$$$
