AV-unprocessed.smi:3052|AV-procd|sdf|11635|dock1
  -GOLD-   2272017 23D 1   1.00000     0.00000
 Structure written by MMmdl.
 41 43  0  0  0  0  0  0  0  0  1 V2000
  150.4132  135.3054  155.5741 C   0  0  0  0  0  0  0  0  0  0  0  0
  150.1516  133.8707  155.2084 C   0  0  0  0  0  0  0  0  0  0  0  0
  150.8206  132.9146  155.8353 N   0  0  0  0  0  0  0  0  0  0  0  0
  150.4256  131.6996  155.2547 O   0  0  0  0  0  0  0  0  0  0  0  0
  149.5215  131.9526  154.2728 C   0  0  0  0  0  0  0  0  0  0  0  0
  148.9909  130.7706  153.5297 C   0  0  0  0  0  0  0  0  0  0  0  0
  148.1651  129.7197  154.2288 C   0  0  0  0  0  0  0  0  0  0  0  0
  149.5526  129.3826  153.7280 C   0  0  0  0  0  0  0  0  0  0  0  0
  149.2897  133.2965  154.2284 C   0  0  0  0  0  0  0  0  0  0  0  0
  148.4107  133.9365  153.3196 N   0  0  0  0  0  0  0  0  0  0  0  0
  147.2075  133.4989  152.9205 C   0  0  0  0  0  0  0  0  0  0  0  0
  146.6878  132.4474  153.2921 O   0  0  0  0  0  0  0  0  0  0  0  0
  146.6546  134.3481  152.0390 N   0  0  0  0  0  0  0  0  0  0  0  0
  145.3668  134.2336  151.3410 C   0  0  1  0  0  0  0  0  0  0  0  0
  144.2933  134.0997  152.4492 C   0  0  0  0  0  0  0  0  0  0  0  0
  145.0889  135.5259  150.5253 C   0  0  0  0  0  0  0  0  0  0  0  0
  145.0268  136.6820  151.3391 O   0  0  0  0  0  0  0  0  0  0  0  0
  145.3430  133.0420  150.3676 C   0  0  0  0  0  0  0  0  0  0  0  0
  144.0775  132.4297  149.8115 C   0  0  0  0  0  0  0  0  0  0  0  0
  144.9586  131.6330  150.7551 C   0  0  0  0  0  0  0  0  0  0  0  0
  150.3075  135.9593  154.7086 H   0  0  0  0  0  0  0  0  0  0  0  0
  151.4237  135.4408  155.9609 H   0  0  0  0  0  0  0  0  0  0  0  0
  149.7182  135.6470  156.3411 H   0  0  0  0  0  0  0  0  0  0  0  0
  148.6958  131.0470  152.5193 H   0  0  0  0  0  0  0  0  0  0  0  0
  148.0299  129.8151  155.3045 H   0  0  0  0  0  0  0  0  0  0  0  0
  147.3185  129.3036  153.6868 H   0  0  0  0  0  0  0  0  0  0  0  0
  149.6290  128.7429  152.8512 H   0  0  0  0  0  0  0  0  0  0  0  0
  150.3275  129.2399  154.4784 H   0  0  0  0  0  0  0  0  0  0  0  0
  148.7773  134.7491  152.8460 H   0  0  0  0  0  0  0  0  0  0  0  0
  147.1929  135.1708  151.8107 H   0  0  0  0  0  0  0  0  0  0  0  0
  143.2820  134.0984  152.0436 H   0  0  0  0  0  0  0  0  0  0  0  0
  144.3431  134.9310  153.1534 H   0  0  0  0  0  0  0  0  0  0  0  0
  144.4208  133.1935  153.0400 H   0  0  0  0  0  0  0  0  0  0  0  0
  145.8482  135.6846  149.7594 H   0  0  0  0  0  0  0  0  0  0  0  0
  144.1398  135.4363  149.9958 H   0  0  0  0  0  0  0  0  0  0  0  0
  144.5137  137.3367  150.8906 H   0  0  0  0  0  0  0  0  0  0  0  0
  146.1474  133.0963  149.6369 H   0  0  0  0  0  0  0  0  0  0  0  0
  143.1138  132.7589  150.1908 H   0  0  0  0  0  0  0  0  0  0  0  0
  144.0828  132.1432  148.7618 H   0  0  0  0  0  0  0  0  0  0  0  0
  145.5452  130.8228  150.3272 H   0  0  0  0  0  0  0  0  0  0  0  0
  144.5792  131.4437  151.7557 H   0  0  0  0  0  0  0  0  0  0  0  0
  1  2  1  0  0  0  0
  1 21  1  0  0  0  0
  1 22  1  0  0  0  0
  1 23  1  0  0  0  0
  2  9  1  0  0  0  0
  2  3  2  0  0  0  0
  3  4  1  0  0  0  0
  4  5  1  0  0  0  0
  5  6  1  0  0  0  0
  5  9  2  0  0  0  0
  6  8  1  0  0  0  0
  6  7  1  0  0  0  0
  6 24  1  0  0  0  0
  7  8  1  0  0  0  0
  7 25  1  0  0  0  0
  7 26  1  0  0  0  0
  8 27  1  0  0  0  0
  8 28  1  0  0  0  0
  9 10  1  0  0  0  0
 10 11  1  0  0  0  0
 10 29  1  0  0  0  0
 11 12  2  0  0  0  0
 11 13  1  0  0  0  0
 13 14  1  0  0  0  0
 13 30  1  0  0  0  0
 14 15  1  0  0  0  0
 14 16  1  0  0  0  0
 14 18  1  0  0  0  0
 15 31  1  0  0  0  0
 15 32  1  0  0  0  0
 15 33  1  0  0  0  0
 16 17  1  0  0  0  0
 16 34  1  0  0  0  0
 16 35  1  0  0  0  0
 17 36  1  0  0  0  0
 18 20  1  0  0  0  0
 18 19  1  0  0  0  0
 18 37  1  0  0  0  0
 19 20  1  0  0  0  0
 19 38  1  0  0  0  0
 19 39  1  0  0  0  0
 20 40  1  0  0  0  0
 20 41  1  0  0  0  0
M  END
> <s_m_source_file>
AV-unprocessed.smi

> <i_m_source_file_index>
3052

> <i_lp_mmshare_version>
43012

> <i_f3d_flags>
0

> <s_epik_input>
W0NIM11jMW5vYyhbQ0hdMltDSDJdW0NIMl0yKWMxW05IXUMoPU8pW05IXVtDQEBdKFtDSDNdKShbQ0gyXVtPSF0pW0NIXTNbQ0gyXVtDSDJdMw==

> <s_epik_cmdline>
J2VwaWtfcHl0aG9uJywgJy1waCcsICc3LjAnLCAnLXRuJywgJzgnLCAnLW1hJywgJzIwMCcsICctbWV0YWxfYmluZGluZycsICctaW1hZScsICc8aW5maWxlLm1hZT4nLCAnLW9tYWUnLCAnPG91dGZpbGUubWFlPic=

> <r_lp_tautomer_probability>
1

> <r_epik_Ionization_Penalty>
3.5887e-05

> <r_epik_Ionization_Penalty_Charging>
0

> <r_epik_Ionization_Penalty_Neutral>
3.5887e-05

> <r_epik_State_Penalty>
-0

> <r_epik_Charging_Adjusted_Penalty>
0

> <i_epik_Tot_Q>
0

> <i_epik_Tot_abs_Q>
0

> <r_epik_Metal_State_Penalty>
-0

> <b_epik_Metal_Only>
0

> <s_lp_Force_Field>
OPLS_2005

> <r_lp_Energy>
30.0106

> <b_lp_Chiralities_Consistent>
1

> <s_lp_Variant>
AV-unprocessed.smi:3052-1

> <Gold.Version>
5.8.1

> <Gold.Id.Protein>
6NUR|6NUR_protein|mol2

> <Gold.PLP.Fitness>
44.8230

> <Gold.PLP.PLP>
-36.4922

> <Gold.PLP.part.hbond>
-3.0000

> <Gold.PLP.part.metal>
0.0000

> <Gold.PLP.part.buried>
-5.6238

> <Gold.PLP.part.nonpolar>
-27.8560

> <Gold.PLP.part.repulsive>
0.1392

> <Gold.PLP.ligand.clash>
0.0000

> <Gold.PLP.ligand.torsion>
1.1249

> <Gold.PLP.Chemscore.Hbond>
2.8413

> <Gold.PLP.Chemscore.CHOScore>
0.0000

> <Gold.PLP.Chemscore.Metal>
0.0000

> <Gold.Chemscore.Hbonds>
donor molecule, donor type, donor heavy atom, donor atom, acceptor molecule, acceptor atom, score
      L1  H    10    29       P1  7948  0.75
      L1  H    13    30       P1  7948  1.00
      L1  H    17    36       P1 10171  1.00

> <Gold.PLP.Chemscore.Internal.Correction>
2.0569

> <Gold.Rescore>
     Score         DG    S(hbond)    S(metal)    S(lipo)     H(rot)  DE(clash)    DE(int)     intcor
     15.03     -17.22       2.58        0.00      73.95       2.16       0.02       2.17       ----

> <Gold.Chemscore.Fitness>
15.0305

> <Gold.Chemscore.DG>
-17.2191

> <Gold.Chemscore.ZeroCoef>
-5.4800

> <Gold.Chemscore.Hbond>
2.5776

> <Gold.Chemscore.Metal>
0.0000

> <Gold.Chemscore.Lipo>
73.9455

> <Gold.Chemscore.Internal_Hbond>
0.0000

> <Gold.Chemscore.DEClash>
0.0174

> <Gold.Chemscore.DEInternal>
2.1712

> <Gold.Chemscore.Rot>
2.1569

> <Gold.Chemscore.Internal.Correction>
   9.000000E+99

> <Gold.Chemscore.Hbonds>
donor molecule, donor type, donor heavy atom, donor atom, acceptor molecule, acceptor atom, score
      L1  H    10    29       P1  7948  0.09
      L1  H    13    30       P1  7948  0.87
      L1  H    17    36       P1 10171  1.00

> <Gold.Chemscore.Hbond.Weighted>
-8.6093

> <Gold.Chemscore.Metal.Weighted>
-0.0000

> <Gold.Chemscore.Lipo.Weighted>
-8.6516

> <Gold.Chemscore.Internal_Hbond.Weighted>
0.0000

> <Gold.Chemscore.DEClash.Weighted>
0.0174

> <Gold.Chemscore.DEInternal.Weighted>
2.1712

> <Gold.Chemscore.Rot.Weighted>
5.5218

> <Gold.Chemscore.Internal.Correction.Weighted>
   9.000000E+99

> <Gold.Protein.RotatedTorsions>
[ 6907 6896 6895 6894 ] final  -33.85 input  -60.11 | X-H torsion
[ 7974 7965 7964 7962 ] final   62.19 input  175.53 | X-H torsion
[ 8008 7997 7996 7995 ] final   57.35 input   59.86 | X-H torsion
[ 10167 10162 10161 10158 ] final -136.00 input  -65.29 | X-H torsion
[ 10718 10713 10712 10709 ] final -143.37 input   66.30 | X-H torsion
[ 10763 10752 10751 10750 ] final  151.31 input  -60.55 | X-H torsion
[ 11005 11000 10999 10996 ] final  -10.70 input  -57.11 | X-H torsion

> <Gold.Protein.ActiveResidues>
 VAL166  LYS551  ARG553  GLY616  TRP617  ASP618  TYR619  PRO620  LYS621  CYS622 
 ASP623  PHE694  ASN695  SER759  ASP760  ASP761  ALA762  ILE779  LEU786  VAL792 
 PHE793  MET794  SER795  GLU796  ALA797  LYS798  CYS799  TRP800  GLU811  SER814 

> <Gold.Protein.RotatedAtoms>
  151.0602  134.9731  159.8256 H   0  0  0  0  0  0  0  0  0  0  0  0  # atno 6907 bound_to 6896
  152.5394  134.2427  159.8878 H   0  0  0  0  0  0  0  0  0  0  0  0  # atno 6908 bound_to 6896
  151.2447  133.4338  159.2642 H   0  0  0  0  0  0  0  0  0  0  0  0  # atno 6909 bound_to 6896
  145.8762  139.3411  143.0733 H   0  0  0  0  0  0  0  0  0  0  0  0  # atno 7974 bound_to 7965
  155.5323  140.3482  155.4429 H   0  0  0  0  0  0  0  0  0  0  0  0  # atno 8008 bound_to 7997
  156.0710  140.1363  156.9855 H   0  0  0  0  0  0  0  0  0  0  0  0  # atno 8009 bound_to 7997
  154.4528  140.0966  156.6643 H   0  0  0  0  0  0  0  0  0  0  0  0  # atno 8010 bound_to 7997
  139.8721  143.6944  152.2638 H   0  0  0  0  0  0  0  0  0  0  0  0  # atno 10167 bound_to 10162
  156.3571  130.7719  151.1881 H   0  0  0  0  0  0  0  0  0  0  0  0  # atno 10718 bound_to 10713
  154.1016  135.2845  155.3250 H   0  0  0  0  0  0  0  0  0  0  0  0  # atno 10763 bound_to 10752
  154.6551  135.5355  153.7952 H   0  0  0  0  0  0  0  0  0  0  0  0  # atno 10764 bound_to 10752
  153.0377  135.6520  154.1179 H   0  0  0  0  0  0  0  0  0  0  0  0  # atno 10765 bound_to 10752
  140.7475  133.8619  155.9018 H   0  0  0  0  0  0  0  0  0  0  0  0  # atno 11005 bound_to 11000
  145.9078  140.9200  143.0469 LP  0  0  0  0  0  0  0  0  0  0  0  0  # atno 17320 bound_to 7965
  144.6726  140.1120  143.7455 LP  0  0  0  0  0  0  0  0  0  0  0  0  # atno 17321 bound_to 7965
  139.7274  144.7590  151.0857 LP  0  0  0  0  0  0  0  0  0  0  0  0  # atno 17342 bound_to 10162
  140.7759  143.5131  150.9628 LP  0  0  0  0  0  0  0  0  0  0  0  0  # atno 17343 bound_to 10162
  157.7469  131.0411  150.4628 LP  0  0  0  0  0  0  0  0  0  0  0  0  # atno 17370 bound_to 10713
  156.4833  130.4078  149.6449 LP  0  0  0  0  0  0  0  0  0  0  0  0  # atno 17371 bound_to 10713
  140.9781  134.1442  157.4519 LP  0  0  0  0  0  0  0  0  0  0  0  0  # atno 17394 bound_to 11000
  139.8794  135.0001  156.5992 LP  0  0  0  0  0  0  0  0  0  0  0  0  # atno 17395 bound_to 11000

$$$$
