AV-unprocessed.smi:193|AV-procd|sdf|1505|dock7
  -GOLD-   2262019333D 1   1.00000     0.00000
 Structure written by MMmdl.
 62 66  0  0  0  0  0  0  0  0  2 V2000
  147.6869  141.6752  156.5978 C   0  0  0  0  0  0  0  0  0  0  0  0
  149.0986  141.0885  156.7532 C   0  0  1  0  0  0  0  0  0  0  0  0
  149.3555  140.0818  155.6083 C   0  0  0  0  0  0  0  0  0  0  0  0
  150.5549  139.2656  155.7927 N   0  0  0  0  0  0  0  0  0  0  0  0
  150.4295  138.0505  156.3916 C   0  0  0  0  0  0  0  0  0  0  0  0
  151.4723  137.1781  156.3605 N   0  0  0  0  0  0  0  0  0  0  0  0
  151.3627  135.9698  156.9191 C   0  0  0  0  0  0  0  0  0  0  0  0
  150.3165  135.4357  157.5503 N   0  0  0  0  0  0  0  0  0  0  0  0
  149.2680  136.3061  157.5939 C   0  0  0  0  0  0  0  0  0  0  0  0
  149.2409  137.6220  157.0501 C   0  0  0  0  0  0  0  0  0  0  0  0
  148.0095  138.2124  157.3110 N   0  0  0  0  0  0  0  0  0  0  0  0
  147.3443  137.2957  157.9585 C   0  0  0  0  0  0  0  0  0  0  0  0
  148.0199  136.1137  158.1598 N   0  0  0  0  0  0  0  0  0  0  0  0
  147.5189  134.9287  158.8393 C   0  0  0  0  0  0  0  0  0  0  0  0
  146.9036  135.2138  160.2323 C   0  0  0  0  0  0  0  0  0  0  0  0
  145.6807  135.9023  160.0348 O   0  0  0  0  0  0  0  0  0  0  0  0
  146.6052  133.8906  160.9660 C   0  0  0  0  0  0  0  0  0  0  0  0
  146.1539  134.1206  162.4192 C   0  0  0  0  0  0  0  0  0  0  0  0
  147.1288  134.8880  163.1149 O   0  0  0  0  0  0  0  0  0  0  0  0
  147.2988  136.1886  162.5647 C   0  0  0  0  0  0  0  0  0  0  0  0
  147.8161  136.0898  161.1185 C   0  0  0  0  0  0  0  0  0  0  0  0
  151.8296  139.9558  155.9790 C   0  0  0  0  0  0  0  0  0  0  0  0
  151.9463  140.5596  157.3907 C   0  0  0  0  0  0  0  0  0  0  0  0
  151.3976  141.9358  157.5188 N   0  3  2  0  0  0  0  0  0  0  0  0
  151.2918  142.3437  158.9410 C   0  0  2  0  0  0  0  0  0  0  0  0
  150.3555  143.5077  159.1800 C   0  0  0  0  0  0  0  0  0  0  0  0
  151.8502  143.7173  159.2737 C   0  0  2  0  0  0  0  0  0  0  0  0
  152.5521  144.6145  158.2707 C   0  0  0  0  0  0  0  0  0  0  0  0
  150.1505  142.2239  156.7542 C   0  0  0  0  0  0  0  0  0  0  0  0
  147.5844  142.2212  155.6592 H   0  0  0  0  0  0  0  0  0  0  0  0
  147.4520  142.3623  157.4112 H   0  0  0  0  0  0  0  0  0  0  0  0
  146.9310  140.8892  156.6095 H   0  0  0  0  0  0  0  0  0  0  0  0
  149.1148  140.5731  157.7143 H   0  0  0  0  0  0  0  0  0  0  0  0
  148.4908  139.4284  155.4829 H   0  0  0  0  0  0  0  0  0  0  0  0
  149.4483  140.6144  154.6611 H   0  0  0  0  0  0  0  0  0  0  0  0
  152.2370  135.3396  156.8483 H   0  0  0  0  0  0  0  0  0  0  0  0
  146.3325  137.4544  158.3028 H   0  0  0  0  0  0  0  0  0  0  0  0
  146.7853  134.4466  158.1919 H   0  0  0  0  0  0  0  0  0  0  0  0
  148.3464  134.2244  158.9349 H   0  0  0  0  0  0  0  0  0  0  0  0
  145.6127  136.5871  160.6823 H   0  0  0  0  0  0  0  0  0  0  0  0
  145.8524  133.3143  160.4266 H   0  0  0  0  0  0  0  0  0  0  0  0
  147.5061  133.2757  160.9804 H   0  0  0  0  0  0  0  0  0  0  0  0
  145.1848  134.6203  162.4573 H   0  0  0  0  0  0  0  0  0  0  0  0
  146.0344  133.1633  162.9269 H   0  0  0  0  0  0  0  0  0  0  0  0
  146.3587  136.7404  162.6093 H   0  0  0  0  0  0  0  0  0  0  0  0
  148.0139  136.7368  163.1779 H   0  0  0  0  0  0  0  0  0  0  0  0
  148.8180  135.6593  161.1374 H   0  0  0  0  0  0  0  0  0  0  0  0
  147.9201  137.0919  160.7007 H   0  0  0  0  0  0  0  0  0  0  0  0
  152.6532  139.2609  155.8271 H   0  0  0  0  0  0  0  0  0  0  0  0
  151.9572  140.7214  155.2133 H   0  0  0  0  0  0  0  0  0  0  0  0
  151.4906  139.8987  158.1298 H   0  0  0  0  0  0  0  0  0  0  0  0
  153.0018  140.6080  157.6556 H   0  0  0  0  0  0  0  0  0  0  0  0
  151.3411  141.5355  159.6689 H   0  0  0  0  0  0  0  0  0  0  0  0
  149.8384  143.9381  158.3243 H   0  0  0  0  0  0  0  0  0  0  0  0
  149.7943  143.5186  160.1122 H   0  0  0  0  0  0  0  0  0  0  0  0
  152.2482  143.8192  160.2816 H   0  0  0  0  0  0  0  0  0  0  0  0
  152.1012  144.5373  157.2812 H   0  0  0  0  0  0  0  0  0  0  0  0
  153.6060  144.3462  158.1995 H   0  0  0  0  0  0  0  0  0  0  0  0
  152.4851  145.6535  158.5942 H   0  0  0  0  0  0  0  0  0  0  0  0
  150.4243  142.4713  155.7281 H   0  0  0  0  0  0  0  0  0  0  0  0
  149.7092  143.1404  157.1477 H   0  0  0  0  0  0  0  0  0  0  0  0
  152.0932  142.5474  157.1166 H   0  0  0  0  0  0  0  0  0  0  0  0
  1  2  1  0  0  0  0
  1 30  1  0  0  0  0
  1 31  1  0  0  0  0
  1 32  1  0  0  0  0
  2 29  1  0  0  0  0
  2  3  1  0  0  0  0
  2 33  1  0  0  0  0
  3  4  1  0  0  0  0
  3 34  1  0  0  0  0
  3 35  1  0  0  0  0
  4  5  1  0  0  0  0
  4 22  1  0  0  0  0
  5 10  1  0  0  0  0
  5  6  2  0  0  0  0
  6  7  1  0  0  0  0
  7  8  2  0  0  0  0
  7 36  1  0  0  0  0
  8  9  1  0  0  0  0
  9 13  1  0  0  0  0
  9 10  2  0  0  0  0
 10 11  1  0  0  0  0
 11 12  2  0  0  0  0
 12 13  1  0  0  0  0
 12 37  1  0  0  0  0
 13 14  1  0  0  0  0
 14 15  1  0  0  0  0
 14 38  1  0  0  0  0
 14 39  1  0  0  0  0
 15 21  1  0  0  0  0
 15 16  1  0  0  0  0
 15 17  1  0  0  0  0
 16 40  1  0  0  0  0
 17 18  1  0  0  0  0
 17 41  1  0  0  0  0
 17 42  1  0  0  0  0
 18 19  1  0  0  0  0
 18 43  1  0  0  0  0
 18 44  1  0  0  0  0
 19 20  1  0  0  0  0
 20 21  1  0  0  0  0
 20 45  1  0  0  0  0
 20 46  1  0  0  0  0
 21 47  1  0  0  0  0
 21 48  1  0  0  0  0
 22 23  1  0  0  0  0
 22 49  1  0  0  0  0
 22 50  1  0  0  0  0
 23 24  1  0  0  0  0
 23 51  1  0  0  0  0
 23 52  1  0  0  0  0
 24 25  1  0  0  0  0
 24 29  1  0  0  0  0
 24 62  1  0  0  0  0
 25 27  1  0  0  0  0
 25 26  1  0  0  0  0
 25 53  1  0  0  0  0
 26 27  1  0  0  0  0
 26 54  1  0  0  0  0
 26 55  1  0  0  0  0
 27 28  1  0  0  0  0
 27 56  1  0  0  0  0
 28 57  1  0  0  0  0
 28 58  1  0  0  0  0
 28 59  1  0  0  0  0
 29 60  1  0  0  0  0
 29 61  1  0  0  0  0
M  CHG  1  24   1
M  END
> <s_m_source_file>
AV-unprocessed.smi

> <i_m_source_file_index>
193

> <i_lp_mmshare_version>
43012

> <i_f3d_flags>
0

> <s_epik_input>
W0NIM11bQ0BASF0xW0NIMl1bQ0BIXTFOKFtDSDJdMilbQ0gyXVtDSDJdTihbQ0gyXVtDQEhdMltDSDNdKWMobltjSF1uMyljKGMzNCluW2NIXW40W0NIMl1DNShbT0hdKVtDSDJdW0NIMl1PW0NIMl1bQ0gyXTU=

> <s_epik_cmdline>
J2VwaWtfcHl0aG9uJywgJy1waCcsICc3LjAnLCAnLXRuJywgJzgnLCAnLW1hJywgJzIwMCcsICctbWV0YWxfYmluZGluZycsICctaW1hZScsICc8aW5maWxlLm1hZT4nLCAnLW9tYWUnLCAnPG91dGZpbGUubWFlPic=

> <r_lp_tautomer_probability>
1

> <r_epik_Ionization_Penalty>
0.0540825

> <r_epik_Ionization_Penalty_Charging>
0.0538476

> <r_epik_Ionization_Penalty_Neutral>
0.000234891

> <r_epik_State_Penalty>
0.0200719

> <r_epik_Charging_Adjusted_Penalty>
0.0739194

> <i_epik_Tot_Q>
1

> <i_epik_Tot_abs_Q>
1

> <r_epik_Metal_State_Penalty>
0.0199414

> <b_epik_Metal_Only>
0

> <s_lp_Force_Field>
OPLS_2005

> <r_lp_Energy>
56.796

> <b_lp_Chiralities_Consistent>
1

> <s_lp_Variant>
AV-unprocessed.smi:193-10

> <Gold.Version>
5.8.1

> <Gold.Id.Protein>
6NUR|6NUR_protein|mol2

> <Gold.PLP.Fitness>
43.0630

> <Gold.PLP.PLP>
-42.4895

> <Gold.PLP.part.hbond>
-1.8168

> <Gold.PLP.part.metal>
0.0000

> <Gold.PLP.part.buried>
-4.4017

> <Gold.PLP.part.nonpolar>
-37.0656

> <Gold.PLP.part.repulsive>
0.0839

> <Gold.PLP.ligand.clash>
0.0000

> <Gold.PLP.ligand.torsion>
1.3703

> <Gold.PLP.Chemscore.Hbond>
0.6185

> <Gold.PLP.Chemscore.CHOScore>
0.0000

> <Gold.PLP.Chemscore.Metal>
0.0000

> <Gold.Chemscore.Hbonds>
donor molecule, donor type, donor heavy atom, donor atom, acceptor molecule, acceptor atom, score
      P1  H  6896  6907       L1     8  0.40

> <Gold.PLP.Chemscore.Internal.Correction>
1.4584

> <Gold.Rescore>
     Score         DG    S(hbond)    S(metal)    S(lipo)     H(rot)  DE(clash)    DE(int)     intcor
     13.62     -16.74       0.60        0.00     121.33       1.93       0.33       2.79       ----

> <Gold.Chemscore.Fitness>
13.6227

> <Gold.Chemscore.DG>
-16.7396

> <Gold.Chemscore.ZeroCoef>
-5.4800

> <Gold.Chemscore.Hbond>
0.5994

> <Gold.Chemscore.Metal>
0.0000

> <Gold.Chemscore.Lipo>
121.3312

> <Gold.Chemscore.Internal_Hbond>
0.0000

> <Gold.Chemscore.DEClash>
0.3254

> <Gold.Chemscore.DEInternal>
2.7914

> <Gold.Chemscore.Rot>
1.9290

> <Gold.Chemscore.Internal.Correction>
   9.000000E+99

> <Gold.Chemscore.Hbonds>
donor molecule, donor type, donor heavy atom, donor atom, acceptor molecule, acceptor atom, score
      P1  H  6896  6907       L1     8  0.33

> <Gold.Chemscore.Hbond.Weighted>
-2.0021

> <Gold.Chemscore.Metal.Weighted>
-0.0000

> <Gold.Chemscore.Lipo.Weighted>
-14.1958

> <Gold.Chemscore.Internal_Hbond.Weighted>
0.0000

> <Gold.Chemscore.DEClash.Weighted>
0.3254

> <Gold.Chemscore.DEInternal.Weighted>
2.7914

> <Gold.Chemscore.Rot.Weighted>
4.9383

> <Gold.Chemscore.Internal.Correction.Weighted>
   9.000000E+99

> <Gold.Protein.RotatedTorsions>
[ 6907 6896 6895 6894 ] final  -80.79 input  -60.11 | X-H torsion
[ 7974 7965 7964 7962 ] final   -5.51 input  175.53 | X-H torsion
[ 8008 7997 7996 7995 ] final   -3.80 input   59.86 | X-H torsion
[ 10167 10162 10161 10158 ] final  -29.99 input  -65.29 | X-H torsion
[ 10718 10713 10712 10709 ] final -173.85 input   66.30 | X-H torsion
[ 10763 10752 10751 10750 ] final  -33.57 input  -60.55 | X-H torsion
[ 11005 11000 10999 10996 ] final  -47.69 input  -57.11 | X-H torsion

> <Gold.Protein.ActiveResidues>
 VAL166  LYS551  ARG553  GLY616  TRP617  ASP618  TYR619  PRO620  LYS621  CYS622 
 ASP623  PHE694  ASN695  SER759  ASP760  ASP761  ALA762  ILE779  LEU786  VAL792 
 PHE793  MET794  SER795  GLU796  ALA797  LYS798  CYS799  TRP800  GLU811  SER814 

> <Gold.Protein.RotatedAtoms>
  150.6923  134.3916  159.5078 H   0  0  0  0  0  0  0  0  0  0  0  0  # atno 6907 bound_to 6896
  152.1703  134.8837  160.0544 H   0  0  0  0  0  0  0  0  0  0  0  0  # atno 6908 bound_to 6896
  151.9865  133.3741  159.4165 H   0  0  0  0  0  0  0  0  0  0  0  0  # atno 6909 bound_to 6896
  146.2351  140.2032  142.8334 H   0  0  0  0  0  0  0  0  0  0  0  0  # atno 7974 bound_to 7965
  154.6211  140.2500  155.7549 H   0  0  0  0  0  0  0  0  0  0  0  0  # atno 8008 bound_to 7997
  156.2427  140.2926  156.0438 H   0  0  0  0  0  0  0  0  0  0  0  0  # atno 8009 bound_to 7997
  155.1896  140.0391  157.2888 H   0  0  0  0  0  0  0  0  0  0  0  0  # atno 8010 bound_to 7997
  140.7254  143.3884  151.1473 H   0  0  0  0  0  0  0  0  0  0  0  0  # atno 10167 bound_to 10162
  156.7765  130.9467  151.3120 H   0  0  0  0  0  0  0  0  0  0  0  0  # atno 10718 bound_to 10713
  153.8324  135.6865  153.4813 H   0  0  0  0  0  0  0  0  0  0  0  0  # atno 10763 bound_to 10752
  153.1503  135.4621  154.9624 H   0  0  0  0  0  0  0  0  0  0  0  0  # atno 10764 bound_to 10752
  154.7881  135.3292  154.7786 H   0  0  0  0  0  0  0  0  0  0  0  0  # atno 10765 bound_to 10752
  141.0656  133.6695  156.3333 H   0  0  0  0  0  0  0  0  0  0  0  0  # atno 11005 bound_to 11000
  144.9766  140.8419  143.5423 LP  0  0  0  0  0  0  0  0  0  0  0  0  # atno 17320 bound_to 7965
  145.2020  139.2247  143.5188 LP  0  0  0  0  0  0  0  0  0  0  0  0  # atno 17321 bound_to 7965
  139.7485  143.8815  152.3070 LP  0  0  0  0  0  0  0  0  0  0  0  0  # atno 17342 bound_to 10162
  139.8660  144.7093  150.9043 LP  0  0  0  0  0  0  0  0  0  0  0  0  # atno 17343 bound_to 10162
  157.6667  130.9014  149.9947 LP  0  0  0  0  0  0  0  0  0  0  0  0  # atno 17370 bound_to 10713
  156.1245  130.3645  149.9832 LP  0  0  0  0  0  0  0  0  0  0  0  0  # atno 17371 bound_to 10713
  140.5781  134.5774  157.5473 LP  0  0  0  0  0  0  0  0  0  0  0  0  # atno 17394 bound_to 11000
  139.9473  134.7679  156.0532 LP  0  0  0  0  0  0  0  0  0  0  0  0  # atno 17395 bound_to 11000

$$$$
