AV-unprocessed.smi:2026|AV-procd|sdf|8204|dock7
  -GOLD-   2272010463D 1   1.00000     0.00000
 Structure written by MMmdl.
 47 49  0  0  0  0  0  0  0  0  2 V2000
  152.0791  145.3415  160.0410 C   0  0  0  0  0  0  0  0  0  0  0  0
  151.7404  143.9635  159.4988 C   0  0  0  0  0  0  0  0  0  0  0  0
  150.9666  143.8746  158.3197 C   0  0  0  0  0  0  0  0  0  0  0  0
  150.6713  142.6006  157.8494 C   0  0  0  0  0  0  0  0  0  0  0  0
  149.9444  142.1860  156.7316 N   0  3  0  0  0  0  0  0  0  0  0  0
  149.9261  140.8255  156.6808 C   0  0  0  0  0  0  0  0  0  0  0  0
  150.6291  140.3647  157.7507 N   0  0  0  0  0  0  0  0  0  0  0  0
  150.9147  138.9803  158.1546 C   0  0  0  0  0  0  0  0  0  0  0  0
  149.6466  138.2110  158.5731 C   0  0  1  0  0  0  0  0  0  0  0  0
  148.9068  137.8839  157.4127 O   0  0  0  0  0  0  0  0  0  0  0  0
  149.9915  136.9079  159.3228 C   0  0  0  0  0  0  0  0  0  0  0  0
  148.7995  136.0923  159.5763 N   0  0  0  0  0  0  0  0  0  0  0  0
  148.5635  134.8964  159.0086 C   0  0  0  0  0  0  0  0  0  0  0  0
  149.2989  134.3012  158.2225 O   0  0  0  0  0  0  0  0  0  0  0  0
  147.3760  134.4527  159.4416 N   0  0  0  0  0  0  0  0  0  0  0  0
  146.7277  135.3733  160.3564 C   0  0  0  0  0  0  0  0  0  0  0  0
  145.4015  135.8881  159.7687 C   0  0  0  0  0  0  0  0  0  0  0  0
  146.5417  134.7318  161.7432 C   0  0  0  0  0  0  0  0  0  0  0  0
  147.7904  136.4613  160.3767 C   0  0  0  0  0  0  0  0  0  0  0  0
  147.6993  137.5037  161.0257 O   0  0  0  0  0  0  0  0  0  0  0  0
  151.1152  141.4373  158.5082 C   0  0  0  0  0  0  0  0  0  0  0  0
  151.8815  141.5083  159.6699 C   0  0  0  0  0  0  0  0  0  0  0  0
  152.1942  142.7950  160.1638 C   0  0  0  0  0  0  0  0  0  0  0  0
  153.0313  142.9018  161.4271 C   0  0  0  0  0  0  0  0  0  0  0  0
  151.6156  146.1291  159.4461 H   0  0  0  0  0  0  0  0  0  0  0  0
  153.1571  145.5033  160.0271 H   0  0  0  0  0  0  0  0  0  0  0  0
  151.7251  145.4484  161.0666 H   0  0  0  0  0  0  0  0  0  0  0  0
  150.6202  144.7596  157.8062 H   0  0  0  0  0  0  0  0  0  0  0  0
  149.4437  140.2209  155.9263 H   0  0  0  0  0  0  0  0  0  0  0  0
  151.4478  138.4667  157.3544 H   0  0  0  0  0  0  0  0  0  0  0  0
  151.6075  139.0337  158.9954 H   0  0  0  0  0  0  0  0  0  0  0  0
  149.0369  138.8607  159.2028 H   0  0  0  0  0  0  0  0  0  0  0  0
  148.4417  138.6545  157.1249 H   0  0  0  0  0  0  0  0  0  0  0  0
  150.7544  136.3404  158.7866 H   0  0  0  0  0  0  0  0  0  0  0  0
  150.4436  137.1502  160.2863 H   0  0  0  0  0  0  0  0  0  0  0  0
  146.9599  133.5766  159.1607 H   0  0  0  0  0  0  0  0  0  0  0  0
  144.9169  136.5929  160.4453 H   0  0  0  0  0  0  0  0  0  0  0  0
  144.7051  135.0671  159.5955 H   0  0  0  0  0  0  0  0  0  0  0  0
  145.5523  136.3969  158.8153 H   0  0  0  0  0  0  0  0  0  0  0  0
  146.0725  135.4270  162.4406 H   0  0  0  0  0  0  0  0  0  0  0  0
  147.4937  134.4219  162.1769 H   0  0  0  0  0  0  0  0  0  0  0  0
  145.9057  133.8480  161.6833 H   0  0  0  0  0  0  0  0  0  0  0  0
  152.2309  140.6214  160.1765 H   0  0  0  0  0  0  0  0  0  0  0  0
  153.3429  141.9197  161.7843 H   0  0  0  0  0  0  0  0  0  0  0  0
  152.4617  143.3812  162.2238 H   0  0  0  0  0  0  0  0  0  0  0  0
  153.9318  143.4883  161.2427 H   0  0  0  0  0  0  0  0  0  0  0  0
  149.4954  142.7851  156.0508 H   0  0  0  0  0  0  0  0  0  0  0  0
  1  2  1  0  0  0  0
  1 25  1  0  0  0  0
  1 26  1  0  0  0  0
  1 27  1  0  0  0  0
  2 23  1  0  0  0  0
  2  3  2  0  0  0  0
  3  4  1  0  0  0  0
  3 28  1  0  0  0  0
  4 21  2  0  0  0  0
  4  5  1  0  0  0  0
  5  6  2  0  0  0  0
  5 47  1  0  0  0  0
  6  7  1  0  0  0  0
  6 29  1  0  0  0  0
  7  8  1  0  0  0  0
  7 21  1  0  0  0  0
  8  9  1  0  0  0  0
  8 30  1  0  0  0  0
  8 31  1  0  0  0  0
  9 10  1  0  0  0  0
  9 11  1  0  0  0  0
  9 32  1  0  0  0  0
 10 33  1  0  0  0  0
 11 12  1  0  0  0  0
 11 34  1  0  0  0  0
 11 35  1  0  0  0  0
 12 19  1  0  0  0  0
 12 13  1  0  0  0  0
 13 14  2  0  0  0  0
 13 15  1  0  0  0  0
 15 16  1  0  0  0  0
 15 36  1  0  0  0  0
 16 17  1  0  0  0  0
 16 18  1  0  0  0  0
 16 19  1  0  0  0  0
 17 37  1  0  0  0  0
 17 38  1  0  0  0  0
 17 39  1  0  0  0  0
 18 40  1  0  0  0  0
 18 41  1  0  0  0  0
 18 42  1  0  0  0  0
 19 20  2  0  0  0  0
 21 22  1  0  0  0  0
 22 23  2  0  0  0  0
 22 43  1  0  0  0  0
 23 24  1  0  0  0  0
 24 44  1  0  0  0  0
 24 45  1  0  0  0  0
 24 46  1  0  0  0  0
M  CHG  1   5   1
M  END
> <s_m_source_file>
AV-unprocessed.smi

> <i_m_source_file_index>
2026

> <i_lp_mmshare_version>
43012

> <i_f3d_flags>
0

> <s_epik_input>
W0NIM11jKFtjSF0xKWMoW0NIM10pW2NIXWMoYzEyKW4oW2NIXW4yKVtDSDJdW0NASF0oW09IXSlbQ0gyXU4oQzM9TylDKD1PKVtOSF1DMyhbQ0gzXSlbQ0gzXQ==

> <s_epik_cmdline>
J2VwaWtfcHl0aG9uJywgJy1waCcsICc3LjAnLCAnLXRuJywgJzgnLCAnLW1hJywgJzIwMCcsICctbWV0YWxfYmluZGluZycsICctaW1hZScsICc8aW5maWxlLm1hZT4nLCAnLW9tYWUnLCAnPG91dGZpbGUubWFlPic=

> <r_lp_tautomer_probability>
1

> <r_epik_Ionization_Penalty>
1.08255

> <r_epik_Ionization_Penalty_Charging>
1.08249

> <r_epik_Ionization_Penalty_Neutral>
6.65731e-05

> <r_epik_State_Penalty>
1.13805

> <r_epik_Charging_Adjusted_Penalty>
2.22054

> <i_epik_Tot_Q>
1

> <i_epik_Tot_abs_Q>
1

> <r_epik_Metal_State_Penalty>
1.29676

> <b_epik_Metal_Only>
0

> <s_lp_Force_Field>
OPLS_2005

> <r_lp_Energy>
29.7067

> <b_lp_Chiralities_Consistent>
1

> <s_lp_Variant>
AV-unprocessed.smi:2026-4

> <Gold.Version>
5.8.1

> <Gold.Id.Protein>
6NUR|6NUR_protein|mol2

> <Gold.PLP.Fitness>
52.2062

> <Gold.PLP.PLP>
-39.1947

> <Gold.PLP.part.hbond>
-3.7571

> <Gold.PLP.part.metal>
0.0000

> <Gold.PLP.part.buried>
-3.7463

> <Gold.PLP.part.nonpolar>
-31.9449

> <Gold.PLP.part.repulsive>
0.0771

> <Gold.PLP.ligand.clash>
0.0000

> <Gold.PLP.ligand.torsion>
0.2057

> <Gold.PLP.Chemscore.Hbond>
4.4640

> <Gold.PLP.Chemscore.CHOScore>
0.0000

> <Gold.PLP.Chemscore.Metal>
0.0000

> <Gold.Chemscore.Hbonds>
donor molecule, donor type, donor heavy atom, donor atom, acceptor molecule, acceptor atom, score
      L1  H     5    47       P1  8028  1.63
      P1  H  6896  6909       L1    14  1.00
      P1  H  6931  6943       L1    20  0.74
      P1  H  6934  6947       L1    20  0.83

> <Gold.PLP.Chemscore.Internal.Correction>
0.0309

> <Gold.Rescore>
     Score         DG    S(hbond)    S(metal)    S(lipo)     H(rot)  DE(clash)    DE(int)     intcor
     19.29     -19.59       2.63        0.00     100.15       2.49       0.15       0.16       ----

> <Gold.Chemscore.Fitness>
19.2851

> <Gold.Chemscore.DG>
-19.5901

> <Gold.Chemscore.ZeroCoef>
-5.4800

> <Gold.Chemscore.Hbond>
2.6269

> <Gold.Chemscore.Metal>
0.0000

> <Gold.Chemscore.Lipo>
100.1538

> <Gold.Chemscore.Internal_Hbond>
0.0000

> <Gold.Chemscore.DEClash>
0.1482

> <Gold.Chemscore.DEInternal>
0.1568

> <Gold.Chemscore.Rot>
2.4929

> <Gold.Chemscore.Internal.Correction>
   9.000000E+99

> <Gold.Chemscore.Hbonds>
donor molecule, donor type, donor heavy atom, donor atom, acceptor molecule, acceptor atom, score
      L1  H     5    47       P1  8028  0.75
      P1  H  6896  6909       L1    14  0.37
      P1  H  6931  6943       L1    20  0.74
      P1  H  6934  6947       L1    20  0.80

> <Gold.Chemscore.Hbond.Weighted>
-8.7739

> <Gold.Chemscore.Metal.Weighted>
-0.0000

> <Gold.Chemscore.Lipo.Weighted>
-11.7180

> <Gold.Chemscore.Internal_Hbond.Weighted>
0.0000

> <Gold.Chemscore.DEClash.Weighted>
0.1482

> <Gold.Chemscore.DEInternal.Weighted>
0.1568

> <Gold.Chemscore.Rot.Weighted>
6.3819

> <Gold.Chemscore.Internal.Correction.Weighted>
   9.000000E+99

> <Gold.Protein.RotatedTorsions>
[ 6907 6896 6895 6894 ] final    2.25 input  -60.11 | X-H torsion
[ 7974 7965 7964 7962 ] final  128.76 input  175.53 | X-H torsion
[ 8008 7997 7996 7995 ] final  140.94 input   59.86 | X-H torsion
[ 10167 10162 10161 10158 ] final   40.80 input  -65.29 | X-H torsion
[ 10718 10713 10712 10709 ] final  117.98 input   66.30 | X-H torsion
[ 10763 10752 10751 10750 ] final   80.62 input  -60.55 | X-H torsion
[ 11005 11000 10999 10996 ] final   82.50 input  -57.11 | X-H torsion

> <Gold.Protein.ActiveResidues>
 VAL166  LYS551  ARG553  GLY616  TRP617  ASP618  TYR619  PRO620  LYS621  CYS622 
 ASP623  PHE694  ASN695  SER759  ASP760  ASP761  ALA762  ILE779  LEU786  VAL792 
 PHE793  MET794  SER795  GLU796  ALA797  LYS798  CYS799  TRP800  GLU811  SER814 

> <Gold.Protein.RotatedAtoms>
  151.6058  135.1044  160.0069 H   0  0  0  0  0  0  0  0  0  0  0  0  # atno 6907 bound_to 6896
  152.4234  133.7150  159.6511 H   0  0  0  0  0  0  0  0  0  0  0  0  # atno 6908 bound_to 6896
  150.8122  133.8328  159.3199 H   0  0  0  0  0  0  0  0  0  0  0  0  # atno 6909 bound_to 6896
  145.0360  139.4004  143.5126 H   0  0  0  0  0  0  0  0  0  0  0  0  # atno 7974 bound_to 7965
  156.2972  140.2328  156.4483 H   0  0  0  0  0  0  0  0  0  0  0  0  # atno 8008 bound_to 7997
  154.8124  140.0442  157.1373 H   0  0  0  0  0  0  0  0  0  0  0  0  # atno 8009 bound_to 7997
  154.9408  140.3029  155.5125 H   0  0  0  0  0  0  0  0  0  0  0  0  # atno 8010 bound_to 7997
  140.3707  144.2109  150.6133 H   0  0  0  0  0  0  0  0  0  0  0  0  # atno 10167 bound_to 10162
  157.6061  131.1043  150.7691 H   0  0  0  0  0  0  0  0  0  0  0  0  # atno 10718 bound_to 10713
  153.1048  135.4796  154.8932 H   0  0  0  0  0  0  0  0  0  0  0  0  # atno 10763 bound_to 10752
  154.7418  135.3084  154.8716 H   0  0  0  0  0  0  0  0  0  0  0  0  # atno 10764 bound_to 10752
  153.9322  135.6843  153.4799 H   0  0  0  0  0  0  0  0  0  0  0  0  # atno 10765 bound_to 10752
  139.9062  134.8076  156.2183 H   0  0  0  0  0  0  0  0  0  0  0  0  # atno 11005 bound_to 11000
  146.3504  139.9935  142.8683 LP  0  0  0  0  0  0  0  0  0  0  0  0  # atno 17320 bound_to 7965
  145.1709  140.9720  143.4322 LP  0  0  0  0  0  0  0  0  0  0  0  0  # atno 17321 bound_to 7965
  140.5036  143.2310  151.8641 LP  0  0  0  0  0  0  0  0  0  0  0  0  # atno 17342 bound_to 10162
  139.4804  144.5031  151.9034 LP  0  0  0  0  0  0  0  0  0  0  0  0  # atno 17343 bound_to 10162
  156.8079  130.4943  149.5360 LP  0  0  0  0  0  0  0  0  0  0  0  0  # atno 17370 bound_to 10713
  156.1147  130.6066  151.0103 LP  0  0  0  0  0  0  0  0  0  0  0  0  # atno 17371 bound_to 10713
  141.0422  133.6932  156.1618 LP  0  0  0  0  0  0  0  0  0  0  0  0  # atno 17394 bound_to 11000
  140.6938  134.4637  157.5588 LP  0  0  0  0  0  0  0  0  0  0  0  0  # atno 17395 bound_to 11000

$$$$
