#       Name:                AV-unprocessed.smi:748
#       Creating user name   scv26
#       Creation time:       Fri Mar 27 00:57:40 2020


#       File generated by GOLD software.
#

@<TRIPOS>MOLECULE
AV-unprocessed.smi:748
    58    59     1
SMALL
NO_CHARGES


@<TRIPOS>ATOM
      1 ****        -2.0959   7.0224   2.4816 C.3            1 S1                 0.0000
      2 ****        -3.0425   5.9542   1.9101 C.3            1 S1                 0.0000
      3 ****        -4.2445   5.7135   2.8334 C.3            1 S1                 0.0000
      4 ****        -2.3333   4.6951   1.7010 N.am           1 S1                 0.0000
      5 ****        -1.5303   4.4153   0.6622 C.2            1 S1                 0.0000
      6 ****        -1.2981   5.2112  -0.2477 O.2            1 S1                 0.0000
      7 ****        -0.8962   3.0226   0.6466 C.3            1 S1                 0.0000
      8 ****         0.6225   3.0750   0.3987 C.3            1 S1                 0.0000
      9 ****         1.2149   1.7448   0.4692 N.am           1 S1                 0.0000
     10 ****         1.2647   0.8667  -0.5457 C.2            1 S1                 0.0000
     11 ****         0.7930   1.0913  -1.6608 O.2            1 S1                 0.0000
     12 ****         1.8805  -0.4656  -0.2220 C.ar           1 S1                 0.0000
     13 ****         2.8630  -0.6002   0.7842 C.ar           1 S1                 0.0000
     14 ****         3.4146  -1.8730   1.0169 C.ar           1 S1                 0.0000
     15 ****         3.0566  -2.9734   0.3244 N.ar           1 S1                 0.0000
     16 ****         2.1200  -2.8611  -0.6493 C.ar           1 S1                 0.0000
     17 ****         1.7652  -4.0217  -1.3716 N.3            1 S1                 0.0000
     18 ****         2.5758  -5.2237  -1.1853 C.3            1 S1                 0.0000
     19 ****         2.2445  -6.2648  -2.2670 C.3            1 S1                 0.0000
     20 ****         0.8464  -6.5338  -2.2612 O.3            1 S1                 0.0000
     21 ****         0.0758  -5.3722  -2.5568 C.3            1 S1                 0.0000
     22 ****        -1.4003  -5.7775  -2.6213 C.3            1 S1                 0.0000
     23 ****         0.3353  -4.3011  -1.4795 C.3            1 S1                 0.0000
     24 ****         1.5152  -1.6177  -0.9535 C.ar           1 S1                 0.0000
     25 ****        -2.6215   7.9640   2.6428 H              1 S1                 0.0000
     26 ****        -1.2672   7.2246   1.8022 H              1 S1                 0.0000
     27 ****        -1.6741   6.7093   3.4372 H              1 S1                 0.0000
     28 ****        -3.4249   6.3059   0.9501 H              1 S1                 0.0000
     29 ****        -4.8131   6.6316   2.9832 H              1 S1                 0.0000
     30 ****        -3.9277   5.3554   3.8138 H              1 S1                 0.0000
     31 ****        -4.9237   4.9721   2.4110 H              1 S1                 0.0000
     32 ****        -2.4679   3.9788   2.3998 H              1 S1                 0.0000
     33 ****        -1.0976   2.5165   1.5922 H              1 S1                 0.0000
     34 ****        -1.3840   2.4345  -0.1317 H              1 S1                 0.0000
     35 ****         0.8461   3.5344  -0.5663 H              1 S1                 0.0000
     36 ****         1.1039   3.6955   1.1555 H              1 S1                 0.0000
     37 ****         1.6090   1.4648   1.3557 H              1 S1                 0.0000
     38 ****         3.2006   0.2448   1.3663 H              1 S1                 0.0000
     39 ****         4.1680  -2.0109   1.7781 H              1 S1                 0.0000
     40 ****         3.6376  -4.9785  -1.2356 H              1 S1                 0.0000
     41 ****         2.3821  -5.6390  -0.1954 H              1 S1                 0.0000
     42 ****         2.5548  -5.9142  -3.2527 H              1 S1                 0.0000
     43 ****         2.7857  -7.1912  -2.0744 H              1 S1                 0.0000
     44 ****         0.3716  -4.9869  -3.5344 H              1 S1                 0.0000
     45 ****        -2.0327  -4.9204  -2.8535 H              1 S1                 0.0000
     46 ****        -1.7370  -6.1950  -1.6719 H              1 S1                 0.0000
     47 ****        -1.5637  -6.5299  -3.3932 H              1 S1                 0.0000
     48 ****        -0.0265  -4.6472  -0.5104 H              1 S1                 0.0000
     49 ****        -0.2341  -3.4067  -1.7270 H              1 S1                 0.0000
     50 ****         0.7893  -1.5379  -1.7493 H              1 S1                 0.0000
     51 ****        -1.7165   6.1194  -0.2365 LP             1 S1                 0.0000
     52 ****        -0.6911   4.9495  -0.9981 LP             1 S1                 0.0000
     53 ****         0.3440   1.9652  -1.8470 LP             1 S1                 0.0000
     54 ****         0.8589   0.3997  -2.3801 LP             1 S1                 0.0000
     55 ****         3.4756  -3.8587   0.5261 LP             1 S1                 0.0000
     56 ****         2.0436  -3.7130  -2.2811 LP             1 S1                 0.0000
     57 ****         0.5867  -6.8714  -1.3564 LP             1 S1                 0.0000
     58 ****         0.6500  -7.2343  -2.9473 LP             1 S1                 0.0000
@<TRIPOS>BOND
    1    1    2 1     
    2    1   25 1     
    3    1   26 1     
    4    1   27 1     
    5    2    3 1     
    6    2    4 1     
    7    2   28 1     
    8    3   29 1     
    9    3   30 1     
   10    3   31 1     
   11    4    5 am    
   12    4   32 1     
   13    5    6 2     
   14    5    7 1     
   15    7    8 1     
   16    7   33 1     
   17    7   34 1     
   18    8    9 1     
   19    8   35 1     
   20    8   36 1     
   21    9   10 am    
   22    9   37 1     
   23   10   11 2     
   24   10   12 1     
   25   12   24 ar    
   26   12   13 ar    
   27   13   14 ar    
   28   13   38 1     
   29   14   15 ar    
   30   14   39 1     
   31   15   16 ar    
   32   16   17 1     
   33   16   24 ar    
   34   17   23 1     
   35   17   18 1     
   36   18   19 1     
   37   18   40 1     
   38   18   41 1     
   39   19   20 1     
   40   19   42 1     
   41   19   43 1     
   42   20   21 1     
   43   21   22 1     
   44   21   23 1     
   45   21   44 1     
   46   22   45 1     
   47   22   46 1     
   48   22   47 1     
   49   23   48 1     
   50   23   49 1     
   51   24   50 1     
   52    6   51 1     
   53    6   52 1     
   54   11   53 1     
   55   11   54 1     
   56   15   55 1     
   57   17   56 1     
   58   20   57 1     
   59   20   58 1     
@<TRIPOS>SUBSTRUCTURE
      1 S1             1
@<TRIPOS>SET
LONE_PAIRS      STATIC     ATOMS    <user>   **** ""
8 51 52 53 54 55 56 57 58
DONOR_HYDROGENS      STATIC     ATOMS    <user>   **** ""
2 32 37
ATOM$BLUE        STATIC     ATOMS    COLORGROUP SYSTEM
8 51 52 53 54 55 56 57 58
ATOM$RED        STATIC     ATOMS    COLORGROUP SYSTEM
2 32 37
