#       Name:                AV-unprocessed.smi:1714
#       Creating user name   scv26
#       Creation time:       Fri Mar 27 08:11:08 2020


#       File generated by GOLD software.
#

@<TRIPOS>MOLECULE
AV-unprocessed.smi:1714
    51    52     1
SMALL
NO_CHARGES


@<TRIPOS>ATOM
      1 ****        -1.5864   3.8706  -0.6455 C.3            1 S1                 0.0000
      2 ****        -2.9060   3.2234  -1.0343 C.ar           1 S1                 0.0000
      3 ****        -4.0326   4.0395  -1.2708 C.ar           1 S1                 0.0000
      4 ****        -5.2514   3.4385  -1.6292 C.ar           1 S1                 0.0000
      5 ****        -5.2920   2.0376  -1.7357 C.ar           1 S1                 0.0000
      6 ****        -4.2205   1.2501  -1.5105 N.ar           1 S1                 0.0000
      7 ****        -3.0367   1.8147  -1.1640 C.ar           1 S1                 0.0000
      8 ****        -1.8638   1.0486  -0.9151 N.am           1 S1                 0.0000
      9 ****        -1.7138  -0.2871  -0.9386 C.2            1 S1                 0.0000
     10 ****        -2.6033  -1.1046  -1.1764 O.2            1 S1                 0.0000
     11 ****        -0.4512  -0.6325  -0.6592 N.am           1 S1                 0.0000
     12 ****         0.0364  -2.0053  -0.5782 C.3            1 S1                 0.0000
     13 ****         1.5688  -2.0665  -0.3200 C.3            1 S1                 0.0000
     14 ****         1.9501  -3.5602  -0.1830 C.3            1 S1                 0.0000
     15 ****         2.2468  -1.5345  -1.6085 C.3            1 S1                 0.0000
     16 ****         1.9589  -1.2518   0.8655 N.3            1 S1                 0.0000
     17 ****         1.2969  -1.6325   2.1190 C.3            1 S1                 0.0000
     18 ****         1.6497  -0.6799   3.2739 C.3            1 S1                 0.0000
     19 ****         3.0606  -0.6374   3.4463 O.3            1 S1                 0.0000
     20 ****         3.7377  -0.2125   2.2701 C.3            1 S1                 0.0000
     21 ****         3.4036  -1.1616   1.1068 C.3            1 S1                 0.0000
     22 ****        -1.6749   4.9564  -0.5975 H              1 S1                 0.0000
     23 ****        -0.8125   3.6295  -1.3749 H              1 S1                 0.0000
     24 ****        -1.2626   3.5169   0.3338 H              1 S1                 0.0000
     25 ****        -3.9665   5.1138  -1.1792 H              1 S1                 0.0000
     26 ****        -6.1316   4.0353  -1.8172 H              1 S1                 0.0000
     27 ****        -6.2080   1.5349  -2.0092 H              1 S1                 0.0000
     28 ****        -1.0389   1.5850  -0.6918 H              1 S1                 0.0000
     29 ****         0.2191   0.0988  -0.4709 H              1 S1                 0.0000
     30 ****        -0.5174  -2.5357   0.1972 H              1 S1                 0.0000
     31 ****        -0.2097  -2.5197  -1.5091 H              1 S1                 0.0000
     32 ****         1.6620  -4.1193  -1.0741 H              1 S1                 0.0000
     33 ****         1.4496  -4.0364   0.6600 H              1 S1                 0.0000
     34 ****         3.0230  -3.7034  -0.0562 H              1 S1                 0.0000
     35 ****         1.8416  -2.0129  -2.5010 H              1 S1                 0.0000
     36 ****         3.3188  -1.7303  -1.6218 H              1 S1                 0.0000
     37 ****         2.1058  -0.4592  -1.7243 H              1 S1                 0.0000
     38 ****         0.2146  -1.6273   2.0053 H              1 S1                 0.0000
     39 ****         1.5812  -2.6460   2.4022 H              1 S1                 0.0000
     40 ****         1.2687   0.3235   3.0770 H              1 S1                 0.0000
     41 ****         1.1883  -1.0219   4.2003 H              1 S1                 0.0000
     42 ****         3.4518   0.8120   2.0262 H              1 S1                 0.0000
     43 ****         4.8112  -0.2087   2.4591 H              1 S1                 0.0000
     44 ****         3.8116  -2.1475   1.3296 H              1 S1                 0.0000
     45 ****         3.9234  -0.7949   0.2236 H              1 S1                 0.0000
     46 ****        -4.2981   0.2570  -1.5983 LP             1 S1                 0.0000
     47 ****        -3.5317  -0.7900  -1.3742 LP             1 S1                 0.0000
     48 ****        -2.3973  -2.0831  -1.1717 LP             1 S1                 0.0000
     49 ****         1.6289  -0.3475   0.5946 LP             1 S1                 0.0000
     50 ****         3.3822  -1.5526   3.6892 LP             1 S1                 0.0000
     51 ****         3.2746  -0.0013   4.1876 LP             1 S1                 0.0000
@<TRIPOS>BOND
    1    1    2 1     
    2    1   22 1     
    3    1   23 1     
    4    1   24 1     
    5    2    7 ar    
    6    2    3 ar    
    7    3    4 ar    
    8    3   25 1     
    9    4    5 ar    
   10    4   26 1     
   11    5    6 ar    
   12    5   27 1     
   13    6    7 ar    
   14    7    8 1     
   15    8    9 am    
   16    8   28 1     
   17    9   10 2     
   18    9   11 am    
   19   11   12 1     
   20   11   29 1     
   21   12   13 1     
   22   12   30 1     
   23   12   31 1     
   24   13   14 1     
   25   13   15 1     
   26   13   16 1     
   27   14   32 1     
   28   14   33 1     
   29   14   34 1     
   30   15   35 1     
   31   15   36 1     
   32   15   37 1     
   33   16   21 1     
   34   16   17 1     
   35   17   18 1     
   36   17   38 1     
   37   17   39 1     
   38   18   19 1     
   39   18   40 1     
   40   18   41 1     
   41   19   20 1     
   42   20   21 1     
   43   20   42 1     
   44   20   43 1     
   45   21   44 1     
   46   21   45 1     
   47    6   46 1     
   48   10   47 1     
   49   10   48 1     
   50   16   49 1     
   51   19   50 1     
   52   19   51 1     
@<TRIPOS>SUBSTRUCTURE
      1 S1             1
@<TRIPOS>SET
LONE_PAIRS      STATIC     ATOMS    <user>   **** ""
6 46 47 48 49 50 51
DONOR_HYDROGENS      STATIC     ATOMS    <user>   **** ""
2 28 29
ATOM$BLUE        STATIC     ATOMS    COLORGROUP SYSTEM
6 46 47 48 49 50 51
ATOM$RED        STATIC     ATOMS    COLORGROUP SYSTEM
2 28 29
