AV-unprocessed.smi:2323|AV-procd|sdf|9289|dock4
  -GOLD-   2272012513D 1   1.00000     0.00000
 Structure written by MMmdl.
 30 31  0  0  0  0  0  0  0  0  1 V2000
  153.1298  141.8405  160.3460 C   0  0  0  0  0  0  0  0  0  0  0  0
  152.6639  141.4493  159.0247 N   0  0  0  0  0  0  0  0  0  0  0  0
  151.4639  141.7740  158.5197 C   0  0  0  0  0  0  0  0  0  0  0  0
  150.6198  142.4210  159.1403 O   0  0  0  0  0  0  0  0  0  0  0  0
  151.1690  141.2373  157.1482 C   0  0  0  0  0  0  0  0  0  0  0  0
  151.8256  140.0792  156.6780 C   0  0  0  0  0  0  0  0  0  0  0  0
  151.5057  139.5943  155.3957 C   0  0  0  0  0  0  0  0  0  0  0  0
  150.5945  140.1768  154.5893 N   0  0  0  0  0  0  0  0  0  0  0  0
  149.9530  141.2830  155.0398 C   0  0  0  0  0  0  0  0  0  0  0  0
  149.0108  141.8887  154.2322 O   0  0  0  0  0  0  0  0  0  0  0  0
  147.7479  141.2536  154.0223 C   0  0  2  0  0  0  0  0  0  0  0  0
  146.6885  142.2658  153.6041 C   0  0  0  0  0  0  0  0  0  0  0  0
  146.1441  142.7449  154.9415 C   0  0  0  0  0  0  0  0  0  0  0  0
  146.0960  141.5526  155.7058 O   0  0  0  0  0  0  0  0  0  0  0  0
  147.2337  140.7586  155.3829 C   0  0  0  0  0  0  0  0  0  0  0  0
  150.2052  141.8426  156.3088 C   0  0  0  0  0  0  0  0  0  0  0  0
  154.1271  141.4380  160.5229 H   0  0  0  0  0  0  0  0  0  0  0  0
  152.4653  141.4581  161.1218 H   0  0  0  0  0  0  0  0  0  0  0  0
  153.1796  142.9265  160.4335 H   0  0  0  0  0  0  0  0  0  0  0  0
  153.2892  140.8962  158.4565 H   0  0  0  0  0  0  0  0  0  0  0  0
  152.5625  139.5692  157.2817 H   0  0  0  0  0  0  0  0  0  0  0  0
  151.9940  138.7126  155.0076 H   0  0  0  0  0  0  0  0  0  0  0  0
  147.8270  140.4203  153.3220 H   0  0  0  0  0  0  0  0  0  0  0  0
  147.0701  143.0786  152.9858 H   0  0  0  0  0  0  0  0  0  0  0  0
  145.8973  141.7625  153.0468 H   0  0  0  0  0  0  0  0  0  0  0  0
  146.8277  143.4547  155.4101 H   0  0  0  0  0  0  0  0  0  0  0  0
  145.1621  143.2109  154.8575 H   0  0  0  0  0  0  0  0  0  0  0  0
  146.9416  139.7086  155.3449 H   0  0  0  0  0  0  0  0  0  0  0  0
  147.9918  140.8644  156.1603 H   0  0  0  0  0  0  0  0  0  0  0  0
  149.6578  142.7193  156.6231 H   0  0  0  0  0  0  0  0  0  0  0  0
  1  2  1  0  0  0  0
  1 17  1  0  0  0  0
  1 18  1  0  0  0  0
  1 19  1  0  0  0  0
  2  3  1  0  0  0  0
  2 20  1  0  0  0  0
  3  4  2  0  0  0  0
  3  5  1  0  0  0  0
  5 16  1  0  0  0  0
  5  6  2  0  0  0  0
  6  7  1  0  0  0  0
  6 21  1  0  0  0  0
  7  8  2  0  0  0  0
  7 22  1  0  0  0  0
  8  9  1  0  0  0  0
  9 10  1  0  0  0  0
  9 16  2  0  0  0  0
 10 11  1  0  0  0  0
 11 15  1  0  0  0  0
 11 12  1  0  0  0  0
 11 23  1  0  0  0  0
 12 13  1  0  0  0  0
 12 24  1  0  0  0  0
 12 25  1  0  0  0  0
 13 14  1  0  0  0  0
 13 26  1  0  0  0  0
 13 27  1  0  0  0  0
 14 15  1  0  0  0  0
 15 28  1  0  0  0  0
 15 29  1  0  0  0  0
 16 30  1  0  0  0  0
M  END
> <s_m_source_file>
AV-unprocessed.smi

> <i_m_source_file_index>
2323

> <i_lp_mmshare_version>
43012

> <i_f3d_flags>
0

> <s_epik_input>
W0NIM11bTkhdQyg9TyljMVtjSF1bY0hdbmMoW2NIXTEpT1tDQEBIXTJbQ0gyXVtDSDJdT1tDSDJdMg==

> <s_epik_cmdline>
J2VwaWtfcHl0aG9uJywgJy1waCcsICc3LjAnLCAnLXRuJywgJzgnLCAnLW1hJywgJzIwMCcsICctbWV0YWxfYmluZGluZycsICctaW1hZScsICc8aW5maWxlLm1hZT4nLCAnLW9tYWUnLCAnPG91dGZpbGUubWFlPic=

> <r_lp_tautomer_probability>
1

> <r_epik_Ionization_Penalty>
2.2633e-06

> <r_epik_Ionization_Penalty_Charging>
0

> <r_epik_Ionization_Penalty_Neutral>
2.2633e-06

> <r_epik_State_Penalty>
-0

> <r_epik_Charging_Adjusted_Penalty>
0

> <i_epik_Tot_Q>
0

> <i_epik_Tot_abs_Q>
0

> <r_epik_Metal_State_Penalty>
-0

> <b_epik_Metal_Only>
0

> <s_lp_Force_Field>
OPLS_2005

> <r_lp_Energy>
16.8838

> <b_lp_Chiralities_Consistent>
1

> <s_lp_Variant>
AV-unprocessed.smi:2323-1

> <Gold.Version>
5.8.1

> <Gold.Id.Protein>
6NUR|6NUR_protein|mol2

> <Gold.PLP.Fitness>
33.6230

> <Gold.PLP.PLP>
-30.6300

> <Gold.PLP.part.hbond>
-2.8368

> <Gold.PLP.part.metal>
0.0000

> <Gold.PLP.part.buried>
-4.0793

> <Gold.PLP.part.nonpolar>
-23.8305

> <Gold.PLP.part.repulsive>
0.4985

> <Gold.PLP.ligand.clash>
0.0000

> <Gold.PLP.ligand.torsion>
0.5699

> <Gold.PLP.Chemscore.Hbond>
1.3713

> <Gold.PLP.Chemscore.CHOScore>
0.0000

> <Gold.PLP.Chemscore.Metal>
0.0000

> <Gold.Chemscore.Hbonds>
donor molecule, donor type, donor heavy atom, donor atom, acceptor molecule, acceptor atom, score
      P1  H  7989  7998       L1     8  0.95
      P1  H  8011  8017       L1    10  0.36

> <Gold.PLP.Chemscore.Internal.Correction>
0.0191

> <Gold.Rescore>
     Score         DG    S(hbond)    S(metal)    S(lipo)     H(rot)  DE(clash)    DE(int)     intcor
     10.00     -10.67       0.39        0.00      60.53       1.24       0.22       0.46       ----

> <Gold.Chemscore.Fitness>
9.9968

> <Gold.Chemscore.DG>
-10.6747

> <Gold.Chemscore.ZeroCoef>
-5.4800

> <Gold.Chemscore.Hbond>
0.3890

> <Gold.Chemscore.Metal>
0.0000

> <Gold.Chemscore.Lipo>
60.5291

> <Gold.Chemscore.Internal_Hbond>
0.0000

> <Gold.Chemscore.DEClash>
0.2227

> <Gold.Chemscore.DEInternal>
0.4552

> <Gold.Chemscore.Rot>
1.2448

> <Gold.Chemscore.Internal.Correction>
   9.000000E+99

> <Gold.Chemscore.Hbonds>
donor molecule, donor type, donor heavy atom, donor atom, acceptor molecule, acceptor atom, score
      P1  H  7989  7998       L1     8  0.05
      P1  H  8011  8017       L1    10  0.19

> <Gold.Chemscore.Hbond.Weighted>
-1.2994

> <Gold.Chemscore.Metal.Weighted>
-0.0000

> <Gold.Chemscore.Lipo.Weighted>
-7.0819

> <Gold.Chemscore.Internal_Hbond.Weighted>
0.0000

> <Gold.Chemscore.DEClash.Weighted>
0.2227

> <Gold.Chemscore.DEInternal.Weighted>
0.4552

> <Gold.Chemscore.Rot.Weighted>
3.1866

> <Gold.Chemscore.Internal.Correction.Weighted>
   9.000000E+99

> <Gold.Protein.RotatedTorsions>
[ 6907 6896 6895 6894 ] final -168.33 input  -60.11 | X-H torsion
[ 7974 7965 7964 7962 ] final   19.61 input  175.53 | X-H torsion
[ 8008 7997 7996 7995 ] final -166.19 input   59.86 | X-H torsion
[ 10167 10162 10161 10158 ] final   -7.10 input  -65.29 | X-H torsion
[ 10718 10713 10712 10709 ] final -150.81 input   66.30 | X-H torsion
[ 10763 10752 10751 10750 ] final   71.45 input  -60.55 | X-H torsion
[ 11005 11000 10999 10996 ] final  -24.37 input  -57.11 | X-H torsion

> <Gold.Protein.ActiveResidues>
 VAL166  LYS551  ARG553  GLY616  TRP617  ASP618  TYR619  PRO620  LYS621  CYS622 
 ASP623  PHE694  ASN695  SER759  ASP760  ASP761  ALA762  ILE779  LEU786  VAL792 
 PHE793  MET794  SER795  GLU796  ALA797  LYS798  CYS799  TRP800  GLU811  SER814 

> <Gold.Protein.RotatedAtoms>
  151.4739  133.3562  159.2827 H   0  0  0  0  0  0  0  0  0  0  0  0  # atno 6907 bound_to 6896
  150.8942  134.8351  159.7326 H   0  0  0  0  0  0  0  0  0  0  0  0  # atno 6908 bound_to 6896
  152.4841  134.4652  159.9670 H   0  0  0  0  0  0  0  0  0  0  0  0  # atno 6909 bound_to 6896
  146.2143  139.8288  142.8664 H   0  0  0  0  0  0  0  0  0  0  0  0  # atno 7974 bound_to 7965
  155.8603  140.0977  157.1617 H   0  0  0  0  0  0  0  0  0  0  0  0  # atno 8008 bound_to 7997
  154.3990  140.1366  156.4015 H   0  0  0  0  0  0  0  0  0  0  0  0  # atno 8009 bound_to 7997
  155.7864  140.3457  155.5327 H   0  0  0  0  0  0  0  0  0  0  0  0  # atno 8010 bound_to 7997
  140.7018  143.6119  150.8695 H   0  0  0  0  0  0  0  0  0  0  0  0  # atno 10167 bound_to 10162
  156.4510  130.8168  151.2398 H   0  0  0  0  0  0  0  0  0  0  0  0  # atno 10718 bound_to 10713
  153.0400  135.5136  154.7595 H   0  0  0  0  0  0  0  0  0  0  0  0  # atno 10763 bound_to 10752
  154.6540  135.2929  154.9953 H   0  0  0  0  0  0  0  0  0  0  0  0  # atno 10764 bound_to 10752
  154.0827  135.6661  153.4893 H   0  0  0  0  0  0  0  0  0  0  0  0  # atno 10765 bound_to 10752
  140.8839  133.7635  156.0336 H   0  0  0  0  0  0  0  0  0  0  0  0  # atno 11005 bound_to 11000
  145.3019  141.0196  143.3604 LP  0  0  0  0  0  0  0  0  0  0  0  0  # atno 17320 bound_to 7965
  144.9000  139.4662  143.6637 LP  0  0  0  0  0  0  0  0  0  0  0  0  # atno 17321 bound_to 7965
  139.9842  143.5918  152.2932 LP  0  0  0  0  0  0  0  0  0  0  0  0  # atno 17342 bound_to 10162
  139.6549  144.7662  151.2074 LP  0  0  0  0  0  0  0  0  0  0  0  0  # atno 17343 bound_to 10162
  157.7503  131.0138  150.3438 LP  0  0  0  0  0  0  0  0  0  0  0  0  # atno 17370 bound_to 10713
  156.3816  130.3881  149.7097 LP  0  0  0  0  0  0  0  0  0  0  0  0  # atno 17371 bound_to 10713
  140.8428  134.3046  157.5307 LP  0  0  0  0  0  0  0  0  0  0  0  0  # atno 17394 bound_to 11000
  139.8722  134.9425  156.3827 LP  0  0  0  0  0  0  0  0  0  0  0  0  # atno 17395 bound_to 11000

$$$$
