#       Name:                AV-unprocessed.smi:964
#       Creating user name   scv26
#       Creation time:       Fri Mar 27 02:18:47 2020


#       File generated by GOLD software.
#

@<TRIPOS>MOLECULE
AV-unprocessed.smi:964
    22    22     1
SMALL
NO_CHARGES


@<TRIPOS>ATOM
      1 ****        -3.3986   1.2168  -0.4961 C.3            1 S1                 0.0000
      2 ****        -2.1444   0.4102  -0.5090 C.2            1 S1                 0.0000
      3 ****        -0.9112   0.9054  -0.5202 N.2            1 S1                 0.0000
      4 ****        -0.1864  -0.2536  -0.5352 C.2            1 S1                 0.0000
      5 ****         1.3059  -0.2700  -0.5063 C.3            1 S1                 0.0000
      6 ****         1.8526  -0.2679   0.9279 C.3            1 S1                 0.0000
      7 ****         3.3249  -0.2697   0.9429 N.4            1 S1                 1.0000
      8 ****        -0.8898  -1.3846  -0.5105 N.2            1 S1                 0.0000
      9 ****        -2.1589  -0.9242  -0.5050 N.pl3          1 S1                 0.0000
     10 ****        -2.9667  -1.5308  -0.4929 H              1 S1                 0.0000
     11 ****        -3.1675   2.2825  -0.4927 H              1 S1                 0.0000
     12 ****        -3.9843   0.9848   0.3936 H              1 S1                 0.0000
     13 ****        -3.9971   0.9929  -1.3794 H              1 S1                 0.0000
     14 ****         1.6634  -1.1490  -1.0452 H              1 S1                 0.0000
     15 ****         1.6775   0.5991  -1.0507 H              1 S1                 0.0000
     16 ****         1.4989   0.6118   1.4667 H              1 S1                 0.0000
     17 ****         1.4958  -1.1436   1.4708 H              1 S1                 0.0000
     18 ****         3.6516  -0.2692   1.8988 H              1 S1                 0.0000
     19 ****         3.6677   0.5547   0.4706 H              1 S1                 0.0000
     20 ****         3.6666  -1.0951   0.4715 H              1 S1                 0.0000
     21 ****        -0.6013   1.8562  -0.5182 LP             1 S1                 0.0000
     22 ****        -0.5627  -2.3295  -0.4990 LP             1 S1                 0.0000
@<TRIPOS>BOND
    1    1    2 1     
    2    1   11 1     
    3    1   12 1     
    4    1   13 1     
    5    2    9 1     
    6    2    3 2     
    7    3    4 1     
    8    4    5 1     
    9    4    8 2     
   10    5    6 1     
   11    5   14 1     
   12    5   15 1     
   13    6    7 1     
   14    6   16 1     
   15    6   17 1     
   16    7   18 1     
   17    7   19 1     
   18    7   20 1     
   19    8    9 1     
   20    9   10 1     
   21    3   21 1     
   22    8   22 1     
@<TRIPOS>SUBSTRUCTURE
      1 S1             1
@<TRIPOS>SET
LONE_PAIRS      STATIC     ATOMS    <user>   **** ""
2 21 22
DONOR_HYDROGENS      STATIC     ATOMS    <user>   **** ""
4 18 19 20 10
ATOM$BLUE        STATIC     ATOMS    COLORGROUP SYSTEM
2 21 22
ATOM$RED        STATIC     ATOMS    COLORGROUP SYSTEM
4 18 19 20 10
