AV-unprocessed.smi:397|AV-procd|sdf|2488|dock5
  -GOLD-   2262022433D 1   1.00000     0.00000
 Structure written by MMmdl.
 37 38  0  0  0  0  0  0  0  0  1 V2000
  144.3432  144.9074  155.6808 C   0  0  0  0  0  0  0  0  0  0  0  0
  145.1885  143.7717  155.6384 O   0  0  0  0  0  0  0  0  0  0  0  0
  145.4172  143.3112  154.3166 C   0  0  0  0  0  0  0  0  0  0  0  0
  146.3053  142.0586  154.3475 C   0  0  0  0  0  0  0  0  0  0  0  0
  147.6769  142.3840  154.7224 N   0  0  0  0  0  0  0  0  0  0  0  0
  148.6719  141.4964  154.8679 C   0  0  0  0  0  0  0  0  0  0  0  0
  148.5200  140.2823  154.7242 O   0  0  0  0  0  0  0  0  0  0  0  0
  150.0424  142.0843  155.2371 C   0  0  0  0  0  0  0  0  0  0  0  0
  150.8188  141.2320  156.1653 N   0  0  0  0  0  0  0  0  0  0  0  0
  151.2259  139.9499  155.7189 C   0  0  0  0  0  0  0  0  0  0  0  0
  150.9497  139.5542  154.5848 O   0  0  0  0  0  0  0  0  0  0  0  0
  151.9734  139.1560  156.6886 C   0  0  0  0  0  0  0  0  0  0  0  0
  152.4063  137.8625  156.2740 C   0  0  0  0  0  0  0  0  0  0  0  0
  152.7402  136.8123  155.9206 N   0  0  0  0  0  0  0  0  0  0  0  0
  152.2403  139.6333  157.9214 C   0  0  0  0  0  0  0  0  0  0  0  0
  151.8283  140.8828  158.3478 N   0  0  0  0  0  0  0  0  0  0  0  0
  152.1066  141.3975  159.6738 C   0  0  0  0  0  0  0  0  0  0  0  0
  152.7882  142.7401  159.8342 C   0  0  0  0  0  0  0  0  0  0  0  0
  153.5338  141.4694  160.1749 C   0  0  0  0  0  0  0  0  0  0  0  0
  151.0952  141.7153  157.4681 C   0  0  0  0  0  0  0  0  0  0  0  0
  150.7001  142.8309  157.8158 O   0  0  0  0  0  0  0  0  0  0  0  0
  144.2021  145.2193  156.7156 H   0  0  0  0  0  0  0  0  0  0  0  0
  143.3620  144.6839  155.2599 H   0  0  0  0  0  0  0  0  0  0  0  0
  144.7773  145.7441  155.1325 H   0  0  0  0  0  0  0  0  0  0  0  0
  144.4719  143.0925  153.8172 H   0  0  0  0  0  0  0  0  0  0  0  0
  145.9141  144.0948  153.7429 H   0  0  0  0  0  0  0  0  0  0  0  0
  145.9204  141.3638  155.0940 H   0  0  0  0  0  0  0  0  0  0  0  0
  146.2683  141.5337  153.3912 H   0  0  0  0  0  0  0  0  0  0  0  0
  147.8900  143.3606  154.8650 H   0  0  0  0  0  0  0  0  0  0  0  0
  150.6059  142.2640  154.3198 H   0  0  0  0  0  0  0  0  0  0  0  0
  149.8866  143.0833  155.6472 H   0  0  0  0  0  0  0  0  0  0  0  0
  152.7992  139.0002  158.5938 H   0  0  0  0  0  0  0  0  0  0  0  0
  151.3842  141.1815  160.4589 H   0  0  0  0  0  0  0  0  0  0  0  0
  153.0916  143.2822  158.9413 H   0  0  0  0  0  0  0  0  0  0  0  0
  152.4641  143.3664  160.6630 H   0  0  0  0  0  0  0  0  0  0  0  0
  153.7016  141.2564  161.2287 H   0  0  0  0  0  0  0  0  0  0  0  0
  154.3393  141.1618  159.5120 H   0  0  0  0  0  0  0  0  0  0  0  0
  1  2  1  0  0  0  0
  1 22  1  0  0  0  0
  1 23  1  0  0  0  0
  1 24  1  0  0  0  0
  2  3  1  0  0  0  0
  3  4  1  0  0  0  0
  3 25  1  0  0  0  0
  3 26  1  0  0  0  0
  4  5  1  0  0  0  0
  4 27  1  0  0  0  0
  4 28  1  0  0  0  0
  5  6  1  0  0  0  0
  5 29  1  0  0  0  0
  6  7  2  0  0  0  0
  6  8  1  0  0  0  0
  8  9  1  0  0  0  0
  8 30  1  0  0  0  0
  8 31  1  0  0  0  0
  9 20  1  0  0  0  0
  9 10  1  0  0  0  0
 10 11  2  0  0  0  0
 10 12  1  0  0  0  0
 12 13  1  0  0  0  0
 12 15  2  0  0  0  0
 13 14  3  0  0  0  0
 15 16  1  0  0  0  0
 15 32  1  0  0  0  0
 16 17  1  0  0  0  0
 16 20  1  0  0  0  0
 17 19  1  0  0  0  0
 17 18  1  0  0  0  0
 17 33  1  0  0  0  0
 18 19  1  0  0  0  0
 18 34  1  0  0  0  0
 18 35  1  0  0  0  0
 19 36  1  0  0  0  0
 19 37  1  0  0  0  0
 20 21  2  0  0  0  0
M  END
> <s_m_source_file>
AV-unprocessed.smi

> <i_m_source_file_index>
397

> <i_lp_mmshare_version>
43012

> <i_f3d_flags>
0

> <s_epik_input>
W0NIM11PW0NIMl1bQ0gyXVtOSF1DKD1PKVtDSDJdbjFjKD1PKWMoQyNOKVtjSF1uKGMxPU8pW0NIXTJbQ0gyXVtDSDJdMg==

> <s_epik_cmdline>
J2VwaWtfcHl0aG9uJywgJy1waCcsICc3LjAnLCAnLXRuJywgJzgnLCAnLW1hJywgJzIwMCcsICctbWV0YWxfYmluZGluZycsICctaW1hZScsICc8aW5maWxlLm1hZT4nLCAnLW9tYWUnLCAnPG91dGZpbGUubWFlPic=

> <r_lp_tautomer_probability>
1

> <r_epik_Ionization_Penalty>
2.64697e-08

> <r_epik_Ionization_Penalty_Charging>
8.39351e-11

> <r_epik_Ionization_Penalty_Neutral>
2.63858e-08

> <r_epik_State_Penalty>
-0

> <r_epik_Charging_Adjusted_Penalty>
8.39351e-11

> <i_epik_Tot_Q>
0

> <i_epik_Tot_abs_Q>
0

> <r_epik_Metal_State_Penalty>
-0

> <b_epik_Metal_Only>
0

> <s_lp_Force_Field>
OPLS_2005

> <r_lp_Energy>
30.955

> <b_lp_Chiralities_Consistent>
1

> <s_lp_Variant>
AV-unprocessed.smi:397-1

> <Gold.Version>
5.8.1

> <Gold.Id.Protein>
6NUR|6NUR_protein|mol2

> <Gold.PLP.Fitness>
45.1317

> <Gold.PLP.PLP>
-37.5595

> <Gold.PLP.part.hbond>
-2.7689

> <Gold.PLP.part.metal>
0.0000

> <Gold.PLP.part.buried>
-4.7902

> <Gold.PLP.part.nonpolar>
-31.8710

> <Gold.PLP.part.repulsive>
0.6146

> <Gold.PLP.ligand.clash>
0.0000

> <Gold.PLP.ligand.torsion>
0.4471

> <Gold.PLP.Chemscore.Hbond>
2.7680

> <Gold.PLP.Chemscore.CHOScore>
0.0000

> <Gold.PLP.Chemscore.Metal>
0.0000

> <Gold.Chemscore.Hbonds>
donor molecule, donor type, donor heavy atom, donor atom, acceptor molecule, acceptor atom, score
      L1  H     5    29       P1  8028  1.00
      P1  H  7989  7998       L1    11  1.00
      P1  H 10752 10765       L1    14  0.82

> <Gold.PLP.Chemscore.Internal.Correction>
0.1623

> <Gold.Rescore>
     Score         DG    S(hbond)    S(metal)    S(lipo)     H(rot)  DE(clash)    DE(int)     intcor
      9.03     -15.31       2.59        0.00      63.88       2.46       0.70       5.57       ----

> <Gold.Chemscore.Fitness>
9.0303

> <Gold.Chemscore.DG>
-15.3080

> <Gold.Chemscore.ZeroCoef>
-5.4800

> <Gold.Chemscore.Hbond>
2.5925

> <Gold.Chemscore.Metal>
0.0000

> <Gold.Chemscore.Lipo>
63.8759

> <Gold.Chemscore.Internal_Hbond>
0.0000

> <Gold.Chemscore.DEClash>
0.7045

> <Gold.Chemscore.DEInternal>
5.5732

> <Gold.Chemscore.Rot>
2.4626

> <Gold.Chemscore.Internal.Correction>
   9.000000E+99

> <Gold.Chemscore.Hbonds>
donor molecule, donor type, donor heavy atom, donor atom, acceptor molecule, acceptor atom, score
      L1  H     5    29       P1  8028  0.68
      P1  H  7989  7998       L1    11  0.45
      P1  H 10752 10765       L1    14  0.79

> <Gold.Chemscore.Hbond.Weighted>
-8.6589

> <Gold.Chemscore.Metal.Weighted>
-0.0000

> <Gold.Chemscore.Lipo.Weighted>
-7.4735

> <Gold.Chemscore.Internal_Hbond.Weighted>
0.0000

> <Gold.Chemscore.DEClash.Weighted>
0.7045

> <Gold.Chemscore.DEInternal.Weighted>
5.5732

> <Gold.Chemscore.Rot.Weighted>
6.3043

> <Gold.Chemscore.Internal.Correction.Weighted>
   9.000000E+99

> <Gold.Protein.RotatedTorsions>
[ 6907 6896 6895 6894 ] final -126.41 input  -60.11 | X-H torsion
[ 7974 7965 7964 7962 ] final  -25.62 input  175.53 | X-H torsion
[ 8008 7997 7996 7995 ] final   16.52 input   59.86 | X-H torsion
[ 10167 10162 10161 10158 ] final  -87.71 input  -65.29 | X-H torsion
[ 10718 10713 10712 10709 ] final -164.60 input   66.30 | X-H torsion
[ 10763 10752 10751 10750 ] final -144.97 input  -60.55 | X-H torsion
[ 11005 11000 10999 10996 ] final   84.90 input  -57.11 | X-H torsion

> <Gold.Protein.ActiveResidues>
 VAL166  LYS551  ARG553  GLY616  TRP617  ASP618  TYR619  PRO620  LYS621  CYS622 
 ASP623  PHE694  ASN695  SER759  ASP760  ASP761  ALA762  ILE779  LEU786  VAL792 
 PHE793  MET794  SER795  GLU796  ALA797  LYS798  CYS799  TRP800  GLU811  SER814 

> <Gold.Protein.RotatedAtoms>
  150.8966  133.7172  159.2889 H   0  0  0  0  0  0  0  0  0  0  0  0  # atno 6907 bound_to 6896
  151.4705  135.1044  159.9759 H   0  0  0  0  0  0  0  0  0  0  0  0  # atno 6908 bound_to 6896
  152.4852  133.8307  159.7157 H   0  0  0  0  0  0  0  0  0  0  0  0  # atno 6909 bound_to 6896
  146.1479  140.4911  142.8624 H   0  0  0  0  0  0  0  0  0  0  0  0  # atno 7974 bound_to 7965
  154.8781  140.2969  155.5441 H   0  0  0  0  0  0  0  0  0  0  0  0  # atno 8008 bound_to 7997
  156.3022  140.2447  156.3714 H   0  0  0  0  0  0  0  0  0  0  0  0  # atno 8009 bound_to 7997
  154.8745  140.0400  157.1734 H   0  0  0  0  0  0  0  0  0  0  0  0  # atno 8010 bound_to 7997
  140.3818  143.2745  151.9375 H   0  0  0  0  0  0  0  0  0  0  0  0  # atno 10167 bound_to 10162
  156.6414  130.8970  151.2996 H   0  0  0  0  0  0  0  0  0  0  0  0  # atno 10718 bound_to 10713
  154.8404  135.3426  154.6430 H   0  0  0  0  0  0  0  0  0  0  0  0  # atno 10763 bound_to 10752
  153.7041  135.6968  153.5059 H   0  0  0  0  0  0  0  0  0  0  0  0  # atno 10764 bound_to 10752
  153.2500  135.4356  155.0742 H   0  0  0  0  0  0  0  0  0  0  0  0  # atno 10765 bound_to 10752
  139.8987  134.8249  156.2509 H   0  0  0  0  0  0  0  0  0  0  0  0  # atno 11005 bound_to 11000
  144.7868  140.5952  143.6568 LP  0  0  0  0  0  0  0  0  0  0  0  0  # atno 17320 bound_to 7965
  145.4894  139.1490  143.3718 LP  0  0  0  0  0  0  0  0  0  0  0  0  # atno 17321 bound_to 7965
  139.4795  144.5811  151.7930 LP  0  0  0  0  0  0  0  0  0  0  0  0  # atno 17342 bound_to 10162
  140.4930  144.1282  150.5954 LP  0  0  0  0  0  0  0  0  0  0  0  0  # atno 17343 bound_to 10162
  157.7170  130.9509  150.1291 LP  0  0  0  0  0  0  0  0  0  0  0  0  # atno 17370 bound_to 10713
  156.2156  130.3670  149.8617 LP  0  0  0  0  0  0  0  0  0  0  0  0  # atno 17371 bound_to 10713
  141.0224  133.7033  156.1291 LP  0  0  0  0  0  0  0  0  0  0  0  0  # atno 17394 bound_to 11000
  140.7214  134.4354  157.5574 LP  0  0  0  0  0  0  0  0  0  0  0  0  # atno 17395 bound_to 11000

$$$$
