AV-unprocessed.smi:229|AV-procd|sdf|1758|dock9
  -GOLD-   2262020283D 1   1.00000     0.00000
 Structure written by MMmdl.
 58 62  0  0  0  0  0  0  0  0  1 V2000
  152.2382  143.0688  160.0458 C   0  0  0  0  0  0  0  0  0  0  0  0
  153.1097  142.0923  159.2463 C   0  0  0  0  0  0  0  0  0  0  0  0
  152.6237  140.6386  159.3446 C   0  0  1  0  0  0  0  0  0  0  0  0
  151.2822  140.4349  158.6220 C   0  0  0  0  0  0  0  0  0  0  0  0
  150.9127  139.0267  158.6479 N   0  0  0  0  0  0  0  0  0  0  0  0
  149.6233  138.6685  158.4151 C   0  0  0  0  0  0  0  0  0  0  0  0
  148.8297  139.5818  157.7966 N   0  0  0  0  0  0  0  0  0  0  0  0
  147.5543  139.2982  157.5193 C   0  0  0  0  0  0  0  0  0  0  0  0
  146.8758  138.1779  157.7696 N   0  0  0  0  0  0  0  0  0  0  0  0
  147.6612  137.2559  158.3954 C   0  0  0  0  0  0  0  0  0  0  0  0
  149.0318  137.4131  158.7542 C   0  0  0  0  0  0  0  0  0  0  0  0
  149.4787  136.2564  159.3864 N   0  0  0  0  0  0  0  0  0  0  0  0
  148.4424  135.4641  159.3900 C   0  0  0  0  0  0  0  0  0  0  0  0
  147.3088  135.9849  158.8120 N   0  0  0  0  0  0  0  0  0  0  0  0
  146.0195  135.3299  158.6757 C   0  0  0  0  0  0  0  0  0  0  0  0
  144.9952  135.8240  159.7169 C   0  0  1  0  0  0  0  0  0  0  0  0
  143.7947  135.0881  159.5729 O   0  0  0  0  0  0  0  0  0  0  0  0
  145.5051  135.6637  161.1614 C   0  0  2  0  0  0  0  0  0  0  0  0
  146.6621  136.5927  161.5305 C   0  0  0  0  0  0  0  0  0  0  0  0
  147.2772  135.8614  162.7014 C   0  0  0  0  0  0  0  0  0  0  0  0
  147.1325  134.4018  162.2775 C   0  0  0  0  0  0  0  0  0  0  0  0
  146.0383  134.3575  161.3641 O   0  0  0  0  0  0  0  0  0  0  0  0
  151.9394  138.1443  158.1029 C   0  0  0  0  0  0  0  0  0  0  0  0
  153.3038  138.3944  158.7874 C   0  0  2  0  0  0  0  0  0  0  0  0
  154.4250  137.6591  158.0594 C   0  0  0  0  0  0  0  0  0  0  0  0
  154.5734  136.3699  158.8526 C   0  0  0  0  0  0  0  0  0  0  0  0
  154.4231  136.8187  160.1862 O   0  0  0  0  0  0  0  0  0  0  0  0
  153.3865  137.7935  160.2108 C   0  0  0  0  0  0  0  0  0  0  0  0
  153.6101  139.7917  158.7521 O   0  0  0  0  0  0  0  0  0  0  0  0
  152.6029  144.0904  159.9387 H   0  0  0  0  0  0  0  0  0  0  0  0
  152.2424  142.8251  161.1086 H   0  0  0  0  0  0  0  0  0  0  0  0
  151.2041  143.0466  159.7006 H   0  0  0  0  0  0  0  0  0  0  0  0
  153.1118  142.4020  158.2007 H   0  0  0  0  0  0  0  0  0  0  0  0
  154.1431  142.1600  159.5881 H   0  0  0  0  0  0  0  0  0  0  0  0
  152.4975  140.3882  160.3983 H   0  0  0  0  0  0  0  0  0  0  0  0
  150.5141  141.0351  159.1110 H   0  0  0  0  0  0  0  0  0  0  0  0
  151.3570  140.7699  157.5867 H   0  0  0  0  0  0  0  0  0  0  0  0
  146.9988  140.0807  157.0235 H   0  0  0  0  0  0  0  0  0  0  0  0
  148.4780  134.4713  159.8147 H   0  0  0  0  0  0  0  0  0  0  0  0
  145.6480  135.4971  157.6636 H   0  0  0  0  0  0  0  0  0  0  0  0
  146.1750  134.2551  158.7762 H   0  0  0  0  0  0  0  0  0  0  0  0
  144.7701  136.8748  159.5297 H   0  0  0  0  0  0  0  0  0  0  0  0
  143.4828  134.8522  160.4331 H   0  0  0  0  0  0  0  0  0  0  0  0
  144.6882  135.8058  161.8713 H   0  0  0  0  0  0  0  0  0  0  0  0
  147.3803  136.6589  160.7118 H   0  0  0  0  0  0  0  0  0  0  0  0
  146.3352  137.6020  161.7827 H   0  0  0  0  0  0  0  0  0  0  0  0
  148.3108  136.1498  162.8949 H   0  0  0  0  0  0  0  0  0  0  0  0
  146.6948  136.0497  163.6044 H   0  0  0  0  0  0  0  0  0  0  0  0
  148.0293  134.0603  161.7598 H   0  0  0  0  0  0  0  0  0  0  0  0
  146.9626  133.7431  163.1295 H   0  0  0  0  0  0  0  0  0  0  0  0
  151.6661  137.0930  158.1998 H   0  0  0  0  0  0  0  0  0  0  0  0
  152.0172  138.3472  157.0338 H   0  0  0  0  0  0  0  0  0  0  0  0
  154.2253  137.4876  157.0012 H   0  0  0  0  0  0  0  0  0  0  0  0
  155.3546  138.2261  158.1307 H   0  0  0  0  0  0  0  0  0  0  0  0
  153.7813  135.6606  158.6072 H   0  0  0  0  0  0  0  0  0  0  0  0
  155.5371  135.8851  158.6960 H   0  0  0  0  0  0  0  0  0  0  0  0
  153.6224  138.5336  160.9748 H   0  0  0  0  0  0  0  0  0  0  0  0
  152.4494  137.3127  160.4950 H   0  0  0  0  0  0  0  0  0  0  0  0
  1  2  1  0  0  0  0
  1 30  1  0  0  0  0
  1 31  1  0  0  0  0
  1 32  1  0  0  0  0
  2  3  1  0  0  0  0
  2 33  1  0  0  0  0
  2 34  1  0  0  0  0
  3 29  1  0  0  0  0
  3  4  1  0  0  0  0
  3 35  1  0  0  0  0
  4  5  1  0  0  0  0
  4 36  1  0  0  0  0
  4 37  1  0  0  0  0
  5  6  1  0  0  0  0
  5 23  1  0  0  0  0
  6 11  1  0  0  0  0
  6  7  2  0  0  0  0
  7  8  1  0  0  0  0
  8  9  2  0  0  0  0
  8 38  1  0  0  0  0
  9 10  1  0  0  0  0
 10 14  1  0  0  0  0
 10 11  2  0  0  0  0
 11 12  1  0  0  0  0
 12 13  2  0  0  0  0
 13 14  1  0  0  0  0
 13 39  1  0  0  0  0
 14 15  1  0  0  0  0
 15 16  1  0  0  0  0
 15 40  1  0  0  0  0
 15 41  1  0  0  0  0
 16 17  1  0  0  0  0
 16 18  1  0  0  0  0
 16 42  1  0  0  0  0
 17 43  1  0  0  0  0
 18 22  1  0  0  0  0
 18 19  1  0  0  0  0
 18 44  1  0  0  0  0
 19 20  1  0  0  0  0
 19 45  1  0  0  0  0
 19 46  1  0  0  0  0
 20 21  1  0  0  0  0
 20 47  1  0  0  0  0
 20 48  1  0  0  0  0
 21 22  1  0  0  0  0
 21 49  1  0  0  0  0
 21 50  1  0  0  0  0
 23 24  1  0  0  0  0
 23 51  1  0  0  0  0
 23 52  1  0  0  0  0
 24 28  1  0  0  0  0
 24 25  1  0  0  0  0
 24 29  1  0  0  0  0
 25 26  1  0  0  0  0
 25 53  1  0  0  0  0
 25 54  1  0  0  0  0
 26 27  1  0  0  0  0
 26 55  1  0  0  0  0
 26 56  1  0  0  0  0
 27 28  1  0  0  0  0
 28 57  1  0  0  0  0
 28 58  1  0  0  0  0
M  END
> <s_m_source_file>
AV-unprocessed.smi

> <i_m_source_file_index>
229

> <i_lp_mmshare_version>
43012

> <i_f3d_flags>
0

> <s_epik_input>
W0NIMl0xT1tDSDJdW0NIMl1bQ0BdMTJbQ0gyXU4oW0NIMl1bQ0BIXShPMilbQ0gyXVtDSDNdKWMobltjSF1uMyljKGMzNCluW2NIXW40W0NIMl1bQ0BIXShbT0hdKVtDQEBIXTVbQ0gyXVtDSDJdW0NIMl1PNQ==

> <s_epik_cmdline>
J2VwaWtfcHl0aG9uJywgJy1waCcsICc3LjAnLCAnLXRuJywgJzgnLCAnLW1hJywgJzIwMCcsICctbWV0YWxfYmluZGluZycsICctaW1hZScsICc8aW5maWxlLm1hZT4nLCAnLW9tYWUnLCAnPG91dGZpbGUubWFlPic=

> <r_lp_tautomer_probability>
1

> <r_epik_Ionization_Penalty>
0.00318402

> <r_epik_Ionization_Penalty_Charging>
0

> <r_epik_Ionization_Penalty_Neutral>
0.00318402

> <r_epik_State_Penalty>
0.00215642

> <r_epik_Charging_Adjusted_Penalty>
0.00215642

> <i_epik_Tot_Q>
0

> <i_epik_Tot_abs_Q>
0

> <r_epik_Metal_State_Penalty>
-0

> <b_epik_Metal_Only>
0

> <s_lp_Force_Field>
OPLS_2005

> <r_lp_Energy>
55.1094

> <b_lp_Chiralities_Consistent>
1

> <s_lp_Variant>
AV-unprocessed.smi:229-12

> <Gold.Version>
5.8.1

> <Gold.Id.Protein>
6NUR|6NUR_protein|mol2

> <Gold.PLP.Fitness>
41.8816

> <Gold.PLP.PLP>
-36.7474

> <Gold.PLP.part.hbond>
-2.0000

> <Gold.PLP.part.metal>
0.0000

> <Gold.PLP.part.buried>
-6.8410

> <Gold.PLP.part.nonpolar>
-28.2714

> <Gold.PLP.part.repulsive>
0.0000

> <Gold.PLP.ligand.clash>
0.0000

> <Gold.PLP.ligand.torsion>
0.6815

> <Gold.PLP.Chemscore.Hbond>
2.0000

> <Gold.PLP.Chemscore.CHOScore>
0.0000

> <Gold.PLP.Chemscore.Metal>
0.0000

> <Gold.Chemscore.Hbonds>
donor molecule, donor type, donor heavy atom, donor atom, acceptor molecule, acceptor atom, score
      P1  H  6896  6908       L1    12  1.00
      P1  H  7997  8009       L1    29  1.00

> <Gold.PLP.Chemscore.Internal.Correction>
0.4972

> <Gold.Rescore>
     Score         DG    S(hbond)    S(metal)    S(lipo)     H(rot)  DE(clash)    DE(int)     intcor
     14.76     -15.74       1.76        0.00      91.32       2.46       0.00       0.99       ----

> <Gold.Chemscore.Fitness>
14.7556

> <Gold.Chemscore.DG>
-15.7424

> <Gold.Chemscore.ZeroCoef>
-5.4800

> <Gold.Chemscore.Hbond>
1.7585

> <Gold.Chemscore.Metal>
0.0000

> <Gold.Chemscore.Lipo>
91.3204

> <Gold.Chemscore.Internal_Hbond>
0.0000

> <Gold.Chemscore.DEClash>
0.0000

> <Gold.Chemscore.DEInternal>
0.9868

> <Gold.Chemscore.Rot>
2.4591

> <Gold.Chemscore.Internal.Correction>
   9.000000E+99

> <Gold.Chemscore.Hbonds>
donor molecule, donor type, donor heavy atom, donor atom, acceptor molecule, acceptor atom, score
      P1  H  6896  6908       L1    12  0.25
      P1  H  7997  8009       L1    29  0.47

> <Gold.Chemscore.Hbond.Weighted>
-5.8733

> <Gold.Chemscore.Metal.Weighted>
-0.0000

> <Gold.Chemscore.Lipo.Weighted>
-10.6845

> <Gold.Chemscore.Internal_Hbond.Weighted>
0.0000

> <Gold.Chemscore.DEClash.Weighted>
0.0000

> <Gold.Chemscore.DEInternal.Weighted>
0.9868

> <Gold.Chemscore.Rot.Weighted>
6.2953

> <Gold.Chemscore.Internal.Correction.Weighted>
   9.000000E+99

> <Gold.Protein.RotatedTorsions>
[ 6907 6896 6895 6894 ] final -161.77 input  -60.11 | X-H torsion
[ 7974 7965 7964 7962 ] final  -97.38 input  175.53 | X-H torsion
[ 8008 7997 7996 7995 ] final  154.84 input   59.86 | X-H torsion
[ 10167 10162 10161 10158 ] final   40.91 input  -65.29 | X-H torsion
[ 10718 10713 10712 10709 ] final  -83.43 input   66.30 | X-H torsion
[ 10763 10752 10751 10750 ] final  -18.95 input  -60.55 | X-H torsion
[ 11005 11000 10999 10996 ] final  112.49 input  -57.11 | X-H torsion

> <Gold.Protein.ActiveResidues>
 VAL166  LYS551  ARG553  GLY616  TRP617  ASP618  TYR619  PRO620  LYS621  CYS622 
 ASP623  PHE694  ASN695  SER759  ASP760  ASP761  ALA762  ILE779  LEU786  VAL792 
 PHE793  MET794  SER795  GLU796  ALA797  LYS798  CYS799  TRP800  GLU811  SER814 

> <Gold.Protein.RotatedAtoms>
  151.3699  133.3858  159.2698 H   0  0  0  0  0  0  0  0  0  0  0  0  # atno 6907 bound_to 6896
  150.9659  134.9041  159.7769 H   0  0  0  0  0  0  0  0  0  0  0  0  # atno 6908 bound_to 6896
  152.5167  134.3660  159.9353 H   0  0  0  0  0  0  0  0  0  0  0  0  # atno 6909 bound_to 6896
  145.3345  140.9448  143.2643 H   0  0  0  0  0  0  0  0  0  0  0  0  # atno 7974 bound_to 7965
  156.2510  140.1956  156.6708 H   0  0  0  0  0  0  0  0  0  0  0  0  # atno 8008 bound_to 7997
  154.6394  140.0585  156.9853 H   0  0  0  0  0  0  0  0  0  0  0  0  # atno 8009 bound_to 7997
  155.1586  140.3258  155.4418 H   0  0  0  0  0  0  0  0  0  0  0  0  # atno 8010 bound_to 7997
  140.3696  144.2123  150.6134 H   0  0  0  0  0  0  0  0  0  0  0  0  # atno 10167 bound_to 10162
  156.0018  130.4665  150.4256 H   0  0  0  0  0  0  0  0  0  0  0  0  # atno 10718 bound_to 10713
  153.5973  135.7000  153.5399 H   0  0  0  0  0  0  0  0  0  0  0  0  # atno 10763 bound_to 10752
  153.3127  135.4096  155.1349 H   0  0  0  0  0  0  0  0  0  0  0  0  # atno 10764 bound_to 10752
  154.8589  135.3676  154.5507 H   0  0  0  0  0  0  0  0  0  0  0  0  # atno 10765 bound_to 10752
  139.8929  134.9531  156.6594 H   0  0  0  0  0  0  0  0  0  0  0  0  # atno 11005 bound_to 11000
  144.8838  139.4867  143.6710 LP  0  0  0  0  0  0  0  0  0  0  0  0  # atno 17320 bound_to 7965
  146.3032  139.7494  142.9075 LP  0  0  0  0  0  0  0  0  0  0  0  0  # atno 17321 bound_to 7965
  140.5047  143.2307  151.8626 LP  0  0  0  0  0  0  0  0  0  0  0  0  # atno 17342 bound_to 10162
  139.4805  144.5019  151.9048 LP  0  0  0  0  0  0  0  0  0  0  0  0  # atno 17343 bound_to 10162
  157.2309  131.0504  151.2493 LP  0  0  0  0  0  0  0  0  0  0  0  0  # atno 17370 bound_to 10713
  157.3712  130.7182  149.6566 LP  0  0  0  0  0  0  0  0  0  0  0  0  # atno 17371 bound_to 10713
  140.7459  133.8938  155.8311 LP  0  0  0  0  0  0  0  0  0  0  0  0  # atno 17394 bound_to 11000
  141.0040  134.1111  157.4289 LP  0  0  0  0  0  0  0  0  0  0  0  0  # atno 17395 bound_to 11000

$$$$
