#       Name:                AV-unprocessed.smi:170
#       Creating user name   scv26
#       Creation time:       Thu Mar 26 19:16:28 2020


#       File generated by GOLD software.
#

@<TRIPOS>MOLECULE
AV-unprocessed.smi:170
    67    71     1
SMALL
NO_CHARGES


@<TRIPOS>ATOM
      1 ****        -3.4185   2.9576  -1.2568 O.3            1 S1                 0.0000
      2 ****        -3.7954   2.0339  -0.2528 C.3            1 S1                 0.0000
      3 ****        -3.3722   0.6151  -0.6814 C.3            1 S1                 0.0000
      4 ****        -1.9389   0.5013  -0.8839 N.pl3          1 S1                 0.0000
      5 ****        -1.2654   0.5708  -2.0829 C.2            1 S1                 0.0000
      6 ****         0.0310   0.4392  -2.0014 N.2            1 S1                 0.0000
      7 ****         0.2657   0.2672  -0.6430 C.ar           1 S1                 0.0000
      8 ****         1.4347   0.0673   0.1381 C.ar           1 S1                 0.0000
      9 ****         2.6689   0.0337  -0.4202 N.3            1 S1                 0.0000
     10 ****         3.1913   1.3909  -0.5424 C.3            1 S1                 0.0000
     11 ****         4.5080   1.3930  -1.3288 C.3            1 S1                 0.0000
     12 ****         5.4292   0.5286  -0.6799 O.3            1 S1                 0.0000
     13 ****         4.9673  -0.8166  -0.6638 C.3            1 S1                 0.0000
     14 ****         3.6368  -0.9331   0.1189 C.3            1 S1                 0.0000
     15 ****         3.0948  -2.3871   0.0811 C.3            1 S1                 0.0000
     16 ****         4.0471  -3.4271   0.6695 C.3            1 S1                 0.0000
     17 ****         3.5135  -4.8124   1.0652 C.3            1 S1                 0.0000
     18 ****         4.5132  -4.8136   2.2252 C.3            1 S1                 0.0000
     19 ****         4.5364  -3.2866   2.1191 C.3            1 S1                 0.0000
     20 ****         1.2843  -0.0507   1.4848 N.ar           1 S1                 0.0000
     21 ****         0.0646   0.0041   2.0290 C.ar           1 S1                 0.0000
     22 ****        -1.1134   0.1748   1.4241 N.ar           1 S1                 0.0000
     23 ****        -0.9619   0.3051   0.0747 C.ar           1 S1                 0.0000
     24 ****        -5.3112   2.1271   0.0182 C.3            1 S1                 0.0000
     25 ****        -6.2448   2.0678  -1.1958 C.3            1 S1                 0.0000
     26 ****        -7.4675   2.7779  -0.6599 C.3            1 S1                 0.0000
     27 ****        -6.8381   3.8811   0.1870 C.3            1 S1                 0.0000
     28 ****        -5.6349   3.3280   0.7144 O.3            1 S1                 0.0000
     29 ****        -3.6601   3.8244  -0.9672 H              1 S1                 0.0000
     30 ****        -3.2612   2.2942   0.6620 H              1 S1                 0.0000
     31 ****        -3.6665  -0.1118   0.0765 H              1 S1                 0.0000
     32 ****        -3.8773   0.3250  -1.6036 H              1 S1                 0.0000
     33 ****        -1.7702   0.7266  -3.0253 H              1 S1                 0.0000
     34 ****         2.4663   2.0326  -1.0453 H              1 S1                 0.0000
     35 ****         3.3536   1.8074   0.4530 H              1 S1                 0.0000
     36 ****         4.3505   1.0770  -2.3614 H              1 S1                 0.0000
     37 ****         4.9257   2.3992  -1.3608 H              1 S1                 0.0000
     38 ****         4.8514  -1.1798  -1.6865 H              1 S1                 0.0000
     39 ****         5.7439  -1.4225  -0.1980 H              1 S1                 0.0000
     40 ****         3.8374  -0.6604   1.1560 H              1 S1                 0.0000
     41 ****         2.1487  -2.4483   0.6179 H              1 S1                 0.0000
     42 ****         2.8583  -2.6533  -0.9498 H              1 S1                 0.0000
     43 ****         4.9139  -3.5721   0.0218 H              1 S1                 0.0000
     44 ****         2.4768  -4.7900   1.4054 H              1 S1                 0.0000
     45 ****         3.6752  -5.5938   0.3222 H              1 S1                 0.0000
     46 ****         4.1225  -5.2016   3.1663 H              1 S1                 0.0000
     47 ****         5.4682  -5.2708   1.9611 H              1 S1                 0.0000
     48 ****         5.5228  -2.8342   2.2255 H              1 S1                 0.0000
     49 ****         3.8021  -2.8071   2.7689 H              1 S1                 0.0000
     50 ****         0.0275  -0.1021   3.1032 H              1 S1                 0.0000
     51 ****        -5.5913   1.3199   0.6971 H              1 S1                 0.0000
     52 ****        -5.8441   2.6232  -2.0441 H              1 S1                 0.0000
     53 ****        -6.4512   1.0485  -1.5234 H              1 S1                 0.0000
     54 ****        -8.1212   3.1616  -1.4436 H              1 S1                 0.0000
     55 ****        -8.0471   2.1029  -0.0286 H              1 S1                 0.0000
     56 ****        -6.5795   4.7365  -0.4384 H              1 S1                 0.0000
     57 ****        -7.5003   4.2292   0.9802 H              1 S1                 0.0000
     58 ****        -3.8925   2.7417  -2.1104 LP             1 S1                 0.0000
     59 ****        -2.4304   2.9132  -1.4037 LP             1 S1                 0.0000
     60 ****         0.6999   0.4579  -2.7445 LP             1 S1                 0.0000
     61 ****         2.5308  -0.3558  -1.3308 LP             1 S1                 0.0000
     62 ****         5.5562   0.8389   0.2623 LP             1 S1                 0.0000
     63 ****         6.3037   0.5652  -1.1635 LP             1 S1                 0.0000
     64 ****         2.0865  -0.1785   2.0680 LP             1 S1                 0.0000
     65 ****        -1.9930   0.2035   1.8989 LP             1 S1                 0.0000
     66 ****        -4.8905   3.9866   0.6046 LP             1 S1                 0.0000
     67 ****        -5.7602   3.1255   1.6857 LP             1 S1                 0.0000
@<TRIPOS>BOND
    1    1    2 1     
    2    1   29 1     
    3    2    3 1     
    4    2   24 1     
    5    2   30 1     
    6    3    4 1     
    7    3   31 1     
    8    3   32 1     
    9    4   23 1     
   10    4    5 1     
   11    5    6 2     
   12    5   33 1     
   13    6    7 1     
   14    7   23 ar    
   15    7    8 ar    
   16    8    9 1     
   17    8   20 ar    
   18    9   14 1     
   19    9   10 1     
   20   10   11 1     
   21   10   34 1     
   22   10   35 1     
   23   11   12 1     
   24   11   36 1     
   25   11   37 1     
   26   12   13 1     
   27   13   14 1     
   28   13   38 1     
   29   13   39 1     
   30   14   15 1     
   31   14   40 1     
   32   15   16 1     
   33   15   41 1     
   34   15   42 1     
   35   16   19 1     
   36   16   17 1     
   37   16   43 1     
   38   17   18 1     
   39   17   44 1     
   40   17   45 1     
   41   18   19 1     
   42   18   46 1     
   43   18   47 1     
   44   19   48 1     
   45   19   49 1     
   46   20   21 ar    
   47   21   22 ar    
   48   21   50 1     
   49   22   23 ar    
   50   24   28 1     
   51   24   25 1     
   52   24   51 1     
   53   25   26 1     
   54   25   52 1     
   55   25   53 1     
   56   26   27 1     
   57   26   54 1     
   58   26   55 1     
   59   27   28 1     
   60   27   56 1     
   61   27   57 1     
   62    1   58 1     
   63    1   59 1     
   64    6   60 1     
   65    9   61 1     
   66   12   62 1     
   67   12   63 1     
   68   20   64 1     
   69   22   65 1     
   70   28   66 1     
   71   28   67 1     
@<TRIPOS>SUBSTRUCTURE
      1 S1             1
@<TRIPOS>SET
LONE_PAIRS      STATIC     ATOMS    <user>   **** ""
10 58 59 60 61 62 63 64 65 66 67
DONOR_HYDROGENS      STATIC     ATOMS    <user>   **** ""
1 29
ATOM$BLUE        STATIC     ATOMS    COLORGROUP SYSTEM
10 58 59 60 61 62 63 64 65 66 67
ATOM$RED        STATIC     ATOMS    COLORGROUP SYSTEM
1 29
