AV-unprocessed.smi:1795|AV-procd|sdf|7237|dock1
  -GOLD-   22720 8483D 1   1.00000     0.00000
 Structure written by MMmdl.
 47 48  0  0  0  0  0  0  0  0  1 V2000
  153.8845  141.4564  161.4491 C   0  0  0  0  0  0  0  0  0  0  0  0
  154.0559  141.7193  159.9429 C   0  0  2  0  0  0  0  0  0  0  0  0
  153.0449  142.7393  159.3820 C   0  0  0  0  0  0  0  0  0  0  0  0
  151.6826  142.2089  159.2523 N   0  0  0  0  0  0  0  0  0  0  0  0
  150.7372  143.2024  158.6898 C   0  0  2  0  0  0  0  0  0  0  0  0
  151.2830  143.8968  157.4154 C   0  0  0  0  0  0  0  0  0  0  0  0
  150.3137  144.2953  159.7156 C   0  0  0  0  0  0  0  0  0  0  0  0
  148.9088  144.6797  159.6128 N   0  0  0  0  0  0  0  0  0  0  0  0
  148.0063  144.5770  160.5998 C   0  0  0  0  0  0  0  0  0  0  0  0
  148.2839  144.1684  161.7280 O   0  0  0  0  0  0  0  0  0  0  0  0
  146.5782  145.0215  160.2551 C   0  0  0  0  0  0  0  0  0  0  0  0
  145.8074  143.9886  159.5435 N   0  0  0  0  0  0  0  0  0  0  0  0
  145.3115  144.3210  158.2668 C   0  0  0  0  0  0  0  0  0  0  0  0
  144.5981  143.4515  157.5338 C   0  0  0  0  0  0  0  0  0  0  0  0
  144.3419  142.1425  158.0861 C   0  0  0  0  0  0  0  0  0  0  0  0
  144.8080  141.8155  159.3079 C   0  0  0  0  0  0  0  0  0  0  0  0
  145.5869  142.7633  160.1134 C   0  0  0  0  0  0  0  0  0  0  0  0
  146.0154  142.4739  161.2312 O   0  0  0  0  0  0  0  0  0  0  0  0
  151.7536  140.9793  158.4568 C   0  0  0  0  0  0  0  0  0  0  0  0
  152.7220  139.9383  159.0469 C   0  0  1  0  0  0  0  0  0  0  0  0
  152.8462  138.6982  158.1551 C   0  0  0  0  0  0  0  0  0  0  0  0
  154.0170  140.5132  159.1841 O   0  0  0  0  0  0  0  0  0  0  0  0
  154.0406  142.3709  162.0220 H   0  0  0  0  0  0  0  0  0  0  0  0
  154.6073  140.7198  161.7998 H   0  0  0  0  0  0  0  0  0  0  0  0
  152.8874  141.0891  161.6912 H   0  0  0  0  0  0  0  0  0  0  0  0
  155.0559  142.1318  159.8062 H   0  0  0  0  0  0  0  0  0  0  0  0
  153.0640  143.6061  160.0401 H   0  0  0  0  0  0  0  0  0  0  0  0
  153.3930  143.0811  158.4061 H   0  0  0  0  0  0  0  0  0  0  0  0
  149.8319  142.6693  158.3950 H   0  0  0  0  0  0  0  0  0  0  0  0
  150.6065  144.6608  157.0336 H   0  0  0  0  0  0  0  0  0  0  0  0
  151.4123  143.2009  156.5879 H   0  0  0  0  0  0  0  0  0  0  0  0
  152.2434  144.3761  157.6081 H   0  0  0  0  0  0  0  0  0  0  0  0
  150.4726  143.9760  160.7446 H   0  0  0  0  0  0  0  0  0  0  0  0
  150.9200  145.1906  159.5737 H   0  0  0  0  0  0  0  0  0  0  0  0
  148.5977  145.0313  158.7188 H   0  0  0  0  0  0  0  0  0  0  0  0
  146.0791  145.3051  161.1828 H   0  0  0  0  0  0  0  0  0  0  0  0
  146.6119  145.9352  159.6584 H   0  0  0  0  0  0  0  0  0  0  0  0
  145.5409  145.3212  157.9289 H   0  0  0  0  0  0  0  0  0  0  0  0
  144.2226  143.7251  156.5588 H   0  0  0  0  0  0  0  0  0  0  0  0
  143.7716  141.4222  157.5181 H   0  0  0  0  0  0  0  0  0  0  0  0
  144.6046  140.8319  159.7054 H   0  0  0  0  0  0  0  0  0  0  0  0
  150.7794  140.4990  158.4006 H   0  0  0  0  0  0  0  0  0  0  0  0
  152.0489  141.2191  157.4339 H   0  0  0  0  0  0  0  0  0  0  0  0
  152.3607  139.6190  160.0248 H   0  0  0  0  0  0  0  0  0  0  0  0
  151.8807  138.2080  158.0266 H   0  0  0  0  0  0  0  0  0  0  0  0
  153.5317  137.9718  158.5918 H   0  0  0  0  0  0  0  0  0  0  0  0
  153.2237  138.9595  157.1661 H   0  0  0  0  0  0  0  0  0  0  0  0
  1  2  1  0  0  0  0
  1 23  1  0  0  0  0
  1 24  1  0  0  0  0
  1 25  1  0  0  0  0
  2 22  1  0  0  0  0
  2  3  1  0  0  0  0
  2 26  1  0  0  0  0
  3  4  1  0  0  0  0
  3 27  1  0  0  0  0
  3 28  1  0  0  0  0
  4  5  1  0  0  0  0
  4 19  1  0  0  0  0
  5  6  1  0  0  0  0
  5  7  1  0  0  0  0
  5 29  1  0  0  0  0
  6 30  1  0  0  0  0
  6 31  1  0  0  0  0
  6 32  1  0  0  0  0
  7  8  1  0  0  0  0
  7 33  1  0  0  0  0
  7 34  1  0  0  0  0
  8  9  1  0  0  0  0
  8 35  1  0  0  0  0
  9 10  2  0  0  0  0
  9 11  1  0  0  0  0
 11 12  1  0  0  0  0
 11 36  1  0  0  0  0
 11 37  1  0  0  0  0
 12 17  1  0  0  0  0
 12 13  1  0  0  0  0
 13 14  2  0  0  0  0
 13 38  1  0  0  0  0
 14 15  1  0  0  0  0
 14 39  1  0  0  0  0
 15 16  2  0  0  0  0
 15 40  1  0  0  0  0
 16 17  1  0  0  0  0
 16 41  1  0  0  0  0
 17 18  2  0  0  0  0
 19 20  1  0  0  0  0
 19 42  1  0  0  0  0
 19 43  1  0  0  0  0
 20 21  1  0  0  0  0
 20 22  1  0  0  0  0
 20 44  1  0  0  0  0
 21 45  1  0  0  0  0
 21 46  1  0  0  0  0
 21 47  1  0  0  0  0
M  END
> <s_m_source_file>
AV-unprocessed.smi

> <i_m_source_file_index>
1795

> <i_lp_mmshare_version>
43012

> <i_f3d_flags>
0

> <s_epik_input>
W0NIM11bQ0BASF0xW0NIMl1OKFtDSDJdW0NASF0oTzEpW0NIM10pW0NASF0oW0NIM10pW0NIMl1bTkhdQyg9TylbQ0gyXW4yW2NIXVtjSF1bY0hdW2NIXWMyPU8=

> <s_epik_cmdline>
J2VwaWtfcHl0aG9uJywgJy1waCcsICc3LjAnLCAnLXRuJywgJzgnLCAnLW1hJywgJzIwMCcsICctbWV0YWxfYmluZGluZycsICctaW1hZScsICc8aW5maWxlLm1hZT4nLCAnLW9tYWUnLCAnPG91dGZpbGUubWFlPic=

> <r_lp_tautomer_probability>
1

> <r_epik_Ionization_Penalty>
0.237383

> <r_epik_Ionization_Penalty_Charging>
3.58805e-07

> <r_epik_Ionization_Penalty_Neutral>
0.237382

> <r_epik_State_Penalty>
0.228245

> <r_epik_Charging_Adjusted_Penalty>
0.228245

> <i_epik_Tot_Q>
0

> <i_epik_Tot_abs_Q>
0

> <r_epik_Metal_State_Penalty>
0.228221

> <b_epik_Metal_Only>
0

> <s_lp_Force_Field>
OPLS_2005

> <r_lp_Energy>
40.3044

> <b_lp_Chiralities_Consistent>
1

> <s_lp_Variant>
AV-unprocessed.smi:1795-1

> <Gold.Version>
5.8.1

> <Gold.Id.Protein>
6NUR|6NUR_protein|mol2

> <Gold.PLP.Fitness>
45.6516

> <Gold.PLP.PLP>
-34.9328

> <Gold.PLP.part.hbond>
-4.2479

> <Gold.PLP.part.metal>
0.0000

> <Gold.PLP.part.buried>
-2.7232

> <Gold.PLP.part.nonpolar>
-26.8298

> <Gold.PLP.part.repulsive>
0.3651

> <Gold.PLP.ligand.clash>
0.0000

> <Gold.PLP.ligand.torsion>
0.9883

> <Gold.PLP.Chemscore.Hbond>
3.3751

> <Gold.PLP.Chemscore.CHOScore>
0.8220

> <Gold.PLP.Chemscore.Metal>
0.0000

> <Gold.Chemscore.Hbonds>
donor molecule, donor type, donor heavy atom, donor atom, acceptor molecule, acceptor atom, score
      L1  H     8    35       P1  8029  1.00
      P1  H  6933  6944       L1    10  0.83
      P1  H  6934  6946       L1    18  0.82
      P1  H  7997  8008       L1    22  0.52
      L1  C    13    38       P1  8029  0.84

> <Gold.PLP.Chemscore.Internal.Correction>
0.1043

> <Gold.Rescore>
     Score         DG    S(hbond)    S(metal)    S(lipo)     H(rot)  DE(clash)    DE(int)     intcor
     17.35     -21.12       3.32        0.00      78.87       1.83       0.33       3.44       ----

> <Gold.Chemscore.Fitness>
17.3534

> <Gold.Chemscore.DG>
-21.1192

> <Gold.Chemscore.ZeroCoef>
-5.4800

> <Gold.Chemscore.Hbond>
3.3185

> <Gold.Chemscore.Metal>
0.0000

> <Gold.Chemscore.Lipo>
78.8688

> <Gold.Chemscore.Internal_Hbond>
0.0000

> <Gold.Chemscore.DEClash>
0.3252

> <Gold.Chemscore.DEInternal>
3.4406

> <Gold.Chemscore.Rot>
1.8251

> <Gold.Chemscore.Internal.Correction>
   9.000000E+99

> <Gold.Chemscore.Hbonds>
donor molecule, donor type, donor heavy atom, donor atom, acceptor molecule, acceptor atom, score
      L1  H     8    35       P1  8029  1.00
      P1  H  6933  6944       L1    10  0.33
      P1  H  6934  6946       L1    18  0.16
      P1  H  7997  8008       L1    22  0.21

> <Gold.Chemscore.Hbond.Weighted>
-11.0839

> <Gold.Chemscore.Metal.Weighted>
-0.0000

> <Gold.Chemscore.Lipo.Weighted>
-9.2276

> <Gold.Chemscore.Internal_Hbond.Weighted>
0.0000

> <Gold.Chemscore.DEClash.Weighted>
0.3252

> <Gold.Chemscore.DEInternal.Weighted>
3.4406

> <Gold.Chemscore.Rot.Weighted>
4.6724

> <Gold.Chemscore.Internal.Correction.Weighted>
   9.000000E+99

> <Gold.Protein.RotatedTorsions>
[ 6907 6896 6895 6894 ] final  -84.13 input  -60.11 | X-H torsion
[ 7974 7965 7964 7962 ] final   43.83 input  175.53 | X-H torsion
[ 8008 7997 7996 7995 ] final -110.75 input   59.86 | X-H torsion
[ 10167 10162 10161 10158 ] final  -85.66 input  -65.29 | X-H torsion
[ 10718 10713 10712 10709 ] final  119.72 input   66.30 | X-H torsion
[ 10763 10752 10751 10750 ] final  -55.29 input  -60.55 | X-H torsion
[ 11005 11000 10999 10996 ] final   28.71 input  -57.11 | X-H torsion

> <Gold.Protein.ActiveResidues>
 VAL166  LYS551  ARG553  GLY616  TRP617  ASP618  TYR619  PRO620  LYS621  CYS622 
 ASP623  PHE694  ASN695  SER759  ASP760  ASP761  ALA762  ILE779  LEU786  VAL792 
 PHE793  MET794  SER795  GLU796  ALA797  LYS798  CYS799  TRP800  GLU811  SER814 

> <Gold.Protein.RotatedAtoms>
  150.6879  134.3405  159.4865 H   0  0  0  0  0  0  0  0  0  0  0  0  # atno 6907 bound_to 6896
  152.1259  134.9168  160.0570 H   0  0  0  0  0  0  0  0  0  0  0  0  # atno 6908 bound_to 6896
  152.0357  133.3921  159.4352 H   0  0  0  0  0  0  0  0  0  0  0  0  # atno 6909 bound_to 6896
  146.0621  139.5142  142.9651 H   0  0  0  0  0  0  0  0  0  0  0  0  # atno 7974 bound_to 7965
  154.9793  140.0396  157.2270 H   0  0  0  0  0  0  0  0  0  0  0  0  # atno 8008 bound_to 7997
  154.7729  140.2805  155.6101 H   0  0  0  0  0  0  0  0  0  0  0  0  # atno 8009 bound_to 7997
  156.2924  140.2606  156.2536 H   0  0  0  0  0  0  0  0  0  0  0  0  # atno 8010 bound_to 7997
  140.4016  143.2660  151.9135 H   0  0  0  0  0  0  0  0  0  0  0  0  # atno 10167 bound_to 10162
  157.5942  131.1060  150.7936 H   0  0  0  0  0  0  0  0  0  0  0  0  # atno 10718 bound_to 10713
  154.1885  135.6431  153.5053 H   0  0  0  0  0  0  0  0  0  0  0  0  # atno 10763 bound_to 10752
  153.0041  135.5423  154.6440 H   0  0  0  0  0  0  0  0  0  0  0  0  # atno 10764 bound_to 10752
  154.5822  135.2926  155.0693 H   0  0  0  0  0  0  0  0  0  0  0  0  # atno 10765 bound_to 10752
  140.3127  134.2631  155.7731 H   0  0  0  0  0  0  0  0  0  0  0  0  # atno 11005 bound_to 11000
  145.6541  141.0256  143.1744 LP  0  0  0  0  0  0  0  0  0  0  0  0  # atno 17320 bound_to 7965
  144.7181  139.8125  143.7391 LP  0  0  0  0  0  0  0  0  0  0  0  0  # atno 17321 bound_to 7965
  139.4784  144.5628  151.8213 LP  0  0  0  0  0  0  0  0  0  0  0  0  # atno 17342 bound_to 10162
  140.4734  144.1555  150.5921 LP  0  0  0  0  0  0  0  0  0  0  0  0  # atno 17343 bound_to 10162
  156.8350  130.5029  149.5327 LP  0  0  0  0  0  0  0  0  0  0  0  0  # atno 17370 bound_to 10713
  156.1001  130.5962  150.9880 LP  0  0  0  0  0  0  0  0  0  0  0  0  # atno 17371 bound_to 10713
  141.2104  133.7719  156.9931 LP  0  0  0  0  0  0  0  0  0  0  0  0  # atno 17394 bound_to 11000
  140.1010  134.9535  157.1923 LP  0  0  0  0  0  0  0  0  0  0  0  0  # atno 17395 bound_to 11000

$$$$
