AV-unprocessed.smi:782|AV-procd|sdf|3715|dock2
  -GOLD-   22720 1143D 1   1.00000     0.00000
 Structure written by MMmdl.
 41 41  0  0  0  0  0  0  0  0  1 V2000
  151.6863  145.1000  160.0229 C   0  0  0  0  0  0  0  0  0  0  0  0
  151.0032  144.9766  158.6539 C   0  0  0  0  0  0  0  0  0  0  0  0
  151.7791  144.1007  157.6536 C   0  0  0  0  0  0  0  0  0  0  0  0
  150.8926  143.3420  156.7770 N   0  0  0  0  0  0  0  0  0  0  0  0
  150.8780  142.0054  156.6617 C   0  0  0  0  0  0  0  0  0  0  0  0
  151.6399  141.2678  157.2891 O   0  0  0  0  0  0  0  0  0  0  0  0
  149.8342  141.4337  155.6939 C   0  0  0  0  0  0  0  0  0  0  0  0
  150.1297  140.0710  155.2827 N   0  0  0  0  0  0  0  0  0  0  0  0
  149.2666  138.9948  155.2153 C   0  0  0  0  0  0  0  0  0  0  0  0
  150.0192  137.9437  154.7734 C   0  0  0  0  0  0  0  0  0  0  0  0
  149.6357  136.6012  154.5254 N   0  0  0  0  0  0  0  0  0  0  0  0
  149.3816  135.6343  155.4282 C   0  0  0  0  0  0  0  0  0  0  0  0
  149.4583  135.8112  156.6448 O   0  0  0  0  0  0  0  0  0  0  0  0
  148.9833  134.2351  154.8952 C   0  0  0  0  0  0  0  0  0  0  0  0
  150.0804  133.5994  154.0079 C   0  0  0  0  0  0  0  0  0  0  0  0
  147.6894  134.3679  154.0652 C   0  0  0  0  0  0  0  0  0  0  0  0
  148.7145  133.3094  156.0991 C   0  0  0  0  0  0  0  0  0  0  0  0
  151.3293  138.4569  154.5883 C   0  0  0  0  0  0  0  0  0  0  0  0
  151.3899  139.7419  154.9026 N   0  0  0  0  0  0  0  0  0  0  0  0
  151.0769  145.6907  160.7071 H   0  0  0  0  0  0  0  0  0  0  0  0
  152.6575  145.5889  159.9426 H   0  0  0  0  0  0  0  0  0  0  0  0
  151.8393  144.1203  160.4760 H   0  0  0  0  0  0  0  0  0  0  0  0
  150.0078  144.5540  158.7932 H   0  0  0  0  0  0  0  0  0  0  0  0
  150.8510  145.9718  158.2341 H   0  0  0  0  0  0  0  0  0  0  0  0
  152.4172  144.7281  157.0310 H   0  0  0  0  0  0  0  0  0  0  0  0
  152.4460  143.4217  158.1873 H   0  0  0  0  0  0  0  0  0  0  0  0
  150.2329  143.8730  156.2274 H   0  0  0  0  0  0  0  0  0  0  0  0
  148.8502  141.4626  156.1641 H   0  0  0  0  0  0  0  0  0  0  0  0
  149.7826  142.0586  154.8013 H   0  0  0  0  0  0  0  0  0  0  0  0
  148.2235  139.0803  155.4812 H   0  0  0  0  0  0  0  0  0  0  0  0
  149.5551  136.3401  153.5533 H   0  0  0  0  0  0  0  0  0  0  0  0
  149.7664  132.6225  153.6383 H   0  0  0  0  0  0  0  0  0  0  0  0
  151.0104  133.4472  154.5575 H   0  0  0  0  0  0  0  0  0  0  0  0
  150.3021  134.2149  153.1348 H   0  0  0  0  0  0  0  0  0  0  0  0
  147.8305  135.0304  153.2100 H   0  0  0  0  0  0  0  0  0  0  0  0
  146.8635  134.7653  154.6570 H   0  0  0  0  0  0  0  0  0  0  0  0
  147.3688  133.4004  153.6774 H   0  0  0  0  0  0  0  0  0  0  0  0
  148.4191  132.3120  155.7719 H   0  0  0  0  0  0  0  0  0  0  0  0
  147.9137  133.6902  156.7346 H   0  0  0  0  0  0  0  0  0  0  0  0
  149.6034  133.1972  156.7216 H   0  0  0  0  0  0  0  0  0  0  0  0
  152.2203  137.9510  154.2471 H   0  0  0  0  0  0  0  0  0  0  0  0
  1  2  1  0  0  0  0
  1 20  1  0  0  0  0
  1 21  1  0  0  0  0
  1 22  1  0  0  0  0
  2  3  1  0  0  0  0
  2 23  1  0  0  0  0
  2 24  1  0  0  0  0
  3  4  1  0  0  0  0
  3 25  1  0  0  0  0
  3 26  1  0  0  0  0
  4  5  1  0  0  0  0
  4 27  1  0  0  0  0
  5  6  2  0  0  0  0
  5  7  1  0  0  0  0
  7  8  1  0  0  0  0
  7 28  1  0  0  0  0
  7 29  1  0  0  0  0
  8 19  1  0  0  0  0
  8  9  1  0  0  0  0
  9 10  2  0  0  0  0
  9 30  1  0  0  0  0
 10 11  1  0  0  0  0
 10 18  1  0  0  0  0
 11 12  1  0  0  0  0
 11 31  1  0  0  0  0
 12 13  2  0  0  0  0
 12 14  1  0  0  0  0
 14 15  1  0  0  0  0
 14 16  1  0  0  0  0
 14 17  1  0  0  0  0
 15 32  1  0  0  0  0
 15 33  1  0  0  0  0
 15 34  1  0  0  0  0
 16 35  1  0  0  0  0
 16 36  1  0  0  0  0
 16 37  1  0  0  0  0
 17 38  1  0  0  0  0
 17 39  1  0  0  0  0
 17 40  1  0  0  0  0
 18 19  2  0  0  0  0
 18 41  1  0  0  0  0
M  END
> <s_m_source_file>
AV-unprocessed.smi

> <i_m_source_file_index>
782

> <i_lp_mmshare_version>
43012

> <i_f3d_flags>
0

> <s_epik_input>
W0NIM11bQ0gyXVtDSDJdW05IXUMoPU8pW0NIMl1uMVtjSF1jKFtjSF1uMSlbTkhdQyg9TylDKFtDSDNdKShbQ0gzXSlbQ0gzXQ==

> <s_epik_cmdline>
J2VwaWtfcHl0aG9uJywgJy1waCcsICc3LjAnLCAnLXRuJywgJzgnLCAnLW1hJywgJzIwMCcsICctbWV0YWxfYmluZGluZycsICctaW1hZScsICc8aW5maWxlLm1hZT4nLCAnLW9tYWUnLCAnPG91dGZpbGUubWFlPic=

> <r_lp_tautomer_probability>
1

> <r_epik_Ionization_Penalty>
2.67567e-05

> <r_epik_Ionization_Penalty_Charging>
0

> <r_epik_Ionization_Penalty_Neutral>
2.67567e-05

> <r_epik_State_Penalty>
-0

> <r_epik_Charging_Adjusted_Penalty>
0

> <i_epik_Tot_Q>
0

> <i_epik_Tot_abs_Q>
0

> <r_epik_Metal_State_Penalty>
-0

> <b_epik_Metal_Only>
0

> <s_lp_Force_Field>
OPLS_2005

> <r_lp_Energy>
17.0583

> <b_lp_Chiralities_Consistent>
1

> <s_lp_Variant>
AV-unprocessed.smi:782-1

> <Gold.Version>
5.8.1

> <Gold.Id.Protein>
6NUR|6NUR_protein|mol2

> <Gold.PLP.Fitness>
41.8277

> <Gold.PLP.PLP>
-35.4092

> <Gold.PLP.part.hbond>
-3.0000

> <Gold.PLP.part.metal>
0.0000

> <Gold.PLP.part.buried>
-5.6281

> <Gold.PLP.part.nonpolar>
-27.1700

> <Gold.PLP.part.repulsive>
0.1377

> <Gold.PLP.ligand.clash>
0.0000

> <Gold.PLP.ligand.torsion>
1.3680

> <Gold.PLP.Chemscore.Hbond>
3.0000

> <Gold.PLP.Chemscore.CHOScore>
0.0000

> <Gold.PLP.Chemscore.Metal>
0.0000

> <Gold.Chemscore.Hbonds>
donor molecule, donor type, donor heavy atom, donor atom, acceptor molecule, acceptor atom, score
      L1  H     4    27       P1  8028  1.00
      L1  H    11    31       P1  7948  1.00
      P1  H  7989  7998       L1    19  1.00

> <Gold.PLP.Chemscore.Internal.Correction>
0.1544

> <Gold.Rescore>
     Score         DG    S(hbond)    S(metal)    S(lipo)     H(rot)  DE(clash)    DE(int)     intcor
     16.55     -19.26       2.86        0.00      75.32       1.79       0.00       2.71       ----

> <Gold.Chemscore.Fitness>
16.5536

> <Gold.Chemscore.DG>
-19.2592

> <Gold.Chemscore.ZeroCoef>
-5.4800

> <Gold.Chemscore.Hbond>
2.8565

> <Gold.Chemscore.Metal>
0.0000

> <Gold.Chemscore.Lipo>
75.3222

> <Gold.Chemscore.Internal_Hbond>
0.0000

> <Gold.Chemscore.DEClash>
0.0000

> <Gold.Chemscore.DEInternal>
2.7055

> <Gold.Chemscore.Rot>
1.7868

> <Gold.Chemscore.Internal.Correction>
   9.000000E+99

> <Gold.Chemscore.Hbonds>
donor molecule, donor type, donor heavy atom, donor atom, acceptor molecule, acceptor atom, score
      L1  H     4    27       P1  8028  1.00
      L1  H    11    31       P1  7948  0.55
      P1  H  7989  7998       L1    19  0.31

> <Gold.Chemscore.Hbond.Weighted>
-9.5408

> <Gold.Chemscore.Metal.Weighted>
-0.0000

> <Gold.Chemscore.Lipo.Weighted>
-8.8127

> <Gold.Chemscore.Internal_Hbond.Weighted>
0.0000

> <Gold.Chemscore.DEClash.Weighted>
0.0000

> <Gold.Chemscore.DEInternal.Weighted>
2.7055

> <Gold.Chemscore.Rot.Weighted>
4.5743

> <Gold.Chemscore.Internal.Correction.Weighted>
   9.000000E+99

> <Gold.Protein.RotatedTorsions>
[ 6907 6896 6895 6894 ] final  123.21 input  -60.11 | X-H torsion
[ 7974 7965 7964 7962 ] final    3.51 input  175.53 | X-H torsion
[ 8008 7997 7996 7995 ] final  179.22 input   59.86 | X-H torsion
[ 10167 10162 10161 10158 ] final -103.53 input  -65.29 | X-H torsion
[ 10718 10713 10712 10709 ] final -174.61 input   66.30 | X-H torsion
[ 10763 10752 10751 10750 ] final  -47.70 input  -60.55 | X-H torsion
[ 11005 11000 10999 10996 ] final  -91.61 input  -57.11 | X-H torsion

> <Gold.Protein.ActiveResidues>
 VAL166  LYS551  ARG553  GLY616  TRP617  ASP618  TYR619  PRO620  LYS621  CYS622 
 ASP623  PHE694  ASN695  SER759  ASP760  ASP761  ALA762  ILE779  LEU786  VAL792 
 PHE793  MET794  SER795  GLU796  ALA797  LYS798  CYS799  TRP800  GLU811  SER814 

> <Gold.Protein.RotatedAtoms>
  152.4180  133.7070  159.6456 H   0  0  0  0  0  0  0  0  0  0  0  0  # atno 6907 bound_to 6896
  150.8057  133.8504  159.3212 H   0  0  0  0  0  0  0  0  0  0  0  0  # atno 6908 bound_to 6896
  151.6229  135.1032  160.0157 H   0  0  0  0  0  0  0  0  0  0  0  0  # atno 6909 bound_to 6896
  146.2445  140.0675  142.8364 H   0  0  0  0  0  0  0  0  0  0  0  0  # atno 7974 bound_to 7965
  156.0458  140.1314  157.0105 H   0  0  0  0  0  0  0  0  0  0  0  0  # atno 8008 bound_to 7997
  154.4412  140.1021  156.6375 H   0  0  0  0  0  0  0  0  0  0  0  0  # atno 8009 bound_to 7997
  155.5598  140.3464  155.4490 H   0  0  0  0  0  0  0  0  0  0  0  0  # atno 8010 bound_to 7997
  140.2190  143.3690  152.0985 H   0  0  0  0  0  0  0  0  0  0  0  0  # atno 10167 bound_to 10162
  156.7877  130.9506  151.3120 H   0  0  0  0  0  0  0  0  0  0  0  0  # atno 10718 bound_to 10713
  154.0657  135.6612  153.4817 H   0  0  0  0  0  0  0  0  0  0  0  0  # atno 10763 bound_to 10752
  153.0410  135.5145  154.7615 H   0  0  0  0  0  0  0  0  0  0  0  0  # atno 10764 bound_to 10752
  154.6666  135.3023  154.9765 H   0  0  0  0  0  0  0  0  0  0  0  0  # atno 10765 bound_to 10752
  141.1541  133.7767  156.9904 H   0  0  0  0  0  0  0  0  0  0  0  0  # atno 11005 bound_to 11000
  145.0845  140.9243  143.4805 LP  0  0  0  0  0  0  0  0  0  0  0  0  # atno 17320 bound_to 7965
  145.0835  139.2942  143.5771 LP  0  0  0  0  0  0  0  0  0  0  0  0  # atno 17321 bound_to 7965
  139.5151  144.6958  151.5635 LP  0  0  0  0  0  0  0  0  0  0  0  0  # atno 17342 bound_to 10162
  140.6268  143.9152  150.6572 LP  0  0  0  0  0  0  0  0  0  0  0  0  # atno 17343 bound_to 10162
  157.6616  130.8971  149.9842 LP  0  0  0  0  0  0  0  0  0  0  0  0  # atno 17370 bound_to 10713
  156.1179  130.3647  149.9937 LP  0  0  0  0  0  0  0  0  0  0  0  0  # atno 17371 bound_to 10713
  140.1007  134.9537  157.1918 LP  0  0  0  0  0  0  0  0  0  0  0  0  # atno 17394 bound_to 11000
  140.3323  134.2796  155.7226 LP  0  0  0  0  0  0  0  0  0  0  0  0  # atno 17395 bound_to 11000

$$$$
