AV-unprocessed.smi:3348|AV-procd|sdf|12923|dock7
  -GOLD-   2272019343D 1   1.00000     0.00000
 Structure written by MMmdl.
 46 47  0  0  0  0  0  0  0  0  1 V2000
  145.9383  135.9504  153.3846 C   0  0  0  0  0  0  0  0  0  0  0  0
  145.0767  136.4268  152.2068 C   0  0  2  0  0  0  0  0  0  0  0  0
  145.4579  135.6459  150.9220 C   0  0  0  0  0  0  0  0  0  0  0  0
  145.4092  134.1984  151.0478 N   0  0  0  0  0  0  0  0  0  0  0  0
  144.3654  133.3517  150.7357 C   0  0  0  0  0  0  0  0  0  0  0  0
  144.7822  132.0774  150.9917 C   0  0  0  0  0  0  0  0  0  0  0  0
  146.1215  132.2448  151.4416 C   0  0  0  0  0  0  0  0  0  0  0  0
  146.4980  133.5132  151.4619 N   0  0  0  0  0  0  0  0  0  0  0  0
  145.2407  137.8791  152.0657 N   0  0  0  0  0  0  0  0  0  0  0  0
  146.6128  138.3571  151.9059 C   0  0  0  0  0  0  0  0  0  0  0  0
  146.9822  139.3614  153.0102 C   0  0  0  0  0  0  0  0  0  0  0  0
  147.8458  138.7945  153.9896 O   0  0  0  0  0  0  0  0  0  0  0  0
  149.0842  139.4716  154.1782 C   0  0  2  0  0  0  0  0  0  0  0  0
  150.1024  138.4362  154.6902 C   0  0  0  0  0  0  0  0  0  0  0  0
  151.4522  139.0920  155.0113 C   0  0  0  0  0  0  0  0  0  0  0  0
  151.2774  140.2314  156.0265 C   0  0  0  0  0  0  0  0  0  0  0  0
  150.2532  141.2657  155.5322 C   0  0  0  0  0  0  0  0  0  0  0  0
  148.8941  140.6163  155.1981 C   0  0  1  0  0  0  0  0  0  0  0  0
  147.8965  141.6719  154.6943 C   0  0  0  0  0  0  0  0  0  0  0  0
  145.8046  134.8831  153.5633 H   0  0  0  0  0  0  0  0  0  0  0  0
  145.6690  136.4697  154.3050 H   0  0  0  0  0  0  0  0  0  0  0  0
  146.9988  136.1262  153.1995 H   0  0  0  0  0  0  0  0  0  0  0  0
  144.0421  136.2060  152.4722 H   0  0  0  0  0  0  0  0  0  0  0  0
  144.8188  135.9497  150.0918 H   0  0  0  0  0  0  0  0  0  0  0  0
  146.4773  135.8983  150.6273 H   0  0  0  0  0  0  0  0  0  0  0  0
  143.4209  133.7232  150.3665 H   0  0  0  0  0  0  0  0  0  0  0  0
  144.2185  131.1644  150.8698 H   0  0  0  0  0  0  0  0  0  0  0  0
  146.8282  131.4875  151.7472 H   0  0  0  0  0  0  0  0  0  0  0  0
  144.6782  138.2097  151.2882 H   0  0  0  0  0  0  0  0  0  0  0  0
  147.3232  137.5353  151.8977 H   0  0  0  0  0  0  0  0  0  0  0  0
  146.7087  138.8534  150.9396 H   0  0  0  0  0  0  0  0  0  0  0  0
  147.4572  140.2422  152.5758 H   0  0  0  0  0  0  0  0  0  0  0  0
  146.0793  139.7169  153.5076 H   0  0  0  0  0  0  0  0  0  0  0  0
  149.4549  139.9007  153.2451 H   0  0  0  0  0  0  0  0  0  0  0  0
  149.7130  137.9508  155.5861 H   0  0  0  0  0  0  0  0  0  0  0  0
  150.2397  137.6468  153.9517 H   0  0  0  0  0  0  0  0  0  0  0  0
  152.1445  138.3463  155.4026 H   0  0  0  0  0  0  0  0  0  0  0  0
  151.8985  139.4795  154.0947 H   0  0  0  0  0  0  0  0  0  0  0  0
  150.9498  139.8218  156.9828 H   0  0  0  0  0  0  0  0  0  0  0  0
  152.2367  140.7160  156.2098 H   0  0  0  0  0  0  0  0  0  0  0  0
  150.1215  142.0378  156.2911 H   0  0  0  0  0  0  0  0  0  0  0  0
  150.6472  141.7688  154.6480 H   0  0  0  0  0  0  0  0  0  0  0  0
  148.4903  140.1900  156.1176 H   0  0  0  0  0  0  0  0  0  0  0  0
  148.2339  142.1229  153.7605 H   0  0  0  0  0  0  0  0  0  0  0  0
  147.7690  142.4720  155.4238 H   0  0  0  0  0  0  0  0  0  0  0  0
  146.9136  141.2351  154.5161 H   0  0  0  0  0  0  0  0  0  0  0  0
  1  2  1  0  0  0  0
  1 20  1  0  0  0  0
  1 21  1  0  0  0  0
  1 22  1  0  0  0  0
  2  3  1  0  0  0  0
  2  9  1  0  0  0  0
  2 23  1  0  0  0  0
  3  4  1  0  0  0  0
  3 24  1  0  0  0  0
  3 25  1  0  0  0  0
  4  8  1  0  0  0  0
  4  5  1  0  0  0  0
  5  6  2  0  0  0  0
  5 26  1  0  0  0  0
  6  7  1  0  0  0  0
  6 27  1  0  0  0  0
  7  8  2  0  0  0  0
  7 28  1  0  0  0  0
  9 10  1  0  0  0  0
  9 29  1  0  0  0  0
 10 11  1  0  0  0  0
 10 30  1  0  0  0  0
 10 31  1  0  0  0  0
 11 12  1  0  0  0  0
 11 32  1  0  0  0  0
 11 33  1  0  0  0  0
 12 13  1  0  0  0  0
 13 18  1  0  0  0  0
 13 14  1  0  0  0  0
 13 34  1  0  0  0  0
 14 15  1  0  0  0  0
 14 35  1  0  0  0  0
 14 36  1  0  0  0  0
 15 16  1  0  0  0  0
 15 37  1  0  0  0  0
 15 38  1  0  0  0  0
 16 17  1  0  0  0  0
 16 39  1  0  0  0  0
 16 40  1  0  0  0  0
 17 18  1  0  0  0  0
 17 41  1  0  0  0  0
 17 42  1  0  0  0  0
 18 19  1  0  0  0  0
 18 43  1  0  0  0  0
 19 44  1  0  0  0  0
 19 45  1  0  0  0  0
 19 46  1  0  0  0  0
M  END
> <s_m_source_file>
AV-unprocessed.smi

> <i_m_source_file_index>
3348

> <i_lp_mmshare_version>
43012

> <i_f3d_flags>
0

> <s_epik_input>
bjFbY0hdW2NIXVtjSF1uMVtDSDJdW0NAQEhdKFtDSDNdKVtOSF1bQ0gyXVtDSDJdT1tDQEBIXTJbQ0gyXVtDSDJdW0NIMl1bQ0gyXVtDQEhdMltDSDNd

> <s_epik_cmdline>
J2VwaWtfcHl0aG9uJywgJy1waCcsICc3LjAnLCAnLXRuJywgJzgnLCAnLW1hJywgJzIwMCcsICctbWV0YWxfYmluZGluZycsICctaW1hZScsICc8aW5maWxlLm1hZT4nLCAnLW9tYWUnLCAnPG91dGZpbGUubWFlPic=

> <r_lp_tautomer_probability>
1

> <r_epik_Ionization_Penalty>
2.46945

> <r_epik_Ionization_Penalty_Charging>
0

> <r_epik_Ionization_Penalty_Neutral>
2.46945

> <r_epik_State_Penalty>
2.6322

> <r_epik_Charging_Adjusted_Penalty>
2.6322

> <i_epik_Tot_Q>
0

> <i_epik_Tot_abs_Q>
0

> <r_epik_Metal_State_Penalty>
2.63217

> <b_epik_Metal_Only>
0

> <s_lp_Force_Field>
OPLS_2005

> <r_lp_Energy>
18.2161

> <b_lp_Chiralities_Consistent>
1

> <s_lp_Variant>
AV-unprocessed.smi:3348-9

> <Gold.Version>
5.8.1

> <Gold.Id.Protein>
6NUR|6NUR_protein|mol2

> <Gold.PLP.Fitness>
46.9297

> <Gold.PLP.PLP>
-41.2893

> <Gold.PLP.part.hbond>
-2.0000

> <Gold.PLP.part.metal>
0.0000

> <Gold.PLP.part.buried>
-1.7166

> <Gold.PLP.part.nonpolar>
-38.8090

> <Gold.PLP.part.repulsive>
0.3800

> <Gold.PLP.ligand.clash>
0.0000

> <Gold.PLP.ligand.torsion>
1.7698

> <Gold.PLP.Chemscore.Hbond>
1.0000

> <Gold.PLP.Chemscore.CHOScore>
2.0000

> <Gold.PLP.Chemscore.Metal>
0.0000

> <Gold.Chemscore.Hbonds>
donor molecule, donor type, donor heavy atom, donor atom, acceptor molecule, acceptor atom, score
      L1  H     9    29       P1 10171  1.00
      L1  C     5    26       P1 10186  0.72
      L1  C     7    28       P1 10747  0.53

> <Gold.PLP.Chemscore.Internal.Correction>
0.1802

> <Gold.Rescore>
     Score         DG    S(hbond)    S(metal)    S(lipo)     H(rot)  DE(clash)    DE(int)     intcor
     13.99     -16.30       1.00        0.00     101.64       1.72       0.39       1.91       ----

> <Gold.Chemscore.Fitness>
13.9934

> <Gold.Chemscore.DG>
-16.2972

> <Gold.Chemscore.ZeroCoef>
-5.4800

> <Gold.Chemscore.Hbond>
0.9992

> <Gold.Chemscore.Metal>
0.0000

> <Gold.Chemscore.Lipo>
101.6443

> <Gold.Chemscore.Internal_Hbond>
0.0000

> <Gold.Chemscore.DEClash>
0.3894

> <Gold.Chemscore.DEInternal>
1.9145

> <Gold.Chemscore.Rot>
1.7237

> <Gold.Chemscore.Internal.Correction>
   9.000000E+99

> <Gold.Chemscore.Hbonds>
donor molecule, donor type, donor heavy atom, donor atom, acceptor molecule, acceptor atom, score
      L1  H     9    29       P1 10171  1.00

> <Gold.Chemscore.Hbond.Weighted>
-3.3374

> <Gold.Chemscore.Metal.Weighted>
-0.0000

> <Gold.Chemscore.Lipo.Weighted>
-11.8924

> <Gold.Chemscore.Internal_Hbond.Weighted>
0.0000

> <Gold.Chemscore.DEClash.Weighted>
0.3894

> <Gold.Chemscore.DEInternal.Weighted>
1.9145

> <Gold.Chemscore.Rot.Weighted>
4.4126

> <Gold.Chemscore.Internal.Correction.Weighted>
   9.000000E+99

> <Gold.Protein.RotatedTorsions>
[ 6907 6896 6895 6894 ] final  105.61 input  -60.11 | X-H torsion
[ 7974 7965 7964 7962 ] final  -64.25 input  175.53 | X-H torsion
[ 8008 7997 7996 7995 ] final   20.68 input   59.86 | X-H torsion
[ 10167 10162 10161 10158 ] final  -68.50 input  -65.29 | X-H torsion
[ 10718 10713 10712 10709 ] final  113.15 input   66.30 | X-H torsion
[ 10763 10752 10751 10750 ] final  114.34 input  -60.55 | X-H torsion
[ 11005 11000 10999 10996 ] final  -16.28 input  -57.11 | X-H torsion

> <Gold.Protein.ActiveResidues>
 VAL166  LYS551  ARG553  GLY616  TRP617  ASP618  TYR619  PRO620  LYS621  CYS622 
 ASP623  PHE694  ASN695  SER759  ASP760  ASP761  ALA762  ILE779  LEU786  VAL792 
 PHE793  MET794  SER795  GLU796  ALA797  LYS798  CYS799  TRP800  GLU811  SER814 

> <Gold.Protein.RotatedAtoms>
  152.5224  133.9503  159.7668 H   0  0  0  0  0  0  0  0  0  0  0  0  # atno 6907 bound_to 6896
  150.9814  133.6233  159.2729 H   0  0  0  0  0  0  0  0  0  0  0  0  # atno 6908 bound_to 6896
  151.3409  135.0869  159.9424 H   0  0  0  0  0  0  0  0  0  0  0  0  # atno 6909 bound_to 6896
  145.7690  140.8822  143.0390 H   0  0  0  0  0  0  0  0  0  0  0  0  # atno 7974 bound_to 7965
  154.9392  140.3051  155.5129 H   0  0  0  0  0  0  0  0  0  0  0  0  # atno 8008 bound_to 7997
  156.2997  140.2339  156.4397 H   0  0  0  0  0  0  0  0  0  0  0  0  # atno 8009 bound_to 7997
  154.8162  140.0426  157.1367 H   0  0  0  0  0  0  0  0  0  0  0  0  # atno 8010 bound_to 7997
  140.5503  143.2312  151.6924 H   0  0  0  0  0  0  0  0  0  0  0  0  # atno 10167 bound_to 10162
  157.6354  131.0979  150.6998 H   0  0  0  0  0  0  0  0  0  0  0  0  # atno 10718 bound_to 10713
  153.5058  135.3628  155.2562 H   0  0  0  0  0  0  0  0  0  0  0  0  # atno 10763 bound_to 10752
  154.8745  135.4011  154.3426 H   0  0  0  0  0  0  0  0  0  0  0  0  # atno 10764 bound_to 10752
  153.4070  135.7076  153.6452 H   0  0  0  0  0  0  0  0  0  0  0  0  # atno 10765 bound_to 10752
  140.8052  133.8183  155.9509 H   0  0  0  0  0  0  0  0  0  0  0  0  # atno 11005 bound_to 11000
  144.6816  139.9828  143.7483 LP  0  0  0  0  0  0  0  0  0  0  0  0  # atno 17320 bound_to 7965
  146.0189  139.3233  143.0825 LP  0  0  0  0  0  0  0  0  0  0  0  0  # atno 17321 bound_to 7965
  139.5024  144.3829  152.0358 LP  0  0  0  0  0  0  0  0  0  0  0  0  # atno 17342 bound_to 10162
  140.2945  144.3716  150.6078 LP  0  0  0  0  0  0  0  0  0  0  0  0  # atno 17343 bound_to 10162
  156.7331  130.4715  149.5495 LP  0  0  0  0  0  0  0  0  0  0  0  0  # atno 17370 bound_to 10713
  156.1589  130.6361  151.0693 LP  0  0  0  0  0  0  0  0  0  0  0  0  # atno 17371 bound_to 10713
  140.9254  134.2089  157.4899 LP  0  0  0  0  0  0  0  0  0  0  0  0  # atno 17394 bound_to 11000
  139.8718  134.9810  156.5099 LP  0  0  0  0  0  0  0  0  0  0  0  0  # atno 17395 bound_to 11000

$$$$
