AV-unprocessed.smi:2189|AV-procd|sdf|8886|dock8
  -GOLD-   2272012 83D 1   1.00000     0.00000
 Structure written by MMmdl.
 38 40  0  0  0  0  0  0  0  0  2 V2000
  153.0488  137.7558  159.0361 O   0  0  0  0  0  0  0  0  0  0  0  0
  153.9134  138.6407  158.9892 C   0  0  0  0  0  0  0  0  0  0  0  0
  155.1851  138.4766  158.5107 N   0  5  0  0  0  0  0  0  0  0  0  0
  155.6502  137.3576  157.6860 C   0  0  0  0  0  0  0  0  0  0  0  0
  157.1060  137.6015  157.2228 C   0  0  0  0  0  0  0  0  0  0  0  0
  157.3050  137.6599  155.7090 C   0  0  0  0  0  0  0  0  0  0  0  0
  158.2695  136.8394  155.0804 C   0  0  0  0  0  0  0  0  0  0  0  0
  158.4184  136.9193  153.6829 C   0  0  0  0  0  0  0  0  0  0  0  0
  157.6096  137.8208  152.9655 C   0  0  0  0  0  0  0  0  0  0  0  0
  156.6861  138.6072  153.6820 C   0  0  0  0  0  0  0  0  0  0  0  0
  156.5350  138.5394  155.0220 N   0  0  0  0  0  0  0  0  0  0  0  0
  153.5881  139.9833  159.5070 C   0  0  0  0  0  0  0  0  0  0  0  0
  154.2950  140.4561  160.5671 C   0  0  0  0  0  0  0  0  0  0  0  0
  154.0484  141.7619  161.1257 C   0  0  0  0  0  0  0  0  0  0  0  0
  153.0700  142.4989  160.5895 C   0  0  0  0  0  0  0  0  0  0  0  0
  152.2835  142.0652  159.5234 N   0  0  0  0  0  0  0  0  0  0  0  0
  151.1870  142.9358  159.1141 C   0  0  0  0  0  0  0  0  0  0  0  0
  151.0813  142.9768  157.6008 C   0  0  0  0  0  0  0  0  0  0  0  0
  150.6656  141.2730  157.0841 S   0  0  0  0  0  0  0  0  0  0  0  0
  149.3881  140.9049  157.7143 O   0  0  0  0  0  0  0  0  0  0  0  0
  150.7972  141.1950  155.6212 O   0  0  0  0  0  0  0  0  0  0  0  0
  151.9080  140.4214  157.8159 N   0  0  0  0  0  0  0  0  0  0  0  0
  152.5323  140.8141  158.8907 C   0  0  0  0  0  0  0  0  0  0  0  0
  155.6025  136.3981  158.2026 H   0  0  0  0  0  0  0  0  0  0  0  0
  155.0211  137.2435  156.8028 H   0  0  0  0  0  0  0  0  0  0  0  0
  157.4580  138.5425  157.6471 H   0  0  0  0  0  0  0  0  0  0  0  0
  157.7586  136.8319  157.6373 H   0  0  0  0  0  0  0  0  0  0  0  0
  158.8715  136.1536  155.6582 H   0  0  0  0  0  0  0  0  0  0  0  0
  159.1395  136.2993  153.1712 H   0  0  0  0  0  0  0  0  0  0  0  0
  157.6951  137.9076  151.8927 H   0  0  0  0  0  0  0  0  0  0  0  0
  156.0518  139.3116  153.1642 H   0  0  0  0  0  0  0  0  0  0  0  0
  155.0637  139.8571  161.0339 H   0  0  0  0  0  0  0  0  0  0  0  0
  154.6362  142.1322  161.9522 H   0  0  0  0  0  0  0  0  0  0  0  0
  152.8362  143.4844  160.9648 H   0  0  0  0  0  0  0  0  0  0  0  0
  150.2581  142.5798  159.5608 H   0  0  0  0  0  0  0  0  0  0  0  0
  151.3413  143.9502  159.4827 H   0  0  0  0  0  0  0  0  0  0  0  0
  150.2899  143.6473  157.2673 H   0  0  0  0  0  0  0  0  0  0  0  0
  152.0177  143.2805  157.1314 H   0  0  0  0  0  0  0  0  0  0  0  0
  1  2  2  0  0  0  0
  2  3  1  0  0  0  0
  2 12  1  0  0  0  0
  3  4  1  0  0  0  0
  4  5  1  0  0  0  0
  4 24  1  0  0  0  0
  4 25  1  0  0  0  0
  5  6  1  0  0  0  0
  5 26  1  0  0  0  0
  5 27  1  0  0  0  0
  6 11  1  0  0  0  0
  6  7  2  0  0  0  0
  7  8  1  0  0  0  0
  7 28  1  0  0  0  0
  8  9  2  0  0  0  0
  8 29  1  0  0  0  0
  9 10  1  0  0  0  0
  9 30  1  0  0  0  0
 10 11  2  0  0  0  0
 10 31  1  0  0  0  0
 12 23  1  0  0  0  0
 12 13  2  0  0  0  0
 13 14  1  0  0  0  0
 13 32  1  0  0  0  0
 14 15  2  0  0  0  0
 14 33  1  0  0  0  0
 15 16  1  0  0  0  0
 15 34  1  0  0  0  0
 16 23  1  0  0  0  0
 16 17  1  0  0  0  0
 17 18  1  0  0  0  0
 17 35  1  0  0  0  0
 17 36  1  0  0  0  0
 18 19  1  0  0  0  0
 18 37  1  0  0  0  0
 18 38  1  0  0  0  0
 19 20  2  0  0  0  0
 19 21  2  0  0  0  0
 19 22  1  0  0  0  0
 22 23  2  0  0  0  0
M  CHG  1   3  -1
M  END
> <s_m_source_file>
AV-unprocessed.smi

> <i_m_source_file_index>
2189

> <i_lp_mmshare_version>
43012

> <i_f3d_flags>
0

> <s_epik_input>
W0NIMl0xW0NIMl1TKD1PKSg9TylOPUMoTjEyKUMoPVtDSF1bQ0hdPVtDSF0yKUMoPU8pW05IXVtDSDJdW0NIMl1jM1tjSF1bY0hdW2NIXVtjSF1uMw==

> <s_epik_cmdline>
J2VwaWtfcHl0aG9uJywgJy1waCcsICc3LjAnLCAnLXRuJywgJzgnLCAnLW1hJywgJzIwMCcsICctbWV0YWxfYmluZGluZycsICctaW1hZScsICc8aW5maWxlLm1hZT4nLCAnLW9tYWUnLCAnPG91dGZpbGUubWFlPic=

> <r_epik_Ionization_Penalty>
5.6695

> <r_epik_Ionization_Penalty_Charging>
5.5942

> <r_epik_Ionization_Penalty_Neutral>
0.0753022

> <r_epik_State_Penalty>
5.60818

> <r_epik_Charging_Adjusted_Penalty>
11.2024

> <i_epik_Tot_Q>
-1

> <i_epik_Tot_abs_Q>
1

> <r_epik_Metal_State_Penalty>
1.61782

> <b_epik_Metal_Only>
1

> <s_lp_Force_Field>
OPLS_2005

> <r_lp_Energy>
39.8175

> <b_lp_Chiralities_Consistent>
1

> <s_lp_Variant>
AV-unprocessed.smi:2189-3

> <Gold.Version>
5.8.1

> <Gold.Id.Protein>
6NUR|6NUR_protein|mol2

> <Gold.PLP.Fitness>
47.2298

> <Gold.PLP.PLP>
-41.7082

> <Gold.PLP.part.hbond>
-3.0000

> <Gold.PLP.part.metal>
0.0000

> <Gold.PLP.part.buried>
-3.7615

> <Gold.PLP.part.nonpolar>
-35.1840

> <Gold.PLP.part.repulsive>
0.1548

> <Gold.PLP.ligand.clash>
0.0000

> <Gold.PLP.ligand.torsion>
1.6646

> <Gold.PLP.Chemscore.Hbond>
2.8101

> <Gold.PLP.Chemscore.CHOScore>
0.0000

> <Gold.PLP.Chemscore.Metal>
0.0000

> <Gold.Chemscore.Hbonds>
donor molecule, donor type, donor heavy atom, donor atom, acceptor molecule, acceptor atom, score
      P1  H  7989  7998       L1    21  0.22
      P1  H  7997  8008       L1     3  2.00
      P1  H  7997  8010       L1    11  0.50

> <Gold.PLP.Chemscore.Internal.Correction>
0.4206

> <Gold.Rescore>
     Score         DG    S(hbond)    S(metal)    S(lipo)     H(rot)  DE(clash)    DE(int)     intcor
     17.15     -18.87       1.14        0.00     113.53       1.44       0.14       1.58       ----

> <Gold.Chemscore.Fitness>
17.1484

> <Gold.Chemscore.DG>
-18.8692

> <Gold.Chemscore.ZeroCoef>
-5.4800

> <Gold.Chemscore.Hbond>
1.1382

> <Gold.Chemscore.Metal>
0.0000

> <Gold.Chemscore.Lipo>
113.5259

> <Gold.Chemscore.Internal_Hbond>
0.0000

> <Gold.Chemscore.DEClash>
0.1370

> <Gold.Chemscore.DEInternal>
1.5838

> <Gold.Chemscore.Rot>
1.4433

> <Gold.Chemscore.Internal.Correction>
   9.000000E+99

> <Gold.Chemscore.Hbonds>
donor molecule, donor type, donor heavy atom, donor atom, acceptor molecule, acceptor atom, score
      P1  H  7989  7998       L1    21  0.22
      P1  H  7997  8008       L1     3  0.15
      P1  H  7997  8010       L1    11  0.41

> <Gold.Chemscore.Hbond.Weighted>
-3.8016

> <Gold.Chemscore.Metal.Weighted>
-0.0000

> <Gold.Chemscore.Lipo.Weighted>
-13.2825

> <Gold.Chemscore.Internal_Hbond.Weighted>
0.0000

> <Gold.Chemscore.DEClash.Weighted>
0.1370

> <Gold.Chemscore.DEInternal.Weighted>
1.5838

> <Gold.Chemscore.Rot.Weighted>
3.6949

> <Gold.Chemscore.Internal.Correction.Weighted>
   9.000000E+99

> <Gold.Protein.RotatedTorsions>
[ 6907 6896 6895 6894 ] final -135.91 input  -60.11 | X-H torsion
[ 7974 7965 7964 7962 ] final  -58.46 input  175.53 | X-H torsion
[ 8008 7997 7996 7995 ] final -136.95 input   59.86 | X-H torsion
[ 10167 10162 10161 10158 ] final  -97.07 input  -65.29 | X-H torsion
[ 10718 10713 10712 10709 ] final -114.45 input   66.30 | X-H torsion
[ 10763 10752 10751 10750 ] final  -66.25 input  -60.55 | X-H torsion
[ 11005 11000 10999 10996 ] final -176.60 input  -57.11 | X-H torsion

> <Gold.Protein.ActiveResidues>
 VAL166  LYS551  ARG553  GLY616  TRP617  ASP618  TYR619  PRO620  LYS621  CYS622 
 ASP623  PHE694  ASN695  SER759  ASP760  ASP761  ALA762  ILE779  LEU786  VAL792 
 PHE793  MET794  SER795  GLU796  ALA797  LYS798  CYS799  TRP800  GLU811  SER814 

> <Gold.Protein.RotatedAtoms>
  151.0037  133.6032  159.2691 H   0  0  0  0  0  0  0  0  0  0  0  0  # atno 6907 bound_to 6896
  151.3209  135.0817  159.9315 H   0  0  0  0  0  0  0  0  0  0  0  0  # atno 6908 bound_to 6896
  152.5281  133.9684  159.7804 H   0  0  0  0  0  0  0  0  0  0  0  0  # atno 6909 bound_to 6896
  145.8391  140.8429  143.0044 H   0  0  0  0  0  0  0  0  0  0  0  0  # atno 7974 bound_to 7965
  155.4037  140.0507  157.3035 H   0  0  0  0  0  0  0  0  0  0  0  0  # atno 8008 bound_to 7997
  154.4978  140.2145  155.9369 H   0  0  0  0  0  0  0  0  0  0  0  0  # atno 8009 bound_to 7997
  156.1429  140.3151  155.8529 H   0  0  0  0  0  0  0  0  0  0  0  0  # atno 8010 bound_to 7997
  140.2872  143.3244  152.0382 H   0  0  0  0  0  0  0  0  0  0  0  0  # atno 10167 bound_to 10162
  156.0831  130.6028  150.8777 H   0  0  0  0  0  0  0  0  0  0  0  0  # atno 10718 bound_to 10713
  154.3570  135.6124  153.5671 H   0  0  0  0  0  0  0  0  0  0  0  0  # atno 10763 bound_to 10752
  152.9795  135.5806  154.4677 H   0  0  0  0  0  0  0  0  0  0  0  0  # atno 10764 bound_to 10752
  154.4408  135.2850  155.1826 H   0  0  0  0  0  0  0  0  0  0  0  0  # atno 10765 bound_to 10752
  140.4503  134.6350  157.4798 H   0  0  0  0  0  0  0  0  0  0  0  0  # atno 11005 bound_to 11000
  144.6734  140.0785  143.7470 LP  0  0  0  0  0  0  0  0  0  0  0  0  # atno 17320 bound_to 7965
  145.9485  139.2717  143.1226 LP  0  0  0  0  0  0  0  0  0  0  0  0  # atno 17321 bound_to 7965
  139.4947  144.6550  151.6592 LP  0  0  0  0  0  0  0  0  0  0  0  0  # atno 17342 bound_to 10162
  140.5762  144.0024  150.6243 LP  0  0  0  0  0  0  0  0  0  0  0  0  # atno 17343 bound_to 10162
  157.5956  131.0943  150.9047 LP  0  0  0  0  0  0  0  0  0  0  0  0  # atno 17370 bound_to 10713
  156.9215  130.5316  149.5279 LP  0  0  0  0  0  0  0  0  0  0  0  0  # atno 17371 bound_to 10713
  140.0011  134.6835  155.9528 LP  0  0  0  0  0  0  0  0  0  0  0  0  # atno 17394 bound_to 11000
  141.1667  133.6537  156.4505 LP  0  0  0  0  0  0  0  0  0  0  0  0  # atno 17395 bound_to 11000

$$$$
