AV-unprocessed.smi:462|AV-procd|sdf|2632|dock4
  -GOLD-   2262023 43D 1   1.00000     0.00000
 Structure written by MMmdl.
 46 48  0  0  0  0  0  0  0  0  1 V2000
  154.1366  141.1941  161.1023 C   0  0  0  0  0  0  0  0  0  0  0  0
  153.2707  141.2429  159.9786 O   0  0  0  0  0  0  0  0  0  0  0  0
  152.4684  142.3538  159.8158 C   0  0  0  0  0  0  0  0  0  0  0  0
  152.6006  143.5391  160.5824 C   0  0  0  0  0  0  0  0  0  0  0  0
  151.7455  144.6334  160.3573 C   0  0  0  0  0  0  0  0  0  0  0  0
  150.7505  144.5564  159.3678 C   0  0  0  0  0  0  0  0  0  0  0  0
  150.6101  143.3852  158.6016 C   0  0  0  0  0  0  0  0  0  0  0  0
  151.4682  142.2783  158.8197 C   0  0  0  0  0  0  0  0  0  0  0  0
  151.3927  141.1004  158.1089 O   0  0  0  0  0  0  0  0  0  0  0  0
  150.4197  140.9768  157.0817 C   0  0  0  0  0  0  0  0  0  0  0  0
  151.0925  140.3833  155.8333 C   0  0  0  0  0  0  0  0  0  0  0  0
  150.3254  139.2808  155.2625 N   0  0  0  0  0  0  0  0  0  0  0  0
  149.1882  139.3035  154.5051 C   0  0  0  0  0  0  0  0  0  0  0  0
  148.4207  140.5622  154.1368 C   0  0  0  0  0  0  0  0  0  0  0  0
  147.2177  140.2504  153.2213 C   0  0  0  0  0  0  0  0  0  0  0  0
  147.9527  141.2967  155.4042 C   0  0  0  0  0  0  0  0  0  0  0  0
  149.1782  141.4791  153.3714 O   0  0  0  0  0  0  0  0  0  0  0  0
  148.6936  138.0979  154.2053 N   0  0  0  0  0  0  0  0  0  0  0  0
  149.6144  137.2275  154.7467 C   0  0  0  0  0  0  0  0  0  0  0  0
  149.6621  135.8151  154.7306 C   0  0  0  0  0  0  0  0  0  0  0  0
  150.7155  135.1293  155.3697 C   0  0  0  0  0  0  0  0  0  0  0  0
  151.7304  135.8454  156.0360 C   0  0  0  0  0  0  0  0  0  0  0  0
  151.6962  137.2525  156.0672 C   0  0  0  0  0  0  0  0  0  0  0  0
  150.6465  137.9336  155.4200 C   0  0  0  0  0  0  0  0  0  0  0  0
  154.7097  140.2674  161.0721 H   0  0  0  0  0  0  0  0  0  0  0  0
  153.5766  141.2055  162.0383 H   0  0  0  0  0  0  0  0  0  0  0  0
  154.8477  142.0213  161.0947 H   0  0  0  0  0  0  0  0  0  0  0  0
  153.3524  143.6344  161.3509 H   0  0  0  0  0  0  0  0  0  0  0  0
  151.8536  145.5329  160.9452 H   0  0  0  0  0  0  0  0  0  0  0  0
  150.0937  145.3965  159.1960 H   0  0  0  0  0  0  0  0  0  0  0  0
  149.8346  143.3595  157.8512 H   0  0  0  0  0  0  0  0  0  0  0  0
  149.6107  140.3223  157.4086 H   0  0  0  0  0  0  0  0  0  0  0  0
  149.9920  141.9525  156.8490 H   0  0  0  0  0  0  0  0  0  0  0  0
  151.1929  141.1586  155.0732 H   0  0  0  0  0  0  0  0  0  0  0  0
  152.1092  140.0593  156.0483 H   0  0  0  0  0  0  0  0  0  0  0  0
  146.4920  139.6034  153.7153 H   0  0  0  0  0  0  0  0  0  0  0  0
  147.5346  139.7507  152.3048 H   0  0  0  0  0  0  0  0  0  0  0  0
  146.6868  141.1587  152.9332 H   0  0  0  0  0  0  0  0  0  0  0  0
  147.3072  140.6600  156.0101 H   0  0  0  0  0  0  0  0  0  0  0  0
  147.3894  142.1982  155.1604 H   0  0  0  0  0  0  0  0  0  0  0  0
  148.7967  141.5941  156.0274 H   0  0  0  0  0  0  0  0  0  0  0  0
  149.5570  141.0168  152.6397 H   0  0  0  0  0  0  0  0  0  0  0  0
  148.8874  135.2590  154.2239 H   0  0  0  0  0  0  0  0  0  0  0  0
  150.7441  134.0497  155.3491 H   0  0  0  0  0  0  0  0  0  0  0  0
  152.5355  135.3147  156.5227 H   0  0  0  0  0  0  0  0  0  0  0  0
  152.4751  137.8018  156.5749 H   0  0  0  0  0  0  0  0  0  0  0  0
  1  2  1  0  0  0  0
  1 25  1  0  0  0  0
  1 26  1  0  0  0  0
  1 27  1  0  0  0  0
  2  3  1  0  0  0  0
  3  8  1  0  0  0  0
  3  4  2  0  0  0  0
  4  5  1  0  0  0  0
  4 28  1  0  0  0  0
  5  6  2  0  0  0  0
  5 29  1  0  0  0  0
  6  7  1  0  0  0  0
  6 30  1  0  0  0  0
  7  8  2  0  0  0  0
  7 31  1  0  0  0  0
  8  9  1  0  0  0  0
  9 10  1  0  0  0  0
 10 11  1  0  0  0  0
 10 32  1  0  0  0  0
 10 33  1  0  0  0  0
 11 12  1  0  0  0  0
 11 34  1  0  0  0  0
 11 35  1  0  0  0  0
 12 24  1  0  0  0  0
 12 13  1  0  0  0  0
 13 14  1  0  0  0  0
 13 18  2  0  0  0  0
 14 15  1  0  0  0  0
 14 16  1  0  0  0  0
 14 17  1  0  0  0  0
 15 36  1  0  0  0  0
 15 37  1  0  0  0  0
 15 38  1  0  0  0  0
 16 39  1  0  0  0  0
 16 40  1  0  0  0  0
 16 41  1  0  0  0  0
 17 42  1  0  0  0  0
 18 19  1  0  0  0  0
 19 24  2  0  0  0  0
 19 20  1  0  0  0  0
 20 21  2  0  0  0  0
 20 43  1  0  0  0  0
 21 22  1  0  0  0  0
 21 44  1  0  0  0  0
 22 23  2  0  0  0  0
 22 45  1  0  0  0  0
 23 24  1  0  0  0  0
 23 46  1  0  0  0  0
M  END
> <s_m_source_file>
AV-unprocessed.smi

> <i_m_source_file_index>
462

> <i_lp_mmshare_version>
43012

> <i_f3d_flags>
0

> <s_epik_input>
W0NIM11PYzFbY0hdW2NIXVtjSF1bY0hdYzFPW0NIMl1bQ0gyXW4oYyhuMilDKFtDSDNdKShbQ0gzXSlbT0hdKWMoYzIzKVtjSF1bY0hdW2NIXVtjSF0z

> <s_epik_cmdline>
J2VwaWtfcHl0aG9uJywgJy1waCcsICc3LjAnLCAnLXRuJywgJzgnLCAnLW1hJywgJzIwMCcsICctbWV0YWxfYmluZGluZycsICctaW1hZScsICc8aW5maWxlLm1hZT4nLCAnLW9tYWUnLCAnPG91dGZpbGUubWFlPic=

> <r_lp_tautomer_probability>
1

> <r_epik_Ionization_Penalty>
0.0665975

> <r_epik_Ionization_Penalty_Charging>
0

> <r_epik_Ionization_Penalty_Neutral>
0.0665975

> <r_epik_State_Penalty>
0.0581545

> <r_epik_Charging_Adjusted_Penalty>
0.0581545

> <i_epik_Tot_Q>
0

> <i_epik_Tot_abs_Q>
0

> <r_epik_Metal_State_Penalty>
6.11011e-05

> <b_epik_Metal_Only>
0

> <s_lp_Force_Field>
OPLS_2005

> <r_lp_Energy>
19.5197

> <b_lp_Chiralities_Consistent>
1

> <s_lp_Variant>
AV-unprocessed.smi:462-1

> <Gold.Version>
5.8.1

> <Gold.Id.Protein>
6NUR|6NUR_protein|mol2

> <Gold.PLP.Fitness>
46.5945

> <Gold.PLP.PLP>
-44.3508

> <Gold.PLP.part.hbond>
-2.5666

> <Gold.PLP.part.metal>
0.0000

> <Gold.PLP.part.buried>
-6.4968

> <Gold.PLP.part.nonpolar>
-36.6166

> <Gold.PLP.part.repulsive>
0.1671

> <Gold.PLP.ligand.clash>
0.0000

> <Gold.PLP.ligand.torsion>
1.0755

> <Gold.PLP.Chemscore.Hbond>
1.4000

> <Gold.PLP.Chemscore.CHOScore>
0.0000

> <Gold.PLP.Chemscore.Metal>
0.0000

> <Gold.Chemscore.Hbonds>
donor molecule, donor type, donor heavy atom, donor atom, acceptor molecule, acceptor atom, score
      L1  H    17    42       P1  7957  1.00

> <Gold.PLP.Chemscore.Internal.Correction>
0.1948

> <Gold.Rescore>
     Score         DG    S(hbond)    S(metal)    S(lipo)     H(rot)  DE(clash)    DE(int)     intcor
     16.86     -18.05       1.00        0.00     128.23       2.25       0.07       1.12       ----

> <Gold.Chemscore.Fitness>
16.8583

> <Gold.Chemscore.DG>
-18.0465

> <Gold.Chemscore.ZeroCoef>
-5.4800

> <Gold.Chemscore.Hbond>
0.9981

> <Gold.Chemscore.Metal>
0.0000

> <Gold.Chemscore.Lipo>
128.2331

> <Gold.Chemscore.Internal_Hbond>
0.0000

> <Gold.Chemscore.DEClash>
0.0713

> <Gold.Chemscore.DEInternal>
1.1170

> <Gold.Chemscore.Rot>
2.2541

> <Gold.Chemscore.Internal.Correction>
   9.000000E+99

> <Gold.Chemscore.Hbonds>
donor molecule, donor type, donor heavy atom, donor atom, acceptor molecule, acceptor atom, score
      L1  H    17    42       P1  7957  0.99

> <Gold.Chemscore.Hbond.Weighted>
-3.3337

> <Gold.Chemscore.Metal.Weighted>
-0.0000

> <Gold.Chemscore.Lipo.Weighted>
-15.0033

> <Gold.Chemscore.Internal_Hbond.Weighted>
0.0000

> <Gold.Chemscore.DEClash.Weighted>
0.0713

> <Gold.Chemscore.DEInternal.Weighted>
1.1170

> <Gold.Chemscore.Rot.Weighted>
5.7705

> <Gold.Chemscore.Internal.Correction.Weighted>
   9.000000E+99

> <Gold.Protein.RotatedTorsions>
[ 6907 6896 6895 6894 ] final  164.63 input  -60.11 | X-H torsion
[ 7974 7965 7964 7962 ] final  119.53 input  175.53 | X-H torsion
[ 8008 7997 7996 7995 ] final  -94.63 input   59.86 | X-H torsion
[ 10167 10162 10161 10158 ] final  -49.24 input  -65.29 | X-H torsion
[ 10718 10713 10712 10709 ] final  118.14 input   66.30 | X-H torsion
[ 10763 10752 10751 10750 ] final -152.93 input  -60.55 | X-H torsion
[ 11005 11000 10999 10996 ] final  -67.08 input  -57.11 | X-H torsion

> <Gold.Protein.ActiveResidues>
 VAL166  LYS551  ARG553  GLY616  TRP617  ASP618  TYR619  PRO620  LYS621  CYS622 
 ASP623  PHE694  ASN695  SER759  ASP760  ASP761  ALA762  ILE779  LEU786  VAL792 
 PHE793  MET794  SER795  GLU796  ALA797  LYS798  CYS799  TRP800  GLU811  SER814 

> <Gold.Protein.RotatedAtoms>
  151.9068  133.3551  159.3849 H   0  0  0  0  0  0  0  0  0  0  0  0  # atno 6907 bound_to 6896
  150.7067  134.4772  159.5462 H   0  0  0  0  0  0  0  0  0  0  0  0  # atno 6908 bound_to 6896
  152.2371  134.8265  160.0516 H   0  0  0  0  0  0  0  0  0  0  0  0  # atno 6909 bound_to 6896
  145.1420  139.3262  143.4611 H   0  0  0  0  0  0  0  0  0  0  0  0  # atno 7974 bound_to 7965
  154.7509  140.0487  157.0892 H   0  0  0  0  0  0  0  0  0  0  0  0  # atno 8008 bound_to 7997
  155.0059  140.3130  155.4829 H   0  0  0  0  0  0  0  0  0  0  0  0  # atno 8009 bound_to 7997
  156.2885  140.2193  156.5171 H   0  0  0  0  0  0  0  0  0  0  0  0  # atno 8010 bound_to 7997
  140.6694  143.2706  151.4187 H   0  0  0  0  0  0  0  0  0  0  0  0  # atno 10167 bound_to 10162
  157.6050  131.1045  150.7714 H   0  0  0  0  0  0  0  0  0  0  0  0  # atno 10718 bound_to 10713
  154.7962  135.3224  154.7662 H   0  0  0  0  0  0  0  0  0  0  0  0  # atno 10763 bound_to 10752
  153.8340  135.6877  153.4815 H   0  0  0  0  0  0  0  0  0  0  0  0  # atno 10764 bound_to 10752
  153.1654  135.4644  154.9772 H   0  0  0  0  0  0  0  0  0  0  0  0  # atno 10765 bound_to 10752
  141.1499  133.6712  156.6238 H   0  0  0  0  0  0  0  0  0  0  0  0  # atno 11005 bound_to 11000
  146.3504  140.1461  142.8593 LP  0  0  0  0  0  0  0  0  0  0  0  0  # atno 17320 bound_to 7965
  145.0522  140.9026  143.4989 LP  0  0  0  0  0  0  0  0  0  0  0  0  # atno 17321 bound_to 7965
  139.5956  144.1405  152.2139 LP  0  0  0  0  0  0  0  0  0  0  0  0  # atno 17342 bound_to 10162
  140.0773  144.5730  150.7148 LP  0  0  0  0  0  0  0  0  0  0  0  0  # atno 17343 bound_to 10162
  156.8105  130.4951  149.5356 LP  0  0  0  0  0  0  0  0  0  0  0  0  # atno 17370 bound_to 10713
  156.1133  130.6057  151.0082 LP  0  0  0  0  0  0  0  0  0  0  0  0  # atno 17371 bound_to 10713
  140.3519  134.7761  157.4473 LP  0  0  0  0  0  0  0  0  0  0  0  0  # atno 17394 bound_to 11000
  140.0853  134.5674  155.8498 LP  0  0  0  0  0  0  0  0  0  0  0  0  # atno 17395 bound_to 11000

$$$$
