AV-unprocessed.smi:181|AV-procd|sdf|1453|dock3
  -GOLD-   2262019253D 1   1.00000     0.00000
 Structure written by MMmdl.
 50 53  0  0  0  0  0  0  0  0  1 V2000
  153.9817  140.9039  161.3302 C   0  0  0  0  0  0  0  0  0  0  0  0
  153.9831  141.2804  159.8438 C   0  0  0  0  0  0  0  0  0  0  0  0
  152.6256  141.4129  159.3166 N   0  0  0  0  0  0  0  0  0  0  0  0
  152.3910  140.6997  158.1912 C   0  0  0  0  0  0  0  0  0  0  0  0
  153.1518  139.6122  157.9054 N   0  0  0  0  0  0  0  0  0  0  0  0
  152.9142  138.9064  156.7956 C   0  0  0  0  0  0  0  0  0  0  0  0
  151.9822  139.1083  155.8608 N   0  0  0  0  0  0  0  0  0  0  0  0
  151.2107  140.1941  156.1559 C   0  0  0  0  0  0  0  0  0  0  0  0
  151.3453  141.0368  157.2934 C   0  0  0  0  0  0  0  0  0  0  0  0
  150.3863  142.0407  157.2630 N   0  0  0  0  0  0  0  0  0  0  0  0
  149.7183  141.8033  156.1666 C   0  0  0  0  0  0  0  0  0  0  0  0
  150.1439  140.7116  155.4427 N   0  0  0  0  0  0  0  0  0  0  0  0
  149.5842  140.2225  154.1924 C   0  0  0  0  0  0  0  0  0  0  0  0
  148.7631  138.9179  154.3405 C   0  0  0  0  0  0  0  0  0  0  0  0
  148.2645  138.5771  153.0581 O   0  0  0  0  0  0  0  0  0  0  0  0
  149.6654  137.7686  154.8324 C   0  0  0  0  0  0  0  0  0  0  0  0
  148.8613  136.4972  155.1570 C   0  0  0  0  0  0  0  0  0  0  0  0
  147.8424  136.7947  156.1037 O   0  0  0  0  0  0  0  0  0  0  0  0
  146.8872  137.7254  155.6089 C   0  0  0  0  0  0  0  0  0  0  0  0
  147.5664  139.0725  155.3051 C   0  0  0  0  0  0  0  0  0  0  0  0
  151.8560  142.6418  159.5723 C   0  0  2  0  0  0  0  0  0  0  0  0
  152.3349  143.8653  158.7637 C   0  0  0  0  0  0  0  0  0  0  0  0
  152.0256  145.0686  159.6663 C   0  0  0  0  0  0  0  0  0  0  0  0
  151.9409  144.5036  161.0003 N   0  0  0  0  0  0  0  0  0  0  0  0
  151.8689  143.1728  161.0048 C   0  0  0  0  0  0  0  0  0  0  0  0
  151.7986  142.4634  162.0062 O   0  0  0  0  0  0  0  0  0  0  0  0
  155.0007  140.7932  161.7011 H   0  0  0  0  0  0  0  0  0  0  0  0
  153.4642  139.9580  161.4928 H   0  0  0  0  0  0  0  0  0  0  0  0
  153.4906  141.6634  161.9383 H   0  0  0  0  0  0  0  0  0  0  0  0
  154.5197  142.2191  159.7066 H   0  0  0  0  0  0  0  0  0  0  0  0
  154.5478  140.5273  159.2902 H   0  0  0  0  0  0  0  0  0  0  0  0
  153.5626  138.0579  156.6347 H   0  0  0  0  0  0  0  0  0  0  0  0
  148.8872  142.4194  155.8547 H   0  0  0  0  0  0  0  0  0  0  0  0
  148.9678  141.0131  153.7617 H   0  0  0  0  0  0  0  0  0  0  0  0
  150.4071  140.0676  153.4934 H   0  0  0  0  0  0  0  0  0  0  0  0
  148.8599  137.9616  152.6587 H   0  0  0  0  0  0  0  0  0  0  0  0
  150.4380  137.5453  154.0955 H   0  0  0  0  0  0  0  0  0  0  0  0
  150.1891  138.0833  155.7362 H   0  0  0  0  0  0  0  0  0  0  0  0
  148.4224  136.0668  154.2555 H   0  0  0  0  0  0  0  0  0  0  0  0
  149.5203  135.7385  155.5790 H   0  0  0  0  0  0  0  0  0  0  0  0
  146.3964  137.3231  154.7214 H   0  0  0  0  0  0  0  0  0  0  0  0
  146.1110  137.8629  156.3619 H   0  0  0  0  0  0  0  0  0  0  0  0
  147.9160  139.5027  156.2445 H   0  0  0  0  0  0  0  0  0  0  0  0
  146.8300  139.7698  154.9039 H   0  0  0  0  0  0  0  0  0  0  0  0
  150.8107  142.4534  159.3260 H   0  0  0  0  0  0  0  0  0  0  0  0
  153.4083  143.8438  158.5747 H   0  0  0  0  0  0  0  0  0  0  0  0
  151.8386  143.9385  157.7954 H   0  0  0  0  0  0  0  0  0  0  0  0
  152.7972  145.8366  159.6072 H   0  0  0  0  0  0  0  0  0  0  0  0
  151.0672  145.5201  159.4073 H   0  0  0  0  0  0  0  0  0  0  0  0
  151.9571  145.0722  161.8345 H   0  0  0  0  0  0  0  0  0  0  0  0
  1  2  1  0  0  0  0
  1 27  1  0  0  0  0
  1 28  1  0  0  0  0
  1 29  1  0  0  0  0
  2  3  1  0  0  0  0
  2 30  1  0  0  0  0
  2 31  1  0  0  0  0
  3  4  1  0  0  0  0
  3 21  1  0  0  0  0
  4  9  1  0  0  0  0
  4  5  2  0  0  0  0
  5  6  1  0  0  0  0
  6  7  2  0  0  0  0
  6 32  1  0  0  0  0
  7  8  1  0  0  0  0
  8 12  1  0  0  0  0
  8  9  2  0  0  0  0
  9 10  1  0  0  0  0
 10 11  2  0  0  0  0
 11 12  1  0  0  0  0
 11 33  1  0  0  0  0
 12 13  1  0  0  0  0
 13 14  1  0  0  0  0
 13 34  1  0  0  0  0
 13 35  1  0  0  0  0
 14 20  1  0  0  0  0
 14 15  1  0  0  0  0
 14 16  1  0  0  0  0
 15 36  1  0  0  0  0
 16 17  1  0  0  0  0
 16 37  1  0  0  0  0
 16 38  1  0  0  0  0
 17 18  1  0  0  0  0
 17 39  1  0  0  0  0
 17 40  1  0  0  0  0
 18 19  1  0  0  0  0
 19 20  1  0  0  0  0
 19 41  1  0  0  0  0
 19 42  1  0  0  0  0
 20 43  1  0  0  0  0
 20 44  1  0  0  0  0
 21 25  1  0  0  0  0
 21 22  1  0  0  0  0
 21 45  1  0  0  0  0
 22 23  1  0  0  0  0
 22 46  1  0  0  0  0
 22 47  1  0  0  0  0
 23 24  1  0  0  0  0
 23 48  1  0  0  0  0
 23 49  1  0  0  0  0
 24 25  1  0  0  0  0
 24 50  1  0  0  0  0
 25 26  2  0  0  0  0
M  END
> <s_m_source_file>
AV-unprocessed.smi

> <i_m_source_file_index>
181

> <i_lp_mmshare_version>
43012

> <i_f3d_flags>
0

> <s_epik_input>
Tz1DMVtOSF1bQ0gyXVtDSDJdW0NASF0xTihbQ0gyXVtDSDNdKWMobltjSF1uMiljKGMyMyluW2NIXW4zW0NIMl1DNChbT0hdKVtDSDJdW0NIMl1PW0NIMl1bQ0gyXTQ=

> <s_epik_cmdline>
J2VwaWtfcHl0aG9uJywgJy1waCcsICc3LjAnLCAnLXRuJywgJzgnLCAnLW1hJywgJzIwMCcsICctbWV0YWxfYmluZGluZycsICctaW1hZScsICc8aW5maWxlLm1hZT4nLCAnLW9tYWUnLCAnPG91dGZpbGUubWFlPic=

> <r_lp_tautomer_probability>
1

> <r_epik_Ionization_Penalty>
0.000985257

> <r_epik_Ionization_Penalty_Charging>
0

> <r_epik_Ionization_Penalty_Neutral>
0.000985257

> <r_epik_State_Penalty>
0.000517047

> <r_epik_Charging_Adjusted_Penalty>
0.000517047

> <i_epik_Tot_Q>
0

> <i_epik_Tot_abs_Q>
0

> <r_epik_Metal_State_Penalty>
-0

> <b_epik_Metal_Only>
0

> <s_lp_Force_Field>
OPLS_2005

> <r_lp_Energy>
35.7055

> <b_lp_Chiralities_Consistent>
1

> <s_lp_Variant>
AV-unprocessed.smi:181-1

> <Gold.Version>
5.8.1

> <Gold.Id.Protein>
6NUR|6NUR_protein|mol2

> <Gold.PLP.Fitness>
50.9794

> <Gold.PLP.PLP>
-43.1152

> <Gold.PLP.part.hbond>
-4.0000

> <Gold.PLP.part.metal>
0.0000

> <Gold.PLP.part.buried>
-0.8569

> <Gold.PLP.part.nonpolar>
-38.5818

> <Gold.PLP.part.repulsive>
0.3561

> <Gold.PLP.ligand.clash>
0.0000

> <Gold.PLP.ligand.torsion>
0.8374

> <Gold.PLP.Chemscore.Hbond>
1.7717

> <Gold.PLP.Chemscore.CHOScore>
0.9870

> <Gold.PLP.Chemscore.Metal>
0.0000

> <Gold.Chemscore.Hbonds>
donor molecule, donor type, donor heavy atom, donor atom, acceptor molecule, acceptor atom, score
      L1  H    15    36       P1  7948  0.88
      P1  H  6933  6945       L1    26  0.90
      L1  C    11    33       P1  8028  0.94

> <Gold.PLP.Chemscore.Internal.Correction>
1.2632

> <Gold.Rescore>
     Score         DG    S(hbond)    S(metal)    S(lipo)     H(rot)  DE(clash)    DE(int)     intcor
      8.94     -13.43       1.55        0.00      78.35       2.49       0.31       4.18       ----

> <Gold.Chemscore.Fitness>
8.9436

> <Gold.Chemscore.DG>
-13.4341

> <Gold.Chemscore.ZeroCoef>
-5.4800

> <Gold.Chemscore.Hbond>
1.5453

> <Gold.Chemscore.Metal>
0.0000

> <Gold.Chemscore.Lipo>
78.3460

> <Gold.Chemscore.Internal_Hbond>
0.0000

> <Gold.Chemscore.DEClash>
0.3084

> <Gold.Chemscore.DEInternal>
4.1822

> <Gold.Chemscore.Rot>
2.4897

> <Gold.Chemscore.Internal.Correction>
   9.000000E+99

> <Gold.Chemscore.Hbonds>
donor molecule, donor type, donor heavy atom, donor atom, acceptor molecule, acceptor atom, score
      L1  H    15    36       P1  7948  0.86
      P1  H  6933  6945       L1    26  0.69

> <Gold.Chemscore.Hbond.Weighted>
-5.1612

> <Gold.Chemscore.Metal.Weighted>
-0.0000

> <Gold.Chemscore.Lipo.Weighted>
-9.1665

> <Gold.Chemscore.Internal_Hbond.Weighted>
0.0000

> <Gold.Chemscore.DEClash.Weighted>
0.3084

> <Gold.Chemscore.DEInternal.Weighted>
4.1822

> <Gold.Chemscore.Rot.Weighted>
6.3735

> <Gold.Chemscore.Internal.Correction.Weighted>
   9.000000E+99

> <Gold.Protein.RotatedTorsions>
[ 6907 6896 6895 6894 ] final  128.67 input  -60.11 | X-H torsion
[ 7974 7965 7964 7962 ] final -113.84 input  175.53 | X-H torsion
[ 8008 7997 7996 7995 ] final  -21.76 input   59.86 | X-H torsion
[ 10167 10162 10161 10158 ] final  -27.43 input  -65.29 | X-H torsion
[ 10718 10713 10712 10709 ] final -166.16 input   66.30 | X-H torsion
[ 10763 10752 10751 10750 ] final  176.80 input  -60.55 | X-H torsion
[ 11005 11000 10999 10996 ] final -177.38 input  -57.11 | X-H torsion

> <Gold.Protein.ActiveResidues>
 VAL166  LYS551  ARG553  GLY616  TRP617  ASP618  TYR619  PRO620  LYS621  CYS622 
 ASP623  PHE694  ASN695  SER759  ASP760  ASP761  ALA762  ILE779  LEU786  VAL792 
 PHE793  MET794  SER795  GLU796  ALA797  LYS798  CYS799  TRP800  GLU811  SER814 

> <Gold.Protein.RotatedAtoms>
  152.3697  133.6403  159.6077 H   0  0  0  0  0  0  0  0  0  0  0  0  # atno 6907 bound_to 6896
  150.7660  133.9290  159.3430 H   0  0  0  0  0  0  0  0  0  0  0  0  # atno 6908 bound_to 6896
  151.7115  135.0913  160.0319 H   0  0  0  0  0  0  0  0  0  0  0  0  # atno 6909 bound_to 6896
  145.1272  140.8703  143.3779 H   0  0  0  0  0  0  0  0  0  0  0  0  # atno 7974 bound_to 7965
  154.4685  140.2026  156.0054 H   0  0  0  0  0  0  0  0  0  0  0  0  # atno 8008 bound_to 7997
  156.0970  140.3249  155.7862 H   0  0  0  0  0  0  0  0  0  0  0  0  # atno 8009 bound_to 7997
  155.4861  140.0542  157.2951 H   0  0  0  0  0  0  0  0  0  0  0  0  # atno 8010 bound_to 7997
  140.7277  143.4093  151.1132 H   0  0  0  0  0  0  0  0  0  0  0  0  # atno 10167 bound_to 10162
  156.6639  130.9057  151.3033 H   0  0  0  0  0  0  0  0  0  0  0  0  # atno 10718 bound_to 10713
  154.4860  135.2777  155.1534 H   0  0  0  0  0  0  0  0  0  0  0  0  # atno 10763 bound_to 10752
  154.3225  135.6207  153.5518 H   0  0  0  0  0  0  0  0  0  0  0  0  # atno 10764 bound_to 10752
  152.9881  135.5746  154.5271 H   0  0  0  0  0  0  0  0  0  0  0  0  # atno 10765 bound_to 10752
  140.4416  134.6426  157.4760 H   0  0  0  0  0  0  0  0  0  0  0  0  # atno 11005 bound_to 11000
  145.0675  139.3057  143.5849 LP  0  0  0  0  0  0  0  0  0  0  0  0  # atno 17320 bound_to 7965
  146.3517  140.0138  142.8664 LP  0  0  0  0  0  0  0  0  0  0  0  0  # atno 17321 bound_to 7965
  139.7725  143.8474  152.3123 LP  0  0  0  0  0  0  0  0  0  0  0  0  # atno 17342 bound_to 10162
  139.8397  144.7216  150.9346 LP  0  0  0  0  0  0  0  0  0  0  0  0  # atno 17343 bound_to 10162
  157.7100  130.9429  150.1058 LP  0  0  0  0  0  0  0  0  0  0  0  0  # atno 17370 bound_to 10713
  156.1990  130.3659  149.8812 LP  0  0  0  0  0  0  0  0  0  0  0  0  # atno 17371 bound_to 10713
  140.0066  134.6754  155.9445 LP  0  0  0  0  0  0  0  0  0  0  0  0  # atno 17394 bound_to 11000
  141.1703  133.6537  156.4627 LP  0  0  0  0  0  0  0  0  0  0  0  0  # atno 17395 bound_to 11000

$$$$
