AV-unprocessed.smi:281|AV-procd|sdf|2104|dock2
  -GOLD-   2262021393D 1   1.00000     0.00000
 Structure written by MMmdl.
 55 59  0  0  0  0  0  0  0  0  1 V2000
  144.4123  132.8445  159.9879 C   0  0  0  0  0  0  0  0  0  0  0  0
  145.3751  134.0355  159.9653 C   0  0  1  0  0  0  0  0  0  0  0  0
  145.2035  134.8966  158.7047 C   0  0  0  0  0  0  0  0  0  0  0  0
  146.0895  136.0465  158.7849 N   0  0  0  0  0  0  0  0  0  0  0  0
  146.1619  136.7683  157.6478 C   0  0  0  0  0  0  0  0  0  0  0  0
  145.4588  136.3116  156.5834 N   0  0  0  0  0  0  0  0  0  0  0  0
  145.4976  136.9758  155.4242 C   0  0  0  0  0  0  0  0  0  0  0  0
  146.1657  138.0916  155.1225 N   0  0  0  0  0  0  0  0  0  0  0  0
  146.8750  138.5513  156.1935 C   0  0  0  0  0  0  0  0  0  0  0  0
  146.9247  137.9592  157.4866 C   0  0  0  0  0  0  0  0  0  0  0  0
  147.7422  138.7111  158.3217 N   0  0  0  0  0  0  0  0  0  0  0  0
  148.1558  139.6897  157.5639 C   0  0  0  0  0  0  0  0  0  0  0  0
  147.6938  139.6646  156.2669 N   0  0  0  0  0  0  0  0  0  0  0  0
  148.0040  140.6153  155.2104 C   0  0  0  0  0  0  0  0  0  0  0  0
  149.4027  140.4021  154.5852 C   0  0  2  0  0  0  0  0  0  0  0  0
  149.4578  141.0625  153.3327 O   0  0  0  0  0  0  0  0  0  0  0  0
  149.7737  138.9353  154.3761 C   0  0  0  0  0  0  0  0  0  0  0  0
  151.2775  138.9243  154.6111 C   0  0  0  0  0  0  0  0  0  0  0  0
  151.4242  139.8319  155.6892 O   0  0  0  0  0  0  0  0  0  0  0  0
  150.5509  140.9337  155.4665 C   0  0  0  0  0  0  0  0  0  0  0  0
  145.8529  136.8492  159.9760 C   0  0  0  0  0  0  0  0  0  0  0  0
  145.9589  135.9857  161.2579 C   0  0  2  0  0  0  0  0  0  0  0  0
  145.4943  136.7774  162.4693 C   0  0  0  0  0  0  0  0  0  0  0  0
  146.7327  137.5854  162.8392 C   0  0  0  0  0  0  0  0  0  0  0  0
  147.8438  136.7846  162.4498 O   0  0  0  0  0  0  0  0  0  0  0  0
  147.4192  135.6737  161.6600 C   0  0  1  0  0  0  0  0  0  0  0  0
  147.5976  134.4310  162.5532 C   0  0  0  0  0  0  0  0  0  0  0  0
  145.1231  134.8304  161.1263 O   0  0  0  0  0  0  0  0  0  0  0  0
  144.5704  132.1950  159.1267 H   0  0  0  0  0  0  0  0  0  0  0  0
  143.3736  133.1765  159.9725 H   0  0  0  0  0  0  0  0  0  0  0  0
  144.5573  132.2454  160.8872 H   0  0  0  0  0  0  0  0  0  0  0  0
  146.3955  133.6534  159.9929 H   0  0  0  0  0  0  0  0  0  0  0  0
  145.4357  134.3107  157.8141 H   0  0  0  0  0  0  0  0  0  0  0  0
  144.1684  135.2286  158.6152 H   0  0  0  0  0  0  0  0  0  0  0  0
  144.9118  136.5510  154.6226 H   0  0  0  0  0  0  0  0  0  0  0  0
  148.8198  140.4582  157.9321 H   0  0  0  0  0  0  0  0  0  0  0  0
  147.2315  140.5443  154.4434 H   0  0  0  0  0  0  0  0  0  0  0  0
  147.9287  141.6208  155.6270 H   0  0  0  0  0  0  0  0  0  0  0  0
  149.3407  140.4206  152.6492 H   0  0  0  0  0  0  0  0  0  0  0  0
  149.3003  138.3139  155.1371 H   0  0  0  0  0  0  0  0  0  0  0  0
  149.4871  138.5409  153.4001 H   0  0  0  0  0  0  0  0  0  0  0  0
  151.6593  137.9344  154.8620 H   0  0  0  0  0  0  0  0  0  0  0  0
  151.8160  139.2948  153.7375 H   0  0  0  0  0  0  0  0  0  0  0  0
  151.1039  141.7376  154.9776 H   0  0  0  0  0  0  0  0  0  0  0  0
  150.1999  141.3170  156.4252 H   0  0  0  0  0  0  0  0  0  0  0  0
  146.5625  137.6771  160.0084 H   0  0  0  0  0  0  0  0  0  0  0  0
  144.8562  137.2877  159.9145 H   0  0  0  0  0  0  0  0  0  0  0  0
  144.6203  137.4005  162.2772 H   0  0  0  0  0  0  0  0  0  0  0  0
  145.2411  136.1016  163.2872 H   0  0  0  0  0  0  0  0  0  0  0  0
  146.7623  138.5215  162.2803 H   0  0  0  0  0  0  0  0  0  0  0  0
  146.7686  137.8260  163.9019 H   0  0  0  0  0  0  0  0  0  0  0  0
  148.0605  135.5759  160.7834 H   0  0  0  0  0  0  0  0  0  0  0  0
  147.3210  133.5124  162.0385 H   0  0  0  0  0  0  0  0  0  0  0  0
  146.9959  134.4939  163.4597 H   0  0  0  0  0  0  0  0  0  0  0  0
  148.6389  134.3260  162.8587 H   0  0  0  0  0  0  0  0  0  0  0  0
  1  2  1  0  0  0  0
  1 29  1  0  0  0  0
  1 30  1  0  0  0  0
  1 31  1  0  0  0  0
  2 28  1  0  0  0  0
  2  3  1  0  0  0  0
  2 32  1  0  0  0  0
  3  4  1  0  0  0  0
  3 33  1  0  0  0  0
  3 34  1  0  0  0  0
  4  5  1  0  0  0  0
  4 21  1  0  0  0  0
  5 10  1  0  0  0  0
  5  6  2  0  0  0  0
  6  7  1  0  0  0  0
  7  8  2  0  0  0  0
  7 35  1  0  0  0  0
  8  9  1  0  0  0  0
  9 13  1  0  0  0  0
  9 10  2  0  0  0  0
 10 11  1  0  0  0  0
 11 12  2  0  0  0  0
 12 13  1  0  0  0  0
 12 36  1  0  0  0  0
 13 14  1  0  0  0  0
 14 15  1  0  0  0  0
 14 37  1  0  0  0  0
 14 38  1  0  0  0  0
 15 20  1  0  0  0  0
 15 16  1  0  0  0  0
 15 17  1  0  0  0  0
 16 39  1  0  0  0  0
 17 18  1  0  0  0  0
 17 40  1  0  0  0  0
 17 41  1  0  0  0  0
 18 19  1  0  0  0  0
 18 42  1  0  0  0  0
 18 43  1  0  0  0  0
 19 20  1  0  0  0  0
 20 44  1  0  0  0  0
 20 45  1  0  0  0  0
 21 22  1  0  0  0  0
 21 46  1  0  0  0  0
 21 47  1  0  0  0  0
 22 26  1  0  0  0  0
 22 23  1  0  0  0  0
 22 28  1  0  0  0  0
 23 24  1  0  0  0  0
 23 48  1  0  0  0  0
 23 49  1  0  0  0  0
 24 25  1  0  0  0  0
 24 50  1  0  0  0  0
 24 51  1  0  0  0  0
 25 26  1  0  0  0  0
 26 27  1  0  0  0  0
 26 52  1  0  0  0  0
 27 53  1  0  0  0  0
 27 54  1  0  0  0  0
 27 55  1  0  0  0  0
M  END
> <s_m_source_file>
AV-unprocessed.smi

> <i_m_source_file_index>
281

> <i_lp_mmshare_version>
43012

> <i_f3d_flags>
0

> <s_epik_input>
W0NIM11bQ0BASF0xT1tDSDJdW0NIMl1bQ0BAXTEyW0NIMl1OKFtDSDJdW0NASF0oTzIpW0NIM10pYyhuW2NIXW4zKWMoYzM0KW5bY0hdbjRbQ0gyXVtDQEBdNShbT0hdKVtDSDJdW0NIMl1PW0NIMl01

> <s_epik_cmdline>
J2VwaWtfcHl0aG9uJywgJy1waCcsICc3LjAnLCAnLXRuJywgJzgnLCAnLW1hJywgJzIwMCcsICctbWV0YWxfYmluZGluZycsICctaW1hZScsICc8aW5maWxlLm1hZT4nLCAnLW9tYWUnLCAnPG91dGZpbGUubWFlPic=

> <r_lp_tautomer_probability>
1

> <r_epik_Ionization_Penalty>
0.00571331

> <r_epik_Ionization_Penalty_Charging>
0

> <r_epik_Ionization_Penalty_Neutral>
0.00571331

> <r_epik_State_Penalty>
0.00399586

> <r_epik_Charging_Adjusted_Penalty>
0.00399586

> <i_epik_Tot_Q>
0

> <i_epik_Tot_abs_Q>
0

> <r_epik_Metal_State_Penalty>
-0

> <b_epik_Metal_Only>
0

> <s_lp_Force_Field>
OPLS_2005

> <r_lp_Energy>
57.1517

> <b_lp_Chiralities_Consistent>
1

> <s_lp_Variant>
AV-unprocessed.smi:281-4

> <Gold.Version>
5.8.1

> <Gold.Id.Protein>
6NUR|6NUR_protein|mol2

> <Gold.PLP.Fitness>
39.4564

> <Gold.PLP.PLP>
-31.8336

> <Gold.PLP.part.hbond>
-4.5270

> <Gold.PLP.part.metal>
0.0000

> <Gold.PLP.part.buried>
-3.1720

> <Gold.PLP.part.nonpolar>
-23.4333

> <Gold.PLP.part.repulsive>
0.0507

> <Gold.PLP.ligand.clash>
0.0000

> <Gold.PLP.ligand.torsion>
0.6313

> <Gold.PLP.Chemscore.Hbond>
2.9201

> <Gold.PLP.Chemscore.CHOScore>
0.0000

> <Gold.PLP.Chemscore.Metal>
0.0000

> <Gold.Chemscore.Hbonds>
donor molecule, donor type, donor heavy atom, donor atom, acceptor molecule, acceptor atom, score
      L1  H    16    39       P1  7957  0.91
      P1  H  6931  6943       L1    25  0.85
      P1  H  7989  7998       L1    16  0.04
      P1  H  8011  8017       L1    16  0.90

> <Gold.PLP.Chemscore.Internal.Correction>
0.1252

> <Gold.Rescore>
     Score         DG    S(hbond)    S(metal)    S(lipo)     H(rot)  DE(clash)    DE(int)     intcor
     15.13     -16.11       2.04        0.00      78.55       2.09       0.30       0.68       ----

> <Gold.Chemscore.Fitness>
15.1344

> <Gold.Chemscore.DG>
-16.1133

> <Gold.Chemscore.ZeroCoef>
-5.4800

> <Gold.Chemscore.Hbond>
2.0359

> <Gold.Chemscore.Metal>
0.0000

> <Gold.Chemscore.Lipo>
78.5546

> <Gold.Chemscore.Internal_Hbond>
0.0000

> <Gold.Chemscore.DEClash>
0.2952

> <Gold.Chemscore.DEInternal>
0.6837

> <Gold.Chemscore.Rot>
2.0927

> <Gold.Chemscore.Internal.Correction>
   9.000000E+99

> <Gold.Chemscore.Hbonds>
donor molecule, donor type, donor heavy atom, donor atom, acceptor molecule, acceptor atom, score
      L1  H    16    39       P1  7957  0.86
      P1  H  6931  6943       L1    25  0.14
      P1  H  8011  8017       L1    16  0.18

> <Gold.Chemscore.Hbond.Weighted>
-6.7997

> <Gold.Chemscore.Metal.Weighted>
-0.0000

> <Gold.Chemscore.Lipo.Weighted>
-9.1909

> <Gold.Chemscore.Internal_Hbond.Weighted>
0.0000

> <Gold.Chemscore.DEClash.Weighted>
0.2952

> <Gold.Chemscore.DEInternal.Weighted>
0.6837

> <Gold.Chemscore.Rot.Weighted>
5.3573

> <Gold.Chemscore.Internal.Correction.Weighted>
   9.000000E+99

> <Gold.Protein.RotatedTorsions>
[ 6907 6896 6895 6894 ] final  -87.66 input  -60.11 | X-H torsion
[ 7974 7965 7964 7962 ] final  -38.41 input  175.53 | X-H torsion
[ 8008 7997 7996 7995 ] final -146.50 input   59.86 | X-H torsion
[ 10167 10162 10161 10158 ] final  -23.01 input  -65.29 | X-H torsion
[ 10718 10713 10712 10709 ] final   52.20 input   66.30 | X-H torsion
[ 10763 10752 10751 10750 ] final -107.89 input  -60.55 | X-H torsion
[ 11005 11000 10999 10996 ] final   90.42 input  -57.11 | X-H torsion

> <Gold.Protein.ActiveResidues>
 VAL166  LYS551  ARG553  GLY616  TRP617  ASP618  TYR619  PRO620  LYS621  CYS622 
 ASP623  PHE694  ASN695  SER759  ASP760  ASP761  ALA762  ILE779  LEU786  VAL792 
 PHE793  MET794  SER795  GLU796  ALA797  LYS798  CYS799  TRP800  GLU811  SER814 

> <Gold.Protein.RotatedAtoms>
  150.6867  134.2861  159.4647 H   0  0  0  0  0  0  0  0  0  0  0  0  # atno 6907 bound_to 6896
  152.0771  134.9493  160.0583 H   0  0  0  0  0  0  0  0  0  0  0  0  # atno 6908 bound_to 6896
  152.0860  133.4142  159.4559 H   0  0  0  0  0  0  0  0  0  0  0  0  # atno 6909 bound_to 6896
  146.0488  140.6509  142.9052 H   0  0  0  0  0  0  0  0  0  0  0  0  # atno 7974 bound_to 7965
  155.5605  140.0625  157.2830 H   0  0  0  0  0  0  0  0  0  0  0  0  # atno 8008 bound_to 7997
  154.4392  140.1886  156.0823 H   0  0  0  0  0  0  0  0  0  0  0  0  # atno 8009 bound_to 7997
  156.0450  140.3291  155.7290 H   0  0  0  0  0  0  0  0  0  0  0  0  # atno 8010 bound_to 7997
  140.7287  143.4482  151.0555 H   0  0  0  0  0  0  0  0  0  0  0  0  # atno 10167 bound_to 10162
  157.5052  130.8464  149.8366 H   0  0  0  0  0  0  0  0  0  0  0  0  # atno 10718 bound_to 10713
  154.8103  135.4658  154.0498 H   0  0  0  0  0  0  0  0  0  0  0  0  # atno 10763 bound_to 10752
  153.1935  135.6858  153.8329 H   0  0  0  0  0  0  0  0  0  0  0  0  # atno 10764 bound_to 10752
  153.7839  135.3252  155.3347 H   0  0  0  0  0  0  0  0  0  0  0  0  # atno 10765 bound_to 10752
  139.8856  134.8613  156.3283 H   0  0  0  0  0  0  0  0  0  0  0  0  # atno 11005 bound_to 11000
  144.7112  140.4044  143.7079 LP  0  0  0  0  0  0  0  0  0  0  0  0  # atno 17320 bound_to 7965
  145.6759  139.1608  143.2728 LP  0  0  0  0  0  0  0  0  0  0  0  0  # atno 17321 bound_to 7965
  139.8156  143.7891  152.3174 LP  0  0  0  0  0  0  0  0  0  0  0  0  # atno 17342 bound_to 10162
  139.7956  144.7394  150.9895 LP  0  0  0  0  0  0  0  0  0  0  0  0  # atno 17343 bound_to 10162
  156.0254  130.3781  150.1839 LP  0  0  0  0  0  0  0  0  0  0  0  0  # atno 17370 bound_to 10713
  157.0029  130.9927  151.3386 LP  0  0  0  0  0  0  0  0  0  0  0  0  # atno 17371 bound_to 10713
  140.9740  133.7309  156.0576 LP  0  0  0  0  0  0  0  0  0  0  0  0  # atno 17394 bound_to 11000
  140.7834  134.3699  157.5482 LP  0  0  0  0  0  0  0  0  0  0  0  0  # atno 17395 bound_to 11000

$$$$
