AV-unprocessed.smi:54|AV-procd|sdf|535|dock6
  -GOLD-   2262016413D 1   1.00000     0.00000
 Structure written by MMmdl.
 44 46  0  0  0  0  0  0  0  0  1 V2000
  151.8933  145.5849  159.5031 C   0  0  0  0  0  0  0  0  0  0  0  0
  151.5004  144.2642  160.1848 C   0  0  0  0  0  0  0  0  0  0  0  0
  152.2026  144.1057  161.5431 C   0  0  0  0  0  0  0  0  0  0  0  0
  151.8148  143.0739  159.2725 C   0  0  0  0  0  0  0  0  0  0  0  0
  152.8446  142.4096  159.3921 O   0  0  0  0  0  0  0  0  0  0  0  0
  150.8149  142.7697  158.2685 N   0  0  0  0  0  0  0  0  0  0  0  0
  150.8939  141.7836  157.3491 C   0  0  0  0  0  0  0  0  0  0  0  0
  150.0364  141.6849  156.3442 N   0  0  0  0  0  0  0  0  0  0  0  0
  150.2465  140.6216  155.5081 C   0  0  0  0  0  0  0  0  0  0  0  0
  151.2483  139.6785  155.6376 C   0  0  0  0  0  0  0  0  0  0  0  0
  151.1752  138.7507  154.6078 N   0  0  0  0  0  0  0  0  0  0  0  0
  150.1532  139.1445  153.9041 C   0  0  0  0  0  0  0  0  0  0  0  0
  149.5109  140.2593  154.3885 N   0  0  0  0  0  0  0  0  0  0  0  0
  148.3111  140.9224  153.7666 C   0  0  2  0  0  0  0  0  0  0  0  0
  147.9075  141.9771  154.5808 O   0  0  0  0  0  0  0  0  0  0  0  0
  146.8336  141.5683  155.4160 C   0  0  1  0  0  0  0  0  0  0  0  0
  145.9998  142.7913  155.8272 C   0  0  0  0  0  0  0  0  0  0  0  0
  145.4961  143.4452  154.6821 O   0  0  0  0  0  0  0  0  0  0  0  0
  146.0581  140.5769  154.5340 C   0  0  2  0  0  0  0  0  0  0  0  0
  145.4657  139.5706  155.3297 O   0  0  0  0  0  0  0  0  0  0  0  0
  147.1097  139.9772  153.5969 C   0  0  1  0  0  0  0  0  0  0  0  0
  146.6344  139.9902  152.2657 O   0  0  0  0  0  0  0  0  0  0  0  0
  152.1714  139.7612  156.7332 C   0  0  0  0  0  0  0  0  0  0  0  0
  153.1044  139.0071  157.0015 O   0  0  0  0  0  0  0  0  0  0  0  0
  151.9150  140.8607  157.5596 N   0  0  0  0  0  0  0  0  0  0  0  0
  148.6908  141.3098  152.8200 H   0  0  0  0  0  0  0  0  0  0  0  0
  147.2333  141.0717  156.2990 H   0  0  0  0  0  0  0  0  0  0  0  0
  145.2868  141.1011  153.9670 H   0  0  0  0  0  0  0  0  0  0  0  0
  147.3838  138.9541  153.8537 H   0  0  0  0  0  0  0  0  0  0  0  0
  151.4086  145.6906  158.5317 H   0  0  0  0  0  0  0  0  0  0  0  0
  152.9708  145.6505  159.3457 H   0  0  0  0  0  0  0  0  0  0  0  0
  151.5966  146.4400  160.1108 H   0  0  0  0  0  0  0  0  0  0  0  0
  150.4237  144.2831  160.3599 H   0  0  0  0  0  0  0  0  0  0  0  0
  151.9284  143.1666  162.0250 H   0  0  0  0  0  0  0  0  0  0  0  0
  151.9246  144.9131  162.2209 H   0  0  0  0  0  0  0  0  0  0  0  0
  153.2883  144.1220  161.4383 H   0  0  0  0  0  0  0  0  0  0  0  0
  149.9564  143.2990  158.3099 H   0  0  0  0  0  0  0  0  0  0  0  0
  149.8334  138.6231  153.0134 H   0  0  0  0  0  0  0  0  0  0  0  0
  145.1853  142.5112  156.4959 H   0  0  0  0  0  0  0  0  0  0  0  0
  146.6263  143.5071  156.3604 H   0  0  0  0  0  0  0  0  0  0  0  0
  145.1441  144.2820  154.9442 H   0  0  0  0  0  0  0  0  0  0  0  0
  144.5649  139.4688  155.0599 H   0  0  0  0  0  0  0  0  0  0  0  0
  145.7094  140.1830  152.2797 H   0  0  0  0  0  0  0  0  0  0  0  0
  152.5284  140.9850  158.3516 H   0  0  0  0  0  0  0  0  0  0  0  0
  1  2  1  0  0  0  0
  1 30  1  0  0  0  0
  1 31  1  0  0  0  0
  1 32  1  0  0  0  0
  2  3  1  0  0  0  0
  2  4  1  0  0  0  0
  2 33  1  0  0  0  0
  3 34  1  0  0  0  0
  3 35  1  0  0  0  0
  3 36  1  0  0  0  0
  4  5  2  0  0  0  0
  4  6  1  0  0  0  0
  6 37  1  0  0  0  0
  6  7  1  0  0  0  0
  7 25  1  0  0  0  0
  7  8  2  0  0  0  0
  8  9  1  0  0  0  0
  9 13  1  0  0  0  0
  9 10  2  0  0  0  0
 10 11  1  0  0  0  0
 10 23  1  0  0  0  0
 11 12  2  0  0  0  0
 12 13  1  0  0  0  0
 12 38  1  0  0  0  0
 13 14  1  0  0  0  0
 14 26  1  0  0  0  0
 14 21  1  0  0  0  0
 14 15  1  0  0  0  0
 15 16  1  0  0  0  0
 16 27  1  0  0  0  0
 16 17  1  0  0  0  0
 16 19  1  0  0  0  0
 17 18  1  0  0  0  0
 17 39  1  0  0  0  0
 17 40  1  0  0  0  0
 18 41  1  0  0  0  0
 19 28  1  0  0  0  0
 19 20  1  0  0  0  0
 19 21  1  0  0  0  0
 20 42  1  0  0  0  0
 21 29  1  0  0  0  0
 21 22  1  0  0  0  0
 22 43  1  0  0  0  0
 23 24  2  0  0  0  0
 23 25  1  0  0  0  0
 25 44  1  0  0  0  0
M  END
> <s_m_source_file>
AV-unprocessed.smi

> <i_m_source_file_index>
54

> <i_lp_mmshare_version>
43012

> <i_f3d_flags>
0

> <s_epik_input>
W0NIM11bQ0hdKFtDSDNdKUMoPU8pW05IXWMobjEpW25IXWMoPU8pYyhjMTIpbltjSF1uMltDQEBIXTNPW0NASF0oW0NIMl1bT0hdKVtDQEBIXShbT0hdKVtDQEhdM1tPSF0=

> <s_epik_cmdline>
J2VwaWtfcHl0aG9uJywgJy1waCcsICc3LjAnLCAnLXRuJywgJzgnLCAnLW1hJywgJzIwMCcsICctbWV0YWxfYmluZGluZycsICctaW1hZScsICc8aW5maWxlLm1hZT4nLCAnLW9tYWUnLCAnPG91dGZpbGUubWFlPic=

> <r_lp_tautomer_probability>
0.85571

> <r_epik_Ionization_Penalty>
0.0316551

> <r_epik_Ionization_Penalty_Charging>
0.0316043

> <r_epik_Ionization_Penalty_Neutral>
5.07097e-05

> <r_epik_State_Penalty>
3.15494e-07

> <r_epik_Charging_Adjusted_Penalty>
0.0316047

> <i_epik_Tot_Q>
0

> <i_epik_Tot_abs_Q>
0

> <r_epik_Metal_State_Penalty>
0.421206

> <b_epik_Metal_Only>
0

> <s_epik_Chemistry_Notes>
This compound contains an acetal/aminal-like group ( X-CH(R)-Y where X, Y are N, S, or O) that may be acid/base labile, releasing an aldehyde.

> <s_lp_Force_Field>
OPLS_2005

> <r_lp_Energy>
37.5812

> <b_lp_Chiralities_Consistent>
1

> <s_lp_Variant>
AV-unprocessed.smi:54-7

> <Gold.Version>
5.8.1

> <Gold.Id.Protein>
6NUR|6NUR_protein|mol2

> <Gold.PLP.Fitness>
49.1714

> <Gold.PLP.PLP>
-41.3611

> <Gold.PLP.part.hbond>
-2.5882

> <Gold.PLP.part.metal>
0.0000

> <Gold.PLP.part.buried>
-2.3814

> <Gold.PLP.part.nonpolar>
-35.9918

> <Gold.PLP.part.repulsive>
0.9095

> <Gold.PLP.ligand.clash>
0.0000

> <Gold.PLP.ligand.torsion>
0.7552

> <Gold.PLP.Chemscore.Hbond>
1.9913

> <Gold.PLP.Chemscore.CHOScore>
1.1039

> <Gold.PLP.Chemscore.Metal>
0.0000

> <Gold.Chemscore.Hbonds>
donor molecule, donor type, donor heavy atom, donor atom, acceptor molecule, acceptor atom, score
      L1  H    22    43       P1 10175  0.96
      P1  H  7997  8008       L1    24  1.00
      L1  C    12    38       P1  7948  0.45
      L1  C    12    38       P1  7957  0.67

> <Gold.PLP.Chemscore.Internal.Correction>
0.0352

> <Gold.Rescore>
     Score         DG    S(hbond)    S(metal)    S(lipo)     H(rot)  DE(clash)    DE(int)     intcor
      5.33      -7.66       1.88        0.00      53.69       4.05       0.25       2.08       ----

> <Gold.Chemscore.Fitness>
5.3303

> <Gold.Chemscore.DG>
-7.6638

> <Gold.Chemscore.ZeroCoef>
-5.4800

> <Gold.Chemscore.Hbond>
1.8766

> <Gold.Chemscore.Metal>
0.0000

> <Gold.Chemscore.Lipo>
53.6948

> <Gold.Chemscore.Internal_Hbond>
0.0000

> <Gold.Chemscore.DEClash>
0.2515

> <Gold.Chemscore.DEInternal>
2.0820

> <Gold.Chemscore.Rot>
4.0493

> <Gold.Chemscore.Internal.Correction>
   9.000000E+99

> <Gold.Chemscore.Hbonds>
donor molecule, donor type, donor heavy atom, donor atom, acceptor molecule, acceptor atom, score
      L1  H    22    43       P1 10175  0.60
      P1  H  7997  8008       L1    24  0.48

> <Gold.Chemscore.Hbond.Weighted>
-6.2677

> <Gold.Chemscore.Metal.Weighted>
-0.0000

> <Gold.Chemscore.Lipo.Weighted>
-6.2823

> <Gold.Chemscore.Internal_Hbond.Weighted>
0.0000

> <Gold.Chemscore.DEClash.Weighted>
0.2515

> <Gold.Chemscore.DEInternal.Weighted>
2.0820

> <Gold.Chemscore.Rot.Weighted>
10.3662

> <Gold.Chemscore.Internal.Correction.Weighted>
   9.000000E+99

> <Gold.Protein.RotatedTorsions>
[ 6907 6896 6895 6894 ] final  104.10 input  -60.11 | X-H torsion
[ 7974 7965 7964 7962 ] final   51.73 input  175.53 | X-H torsion
[ 8008 7997 7996 7995 ] final  -80.42 input   59.86 | X-H torsion
[ 10167 10162 10161 10158 ] final   67.25 input  -65.29 | X-H torsion
[ 10718 10713 10712 10709 ] final  136.54 input   66.30 | X-H torsion
[ 10763 10752 10751 10750 ] final  -68.92 input  -60.55 | X-H torsion
[ 11005 11000 10999 10996 ] final  100.94 input  -57.11 | X-H torsion

> <Gold.Protein.ActiveResidues>
 VAL166  LYS551  ARG553  GLY616  TRP617  ASP618  TYR619  PRO620  LYS621  CYS622 
 ASP623  PHE694  ASN695  SER759  ASP760  ASP761  ALA762  ILE779  LEU786  VAL792 
 PHE793  MET794  SER795  GLU796  ALA797  LYS798  CYS799  TRP800  GLU811  SER814 

> <Gold.Protein.RotatedAtoms>
  152.5275  133.9726  159.7768 H   0  0  0  0  0  0  0  0  0  0  0  0  # atno 6907 bound_to 6896
  150.9995  133.6062  159.2704 H   0  0  0  0  0  0  0  0  0  0  0  0  # atno 6908 bound_to 6896
  151.3176  135.0816  159.9347 H   0  0  0  0  0  0  0  0  0  0  0  0  # atno 6909 bound_to 6896
  145.9884  139.4314  143.0089 H   0  0  0  0  0  0  0  0  0  0  0  0  # atno 7974 bound_to 7965
  154.5881  140.0663  156.9200 H   0  0  0  0  0  0  0  0  0  0  0  0  # atno 8008 bound_to 7997
  155.2343  140.3340  155.4281 H   0  0  0  0  0  0  0  0  0  0  0  0  # atno 8009 bound_to 7997
  156.2237  140.1810  156.7400 H   0  0  0  0  0  0  0  0  0  0  0  0  # atno 8010 bound_to 7997
  140.0916  144.4983  150.7095 H   0  0  0  0  0  0  0  0  0  0  0  0  # atno 10167 bound_to 10162
  157.4456  131.1061  151.0093 H   0  0  0  0  0  0  0  0  0  0  0  0  # atno 10718 bound_to 10713
  154.3960  135.6042  153.5870 H   0  0  0  0  0  0  0  0  0  0  0  0  # atno 10763 bound_to 10752
  152.9787  135.5895  154.4241 H   0  0  0  0  0  0  0  0  0  0  0  0  # atno 10764 bound_to 10752
  154.4032  135.2843  155.2061 H   0  0  0  0  0  0  0  0  0  0  0  0  # atno 10765 bound_to 10752
  139.8772  134.9162  156.4832 H   0  0  0  0  0  0  0  0  0  0  0  0  # atno 11005 bound_to 11000
  145.7666  140.9913  143.1171 LP  0  0  0  0  0  0  0  0  0  0  0  0  # atno 17320 bound_to 7965
  144.6881  139.9396  143.7474 LP  0  0  0  0  0  0  0  0  0  0  0  0  # atno 17321 bound_to 7965
  140.7026  143.2445  151.4821 LP  0  0  0  0  0  0  0  0  0  0  0  0  # atno 17342 bound_to 10162
  139.5722  144.1903  152.1852 LP  0  0  0  0  0  0  0  0  0  0  0  0  # atno 17343 bound_to 10162
  157.0941  130.5954  149.5446 LP  0  0  0  0  0  0  0  0  0  0  0  0  # atno 17370 bound_to 10713
  155.9966  130.5035  150.7502 LP  0  0  0  0  0  0  0  0  0  0  0  0  # atno 17371 bound_to 10713
  140.8712  133.7987  155.9366 LP  0  0  0  0  0  0  0  0  0  0  0  0  # atno 17394 bound_to 11000
  140.8951  134.2448  157.5073 LP  0  0  0  0  0  0  0  0  0  0  0  0  # atno 17395 bound_to 11000

$$$$
