#       Name:                AV-unprocessed.smi:157
#       Creating user name   scv26
#       Creation time:       Thu Mar 26 18:57:43 2020


#       File generated by GOLD software.
#

@<TRIPOS>MOLECULE
AV-unprocessed.smi:157
    45    47     1
SMALL
NO_CHARGES


@<TRIPOS>ATOM
      1 ****        -4.5125   1.5826  -1.7648 O.3            1 S1                 0.0000
      2 ****        -4.2320   0.2023  -1.6695 C.3            1 S1                 0.0000
      3 ****        -2.7210  -0.0161  -1.5020 C.3            1 S1                 0.0000
      4 ****        -2.3587   0.1493  -0.1340 O.3            1 S1                 0.0000
      5 ****        -1.2101  -0.5935   0.1536 C.3            1 S1                 0.0000
      6 ****        -0.0589   0.3472   0.3487 N.pl3          1 S1                 0.0000
      7 ****         0.0488   1.5960  -0.1263 C.2            1 S1                 0.0000
      8 ****         1.1746   2.2107   0.1943 N.2            1 S1                 0.0000
      9 ****         1.8706   1.2666   0.9464 C.2            1 S1                 0.0000
     10 ****         1.1269   0.0995   1.0463 C.2            1 S1                 0.0000
     11 ****         1.2878  -1.1375   1.6410 N.2            1 S1                 0.0000
     12 ****         2.4819  -1.4939   1.9965 C.2            1 S1                 0.0000
     13 ****         3.6759  -0.7875   1.9673 N.pl3          1 S1                 0.0000
     14 ****         3.8166   0.5724   2.4592 C.3            1 S1                 0.0000
     15 ****         3.2074   1.6257   1.5266 C.3            1 S1                 0.0000
     16 ****         4.0820   1.8523   0.4403 O.3            1 S1                 0.0000
     17 ****        -0.9437  -1.5032  -1.0503 C.3            1 S1                 0.0000
     18 ****        -2.2712  -1.4515  -1.7796 C.3            1 S1                 0.0000
     19 ****        -2.1000  -1.7079  -3.1583 O.3            1 S1                 0.0000
     20 ****        -2.1478   0.6772  -2.1209 H              1 S1                 0.0000
     21 ****        -1.3286  -1.1203   1.1010 H              1 S1                 0.0000
     22 ****         3.1324   2.5668   2.0727 H              1 S1                 0.0000
     23 ****        -2.9702  -2.1671  -1.3441 H              1 S1                 0.0000
     24 ****        -5.4448   1.6930  -1.8725 H              1 S1                 0.0000
     25 ****        -4.7910  -0.2443  -0.8467 H              1 S1                 0.0000
     26 ****        -4.5798  -0.2668  -2.5902 H              1 S1                 0.0000
     27 ****        -0.7175   2.0720  -0.7200 H              1 S1                 0.0000
     28 ****         2.6235  -2.4995   2.3949 H              1 S1                 0.0000
     29 ****         4.5401  -1.3010   2.0621 H              1 S1                 0.0000
     30 ****         3.3108   0.6225   3.4246 H              1 S1                 0.0000
     31 ****         4.8672   0.7890   2.6544 H              1 S1                 0.0000
     32 ****         3.7143   2.5394  -0.0946 H              1 S1                 0.0000
     33 ****        -0.1438  -1.0825  -1.6632 H              1 S1                 0.0000
     34 ****        -0.6564  -2.5054  -0.7312 H              1 S1                 0.0000
     35 ****        -1.7711  -2.5879  -3.2616 H              1 S1                 0.0000
     36 ****        -4.0339   1.9704  -2.5526 LP             1 S1                 0.0000
     37 ****        -4.2122   2.0461  -0.9311 LP             1 S1                 0.0000
     38 ****        -3.1096  -0.1649   0.4470 LP             1 S1                 0.0000
     39 ****        -2.1804   1.1167   0.0460 LP             1 S1                 0.0000
     40 ****         1.4603   3.1382  -0.0470 LP             1 S1                 0.0000
     41 ****         0.5047  -1.7406   1.7927 LP             1 S1                 0.0000
     42 ****         4.1755   1.0159  -0.0996 LP             1 S1                 0.0000
     43 ****         4.9798   2.1316   0.7806 LP             1 S1                 0.0000
     44 ****        -1.4468  -1.0563  -3.5439 LP             1 S1                 0.0000
     45 ****        -2.9776  -1.6184  -3.6294 LP             1 S1                 0.0000
@<TRIPOS>BOND
    1    1    2 1     
    2    1   24 1     
    3    2    3 1     
    4    2   25 1     
    5    2   26 1     
    6    3   20 1     
    7    3   18 1     
    8    3    4 1     
    9    4    5 1     
   10    5   21 1     
   11    5    6 1     
   12    5   17 1     
   13    6   10 1     
   14    6    7 1     
   15    7    8 2     
   16    7   27 1     
   17    8    9 1     
   18    9   15 1     
   19    9   10 2     
   20   10   11 1     
   21   11   12 2     
   22   12   13 1     
   23   12   28 1     
   24   13   14 1     
   25   13   29 1     
   26   14   15 1     
   27   14   30 1     
   28   14   31 1     
   29   15   22 1     
   30   15   16 1     
   31   16   32 1     
   32   17   18 1     
   33   17   33 1     
   34   17   34 1     
   35   18   23 1     
   36   18   19 1     
   37   19   35 1     
   38    1   36 1     
   39    1   37 1     
   40    4   38 1     
   41    4   39 1     
   42    8   40 1     
   43   11   41 1     
   44   16   42 1     
   45   16   43 1     
   46   19   44 1     
   47   19   45 1     
@<TRIPOS>SUBSTRUCTURE
      1 S1             1
@<TRIPOS>SET
LONE_PAIRS      STATIC     ATOMS    <user>   **** ""
10 36 37 38 39 40 41 42 43 44 45
DONOR_HYDROGENS      STATIC     ATOMS    <user>   **** ""
4 24 29 32 35
ATOM$BLUE        STATIC     ATOMS    COLORGROUP SYSTEM
10 36 37 38 39 40 41 42 43 44 45
ATOM$RED        STATIC     ATOMS    COLORGROUP SYSTEM
4 24 29 32 35
