AV-unprocessed.smi:31|AV-procd|sdf|195|dock6
  -GOLD-   2262015463D 1   1.00000     0.00000
 Structure written by MMmdl.
 49 52  0  0  0  0  0  0  0  0  1 V2000
  153.9203  138.3500  160.9029 O   0  0  0  0  0  0  0  0  0  0  0  0
  154.6114  138.7799  161.8277 C   0  0  0  0  0  0  0  0  0  0  0  0
  155.5416  137.8385  162.6095 C   0  0  0  0  0  0  0  0  0  0  0  0
  155.3212  136.4068  162.3086 N   0  0  0  0  0  0  0  0  0  0  0  0
  155.6786  135.9157  161.0282 C   0  0  0  0  0  0  0  0  0  0  0  0
  156.1470  136.6607  160.1660 O   0  0  0  0  0  0  0  0  0  0  0  0
  155.4643  134.4882  160.8188 C   0  0  0  0  0  0  0  0  0  0  0  0
  155.7796  133.9342  159.6356 F   0  0  0  0  0  0  0  0  0  0  0  0
  154.9592  133.7106  161.7982 C   0  0  0  0  0  0  0  0  0  0  0  0
  154.6134  134.2041  163.0430 N   0  0  0  0  0  0  0  0  0  0  0  0
  154.0733  133.2985  164.1275 C   0  0  2  0  0  0  0  0  0  0  0  0
  155.0764  133.2005  165.2824 C   0  0  0  0  0  0  0  0  0  0  0  0
  155.8536  131.9558  164.9143 C   0  0  0  0  0  0  0  0  0  0  0  0
  154.7691  131.0959  164.2753 C   0  0  0  0  0  0  0  0  0  0  0  0
  153.9040  132.0109  163.6073 O   0  0  0  0  0  0  0  0  0  0  0  0
  154.8010  135.5739  163.3278 C   0  0  0  0  0  0  0  0  0  0  0  0
  154.5297  136.0286  164.4415 O   0  0  0  0  0  0  0  0  0  0  0  0
  154.6385  140.0657  162.2228 N   0  0  0  0  0  0  0  0  0  0  0  0
  153.9138  141.1674  161.6934 C   0  0  0  0  0  0  0  0  0  0  0  0
  153.4351  142.1266  162.6053 C   0  0  0  0  0  0  0  0  0  0  0  0
  152.7147  143.2442  162.1473 C   0  0  0  0  0  0  0  0  0  0  0  0
  152.4500  143.4209  160.7747 C   0  0  0  0  0  0  0  0  0  0  0  0
  152.8664  142.4167  159.8521 C   0  0  0  0  0  0  0  0  0  0  0  0
  153.6106  141.3143  160.3196 C   0  0  0  0  0  0  0  0  0  0  0  0
  152.5722  142.4295  158.5059 O   0  0  0  0  0  0  0  0  0  0  0  0
  151.3178  142.9880  158.1442 C   0  0  0  0  0  0  0  0  0  0  0  0
  151.4064  144.5102  158.0172 C   0  0  0  0  0  0  0  0  0  0  0  0
  152.1850  145.1483  159.1694 C   0  0  0  0  0  0  0  0  0  0  0  0
  151.8068  144.5855  160.4172 O   0  0  0  0  0  0  0  0  0  0  0  0
  156.5763  138.1182  162.4038 H   0  0  0  0  0  0  0  0  0  0  0  0
  155.4203  138.0431  163.6743 H   0  0  0  0  0  0  0  0  0  0  0  0
  154.8308  132.6592  161.5885 H   0  0  0  0  0  0  0  0  0  0  0  0
  153.1040  133.7091  164.4142 H   0  0  0  0  0  0  0  0  0  0  0  0
  155.6902  134.0969  165.3803 H   0  0  0  0  0  0  0  0  0  0  0  0
  154.5248  133.0460  166.2105 H   0  0  0  0  0  0  0  0  0  0  0  0
  156.6276  132.1954  164.1842 H   0  0  0  0  0  0  0  0  0  0  0  0
  156.3284  131.4773  165.7711 H   0  0  0  0  0  0  0  0  0  0  0  0
  155.1727  130.3521  163.5883 H   0  0  0  0  0  0  0  0  0  0  0  0
  154.1979  130.5740  165.0442 H   0  0  0  0  0  0  0  0  0  0  0  0
  155.3174  140.2945  162.9343 H   0  0  0  0  0  0  0  0  0  0  0  0
  153.6363  142.0212  163.6616 H   0  0  0  0  0  0  0  0  0  0  0  0
  152.3829  143.9888  162.8559 H   0  0  0  0  0  0  0  0  0  0  0  0
  153.9119  140.5660  159.6030 H   0  0  0  0  0  0  0  0  0  0  0  0
  151.0071  142.5587  157.1915 H   0  0  0  0  0  0  0  0  0  0  0  0
  150.5507  142.7028  158.8670 H   0  0  0  0  0  0  0  0  0  0  0  0
  151.8859  144.7788  157.0755 H   0  0  0  0  0  0  0  0  0  0  0  0
  150.3971  144.9205  157.9770 H   0  0  0  0  0  0  0  0  0  0  0  0
  153.2609  145.0452  159.0151 H   0  0  0  0  0  0  0  0  0  0  0  0
  151.9873  146.2200  159.1957 H   0  0  0  0  0  0  0  0  0  0  0  0
  1  2  2  0  0  0  0
  2  3  1  0  0  0  0
  2 18  1  0  0  0  0
  3  4  1  0  0  0  0
  3 30  1  0  0  0  0
  3 31  1  0  0  0  0
  4 16  1  0  0  0  0
  4  5  1  0  0  0  0
  5  6  2  0  0  0  0
  5  7  1  0  0  0  0
  7  8  1  0  0  0  0
  7  9  2  0  0  0  0
  9 10  1  0  0  0  0
  9 32  1  0  0  0  0
 10 11  1  0  0  0  0
 10 16  1  0  0  0  0
 11 15  1  0  0  0  0
 11 12  1  0  0  0  0
 11 33  1  0  0  0  0
 12 13  1  0  0  0  0
 12 34  1  0  0  0  0
 12 35  1  0  0  0  0
 13 14  1  0  0  0  0
 13 36  1  0  0  0  0
 13 37  1  0  0  0  0
 14 15  1  0  0  0  0
 14 38  1  0  0  0  0
 14 39  1  0  0  0  0
 16 17  2  0  0  0  0
 18 19  1  0  0  0  0
 18 40  1  0  0  0  0
 19 24  1  0  0  0  0
 19 20  2  0  0  0  0
 20 21  1  0  0  0  0
 20 41  1  0  0  0  0
 21 22  2  0  0  0  0
 21 42  1  0  0  0  0
 22 29  1  0  0  0  0
 22 23  1  0  0  0  0
 23 24  2  0  0  0  0
 23 25  1  0  0  0  0
 24 43  1  0  0  0  0
 25 26  1  0  0  0  0
 26 27  1  0  0  0  0
 26 44  1  0  0  0  0
 26 45  1  0  0  0  0
 27 28  1  0  0  0  0
 27 46  1  0  0  0  0
 27 47  1  0  0  0  0
 28 29  1  0  0  0  0
 28 48  1  0  0  0  0
 28 49  1  0  0  0  0
M  END
> <s_m_source_file>
AV-unprocessed.smi

> <i_m_source_file_index>
31

> <i_lp_mmshare_version>
43012

> <i_f3d_flags>
0

> <s_epik_input>
TzFbQ0gyXVtDSDJdW0NIMl1PYyhjMTIpW2NIXWMoW2NIXVtjSF0yKVtOSF1DKD1PKVtDSDJdbjNjKD1PKWMoRilbY0hdbihjMz1PKVtDQEBIXTRbQ0gyXVtDSDJdW0NIMl1PNA==

> <s_epik_cmdline>
J2VwaWtfcHl0aG9uJywgJy1waCcsICc3LjAnLCAnLXRuJywgJzgnLCAnLW1hJywgJzIwMCcsICctbWV0YWxfYmluZGluZycsICctaW1hZScsICc8aW5maWxlLm1hZT4nLCAnLW9tYWUnLCAnPG91dGZpbGUubWFlPic=

> <r_lp_tautomer_probability>
1

> <r_epik_Ionization_Penalty>
1.0483e-05

> <r_epik_Ionization_Penalty_Charging>
3.88729e-08

> <r_epik_Ionization_Penalty_Neutral>
1.04441e-05

> <r_epik_State_Penalty>
-0

> <r_epik_Charging_Adjusted_Penalty>
3.88729e-08

> <i_epik_Tot_Q>
0

> <i_epik_Tot_abs_Q>
0

> <r_epik_Metal_State_Penalty>
-0

> <b_epik_Metal_Only>
0

> <s_epik_Chemistry_Notes>
This compound contains an acetal/aminal-like group ( X-CH(R)-Y where X, Y are N, S, or O) that may be acid/base labile, releasing an aldehyde.

> <s_lp_Force_Field>
OPLS_2005

> <r_lp_Energy>
45.2544

> <b_lp_Chiralities_Consistent>
1

> <s_lp_Variant>
AV-unprocessed.smi:31-1

> <Gold.Version>
5.8.1

> <Gold.Id.Protein>
6NUR|6NUR_protein|mol2

> <Gold.PLP.Fitness>
51.8206

> <Gold.PLP.PLP>
-52.7520

> <Gold.PLP.part.hbond>
0.0000

> <Gold.PLP.part.metal>
0.0000

> <Gold.PLP.part.buried>
-7.0394

> <Gold.PLP.part.nonpolar>
-45.7000

> <Gold.PLP.part.repulsive>
0.2010

> <Gold.PLP.ligand.clash>
0.0000

> <Gold.PLP.ligand.torsion>
0.4836

> <Gold.PLP.Chemscore.Hbond>
0.0000

> <Gold.PLP.Chemscore.CHOScore>
0.0000

> <Gold.PLP.Chemscore.Metal>
0.0000

> <Gold.PLP.Chemscore.Internal.Correction>
0.0357

> <Gold.Rescore>
     Score         DG    S(hbond)    S(metal)    S(lipo)     H(rot)  DE(clash)    DE(int)     intcor
     13.99     -16.29       0.00        0.00     128.35       1.64       0.03       2.27       ----

> <Gold.Chemscore.Fitness>
13.9920

> <Gold.Chemscore.DG>
-16.2920

> <Gold.Chemscore.ZeroCoef>
-5.4800

> <Gold.Chemscore.Hbond>
0.0000

> <Gold.Chemscore.Metal>
0.0000

> <Gold.Chemscore.Lipo>
128.3536

> <Gold.Chemscore.Internal_Hbond>
0.0000

> <Gold.Chemscore.DEClash>
0.0299

> <Gold.Chemscore.DEInternal>
2.2701

> <Gold.Chemscore.Rot>
1.6427

> <Gold.Chemscore.Internal.Correction>
   9.000000E+99

> <Gold.Chemscore.Hbond.Weighted>
-0.0000

> <Gold.Chemscore.Metal.Weighted>
-0.0000

> <Gold.Chemscore.Lipo.Weighted>
-15.0174

> <Gold.Chemscore.Internal_Hbond.Weighted>
0.0000

> <Gold.Chemscore.DEClash.Weighted>
0.0299

> <Gold.Chemscore.DEInternal.Weighted>
2.2701

> <Gold.Chemscore.Rot.Weighted>
4.2053

> <Gold.Chemscore.Internal.Correction.Weighted>
   9.000000E+99

> <Gold.Protein.RotatedTorsions>
[ 6907 6896 6895 6894 ] final  -35.21 input  -60.11 | X-H torsion
[ 7974 7965 7964 7962 ] final  -74.79 input  175.53 | X-H torsion
[ 8008 7997 7996 7995 ] final -133.34 input   59.86 | X-H torsion
[ 10167 10162 10161 10158 ] final  -89.42 input  -65.29 | X-H torsion
[ 10718 10713 10712 10709 ] final  133.40 input   66.30 | X-H torsion
[ 10763 10752 10751 10750 ] final  168.88 input  -60.55 | X-H torsion
[ 11005 11000 10999 10996 ] final  170.42 input  -57.11 | X-H torsion

> <Gold.Protein.ActiveResidues>
 VAL166  LYS551  ARG553  GLY616  TRP617  ASP618  TYR619  PRO620  LYS621  CYS622 
 ASP623  PHE694  ASN695  SER759  ASP760  ASP761  ALA762  ILE779  LEU786  VAL792 
 PHE793  MET794  SER795  GLU796  ALA797  LYS798  CYS799  TRP800  GLU811  SER814 

> <Gold.Protein.RotatedAtoms>
  151.0427  134.9618  159.8169 H   0  0  0  0  0  0  0  0  0  0  0  0  # atno 6907 bound_to 6896
  152.5367  134.2637  159.8955 H   0  0  0  0  0  0  0  0  0  0  0  0  # atno 6908 bound_to 6896
  151.2650  133.4240  159.2652 H   0  0  0  0  0  0  0  0  0  0  0  0  # atno 6909 bound_to 6896
  145.6345  140.9328  143.1069 H   0  0  0  0  0  0  0  0  0  0  0  0  # atno 7974 bound_to 7965
  155.3439  140.0473  157.3045 H   0  0  0  0  0  0  0  0  0  0  0  0  # atno 8008 bound_to 7997
  154.5263  140.2242  155.8849 H   0  0  0  0  0  0  0  0  0  0  0  0  # atno 8009 bound_to 7997
  156.1742  140.3089  155.9035 H   0  0  0  0  0  0  0  0  0  0  0  0  # atno 8010 bound_to 7997
  140.3650  143.2822  151.9569 H   0  0  0  0  0  0  0  0  0  0  0  0  # atno 10167 bound_to 10162
  157.4776  131.1084  150.9723 H   0  0  0  0  0  0  0  0  0  0  0  0  # atno 10718 bound_to 10713
  154.3750  135.2753  155.2244 H   0  0  0  0  0  0  0  0  0  0  0  0  # atno 10763 bound_to 10752
  154.4375  135.5962  153.6111 H   0  0  0  0  0  0  0  0  0  0  0  0  # atno 10764 bound_to 10752
  152.9836  135.6010  154.3986 H   0  0  0  0  0  0  0  0  0  0  0  0  # atno 10765 bound_to 10752
  140.3081  134.7539  157.3970 H   0  0  0  0  0  0  0  0  0  0  0  0  # atno 11005 bound_to 11000
  144.7181  139.8126  143.7391 LP  0  0  0  0  0  0  0  0  0  0  0  0  # atno 17320 bound_to 7965
  146.1330  139.4370  143.0156 LP  0  0  0  0  0  0  0  0  0  0  0  0  # atno 17321 bound_to 7965
  139.4810  144.5958  151.7692 LP  0  0  0  0  0  0  0  0  0  0  0  0  # atno 17342 bound_to 10162
  140.5089  144.1055  150.5990 LP  0  0  0  0  0  0  0  0  0  0  0  0  # atno 17343 bound_to 10162
  157.0466  130.5770  149.5364 LP  0  0  0  0  0  0  0  0  0  0  0  0  # atno 17370 bound_to 10713
  156.0105  130.5196  150.7972 LP  0  0  0  0  0  0  0  0  0  0  0  0  # atno 17371 bound_to 10713
  140.1049  134.5423  155.8319 LP  0  0  0  0  0  0  0  0  0  0  0  0  # atno 17394 bound_to 11000
  141.2114  133.6706  156.6579 LP  0  0  0  0  0  0  0  0  0  0  0  0  # atno 17395 bound_to 11000

$$$$
