AV-unprocessed.smi:3151|AV-procd|sdf|12015|dock9
  -GOLD-   2272017423D 1   1.00000     0.00000
 Structure written by MMmdl.
 36 37  0  0  0  0  0  0  0  0  2 V2000
  151.9955  141.3643  157.6027 O   0  0  0  0  0  0  0  0  0  0  0  0
  151.3401  142.3796  157.3666 C   0  0  0  0  0  0  0  0  0  0  0  0
  151.6088  143.6739  158.1420 C   0  0  0  0  0  0  0  0  0  0  0  0
  151.6671  143.4715  159.6707 C   0  0  0  0  0  0  0  0  0  0  0  0
  152.0292  144.7288  160.4734 C   0  0  0  0  0  0  0  0  0  0  0  0
  152.6112  144.2240  161.8013 C   0  0  0  0  0  0  0  0  0  0  0  0
  152.9132  142.7313  161.6045 C   0  0  0  0  0  0  0  0  0  0  0  0
  152.7272  142.4600  160.1104 C   0  0  0  0  0  0  0  0  0  0  0  0
  150.3735  142.4288  156.4368 N   0  0  0  0  0  0  0  0  0  0  0  0
  149.9594  141.3033  155.6079 C   0  0  0  0  0  0  0  0  0  0  0  0
  149.2900  141.7758  154.3069 C   0  0  0  0  0  0  0  0  0  0  0  0
  147.8304  141.7301  154.4040 N   0  0  0  0  0  0  0  0  0  0  0  0
  147.0342  142.3811  155.3108 C   0  0  0  0  0  0  0  0  0  0  0  0
  145.7413  142.0316  155.0160 C   0  0  0  0  0  0  0  0  0  0  0  0
  145.8039  141.1820  153.9439 N   0  3  0  0  0  0  0  0  0  0  0  0
  147.0755  140.9992  153.5738 C   0  0  0  0  0  0  0  0  0  0  0  0
  152.5570  144.0830  157.7918 H   0  0  0  0  0  0  0  0  0  0  0  0
  150.8452  144.4139  157.8968 H   0  0  0  0  0  0  0  0  0  0  0  0
  150.7000  143.1076  160.0231 H   0  0  0  0  0  0  0  0  0  0  0  0
  152.7908  145.3016  159.9419 H   0  0  0  0  0  0  0  0  0  0  0  0
  151.1722  145.3863  160.6236 H   0  0  0  0  0  0  0  0  0  0  0  0
  153.5123  144.7809  162.0607 H   0  0  0  0  0  0  0  0  0  0  0  0
  151.8991  144.3602  162.6161 H   0  0  0  0  0  0  0  0  0  0  0  0
  153.9114  142.4602  161.9495 H   0  0  0  0  0  0  0  0  0  0  0  0
  152.1975  142.1374  162.1747 H   0  0  0  0  0  0  0  0  0  0  0  0
  152.4339  141.4293  159.9082 H   0  0  0  0  0  0  0  0  0  0  0  0
  153.6652  142.6481  159.5857 H   0  0  0  0  0  0  0  0  0  0  0  0
  149.8851  143.3028  156.3036 H   0  0  0  0  0  0  0  0  0  0  0  0
  150.8203  140.6692  155.3884 H   0  0  0  0  0  0  0  0  0  0  0  0
  149.2641  140.6919  156.1840 H   0  0  0  0  0  0  0  0  0  0  0  0
  149.5804  142.8009  154.0726 H   0  0  0  0  0  0  0  0  0  0  0  0
  149.5907  141.1555  153.4609 H   0  0  0  0  0  0  0  0  0  0  0  0
  147.4358  143.0270  156.0780 H   0  0  0  0  0  0  0  0  0  0  0  0
  144.8062  142.3157  155.4770 H   0  0  0  0  0  0  0  0  0  0  0  0
  147.4243  140.3818  152.7648 H   0  0  0  0  0  0  0  0  0  0  0  0
  145.0051  140.7520  153.4947 H   0  0  0  0  0  0  0  0  0  0  0  0
  1  2  2  0  0  0  0
  2  3  1  0  0  0  0
  2  9  1  0  0  0  0
  3  4  1  0  0  0  0
  3 17  1  0  0  0  0
  3 18  1  0  0  0  0
  4  8  1  0  0  0  0
  4  5  1  0  0  0  0
  4 19  1  0  0  0  0
  5  6  1  0  0  0  0
  5 20  1  0  0  0  0
  5 21  1  0  0  0  0
  6  7  1  0  0  0  0
  6 22  1  0  0  0  0
  6 23  1  0  0  0  0
  7  8  1  0  0  0  0
  7 24  1  0  0  0  0
  7 25  1  0  0  0  0
  8 26  1  0  0  0  0
  8 27  1  0  0  0  0
  9 10  1  0  0  0  0
  9 28  1  0  0  0  0
 10 11  1  0  0  0  0
 10 29  1  0  0  0  0
 10 30  1  0  0  0  0
 11 12  1  0  0  0  0
 11 31  1  0  0  0  0
 11 32  1  0  0  0  0
 12 16  1  0  0  0  0
 12 13  1  0  0  0  0
 13 14  2  0  0  0  0
 13 33  1  0  0  0  0
 14 15  1  0  0  0  0
 14 34  1  0  0  0  0
 15 16  2  0  0  0  0
 15 36  1  0  0  0  0
 16 35  1  0  0  0  0
M  CHG  1  15   1
M  END
> <s_m_source_file>
AV-unprocessed.smi

> <i_m_source_file_index>
3151

> <i_lp_mmshare_version>
43012

> <i_f3d_flags>
0

> <s_epik_input>
W0NIMl0xW0NIMl1bQ0gyXVtDSDJdW0NIXTFbQ0gyXUMoPU8pW05IXVtDSDJdW0NIMl1uMltjSF1bY0hdbltjSF0y

> <s_epik_cmdline>
J2VwaWtfcHl0aG9uJywgJy1waCcsICc3LjAnLCAnLXRuJywgJzgnLCAnLW1hJywgJzIwMCcsICctbWV0YWxfYmluZGluZycsICctaW1hZScsICc8aW5maWxlLm1hZT4nLCAnLW9tYWUnLCAnPG91dGZpbGUubWFlPic=

> <r_lp_tautomer_probability>
1

> <r_epik_Ionization_Penalty>
0.269485

> <r_epik_Ionization_Penalty_Charging>
0

> <r_epik_Ionization_Penalty_Neutral>
0.269485

> <r_epik_State_Penalty>
0.261564

> <r_epik_Charging_Adjusted_Penalty>
0.261564

> <i_epik_Tot_Q>
1

> <i_epik_Tot_abs_Q>
1

> <r_epik_Metal_State_Penalty>
0.546677

> <b_epik_Metal_Only>
0

> <s_lp_Force_Field>
OPLS_2005

> <r_lp_Energy>
22.4511

> <b_lp_Chiralities_Consistent>
1

> <s_lp_Variant>
AV-unprocessed.smi:3151-1

> <Gold.Version>
5.8.1

> <Gold.Id.Protein>
6NUR|6NUR_protein|mol2

> <Gold.PLP.Fitness>
51.1445

> <Gold.PLP.PLP>
-37.3222

> <Gold.PLP.part.hbond>
-1.9626

> <Gold.PLP.part.metal>
0.0000

> <Gold.PLP.part.buried>
-0.6350

> <Gold.PLP.part.nonpolar>
-34.7166

> <Gold.PLP.part.repulsive>
0.0765

> <Gold.PLP.ligand.clash>
0.0000

> <Gold.PLP.ligand.torsion>
0.5563

> <Gold.PLP.Chemscore.Hbond>
2.9913

> <Gold.PLP.Chemscore.CHOScore>
1.9791

> <Gold.PLP.Chemscore.Metal>
0.0000

> <Gold.Chemscore.Hbonds>
donor molecule, donor type, donor heavy atom, donor atom, acceptor molecule, acceptor atom, score
      L1  H     9    28       P1  8028  1.00
      L1  H    15    36       P1 10175  2.00
      L1  C    13    33       P1  8028  0.63
      L1  C    16    35       P1  7957  0.54

> <Gold.PLP.Chemscore.Internal.Correction>
0.0238

> <Gold.Rescore>
     Score         DG    S(hbond)    S(metal)    S(lipo)     H(rot)  DE(clash)    DE(int)     intcor
     15.23     -17.20       1.86        0.00      92.60       2.08       0.19       1.77       ----

> <Gold.Chemscore.Fitness>
15.2331

> <Gold.Chemscore.DG>
-17.1961

> <Gold.Chemscore.ZeroCoef>
-5.4800

> <Gold.Chemscore.Hbond>
1.8563

> <Gold.Chemscore.Metal>
0.0000

> <Gold.Chemscore.Lipo>
92.6024

> <Gold.Chemscore.Internal_Hbond>
0.0000

> <Gold.Chemscore.DEClash>
0.1883

> <Gold.Chemscore.DEInternal>
1.7747

> <Gold.Chemscore.Rot>
2.0774

> <Gold.Chemscore.Internal.Correction>
   9.000000E+99

> <Gold.Chemscore.Hbonds>
donor molecule, donor type, donor heavy atom, donor atom, acceptor molecule, acceptor atom, score
      L1  H     9    28       P1  8028  1.00
      L1  H    15    36       P1 10175  0.90

> <Gold.Chemscore.Hbond.Weighted>
-6.1999

> <Gold.Chemscore.Metal.Weighted>
-0.0000

> <Gold.Chemscore.Lipo.Weighted>
-10.8345

> <Gold.Chemscore.Internal_Hbond.Weighted>
0.0000

> <Gold.Chemscore.DEClash.Weighted>
0.1883

> <Gold.Chemscore.DEInternal.Weighted>
1.7747

> <Gold.Chemscore.Rot.Weighted>
5.3183

> <Gold.Chemscore.Internal.Correction.Weighted>
   9.000000E+99

> <Gold.Protein.RotatedTorsions>
[ 6907 6896 6895 6894 ] final -104.09 input  -60.11 | X-H torsion
[ 7974 7965 7964 7962 ] final   39.53 input  175.53 | X-H torsion
[ 8008 7997 7996 7995 ] final   83.96 input   59.86 | X-H torsion
[ 10167 10162 10161 10158 ] final   58.92 input  -65.29 | X-H torsion
[ 10718 10713 10712 10709 ] final -150.90 input   66.30 | X-H torsion
[ 10763 10752 10751 10750 ] final -155.20 input  -60.55 | X-H torsion
[ 11005 11000 10999 10996 ] final -115.08 input  -57.11 | X-H torsion

> <Gold.Protein.ActiveResidues>
 VAL166  LYS551  ARG553  GLY616  TRP617  ASP618  TYR619  PRO620  LYS621  CYS622 
 ASP623  PHE694  ASN695  SER759  ASP760  ASP761  ALA762  ILE779  LEU786  VAL792 
 PHE793  MET794  SER795  GLU796  ALA797  LYS798  CYS799  TRP800  GLU811  SER814 

> <Gold.Protein.RotatedAtoms>
  150.7271  134.0330  159.3739 H   0  0  0  0  0  0  0  0  0  0  0  0  # atno 6907 bound_to 6896
  151.8300  135.0622  160.0445 H   0  0  0  0  0  0  0  0  0  0  0  0  # atno 6908 bound_to 6896
  152.2940  133.5553  159.5612 H   0  0  0  0  0  0  0  0  0  0  0  0  # atno 6909 bound_to 6896
  146.0977  139.5641  142.9434 H   0  0  0  0  0  0  0  0  0  0  0  0  # atno 7974 bound_to 7965
  155.9307  140.3415  155.6247 H   0  0  0  0  0  0  0  0  0  0  0  0  # atno 8008 bound_to 7997
  155.7160  140.0777  157.2369 H   0  0  0  0  0  0  0  0  0  0  0  0  # atno 8009 bound_to 7997
  154.4085  140.1614  156.2337 H   0  0  0  0  0  0  0  0  0  0  0  0  # atno 8010 bound_to 7997
  140.1820  144.4173  150.6611 H   0  0  0  0  0  0  0  0  0  0  0  0  # atno 10167 bound_to 10162
  156.4522  130.8173  151.2404 H   0  0  0  0  0  0  0  0  0  0  0  0  # atno 10718 bound_to 10713
  154.7804  135.3173  154.8002 H   0  0  0  0  0  0  0  0  0  0  0  0  # atno 10763 bound_to 10752
  153.8715  135.6844  153.4778 H   0  0  0  0  0  0  0  0  0  0  0  0  # atno 10764 bound_to 10752
  153.1439  135.4728  154.9474 H   0  0  0  0  0  0  0  0  0  0  0  0  # atno 10765 bound_to 10752
  141.0511  133.9686  157.2835 H   0  0  0  0  0  0  0  0  0  0  0  0  # atno 11005 bound_to 11000
  145.5916  141.0369  143.2067 LP  0  0  0  0  0  0  0  0  0  0  0  0  # atno 17320 bound_to 7965
  144.7408  139.7455  143.7311 LP  0  0  0  0  0  0  0  0  0  0  0  0  # atno 17321 bound_to 7965
  140.6513  143.2226  151.6070 LP  0  0  0  0  0  0  0  0  0  0  0  0  # atno 17342 bound_to 10162
  139.5292  144.2966  152.1108 LP  0  0  0  0  0  0  0  0  0  0  0  0  # atno 17343 bound_to 10162
  157.7502  131.0134  150.3424 LP  0  0  0  0  0  0  0  0  0  0  0  0  # atno 17370 bound_to 10713
  156.3805  130.3879  149.7106 LP  0  0  0  0  0  0  0  0  0  0  0  0  # atno 17371 bound_to 10713
  139.9351  135.0197  156.8528 LP  0  0  0  0  0  0  0  0  0  0  0  0  # atno 17394 bound_to 11000
  140.6054  134.0132  155.7554 LP  0  0  0  0  0  0  0  0  0  0  0  0  # atno 17395 bound_to 11000

$$$$
