AV-unprocessed.smi:2479|AV-procd|sdf|9768|dock3
  -GOLD-   2272013413D 1   1.00000     0.00000
 Structure written by MMmdl.
 29 30  0  0  0  0  0  0  0  0  1 V2000
  152.3921  145.6411  159.0240 N   0  0  0  0  0  0  0  0  0  0  0  0
  152.1424  144.5375  158.7831 C   0  0  0  0  0  0  0  0  0  0  0  0
  151.8283  143.1519  158.4810 C   0  0  0  0  0  0  0  0  0  0  0  0
  150.8232  142.8257  157.5493 C   0  0  0  0  0  0  0  0  0  0  0  0
  150.4940  141.5554  157.2331 N   0  0  0  0  0  0  0  0  0  0  0  0
  151.1627  140.5405  157.8344 C   0  0  0  0  0  0  0  0  0  0  0  0
  150.8006  139.2192  157.5013 N   0  0  0  0  0  0  0  0  0  0  0  0
  150.3122  138.5159  158.6849 C   0  0  0  0  0  0  0  0  0  0  0  0
  150.0611  137.0351  158.3700 C   0  0  0  0  0  0  0  0  0  0  0  0
  149.1455  136.9431  157.2878 O   0  0  0  0  0  0  0  0  0  0  0  0
  149.6753  137.5252  156.1027 C   0  0  0  0  0  0  0  0  0  0  0  0
  149.9554  139.0333  156.3084 C   0  0  2  0  0  0  0  0  0  0  0  0
  150.5103  139.5971  154.9834 C   0  0  0  0  0  0  0  0  0  0  0  0
  149.7651  139.4887  153.8779 N   0  0  0  0  0  0  0  0  0  0  0  0
  151.6205  140.1240  154.9607 O   0  0  0  0  0  0  0  0  0  0  0  0
  152.1852  140.7716  158.7871 C   0  0  0  0  0  0  0  0  0  0  0  0
  153.0344  139.4674  159.5410 Cl  0  0  0  0  0  0  0  0  0  0  0  0
  152.5213  142.1007  159.1119 C   0  0  0  0  0  0  0  0  0  0  0  0
  150.2645  143.5991  157.0421 H   0  0  0  0  0  0  0  0  0  0  0  0
  151.0337  138.5956  159.4995 H   0  0  0  0  0  0  0  0  0  0  0  0
  149.3873  138.9804  159.0319 H   0  0  0  0  0  0  0  0  0  0  0  0
  150.9925  136.5210  158.1264 H   0  0  0  0  0  0  0  0  0  0  0  0
  149.6359  136.5323  159.2387 H   0  0  0  0  0  0  0  0  0  0  0  0
  150.5819  136.9917  155.8092 H   0  0  0  0  0  0  0  0  0  0  0  0
  148.9509  137.3771  155.3005 H   0  0  0  0  0  0  0  0  0  0  0  0
  148.9966  139.5213  156.4933 H   0  0  0  0  0  0  0  0  0  0  0  0
  150.1107  139.8502  153.0005 H   0  0  0  0  0  0  0  0  0  0  0  0
  148.8596  139.0444  153.9251 H   0  0  0  0  0  0  0  0  0  0  0  0
  153.2999  142.3051  159.8328 H   0  0  0  0  0  0  0  0  0  0  0  0
  1  2  3  0  0  0  0
  2  3  1  0  0  0  0
  3 18  1  0  0  0  0
  3  4  2  0  0  0  0
  4  5  1  0  0  0  0
  4 19  1  0  0  0  0
  5  6  2  0  0  0  0
  6  7  1  0  0  0  0
  6 16  1  0  0  0  0
  7 12  1  0  0  0  0
  7  8  1  0  0  0  0
  8  9  1  0  0  0  0
  8 20  1  0  0  0  0
  8 21  1  0  0  0  0
  9 10  1  0  0  0  0
  9 22  1  0  0  0  0
  9 23  1  0  0  0  0
 10 11  1  0  0  0  0
 11 12  1  0  0  0  0
 11 24  1  0  0  0  0
 11 25  1  0  0  0  0
 12 13  1  0  0  0  0
 12 26  1  0  0  0  0
 13 14  1  0  0  0  0
 13 15  2  0  0  0  0
 14 27  1  0  0  0  0
 14 28  1  0  0  0  0
 16 17  1  0  0  0  0
 16 18  2  0  0  0  0
 18 29  1  0  0  0  0
M  END
> <s_m_source_file>
AV-unprocessed.smi

> <i_m_source_file_index>
2479

> <i_lp_mmshare_version>
43012

> <i_f3d_flags>
0

> <s_epik_input>
TiNDYzFbY0hdbmMoYyhDbClbY0hdMSlOMltDSDJdW0NIMl1PW0NIMl1bQ0BIXTJDKD1PKVtOSDJd

> <s_epik_cmdline>
J2VwaWtfcHl0aG9uJywgJy1waCcsICc3LjAnLCAnLXRuJywgJzgnLCAnLW1hJywgJzIwMCcsICctbWV0YWxfYmluZGluZycsICctaW1hZScsICc8aW5maWxlLm1hZT4nLCAnLW9tYWUnLCAnPG91dGZpbGUubWFlPic=

> <r_lp_tautomer_probability>
1

> <r_epik_Ionization_Penalty>
1.61078e-07

> <r_epik_Ionization_Penalty_Charging>
0

> <r_epik_Ionization_Penalty_Neutral>
1.61078e-07

> <r_epik_State_Penalty>
-0

> <r_epik_Charging_Adjusted_Penalty>
0

> <i_epik_Tot_Q>
0

> <i_epik_Tot_abs_Q>
0

> <r_epik_Metal_State_Penalty>
-0

> <b_epik_Metal_Only>
0

> <s_lp_Force_Field>
OPLS_2005

> <r_lp_Energy>
19.0846

> <b_lp_Chiralities_Consistent>
1

> <s_lp_Variant>
AV-unprocessed.smi:2479-2

> <Gold.Version>
5.8.1

> <Gold.Id.Protein>
6NUR|6NUR_protein|mol2

> <Gold.PLP.Fitness>
36.1359

> <Gold.PLP.PLP>
-27.7163

> <Gold.PLP.part.hbond>
-2.5694

> <Gold.PLP.part.metal>
0.0000

> <Gold.PLP.part.buried>
-4.4468

> <Gold.PLP.part.nonpolar>
-21.1779

> <Gold.PLP.part.repulsive>
0.3134

> <Gold.PLP.ligand.clash>
0.0000

> <Gold.PLP.ligand.torsion>
0.1681

> <Gold.PLP.Chemscore.Hbond>
1.8640

> <Gold.PLP.Chemscore.CHOScore>
1.0000

> <Gold.PLP.Chemscore.Metal>
0.0000

> <Gold.Chemscore.Hbonds>
donor molecule, donor type, donor heavy atom, donor atom, acceptor molecule, acceptor atom, score
      L1  H    14    27       P1  7957  0.83
      P1  H  7989  7998       L1    15  1.00
      L1  C     4    19       P1  8028  1.00

> <Gold.PLP.Chemscore.Internal.Correction>
0.1638

> <Gold.Rescore>
     Score         DG    S(hbond)    S(metal)    S(lipo)     H(rot)  DE(clash)    DE(int)     intcor
     12.28     -13.96       1.99        0.00      48.51       1.50       0.00       1.68       ----

> <Gold.Chemscore.Fitness>
12.2824

> <Gold.Chemscore.DG>
-13.9618

> <Gold.Chemscore.ZeroCoef>
-5.4800

> <Gold.Chemscore.Hbond>
1.9904

> <Gold.Chemscore.Metal>
0.0000

> <Gold.Chemscore.Lipo>
48.5067

> <Gold.Chemscore.Internal_Hbond>
0.0000

> <Gold.Chemscore.DEClash>
0.0000

> <Gold.Chemscore.DEInternal>
1.6794

> <Gold.Chemscore.Rot>
1.5006

> <Gold.Chemscore.Internal.Correction>
   9.000000E+99

> <Gold.Chemscore.Hbonds>
donor molecule, donor type, donor heavy atom, donor atom, acceptor molecule, acceptor atom, score
      L1  H    14    27       P1  7957  0.83
      P1  H  7989  7998       L1    15  0.43

> <Gold.Chemscore.Hbond.Weighted>
-6.6481

> <Gold.Chemscore.Metal.Weighted>
-0.0000

> <Gold.Chemscore.Lipo.Weighted>
-5.6753

> <Gold.Chemscore.Internal_Hbond.Weighted>
0.0000

> <Gold.Chemscore.DEClash.Weighted>
0.0000

> <Gold.Chemscore.DEInternal.Weighted>
1.6794

> <Gold.Chemscore.Rot.Weighted>
3.8416

> <Gold.Chemscore.Internal.Correction.Weighted>
   9.000000E+99

> <Gold.Protein.RotatedTorsions>
[ 6907 6896 6895 6894 ] final    6.81 input  -60.11 | X-H torsion
[ 7974 7965 7964 7962 ] final  -58.14 input  175.53 | X-H torsion
[ 8008 7997 7996 7995 ] final   92.14 input   59.86 | X-H torsion
[ 10167 10162 10161 10158 ] final   55.04 input  -65.29 | X-H torsion
[ 10718 10713 10712 10709 ] final  -80.75 input   66.30 | X-H torsion
[ 10763 10752 10751 10750 ] final  -29.09 input  -60.55 | X-H torsion
[ 11005 11000 10999 10996 ] final   24.11 input  -57.11 | X-H torsion

> <Gold.Protein.ActiveResidues>
 VAL166  LYS551  ARG553  GLY616  TRP617  ASP618  TYR619  PRO620  LYS621  CYS622 
 ASP623  PHE694  ASN695  SER759  ASP760  ASP761  ALA762  ILE779  LEU786  VAL792 
 PHE793  MET794  SER795  GLU796  ALA797  LYS798  CYS799  TRP800  GLU811  SER814 

> <Gold.Protein.RotatedAtoms>
  151.6797  135.0963  160.0213 H   0  0  0  0  0  0  0  0  0  0  0  0  # atno 6907 bound_to 6896
  152.3843  133.6584  159.6194 H   0  0  0  0  0  0  0  0  0  0  0  0  # atno 6908 bound_to 6896
  150.7772  133.8979  159.3374 H   0  0  0  0  0  0  0  0  0  0  0  0  # atno 6909 bound_to 6896
  145.8428  140.8405  143.0026 H   0  0  0  0  0  0  0  0  0  0  0  0  # atno 7974 bound_to 7965
  156.0319  140.3329  155.7149 H   0  0  0  0  0  0  0  0  0  0  0  0  # atno 8008 bound_to 7997
  155.5872  140.0642  157.2786 H   0  0  0  0  0  0  0  0  0  0  0  0  # atno 8009 bound_to 7997
  154.4357  140.1833  156.1025 H   0  0  0  0  0  0  0  0  0  0  0  0  # atno 8010 bound_to 7997
  140.2237  144.3761  150.6440 H   0  0  0  0  0  0  0  0  0  0  0  0  # atno 10167 bound_to 10162
  156.0064  130.4583  150.3847 H   0  0  0  0  0  0  0  0  0  0  0  0  # atno 10718 bound_to 10713
  153.7589  135.6920  153.4929 H   0  0  0  0  0  0  0  0  0  0  0  0  # atno 10763 bound_to 10752
  153.1952  135.4456  155.0197 H   0  0  0  0  0  0  0  0  0  0  0  0  # atno 10764 bound_to 10752
  154.8160  135.3399  154.7106 H   0  0  0  0  0  0  0  0  0  0  0  0  # atno 10765 bound_to 10752
  140.3623  134.2112  155.7671 H   0  0  0  0  0  0  0  0  0  0  0  0  # atno 11005 bound_to 11000
  144.6732  140.0837  143.7468 LP  0  0  0  0  0  0  0  0  0  0  0  0  # atno 17320 bound_to 7965
  145.9446  139.2692  143.1248 LP  0  0  0  0  0  0  0  0  0  0  0  0  # atno 17321 bound_to 7965
  140.6236  143.2179  151.6643 LP  0  0  0  0  0  0  0  0  0  0  0  0  # atno 17342 bound_to 10162
  139.5135  144.3442  152.0712 LP  0  0  0  0  0  0  0  0  0  0  0  0  # atno 17343 bound_to 10162
  157.1925  131.0418  151.2693 LP  0  0  0  0  0  0  0  0  0  0  0  0  # atno 17370 bound_to 10713
  157.4048  130.7353  149.6794 LP  0  0  0  0  0  0  0  0  0  0  0  0  # atno 17371 bound_to 10713
  141.1980  133.8045  157.0601 LP  0  0  0  0  0  0  0  0  0  0  0  0  # atno 17394 bound_to 11000
  140.0617  134.9751  157.1316 LP  0  0  0  0  0  0  0  0  0  0  0  0  # atno 17395 bound_to 11000

$$$$
