AV-unprocessed.smi:967|AV-procd|sdf|4287|dock10
  -GOLD-   22720 2193D 1   1.00000     0.00000
 Structure written by MMmdl.
 42 43  0  0  0  0  0  0  0  0  1 V2000
  148.3537  122.3121  151.6946 C   0  0  0  0  0  0  0  0  0  0  0  0
  148.8594  123.3162  152.6179 N   0  0  0  0  0  0  0  0  0  0  0  0
  148.5688  123.1014  154.0269 C   0  0  0  0  0  0  0  0  0  0  0  0
  148.5952  124.6279  152.2029 C   0  0  0  0  0  0  0  0  0  0  0  0
  148.9375  125.0719  150.9054 C   0  0  0  0  0  0  0  0  0  0  0  0
  148.6454  126.4013  150.5444 C   0  0  0  0  0  0  0  0  0  0  0  0
  148.0134  127.2430  151.4903 C   0  0  0  0  0  0  0  0  0  0  0  0
  147.6883  128.6063  151.2567 N   0  0  0  0  0  0  0  0  0  0  0  0
  146.5922  129.2827  151.6400 C   0  0  0  0  0  0  0  0  0  0  0  0
  145.6691  128.8194  152.3092 O   0  0  0  0  0  0  0  0  0  0  0  0
  146.6402  130.5533  151.2144 N   0  0  0  0  0  0  0  0  0  0  0  0
  145.6352  131.5827  151.4656 C   0  0  2  0  0  0  0  0  0  0  0  0
  144.7989  131.8120  150.1917 C   0  0  0  0  0  0  0  0  0  0  0  0
  143.7922  132.9590  150.3763 C   0  0  0  0  0  0  0  0  0  0  0  0
  144.5018  134.2529  150.8101 C   0  0  1  0  0  0  0  0  0  0  0  0
  143.5437  135.2664  151.0303 O   0  0  0  0  0  0  0  0  0  0  0  0
  145.3203  134.0301  152.0932 C   0  0  0  0  0  0  0  0  0  0  0  0
  146.3286  132.8838  151.9144 C   0  0  0  0  0  0  0  0  0  0  0  0
  147.7272  126.7035  152.7612 C   0  0  0  0  0  0  0  0  0  0  0  0
  148.0022  125.4299  153.1132 N   0  0  0  0  0  0  0  0  0  0  0  0
  148.6351  122.5525  150.6686 H   0  0  0  0  0  0  0  0  0  0  0  0
  147.2667  122.2419  151.7473 H   0  0  0  0  0  0  0  0  0  0  0  0
  148.7709  121.3345  151.9372 H   0  0  0  0  0  0  0  0  0  0  0  0
  148.9861  123.9034  154.6370 H   0  0  0  0  0  0  0  0  0  0  0  0
  149.0077  122.1614  154.3619 H   0  0  0  0  0  0  0  0  0  0  0  0
  147.4934  123.0583  154.2023 H   0  0  0  0  0  0  0  0  0  0  0  0
  149.4184  124.4111  150.1990 H   0  0  0  0  0  0  0  0  0  0  0  0
  148.9242  126.7490  149.5619 H   0  0  0  0  0  0  0  0  0  0  0  0
  148.4010  129.1458  150.7874 H   0  0  0  0  0  0  0  0  0  0  0  0
  147.4460  130.8371  150.6768 H   0  0  0  0  0  0  0  0  0  0  0  0
  144.9570  131.2669  152.2606 H   0  0  0  0  0  0  0  0  0  0  0  0
  145.4571  132.0436  149.3528 H   0  0  0  0  0  0  0  0  0  0  0  0
  144.2677  130.8977  149.9238 H   0  0  0  0  0  0  0  0  0  0  0  0
  143.2465  133.1236  149.4466 H   0  0  0  0  0  0  0  0  0  0  0  0
  143.0516  132.6725  151.1245 H   0  0  0  0  0  0  0  0  0  0  0  0
  145.1655  134.5866  150.0113 H   0  0  0  0  0  0  0  0  0  0  0  0
  142.7486  135.0322  150.5763 H   0  0  0  0  0  0  0  0  0  0  0  0
  145.8479  134.9450  152.3655 H   0  0  0  0  0  0  0  0  0  0  0  0
  144.6528  133.7972  152.9243 H   0  0  0  0  0  0  0  0  0  0  0  0
  146.8647  132.7176  152.8495 H   0  0  0  0  0  0  0  0  0  0  0  0
  147.0773  133.1768  151.1769 H   0  0  0  0  0  0  0  0  0  0  0  0
  147.2575  127.3108  153.5212 H   0  0  0  0  0  0  0  0  0  0  0  0
  1  2  1  0  0  0  0
  1 21  1  0  0  0  0
  1 22  1  0  0  0  0
  1 23  1  0  0  0  0
  2  3  1  0  0  0  0
  2  4  1  0  0  0  0
  3 24  1  0  0  0  0
  3 25  1  0  0  0  0
  3 26  1  0  0  0  0
  4 20  1  0  0  0  0
  4  5  2  0  0  0  0
  5  6  1  0  0  0  0
  5 27  1  0  0  0  0
  6  7  2  0  0  0  0
  6 28  1  0  0  0  0
  7  8  1  0  0  0  0
  7 19  1  0  0  0  0
  8  9  1  0  0  0  0
  8 29  1  0  0  0  0
  9 10  2  0  0  0  0
  9 11  1  0  0  0  0
 11 12  1  0  0  0  0
 11 30  1  0  0  0  0
 12 18  1  0  0  0  0
 12 13  1  0  0  0  0
 12 31  1  0  0  0  0
 13 14  1  0  0  0  0
 13 32  1  0  0  0  0
 13 33  1  0  0  0  0
 14 15  1  0  0  0  0
 14 34  1  0  0  0  0
 14 35  1  0  0  0  0
 15 16  1  0  0  0  0
 15 17  1  0  0  0  0
 15 36  1  0  0  0  0
 16 37  1  0  0  0  0
 17 18  1  0  0  0  0
 17 38  1  0  0  0  0
 17 39  1  0  0  0  0
 18 40  1  0  0  0  0
 18 41  1  0  0  0  0
 19 20  2  0  0  0  0
 19 42  1  0  0  0  0
M  END
> <s_m_source_file>
AV-unprocessed.smi

> <i_m_source_file_index>
967

> <i_lp_mmshare_version>
43012

> <i_f3d_flags>
0

> <s_epik_input>
W0NIM11OKFtDSDNdKWMxW2NIXVtjSF1jKFtjSF1uMSlbTkhdQyg9TylbTkhdW0NAQEhdMltDSDJdW0NIMl1bQ0BASF0oW09IXSlbQ0gyXVtDSDJdMg==

> <s_epik_cmdline>
J2VwaWtfcHl0aG9uJywgJy1waCcsICc3LjAnLCAnLXRuJywgJzgnLCAnLW1hJywgJzIwMCcsICctbWV0YWxfYmluZGluZycsICctaW1hZScsICc8aW5maWxlLm1hZT4nLCAnLW9tYWUnLCAnPG91dGZpbGUubWFlPic=

> <r_lp_tautomer_probability>
1

> <r_epik_Ionization_Penalty>
0.629464

> <r_epik_Ionization_Penalty_Charging>
0

> <r_epik_Ionization_Penalty_Neutral>
0.629464

> <r_epik_State_Penalty>
0.645019

> <r_epik_Charging_Adjusted_Penalty>
0.645019

> <i_epik_Tot_Q>
0

> <i_epik_Tot_abs_Q>
0

> <r_epik_Metal_State_Penalty>
0.308581

> <b_epik_Metal_Only>
0

> <s_lp_Force_Field>
OPLS_2005

> <r_lp_Energy>
16.3049

> <b_lp_Chiralities_Consistent>
1

> <s_lp_Variant>
AV-unprocessed.smi:967-3

> <Gold.Version>
5.8.1

> <Gold.Id.Protein>
6NUR|6NUR_protein|mol2

> <Gold.PLP.Fitness>
41.1251

> <Gold.PLP.PLP>
-35.4780

> <Gold.PLP.part.hbond>
-3.7358

> <Gold.PLP.part.metal>
0.0000

> <Gold.PLP.part.buried>
-4.9194

> <Gold.PLP.part.nonpolar>
-28.2445

> <Gold.PLP.part.repulsive>
0.3083

> <Gold.PLP.ligand.clash>
0.0000

> <Gold.PLP.ligand.torsion>
0.5960

> <Gold.PLP.Chemscore.Hbond>
2.2088

> <Gold.PLP.Chemscore.CHOScore>
0.0000

> <Gold.PLP.Chemscore.Metal>
0.0000

> <Gold.Chemscore.Hbonds>
donor molecule, donor type, donor heavy atom, donor atom, acceptor molecule, acceptor atom, score
      L1  H     8    29       P1 10747  0.58
      L1  H    11    30       P1 10747  1.00
      L1  H    16    37       P1 10186  0.51

> <Gold.PLP.Chemscore.Internal.Correction>
0.2127

> <Gold.Rescore>
     Score         DG    S(hbond)    S(metal)    S(lipo)     H(rot)  DE(clash)    DE(int)     intcor
     14.04     -15.87       1.76        0.00      75.85       1.71       0.14       1.70       ----

> <Gold.Chemscore.Fitness>
14.0360

> <Gold.Chemscore.DG>
-15.8692

> <Gold.Chemscore.ZeroCoef>
-5.4800

> <Gold.Chemscore.Hbond>
1.7630

> <Gold.Chemscore.Metal>
0.0000

> <Gold.Chemscore.Lipo>
75.8486

> <Gold.Chemscore.Internal_Hbond>
0.0000

> <Gold.Chemscore.DEClash>
0.1365

> <Gold.Chemscore.DEInternal>
1.6967

> <Gold.Chemscore.Rot>
1.7084

> <Gold.Chemscore.Internal.Correction>
   9.000000E+99

> <Gold.Chemscore.Hbonds>
donor molecule, donor type, donor heavy atom, donor atom, acceptor molecule, acceptor atom, score
      L1  H     8    29       P1 10747  0.04
      L1  H    11    30       P1 10747  0.96
      L1  H    16    37       P1 10186  0.03

> <Gold.Chemscore.Hbond.Weighted>
-5.8884

> <Gold.Chemscore.Metal.Weighted>
-0.0000

> <Gold.Chemscore.Lipo.Weighted>
-8.8743

> <Gold.Chemscore.Internal_Hbond.Weighted>
0.0000

> <Gold.Chemscore.DEClash.Weighted>
0.1365

> <Gold.Chemscore.DEInternal.Weighted>
1.6967

> <Gold.Chemscore.Rot.Weighted>
4.3735

> <Gold.Chemscore.Internal.Correction.Weighted>
   9.000000E+99

> <Gold.Protein.RotatedTorsions>
[ 6907 6896 6895 6894 ] final -127.39 input  -60.11 | X-H torsion
[ 7974 7965 7964 7962 ] final -101.30 input  175.53 | X-H torsion
[ 8008 7997 7996 7995 ] final  -82.66 input   59.86 | X-H torsion
[ 10167 10162 10161 10158 ] final -125.50 input  -65.29 | X-H torsion
[ 10718 10713 10712 10709 ] final  123.94 input   66.30 | X-H torsion
[ 10763 10752 10751 10750 ] final  143.22 input  -60.55 | X-H torsion
[ 11005 11000 10999 10996 ] final    9.73 input  -57.11 | X-H torsion

> <Gold.Protein.ActiveResidues>
 VAL166  LYS551  ARG553  GLY616  TRP617  ASP618  TYR619  PRO620  LYS621  CYS622 
 ASP623  PHE694  ASN695  SER759  ASP760  ASP761  ALA762  ILE779  LEU786  VAL792 
 PHE793  MET794  SER795  GLU796  ALA797  LYS798  CYS799  TRP800  GLU811  SER814 

> <Gold.Protein.RotatedAtoms>
  150.9068  133.7048  159.2864 H   0  0  0  0  0  0  0  0  0  0  0  0  # atno 6907 bound_to 6896
  151.4548  135.1032  159.9718 H   0  0  0  0  0  0  0  0  0  0  0  0  # atno 6908 bound_to 6896
  152.4908  133.8445  159.7225 H   0  0  0  0  0  0  0  0  0  0  0  0  # atno 6909 bound_to 6896
  145.2833  140.9333  143.2919 H   0  0  0  0  0  0  0  0  0  0  0  0  # atno 7974 bound_to 7965
  154.6109  140.0630  156.9493 H   0  0  0  0  0  0  0  0  0  0  0  0  # atno 8008 bound_to 7997
  155.1974  140.3312  155.4330 H   0  0  0  0  0  0  0  0  0  0  0  0  # atno 8009 bound_to 7997
  156.2376  140.1870  156.7060 H   0  0  0  0  0  0  0  0  0  0  0  0  # atno 8010 bound_to 7997
  139.9815  143.5738  152.2376 H   0  0  0  0  0  0  0  0  0  0  0  0  # atno 10167 bound_to 10162
  157.5625  131.1088  150.8513 H   0  0  0  0  0  0  0  0  0  0  0  0  # atno 10718 bound_to 10713
  153.9687  135.2953  155.3429 H   0  0  0  0  0  0  0  0  0  0  0  0  # atno 10763 bound_to 10752
  154.7334  135.5057  153.9005 H   0  0  0  0  0  0  0  0  0  0  0  0  # atno 10764 bound_to 10752
  153.0911  135.6708  153.9965 H   0  0  0  0  0  0  0  0  0  0  0  0  # atno 10765 bound_to 10752
  140.5224  134.0546  155.7849 H   0  0  0  0  0  0  0  0  0  0  0  0  # atno 11005 bound_to 11000
  144.9234  139.4384  143.6530 LP  0  0  0  0  0  0  0  0  0  0  0  0  # atno 17320 bound_to 7965
  146.3209  139.8107  142.8946 LP  0  0  0  0  0  0  0  0  0  0  0  0  # atno 17321 bound_to 7965
  139.6407  144.7654  151.2346 LP  0  0  0  0  0  0  0  0  0  0  0  0  # atno 17342 bound_to 10162
  140.7487  143.6323  150.8412 LP  0  0  0  0  0  0  0  0  0  0  0  0  # atno 17343 bound_to 10162
  156.9007  130.5245  149.5283 LP  0  0  0  0  0  0  0  0  0  0  0  0  # atno 17370 bound_to 10713
  156.0676  130.5716  150.9320 LP  0  0  0  0  0  0  0  0  0  0  0  0  # atno 17371 bound_to 10713
  141.1327  133.9275  157.2501 LP  0  0  0  0  0  0  0  0  0  0  0  0  # atno 17394 bound_to 11000
  139.9598  135.0157  156.9230 LP  0  0  0  0  0  0  0  0  0  0  0  0  # atno 17395 bound_to 11000

$$$$
