AV-unprocessed.smi:232|AV-procd|sdf|1781|dock5
  -GOLD-   2262020333D 1   1.00000     0.00000
 Structure written by MMmdl.
 52 55  0  0  0  0  0  0  0  0  1 V2000
  151.9413  144.8951  158.9986 C   0  0  0  0  0  0  0  0  0  0  0  0
  152.4025  143.6021  158.3158 C   0  0  0  0  0  0  0  0  0  0  0  0
  152.1841  142.3464  159.1851 C   0  0  2  0  0  0  0  0  0  0  0  0
  152.8190  142.4304  160.5802 C   0  0  0  0  0  0  0  0  0  0  0  0
  153.2050  140.9859  160.9213 C   0  0  0  0  0  0  0  0  0  0  0  0
  152.8018  140.1721  159.6849 C   0  0  2  0  0  0  0  0  0  0  0  0
  153.7351  138.9826  159.4038 C   0  0  0  0  0  0  0  0  0  0  0  0
  152.7625  141.1426  158.5985 N   0  0  0  0  0  0  0  0  0  0  0  0
  152.1830  140.7015  157.4575 C   0  0  0  0  0  0  0  0  0  0  0  0
  152.8096  139.7849  156.6725 N   0  0  0  0  0  0  0  0  0  0  0  0
  152.2216  139.3528  155.5527 C   0  0  0  0  0  0  0  0  0  0  0  0
  151.0364  139.6991  155.0441 N   0  0  0  0  0  0  0  0  0  0  0  0
  150.4111  140.6217  155.8307 C   0  0  0  0  0  0  0  0  0  0  0  0
  150.9109  141.1729  157.0425 C   0  0  0  0  0  0  0  0  0  0  0  0
  150.0004  142.0811  157.5673 N   0  0  0  0  0  0  0  0  0  0  0  0
  149.0132  142.0662  156.7128 C   0  0  0  0  0  0  0  0  0  0  0  0
  149.1771  141.2162  155.6419 N   0  0  0  0  0  0  0  0  0  0  0  0
  148.2424  140.9941  154.5539 C   0  0  0  0  0  0  0  0  0  0  0  0
  146.7781  140.9987  155.0328 C   0  0  1  0  0  0  0  0  0  0  0  0
  146.6462  140.2733  156.2415 O   0  0  0  0  0  0  0  0  0  0  0  0
  146.2069  142.4225  155.1866 C   0  0  1  0  0  0  0  0  0  0  0  0
  146.0823  143.2558  153.9009 C   0  0  0  0  0  0  0  0  0  0  0  0
  144.7415  143.9626  154.0503 C   0  0  0  0  0  0  0  0  0  0  0  0
  144.3335  143.6825  155.4943 C   0  0  0  0  0  0  0  0  0  0  0  0
  144.9055  142.4125  155.7567 O   0  0  0  0  0  0  0  0  0  0  0  0
  152.0806  145.7511  158.3381 H   0  0  0  0  0  0  0  0  0  0  0  0
  152.5050  145.0874  159.9116 H   0  0  0  0  0  0  0  0  0  0  0  0
  150.8841  144.8453  159.2599 H   0  0  0  0  0  0  0  0  0  0  0  0
  151.8547  143.5001  157.3785 H   0  0  0  0  0  0  0  0  0  0  0  0
  153.4553  143.6865  158.0431 H   0  0  0  0  0  0  0  0  0  0  0  0
  151.1115  142.1885  159.3126 H   0  0  0  0  0  0  0  0  0  0  0  0
  153.7160  143.0510  160.5636 H   0  0  0  0  0  0  0  0  0  0  0  0
  152.1322  142.8602  161.3099 H   0  0  0  0  0  0  0  0  0  0  0  0
  154.2801  140.9273  161.0975 H   0  0  0  0  0  0  0  0  0  0  0  0
  152.7022  140.6231  161.8181 H   0  0  0  0  0  0  0  0  0  0  0  0
  151.7905  139.7925  159.8426 H   0  0  0  0  0  0  0  0  0  0  0  0
  153.7656  138.3038  160.2561 H   0  0  0  0  0  0  0  0  0  0  0  0
  154.7542  139.3168  159.2068 H   0  0  0  0  0  0  0  0  0  0  0  0
  153.4005  138.4075  158.5400 H   0  0  0  0  0  0  0  0  0  0  0  0
  152.7804  138.6249  154.9832 H   0  0  0  0  0  0  0  0  0  0  0  0
  148.1290  142.6733  156.8436 H   0  0  0  0  0  0  0  0  0  0  0  0
  148.4026  141.7614  153.7952 H   0  0  0  0  0  0  0  0  0  0  0  0
  148.4840  140.0383  154.0873 H   0  0  0  0  0  0  0  0  0  0  0  0
  146.1717  140.4770  154.2912 H   0  0  0  0  0  0  0  0  0  0  0  0
  145.7281  140.1096  156.3939 H   0  0  0  0  0  0  0  0  0  0  0  0
  146.8431  142.9719  155.8833 H   0  0  0  0  0  0  0  0  0  0  0  0
  146.9058  143.9665  153.8227 H   0  0  0  0  0  0  0  0  0  0  0  0
  146.0883  142.6484  152.9958 H   0  0  0  0  0  0  0  0  0  0  0  0
  144.7962  145.0296  153.8324 H   0  0  0  0  0  0  0  0  0  0  0  0
  144.0146  143.5173  153.3697 H   0  0  0  0  0  0  0  0  0  0  0  0
  144.7633  144.4230  156.1710 H   0  0  0  0  0  0  0  0  0  0  0  0
  143.2523  143.6756  155.6337 H   0  0  0  0  0  0  0  0  0  0  0  0
  1  2  1  0  0  0  0
  1 26  1  0  0  0  0
  1 27  1  0  0  0  0
  1 28  1  0  0  0  0
  2  3  1  0  0  0  0
  2 29  1  0  0  0  0
  2 30  1  0  0  0  0
  3  8  1  0  0  0  0
  3  4  1  0  0  0  0
  3 31  1  0  0  0  0
  4  5  1  0  0  0  0
  4 32  1  0  0  0  0
  4 33  1  0  0  0  0
  5  6  1  0  0  0  0
  5 34  1  0  0  0  0
  5 35  1  0  0  0  0
  6  7  1  0  0  0  0
  6  8  1  0  0  0  0
  6 36  1  0  0  0  0
  7 37  1  0  0  0  0
  7 38  1  0  0  0  0
  7 39  1  0  0  0  0
  8  9  1  0  0  0  0
  9 14  1  0  0  0  0
  9 10  2  0  0  0  0
 10 11  1  0  0  0  0
 11 12  2  0  0  0  0
 11 40  1  0  0  0  0
 12 13  1  0  0  0  0
 13 17  1  0  0  0  0
 13 14  2  0  0  0  0
 14 15  1  0  0  0  0
 15 16  2  0  0  0  0
 16 17  1  0  0  0  0
 16 41  1  0  0  0  0
 17 18  1  0  0  0  0
 18 19  1  0  0  0  0
 18 42  1  0  0  0  0
 18 43  1  0  0  0  0
 19 20  1  0  0  0  0
 19 21  1  0  0  0  0
 19 44  1  0  0  0  0
 20 45  1  0  0  0  0
 21 25  1  0  0  0  0
 21 22  1  0  0  0  0
 21 46  1  0  0  0  0
 22 23  1  0  0  0  0
 22 47  1  0  0  0  0
 22 48  1  0  0  0  0
 23 24  1  0  0  0  0
 23 49  1  0  0  0  0
 23 50  1  0  0  0  0
 24 25  1  0  0  0  0
 24 51  1  0  0  0  0
 24 52  1  0  0  0  0
M  END
> <s_m_source_file>
AV-unprocessed.smi

> <i_m_source_file_index>
232

> <i_lp_mmshare_version>
43012

> <i_f3d_flags>
0

> <s_epik_input>
W0NIM11bQ0gyXVtDQEBIXTFbQ0gyXVtDSDJdW0NAQEhdKFtDSDNdKU4xYyhuW2NIXW4yKWMoYzIzKW5bY0hdbjNbQ0gyXVtDQEhdKFtPSF0pW0NAQEhdNFtDSDJdW0NIMl1bQ0gyXU80

> <s_epik_cmdline>
J2VwaWtfcHl0aG9uJywgJy1waCcsICc3LjAnLCAnLXRuJywgJzgnLCAnLW1hJywgJzIwMCcsICctbWV0YWxfYmluZGluZycsICctaW1hZScsICc8aW5maWxlLm1hZT4nLCAnLW9tYWUnLCAnPG91dGZpbGUubWFlPic=

> <r_lp_tautomer_probability>
1

> <r_epik_Ionization_Penalty>
0.00258048

> <r_epik_Ionization_Penalty_Charging>
0

> <r_epik_Ionization_Penalty_Neutral>
0.00258048

> <r_epik_State_Penalty>
0.00168551

> <r_epik_Charging_Adjusted_Penalty>
0.00168551

> <i_epik_Tot_Q>
0

> <i_epik_Tot_abs_Q>
0

> <r_epik_Metal_State_Penalty>
-0

> <b_epik_Metal_Only>
0

> <s_lp_Force_Field>
OPLS_2005

> <r_lp_Energy>
54.2714

> <b_lp_Chiralities_Consistent>
1

> <s_lp_Variant>
AV-unprocessed.smi:232-15

> <Gold.Version>
5.8.1

> <Gold.Id.Protein>
6NUR|6NUR_protein|mol2

> <Gold.PLP.Fitness>
50.8418

> <Gold.PLP.PLP>
-45.8645

> <Gold.PLP.part.hbond>
-2.0066

> <Gold.PLP.part.metal>
0.0000

> <Gold.PLP.part.buried>
-1.9821

> <Gold.PLP.part.nonpolar>
-42.0670

> <Gold.PLP.part.repulsive>
0.2967

> <Gold.PLP.ligand.clash>
0.7039

> <Gold.PLP.ligand.torsion>
0.8763

> <Gold.PLP.Chemscore.Hbond>
2.0000

> <Gold.PLP.Chemscore.CHOScore>
0.4416

> <Gold.PLP.Chemscore.Metal>
0.0000

> <Gold.Chemscore.Hbonds>
donor molecule, donor type, donor heavy atom, donor atom, acceptor molecule, acceptor atom, score
      P1  H  7989  7998       L1    12  1.00
      P1  H  7997  8008       L1    10  1.00
      L1  C    16    41       P1  8028  0.40

> <Gold.PLP.Chemscore.Internal.Correction>
0.1092

> <Gold.Rescore>
     Score         DG    S(hbond)    S(metal)    S(lipo)     H(rot)  DE(clash)    DE(int)     intcor
      9.56     -14.11       0.71        0.00     106.75       2.43       2.12       2.43       ----

> <Gold.Chemscore.Fitness>
9.5587

> <Gold.Chemscore.DG>
-14.1144

> <Gold.Chemscore.ZeroCoef>
-5.4800

> <Gold.Chemscore.Hbond>
0.7052

> <Gold.Chemscore.Metal>
0.0000

> <Gold.Chemscore.Lipo>
106.7504

> <Gold.Chemscore.Internal_Hbond>
0.0000

> <Gold.Chemscore.DEClash>
2.1235

> <Gold.Chemscore.DEInternal>
2.4322

> <Gold.Chemscore.Rot>
2.4260

> <Gold.Chemscore.Internal.Correction>
   9.000000E+99

> <Gold.Chemscore.Hbonds>
donor molecule, donor type, donor heavy atom, donor atom, acceptor molecule, acceptor atom, score
      P1  H  7989  7998       L1    12  0.07
      P1  H  7997  8008       L1    10  0.49

> <Gold.Chemscore.Hbond.Weighted>
-2.3553

> <Gold.Chemscore.Metal.Weighted>
-0.0000

> <Gold.Chemscore.Lipo.Weighted>
-12.4898

> <Gold.Chemscore.Internal_Hbond.Weighted>
0.0000

> <Gold.Chemscore.DEClash.Weighted>
2.1235

> <Gold.Chemscore.DEInternal.Weighted>
2.4322

> <Gold.Chemscore.Rot.Weighted>
6.2107

> <Gold.Chemscore.Internal.Correction.Weighted>
   9.000000E+99

> <Gold.Protein.RotatedTorsions>
[ 6907 6896 6895 6894 ] final -114.76 input  -60.11 | X-H torsion
[ 7974 7965 7964 7962 ] final  -65.20 input  175.53 | X-H torsion
[ 8008 7997 7996 7995 ] final  -37.20 input   59.86 | X-H torsion
[ 10167 10162 10161 10158 ] final  -70.94 input  -65.29 | X-H torsion
[ 10718 10713 10712 10709 ] final  128.40 input   66.30 | X-H torsion
[ 10763 10752 10751 10750 ] final  -83.56 input  -60.55 | X-H torsion
[ 11005 11000 10999 10996 ] final -178.83 input  -57.11 | X-H torsion

> <Gold.Protein.ActiveResidues>
 VAL166  LYS551  ARG553  GLY616  TRP617  ASP618  TYR619  PRO620  LYS621  CYS622 
 ASP623  PHE694  ASN695  SER759  ASP760  ASP761  ALA762  ILE779  LEU786  VAL792 
 PHE793  MET794  SER795  GLU796  ALA797  LYS798  CYS799  TRP800  GLU811  SER814 

> <Gold.Protein.RotatedAtoms>
  150.7926  133.8756  159.3270 H   0  0  0  0  0  0  0  0  0  0  0  0  # atno 6907 bound_to 6896
  151.6589  135.0990  160.0185 H   0  0  0  0  0  0  0  0  0  0  0  0  # atno 6908 bound_to 6896
  152.4003  133.6768  159.6346 H   0  0  0  0  0  0  0  0  0  0  0  0  # atno 6909 bound_to 6896
  145.7572  140.8879  143.0449 H   0  0  0  0  0  0  0  0  0  0  0  0  # atno 7974 bound_to 7965
  154.4058  140.1610  156.2497 H   0  0  0  0  0  0  0  0  0  0  0  0  # atno 8008 bound_to 7997
  155.9129  140.3426  155.6090 H   0  0  0  0  0  0  0  0  0  0  0  0  # atno 8009 bound_to 7997
  155.7314  140.0781  157.2278 H   0  0  0  0  0  0  0  0  0  0  0  0  # atno 8010 bound_to 7997
  140.5313  143.2321  151.7257 H   0  0  0  0  0  0  0  0  0  0  0  0  # atno 10167 bound_to 10162
  157.5247  131.1098  150.9100 H   0  0  0  0  0  0  0  0  0  0  0  0  # atno 10718 bound_to 10713
  154.5891  135.5552  153.7261 H   0  0  0  0  0  0  0  0  0  0  0  0  # atno 10763 bound_to 10752
  153.0110  135.6339  154.1874 H   0  0  0  0  0  0  0  0  0  0  0  0  # atno 10764 bound_to 10752
  154.1815  135.2887  155.3030 H   0  0  0  0  0  0  0  0  0  0  0  0  # atno 10765 bound_to 10752
  140.4253  134.6568  157.4685 H   0  0  0  0  0  0  0  0  0  0  0  0  # atno 11005 bound_to 11000
  144.6837  139.9673  143.7481 LP  0  0  0  0  0  0  0  0  0  0  0  0  # atno 17320 bound_to 7965
  146.0299  139.3326  143.0761 LP  0  0  0  0  0  0  0  0  0  0  0  0  # atno 17321 bound_to 7965
  139.4955  144.4110  152.0080 LP  0  0  0  0  0  0  0  0  0  0  0  0  # atno 17342 bound_to 10162
  140.3212  144.3425  150.6009 LP  0  0  0  0  0  0  0  0  0  0  0  0  # atno 17343 bound_to 10162
  156.9700  130.5487  149.5290 LP  0  0  0  0  0  0  0  0  0  0  0  0  # atno 17370 bound_to 10713
  156.0379  130.5464  150.8698 LP  0  0  0  0  0  0  0  0  0  0  0  0  # atno 17371 bound_to 10713
  140.0171  134.6602  155.9293 LP  0  0  0  0  0  0  0  0  0  0  0  0  # atno 17394 bound_to 11000
  141.1767  133.6541  156.4858 LP  0  0  0  0  0  0  0  0  0  0  0  0  # atno 17395 bound_to 11000

$$$$
