AV-unprocessed.smi:2424|AV-procd|sdf|9560|dock6
  -GOLD-   2272013193D 1   1.00000     0.00000
 Structure written by MMmdl.
 50 51  0  0  0  0  0  0  0  0  1 V2000
  145.3879  139.0018  156.7321 C   0  0  0  0  0  0  0  0  0  0  0  0
  146.7753  138.3455  156.6519 C   0  0  0  0  0  0  0  0  0  0  0  0
  147.5981  138.6935  155.3899 C   0  0  0  0  0  0  0  0  0  0  0  0
  148.8564  137.7864  155.3427 C   0  0  0  0  0  0  0  0  0  0  0  0
  150.0221  138.3239  154.4961 C   0  0  0  0  0  0  0  0  0  0  0  0
  146.7643  138.7960  154.0840 C   0  0  2  0  0  0  0  0  0  0  0  0
  146.9160  137.6596  153.1789 N   0  0  0  0  0  0  0  0  0  0  0  0
  145.9162  136.8864  152.7352 C   0  0  0  0  0  0  0  0  0  0  0  0
  144.7368  137.0711  153.0325 O   0  0  0  0  0  0  0  0  0  0  0  0
  146.3869  135.9095  151.9390 N   0  0  0  0  0  0  0  0  0  0  0  0
  145.6908  134.8707  151.3053 C   0  0  0  0  0  0  0  0  0  0  0  0
  144.6412  135.2015  150.5334 C   0  0  0  0  0  0  0  0  0  0  0  0
  143.8909  134.2335  149.8620 N   0  0  0  0  0  0  0  0  0  0  0  0
  144.1400  132.9056  149.9167 C   0  0  0  0  0  0  0  0  0  0  0  0
  143.4313  132.1130  149.2988 O   0  0  0  0  0  0  0  0  0  0  0  0
  145.2907  132.5113  150.7456 C   0  0  0  0  0  0  0  0  0  0  0  0
  145.6309  131.0342  150.8366 C   0  0  0  0  0  0  0  0  0  0  0  0
  146.0158  133.4506  151.3967 C   0  0  0  0  0  0  0  0  0  0  0  0
  147.6071  139.9993  153.6533 C   0  0  1  0  0  0  0  0  0  0  0  0
  146.9740  141.1153  152.8316 C   0  0  0  0  0  0  0  0  0  0  0  0
  147.8941  140.2044  155.1494 C   0  0  1  0  0  0  0  0  0  0  0  0
  146.9363  141.0856  155.7251 O   0  0  0  0  0  0  0  0  0  0  0  0
  147.2326  141.4221  157.0701 C   0  0  0  0  0  0  0  0  0  0  0  0
  143.1133  134.5592  149.3060 H   0  0  0  0  0  0  0  0  0  0  0  0
  144.9160  138.7768  157.6885 H   0  0  0  0  0  0  0  0  0  0  0  0
  144.7176  138.6417  155.9526 H   0  0  0  0  0  0  0  0  0  0  0  0
  145.4535  140.0858  156.6499 H   0  0  0  0  0  0  0  0  0  0  0  0
  147.3209  138.6622  157.5408 H   0  0  0  0  0  0  0  0  0  0  0  0
  146.6685  137.2677  156.7647 H   0  0  0  0  0  0  0  0  0  0  0  0
  149.2192  137.5705  156.3472 H   0  0  0  0  0  0  0  0  0  0  0  0
  148.5943  136.8102  154.9355 H   0  0  0  0  0  0  0  0  0  0  0  0
  150.8115  137.5761  154.4192 H   0  0  0  0  0  0  0  0  0  0  0  0
  150.4696  139.2136  154.9380 H   0  0  0  0  0  0  0  0  0  0  0  0
  149.7062  138.5715  153.4829 H   0  0  0  0  0  0  0  0  0  0  0  0
  145.7295  139.0891  154.2772 H   0  0  0  0  0  0  0  0  0  0  0  0
  147.8551  137.4403  152.8810 H   0  0  0  0  0  0  0  0  0  0  0  0
  147.3821  135.9141  151.7705 H   0  0  0  0  0  0  0  0  0  0  0  0
  144.2954  136.2126  150.3735 H   0  0  0  0  0  0  0  0  0  0  0  0
  146.5038  130.8634  151.4674 H   0  0  0  0  0  0  0  0  0  0  0  0
  145.8469  130.6313  149.8466 H   0  0  0  0  0  0  0  0  0  0  0  0
  144.7951  130.4763  151.2602 H   0  0  0  0  0  0  0  0  0  0  0  0
  146.8546  133.1107  151.9811 H   0  0  0  0  0  0  0  0  0  0  0  0
  148.5243  139.6595  153.1687 H   0  0  0  0  0  0  0  0  0  0  0  0
  146.0192  141.4326  153.2514 H   0  0  0  0  0  0  0  0  0  0  0  0
  146.7880  140.7897  151.8082 H   0  0  0  0  0  0  0  0  0  0  0  0
  147.6233  141.9898  152.7882 H   0  0  0  0  0  0  0  0  0  0  0  0
  148.9261  140.5123  155.3257 H   0  0  0  0  0  0  0  0  0  0  0  0
  146.4409  142.0537  157.4723 H   0  0  0  0  0  0  0  0  0  0  0  0
  148.1696  141.9763  157.1350 H   0  0  0  0  0  0  0  0  0  0  0  0
  147.3099  140.5361  157.7003 H   0  0  0  0  0  0  0  0  0  0  0  0
  1  2  1  0  0  0  0
  1 25  1  0  0  0  0
  1 26  1  0  0  0  0
  1 27  1  0  0  0  0
  2  3  1  0  0  0  0
  2 28  1  0  0  0  0
  2 29  1  0  0  0  0
  3 21  1  0  0  0  0
  3  4  1  0  0  0  0
  3  6  1  0  0  0  0
  4  5  1  0  0  0  0
  4 30  1  0  0  0  0
  4 31  1  0  0  0  0
  5 32  1  0  0  0  0
  5 33  1  0  0  0  0
  5 34  1  0  0  0  0
  6  7  1  0  0  0  0
  6 19  1  0  0  0  0
  6 35  1  0  0  0  0
  7  8  1  0  0  0  0
  7 36  1  0  0  0  0
  8  9  2  0  0  0  0
  8 10  1  0  0  0  0
 10 11  1  0  0  0  0
 10 37  1  0  0  0  0
 11 18  1  0  0  0  0
 11 12  2  0  0  0  0
 12 13  1  0  0  0  0
 12 38  1  0  0  0  0
 13 24  1  0  0  0  0
 13 14  1  0  0  0  0
 14 15  2  0  0  0  0
 14 16  1  0  0  0  0
 16 17  1  0  0  0  0
 16 18  2  0  0  0  0
 17 39  1  0  0  0  0
 17 40  1  0  0  0  0
 17 41  1  0  0  0  0
 18 42  1  0  0  0  0
 19 20  1  0  0  0  0
 19 21  1  0  0  0  0
 19 43  1  0  0  0  0
 20 44  1  0  0  0  0
 20 45  1  0  0  0  0
 20 46  1  0  0  0  0
 21 22  1  0  0  0  0
 21 47  1  0  0  0  0
 22 23  1  0  0  0  0
 23 48  1  0  0  0  0
 23 49  1  0  0  0  0
 23 50  1  0  0  0  0
M  END
> <s_m_source_file>
AV-unprocessed.smi

> <i_m_source_file_index>
2424

> <i_lp_mmshare_version>
43012

> <i_f3d_flags>
0

> <s_epik_input>
W0NIM11PW0NAQEhdMVtDQEhdKFtDSDNdKVtDQEBIXShDMShbQ0gyXVtDSDNdKVtDSDJdW0NIM10pW05IXUMoPU8pW05IXWMyW2NIXVtuSF1jKD1PKWMoW0NIM10pW2NIXTI=

> <s_epik_cmdline>
J2VwaWtfcHl0aG9uJywgJy1waCcsICc3LjAnLCAnLXRuJywgJzgnLCAnLW1hJywgJzIwMCcsICctbWV0YWxfYmluZGluZycsICctaW1hZScsICc8aW5maWxlLm1hZT4nLCAnLW9tYWUnLCAnPG91dGZpbGUubWFlPic=

> <r_lp_tautomer_probability>
1

> <r_epik_Ionization_Penalty>
4.7326e-05

> <r_epik_Ionization_Penalty_Charging>
2.70169e-05

> <r_epik_Ionization_Penalty_Neutral>
2.0309e-05

> <r_epik_State_Penalty>
-0

> <r_epik_Charging_Adjusted_Penalty>
2.70169e-05

> <i_epik_Tot_Q>
0

> <i_epik_Tot_abs_Q>
0

> <r_epik_Metal_State_Penalty>
0.0198736

> <b_epik_Metal_Only>
0

> <s_lp_Force_Field>
OPLS_2005

> <r_lp_Energy>
37.5965

> <b_lp_Chiralities_Consistent>
1

> <s_lp_Variant>
AV-unprocessed.smi:2424-2

> <Gold.Version>
5.8.1

> <Gold.Id.Protein>
6NUR|6NUR_protein|mol2

> <Gold.PLP.Fitness>
41.4408

> <Gold.PLP.PLP>
-29.1127

> <Gold.PLP.part.hbond>
-4.0797

> <Gold.PLP.part.metal>
0.0000

> <Gold.PLP.part.buried>
-6.9083

> <Gold.PLP.part.nonpolar>
-20.4445

> <Gold.PLP.part.repulsive>
0.5767

> <Gold.PLP.ligand.clash>
0.0000

> <Gold.PLP.ligand.torsion>
1.2680

> <Gold.PLP.Chemscore.Hbond>
3.7190

> <Gold.PLP.Chemscore.CHOScore>
1.0000

> <Gold.PLP.Chemscore.Metal>
0.0000

> <Gold.Chemscore.Hbonds>
donor molecule, donor type, donor heavy atom, donor atom, acceptor molecule, acceptor atom, score
      L1  H     7    36       P1  7948  0.91
      L1  H    10    37       P1  7948  1.00
      L1  H    13    24       P1 10186  0.54
      P1  H 10785 10796       L1    15  0.93
      L1  C    12    38       P1 10171  1.00

> <Gold.PLP.Chemscore.Internal.Correction>
0.7072

> <Gold.Rescore>
     Score         DG    S(hbond)    S(metal)    S(lipo)     H(rot)  DE(clash)    DE(int)     intcor
     18.73     -22.02       3.79        0.00      67.11       1.55       0.41       2.88       ----

> <Gold.Chemscore.Fitness>
18.7262

> <Gold.Chemscore.DG>
-22.0170

> <Gold.Chemscore.ZeroCoef>
-5.4800

> <Gold.Chemscore.Hbond>
3.7885

> <Gold.Chemscore.Metal>
0.0000

> <Gold.Chemscore.Lipo>
67.1112

> <Gold.Chemscore.Internal_Hbond>
0.0000

> <Gold.Chemscore.DEClash>
0.4067

> <Gold.Chemscore.DEInternal>
2.8841

> <Gold.Chemscore.Rot>
1.5502

> <Gold.Chemscore.Internal.Correction>
   9.000000E+99

> <Gold.Chemscore.Hbonds>
donor molecule, donor type, donor heavy atom, donor atom, acceptor molecule, acceptor atom, score
      L1  H     7    36       P1  7948  0.89
      L1  H    10    37       P1  7948  0.97
      L1  H    13    24       P1 10186  0.53
      P1  H 10785 10796       L1    15  0.84

> <Gold.Chemscore.Hbond.Weighted>
-12.6535

> <Gold.Chemscore.Metal.Weighted>
-0.0000

> <Gold.Chemscore.Lipo.Weighted>
-7.8520

> <Gold.Chemscore.Internal_Hbond.Weighted>
0.0000

> <Gold.Chemscore.DEClash.Weighted>
0.4067

> <Gold.Chemscore.DEInternal.Weighted>
2.8841

> <Gold.Chemscore.Rot.Weighted>
3.9685

> <Gold.Chemscore.Internal.Correction.Weighted>
   9.000000E+99

> <Gold.Protein.RotatedTorsions>
[ 6907 6896 6895 6894 ] final -106.89 input  -60.11 | X-H torsion
[ 7974 7965 7964 7962 ] final  -44.55 input  175.53 | X-H torsion
[ 8008 7997 7996 7995 ] final  172.03 input   59.86 | X-H torsion
[ 10167 10162 10161 10158 ] final  -30.51 input  -65.29 | X-H torsion
[ 10718 10713 10712 10709 ] final  172.99 input   66.30 | X-H torsion
[ 10763 10752 10751 10750 ] final  -28.60 input  -60.55 | X-H torsion
[ 11005 11000 10999 10996 ] final -121.69 input  -57.11 | X-H torsion

> <Gold.Protein.ActiveResidues>
 VAL166  LYS551  ARG553  GLY616  TRP617  ASP618  TYR619  PRO620  LYS621  CYS622 
 ASP623  PHE694  ASN695  SER759  ASP760  ASP761  ALA762  ILE779  LEU786  VAL792 
 PHE793  MET794  SER795  GLU796  ALA797  LYS798  CYS799  TRP800  GLU811  SER814 

> <Gold.Protein.RotatedAtoms>
  150.7413  133.9909  159.3606 H   0  0  0  0  0  0  0  0  0  0  0  0  # atno 6907 bound_to 6896
  151.7857  135.0747  160.0389 H   0  0  0  0  0  0  0  0  0  0  0  0  # atno 6908 bound_to 6896
  152.3243  133.5851  159.5802 H   0  0  0  0  0  0  0  0  0  0  0  0  # atno 6909 bound_to 6896
  145.9909  140.7181  142.9317 H   0  0  0  0  0  0  0  0  0  0  0  0  # atno 7974 bound_to 7965
  156.1214  140.1496  156.9199 H   0  0  0  0  0  0  0  0  0  0  0  0  # atno 8008 bound_to 7997
  154.4838  140.0871  156.7482 H   0  0  0  0  0  0  0  0  0  0  0  0  # atno 8009 bound_to 7997
  155.4422  140.3431  155.4293 H   0  0  0  0  0  0  0  0  0  0  0  0  # atno 8010 bound_to 7997
  140.7248  143.3843  151.1543 H   0  0  0  0  0  0  0  0  0  0  0  0  # atno 10167 bound_to 10162
  156.9708  131.0089  151.2905 H   0  0  0  0  0  0  0  0  0  0  0  0  # atno 10718 bound_to 10713
  153.7510  135.6926  153.4946 H   0  0  0  0  0  0  0  0  0  0  0  0  # atno 10763 bound_to 10752
  153.2003  135.4439  155.0257 H   0  0  0  0  0  0  0  0  0  0  0  0  # atno 10764 bound_to 10752
  154.8187  135.3411  154.7031 H   0  0  0  0  0  0  0  0  0  0  0  0  # atno 10765 bound_to 10752
  141.0051  134.0346  157.3487 H   0  0  0  0  0  0  0  0  0  0  0  0  # atno 11005 bound_to 11000
  144.6889  140.3069  143.7254 LP  0  0  0  0  0  0  0  0  0  0  0  0  # atno 17320 bound_to 7965
  145.7631  139.1831  143.2256 LP  0  0  0  0  0  0  0  0  0  0  0  0  # atno 17321 bound_to 7965
  139.7438  143.8884  152.3057 LP  0  0  0  0  0  0  0  0  0  0  0  0  # atno 17342 bound_to 10162
  139.8714  144.7066  150.8983 LP  0  0  0  0  0  0  0  0  0  0  0  0  # atno 17343 bound_to 10162
  157.5593  130.8235  149.8245 LP  0  0  0  0  0  0  0  0  0  0  0  0  # atno 17370 bound_to 10713
  156.0283  130.3772  150.1759 LP  0  0  0  0  0  0  0  0  0  0  0  0  # atno 17371 bound_to 10713
  139.9059  135.0179  156.7483 LP  0  0  0  0  0  0  0  0  0  0  0  0  # atno 17394 bound_to 11000
  140.6826  133.9461  155.7919 LP  0  0  0  0  0  0  0  0  0  0  0  0  # atno 17395 bound_to 11000

$$$$
