AV-unprocessed.smi:652|AV-procd|sdf|3192|dock2
  -GOLD-   22720 0113D 1   1.00000     0.00000
 Structure written by MMmdl.
 48 49  0  0  0  0  0  0  0  0  2 V2000
  145.5230  146.0523  159.4609 C   0  0  0  0  0  0  0  0  0  0  0  0
  146.1747  144.7849  160.0296 C   0  0  0  0  0  0  0  0  0  0  0  0
  147.3324  145.1189  160.9833 C   0  0  0  0  0  0  0  0  0  0  0  0
  146.6447  143.9456  158.9307 N   0  0  0  0  0  0  0  0  0  0  0  0
  146.3494  142.6469  158.7611 C   0  0  0  0  0  0  0  0  0  0  0  0
  145.6470  142.0046  159.5417 O   0  0  0  0  0  0  0  0  0  0  0  0
  146.9439  141.9683  157.5242 C   0  0  0  0  0  0  0  0  0  0  0  0
  146.0612  140.8141  157.0058 C   0  0  0  0  0  0  0  0  0  0  0  0
  144.6534  141.2277  156.7791 N   0  3  1  0  0  0  0  0  0  0  0  0
  144.5560  142.4768  155.9865 C   0  0  0  0  0  0  0  0  0  0  0  0
  143.0861  142.8903  155.8082 C   0  0  0  0  0  0  0  0  0  0  0  0
  142.3644  141.8271  155.1999 O   0  0  0  0  0  0  0  0  0  0  0  0
  142.3589  140.6520  156.0040 C   0  0  1  0  0  0  0  0  0  0  0  0
  141.4918  139.5916  155.3117 C   0  0  0  0  0  0  0  0  0  0  0  0
  142.1650  139.0087  154.1590 N   0  0  0  0  0  0  0  0  0  0  0  0
  142.1713  137.6201  153.9692 C   0  0  0  0  0  0  0  0  0  0  0  0
  143.1280  137.0526  153.1041 C   0  0  0  0  0  0  0  0  0  0  0  0
  143.1047  135.6577  152.9311 C   0  0  0  0  0  0  0  0  0  0  0  0
  142.1247  134.9358  153.6366 C   0  0  0  0  0  0  0  0  0  0  0  0
  141.2297  135.5329  154.4553 N   0  0  0  0  0  0  0  0  0  0  0  0
  141.2536  136.8604  154.6190 N   0  0  0  0  0  0  0  0  0  0  0  0
  143.8117  140.1665  156.1729 C   0  0  0  0  0  0  0  0  0  0  0  0
  145.1343  146.6845  160.2599 H   0  0  0  0  0  0  0  0  0  0  0  0
  144.6885  145.8047  158.8037 H   0  0  0  0  0  0  0  0  0  0  0  0
  146.2363  146.6445  158.8865 H   0  0  0  0  0  0  0  0  0  0  0  0
  145.4097  144.2443  160.5901 H   0  0  0  0  0  0  0  0  0  0  0  0
  146.9881  145.7344  161.8148 H   0  0  0  0  0  0  0  0  0  0  0  0
  148.1248  145.6657  160.4712 H   0  0  0  0  0  0  0  0  0  0  0  0
  147.7709  144.2145  161.4063 H   0  0  0  0  0  0  0  0  0  0  0  0
  147.2358  144.3905  158.2433 H   0  0  0  0  0  0  0  0  0  0  0  0
  147.0987  142.7147  156.7448 H   0  0  0  0  0  0  0  0  0  0  0  0
  147.9299  141.5886  157.7948 H   0  0  0  0  0  0  0  0  0  0  0  0
  146.4656  140.4568  156.0571 H   0  0  0  0  0  0  0  0  0  0  0  0
  146.0923  139.9671  157.6932 H   0  0  0  0  0  0  0  0  0  0  0  0
  145.1035  143.2775  156.4851 H   0  0  0  0  0  0  0  0  0  0  0  0
  145.0224  142.3276  155.0112 H   0  0  0  0  0  0  0  0  0  0  0  0
  142.6345  143.1535  156.7659 H   0  0  0  0  0  0  0  0  0  0  0  0
  143.0190  143.7728  155.1716 H   0  0  0  0  0  0  0  0  0  0  0  0
  141.9354  140.8768  156.9849 H   0  0  0  0  0  0  0  0  0  0  0  0
  141.2209  138.8045  156.0169 H   0  0  0  0  0  0  0  0  0  0  0  0
  140.5636  140.0529  154.9721 H   0  0  0  0  0  0  0  0  0  0  0  0
  142.7511  139.5954  153.5828 H   0  0  0  0  0  0  0  0  0  0  0  0
  143.8559  137.6625  152.5893 H   0  0  0  0  0  0  0  0  0  0  0  0
  143.8099  135.1592  152.2827 H   0  0  0  0  0  0  0  0  0  0  0  0
  142.0561  133.8621  153.5436 H   0  0  0  0  0  0  0  0  0  0  0  0
  144.2277  139.8787  155.2059 H   0  0  0  0  0  0  0  0  0  0  0  0
  143.8166  139.2762  156.8005 H   0  0  0  0  0  0  0  0  0  0  0  0
  144.2616  141.4354  157.6867 H   0  0  0  0  0  0  0  0  0  0  0  0
  1  2  1  0  0  0  0
  1 23  1  0  0  0  0
  1 24  1  0  0  0  0
  1 25  1  0  0  0  0
  2  3  1  0  0  0  0
  2  4  1  0  0  0  0
  2 26  1  0  0  0  0
  3 27  1  0  0  0  0
  3 28  1  0  0  0  0
  3 29  1  0  0  0  0
  4  5  1  0  0  0  0
  4 30  1  0  0  0  0
  5  6  2  0  0  0  0
  5  7  1  0  0  0  0
  7  8  1  0  0  0  0
  7 31  1  0  0  0  0
  7 32  1  0  0  0  0
  8  9  1  0  0  0  0
  8 33  1  0  0  0  0
  8 34  1  0  0  0  0
  9 22  1  0  0  0  0
  9 10  1  0  0  0  0
  9 48  1  0  0  0  0
 10 11  1  0  0  0  0
 10 35  1  0  0  0  0
 10 36  1  0  0  0  0
 11 12  1  0  0  0  0
 11 37  1  0  0  0  0
 11 38  1  0  0  0  0
 12 13  1  0  0  0  0
 13 14  1  0  0  0  0
 13 22  1  0  0  0  0
 13 39  1  0  0  0  0
 14 15  1  0  0  0  0
 14 40  1  0  0  0  0
 14 41  1  0  0  0  0
 15 16  1  0  0  0  0
 15 42  1  0  0  0  0
 16 21  1  0  0  0  0
 16 17  2  0  0  0  0
 17 18  1  0  0  0  0
 17 43  1  0  0  0  0
 18 19  2  0  0  0  0
 18 44  1  0  0  0  0
 19 20  1  0  0  0  0
 19 45  1  0  0  0  0
 20 21  2  0  0  0  0
 22 46  1  0  0  0  0
 22 47  1  0  0  0  0
M  CHG  1   9   1
M  END
> <s_m_source_file>
AV-unprocessed.smi

> <i_m_source_file_index>
652

> <i_lp_mmshare_version>
43012

> <i_f3d_flags>
0

> <s_epik_input>
W0NIM11bQ0hdKFtDSDNdKVtOSF1DKD1PKVtDSDJdW0NIMl1OMVtDSDJdW0NIMl1PW0NASF0oW0NIMl0xKVtDSDJdW05IXWMyW2NIXVtjSF1bY0hdbm4y

> <s_epik_cmdline>
J2VwaWtfcHl0aG9uJywgJy1waCcsICc3LjAnLCAnLXRuJywgJzgnLCAnLW1hJywgJzIwMCcsICctbWV0YWxfYmluZGluZycsICctaW1hZScsICc8aW5maWxlLm1hZT4nLCAnLW9tYWUnLCAnPG91dGZpbGUubWFlPic=

> <r_lp_tautomer_probability>
0.999978

> <r_epik_Ionization_Penalty>
0.433079

> <r_epik_Ionization_Penalty_Charging>
0.413784

> <r_epik_Ionization_Penalty_Neutral>
0.0192945

> <r_epik_State_Penalty>
0.425138

> <r_epik_Charging_Adjusted_Penalty>
0.838922

> <i_epik_Tot_Q>
1

> <i_epik_Tot_abs_Q>
1

> <r_epik_Metal_State_Penalty>
0.422073

> <b_epik_Metal_Only>
0

> <s_lp_Force_Field>
OPLS_2005

> <r_lp_Energy>
21.6039

> <b_lp_Chiralities_Consistent>
1

> <s_lp_Variant>
AV-unprocessed.smi:652-1

> <Gold.Version>
5.8.1

> <Gold.Id.Protein>
6NUR|6NUR_protein|mol2

> <Gold.PLP.Fitness>
38.6921

> <Gold.PLP.PLP>
-25.8306

> <Gold.PLP.part.hbond>
-4.0000

> <Gold.PLP.part.metal>
0.0000

> <Gold.PLP.part.buried>
-7.1207

> <Gold.PLP.part.nonpolar>
-16.2283

> <Gold.PLP.part.repulsive>
0.3596

> <Gold.PLP.ligand.clash>
0.0000

> <Gold.PLP.ligand.torsion>
0.7642

> <Gold.PLP.Chemscore.Hbond>
3.7680

> <Gold.PLP.Chemscore.CHOScore>
0.9502

> <Gold.PLP.Chemscore.Metal>
0.0000

> <Gold.Chemscore.Hbonds>
donor molecule, donor type, donor heavy atom, donor atom, acceptor molecule, acceptor atom, score
      L1  H     4    30       P1  8029  1.00
      L1  H    15    42       P1 10175  1.00
      P1  H  6934  6946       L1     6  0.91
      P1  H 11000 11005       L1    20  0.75
      L1  C    19    45       P1 10957  1.00

> <Gold.PLP.Chemscore.Internal.Correction>
0.2351

> <Gold.Rescore>
     Score         DG    S(hbond)    S(metal)    S(lipo)     H(rot)  DE(clash)    DE(int)     intcor
     15.59     -16.36       3.72        0.00      36.19       2.26       0.01       0.76       ----

> <Gold.Chemscore.Fitness>
15.5919

> <Gold.Chemscore.DG>
-16.3621

> <Gold.Chemscore.ZeroCoef>
-5.4800

> <Gold.Chemscore.Hbond>
3.7221

> <Gold.Chemscore.Metal>
0.0000

> <Gold.Chemscore.Lipo>
36.1907

> <Gold.Chemscore.Internal_Hbond>
0.0000

> <Gold.Chemscore.DEClash>
0.0106

> <Gold.Chemscore.DEInternal>
0.7597

> <Gold.Chemscore.Rot>
2.2594

> <Gold.Chemscore.Internal.Correction>
   9.000000E+99

> <Gold.Chemscore.Hbonds>
donor molecule, donor type, donor heavy atom, donor atom, acceptor molecule, acceptor atom, score
      L1  H     4    30       P1  8029  0.67
      L1  H    15    42       P1 10175  0.99
      P1  H  6934  6946       L1     6  0.58
      P1  H 11000 11005       L1    20  0.69

> <Gold.Chemscore.Hbond.Weighted>
-12.4320

> <Gold.Chemscore.Metal.Weighted>
-0.0000

> <Gold.Chemscore.Lipo.Weighted>
-4.2343

> <Gold.Chemscore.Internal_Hbond.Weighted>
0.0000

> <Gold.Chemscore.DEClash.Weighted>
0.0106

> <Gold.Chemscore.DEInternal.Weighted>
0.7597

> <Gold.Chemscore.Rot.Weighted>
5.7841

> <Gold.Chemscore.Internal.Correction.Weighted>
   9.000000E+99

> <Gold.Protein.RotatedTorsions>
[ 6907 6896 6895 6894 ] final  155.11 input  -60.11 | X-H torsion
[ 7974 7965 7964 7962 ] final    9.29 input  175.53 | X-H torsion
[ 8008 7997 7996 7995 ] final  104.35 input   59.86 | X-H torsion
[ 10167 10162 10161 10158 ] final  -78.04 input  -65.29 | X-H torsion
[ 10718 10713 10712 10709 ] final -111.61 input   66.30 | X-H torsion
[ 10763 10752 10751 10750 ] final  113.17 input  -60.55 | X-H torsion
[ 11005 11000 10999 10996 ] final   33.83 input  -57.11 | X-H torsion

> <Gold.Protein.ActiveResidues>
 VAL166  LYS551  ARG553  GLY616  TRP617  ASP618  TYR619  PRO620  LYS621  CYS622 
 ASP623  PHE694  ASN695  SER759  ASP760  ASP761  ALA762  ILE779  LEU786  VAL792 
 PHE793  MET794  SER795  GLU796  ALA797  LYS798  CYS799  TRP800  GLU811  SER814 

> <Gold.Protein.RotatedAtoms>
  152.0489  133.4010  159.4368 H   0  0  0  0  0  0  0  0  0  0  0  0  # atno 6907 bound_to 6896
  150.6871  134.3331  159.4845 H   0  0  0  0  0  0  0  0  0  0  0  0  # atno 6908 bound_to 6896
  152.1138  134.9254  160.0616 H   0  0  0  0  0  0  0  0  0  0  0  0  # atno 6909 bound_to 6896
  146.2405  139.9805  142.8436 H   0  0  0  0  0  0  0  0  0  0  0  0  # atno 7974 bound_to 7965
  156.1565  140.3149  155.8735 H   0  0  0  0  0  0  0  0  0  0  0  0  # atno 8008 bound_to 7997
  155.3867  140.0491  157.3059 H   0  0  0  0  0  0  0  0  0  0  0  0  # atno 8009 bound_to 7997
  154.5106  140.2163  155.9175 H   0  0  0  0  0  0  0  0  0  0  0  0  # atno 8010 bound_to 7997
  140.4717  143.2425  151.8194 H   0  0  0  0  0  0  0  0  0  0  0  0  # atno 10167 bound_to 10162
  156.0657  130.5876  150.8397 H   0  0  0  0  0  0  0  0  0  0  0  0  # atno 10718 bound_to 10713
  153.4886  135.3664  155.2479 H   0  0  0  0  0  0  0  0  0  0  0  0  # atno 10763 bound_to 10752
  154.8753  135.3971  154.3616 H   0  0  0  0  0  0  0  0  0  0  0  0  # atno 10764 bound_to 10752
  153.4232  135.7080  153.6346 H   0  0  0  0  0  0  0  0  0  0  0  0  # atno 10765 bound_to 10752
  140.2591  134.3213  155.7864 H   0  0  0  0  0  0  0  0  0  0  0  0  # atno 11005 bound_to 11000
  145.1596  140.9666  143.4385 LP  0  0  0  0  0  0  0  0  0  0  0  0  # atno 17320 bound_to 7965
  145.0128  139.3494  143.6111 LP  0  0  0  0  0  0  0  0  0  0  0  0  # atno 17321 bound_to 7965
  139.4819  144.4883  151.9218 LP  0  0  0  0  0  0  0  0  0  0  0  0  # atno 17342 bound_to 10162
  140.3968  144.2544  150.5895 LP  0  0  0  0  0  0  0  0  0  0  0  0  # atno 17343 bound_to 10162
  157.5697  131.0946  150.9436 LP  0  0  0  0  0  0  0  0  0  0  0  0  # atno 17370 bound_to 10713
  156.9655  130.5471  149.5288 LP  0  0  0  0  0  0  0  0  0  0  0  0  # atno 17371 bound_to 10713
  141.2192  133.7399  156.9158 LP  0  0  0  0  0  0  0  0  0  0  0  0  # atno 17394 bound_to 11000
  140.1482  134.9248  157.2558 LP  0  0  0  0  0  0  0  0  0  0  0  0  # atno 17395 bound_to 11000

$$$$
