AV-unprocessed.smi:1821|AV-procd|sdf|7389|dock2
  -GOLD-   22720 9 53D 1   1.00000     0.00000
 Structure written by MMmdl.
 36 38  0  0  0  0  0  0  0  0  2 V2000
  151.6154  137.8902  154.5356 C   0  0  0  0  0  0  0  0  0  0  0  0
  150.4793  138.8487  154.4104 C   0  0  0  0  0  0  0  0  0  0  0  0
  149.3501  138.6636  153.6701 N   0  3  0  0  0  0  0  0  0  0  0  0
  148.5143  139.7740  153.7980 C   0  0  0  0  0  0  0  0  0  0  0  0
  147.2691  140.0458  153.2395 C   0  0  0  0  0  0  0  0  0  0  0  0
  146.6829  141.2846  153.5725 C   0  0  0  0  0  0  0  0  0  0  0  0
  147.3322  142.1975  154.4287 C   0  0  0  0  0  0  0  0  0  0  0  0
  148.5937  141.9101  154.9905 C   0  0  0  0  0  0  0  0  0  0  0  0
  149.1661  140.6820  154.6578 C   0  0  0  0  0  0  0  0  0  0  0  0
  150.3733  140.0674  155.0121 N   0  0  0  0  0  0  0  0  0  0  0  0
  151.3049  140.7567  155.9187 C   0  0  0  0  0  0  0  0  0  0  0  0
  150.6481  141.1870  157.2463 C   0  0  1  0  0  0  0  0  0  0  0  0
  149.7364  140.2004  157.6912 O   0  0  0  0  0  0  0  0  0  0  0  0
  151.6985  141.5258  158.2981 C   0  0  0  0  0  0  0  0  0  0  0  0
  152.0743  142.8694  158.5377 C   0  0  0  0  0  0  0  0  0  0  0  0
  151.5065  143.8797  157.8357 F   0  0  0  0  0  0  0  0  0  0  0  0
  153.0403  143.1729  159.5167 C   0  0  0  0  0  0  0  0  0  0  0  0
  153.6362  142.1417  160.2662 C   0  0  0  0  0  0  0  0  0  0  0  0
  153.2613  140.8045  160.0400 C   0  0  0  0  0  0  0  0  0  0  0  0
  152.2951  140.4959  159.0627 C   0  0  0  0  0  0  0  0  0  0  0  0
  151.9429  139.2019  158.8688 F   0  0  0  0  0  0  0  0  0  0  0  0
  151.4221  136.9877  153.9551 H   0  0  0  0  0  0  0  0  0  0  0  0
  151.7557  137.6074  155.5791 H   0  0  0  0  0  0  0  0  0  0  0  0
  152.5356  138.3472  154.1713 H   0  0  0  0  0  0  0  0  0  0  0  0
  146.7709  139.3490  152.5817 H   0  0  0  0  0  0  0  0  0  0  0  0
  145.7172  141.5406  153.1615 H   0  0  0  0  0  0  0  0  0  0  0  0
  146.8542  143.1386  154.6587 H   0  0  0  0  0  0  0  0  0  0  0  0
  149.0842  142.6200  155.6400 H   0  0  0  0  0  0  0  0  0  0  0  0
  152.1743  140.1218  156.0894 H   0  0  0  0  0  0  0  0  0  0  0  0
  151.6754  141.6358  155.3905 H   0  0  0  0  0  0  0  0  0  0  0  0
  150.0454  142.0749  157.0555 H   0  0  0  0  0  0  0  0  0  0  0  0
  149.8808  139.4118  157.1906 H   0  0  0  0  0  0  0  0  0  0  0  0
  153.3227  144.2001  159.6944 H   0  0  0  0  0  0  0  0  0  0  0  0
  154.3768  142.3762  161.0166 H   0  0  0  0  0  0  0  0  0  0  0  0
  153.7140  140.0127  160.6187 H   0  0  0  0  0  0  0  0  0  0  0  0
  149.1660  137.8361  153.1174 H   0  0  0  0  0  0  0  0  0  0  0  0
  1  2  1  0  0  0  0
  1 22  1  0  0  0  0
  1 23  1  0  0  0  0
  1 24  1  0  0  0  0
  2 10  1  0  0  0  0
  2  3  2  0  0  0  0
  3  4  1  0  0  0  0
  3 36  1  0  0  0  0
  4  9  2  0  0  0  0
  4  5  1  0  0  0  0
  5  6  2  0  0  0  0
  5 25  1  0  0  0  0
  6  7  1  0  0  0  0
  6 26  1  0  0  0  0
  7  8  2  0  0  0  0
  7 27  1  0  0  0  0
  8  9  1  0  0  0  0
  8 28  1  0  0  0  0
  9 10  1  0  0  0  0
 10 11  1  0  0  0  0
 11 12  1  0  0  0  0
 11 29  1  0  0  0  0
 11 30  1  0  0  0  0
 12 13  1  0  0  0  0
 12 14  1  0  0  0  0
 12 31  1  0  0  0  0
 13 32  1  0  0  0  0
 14 20  1  0  0  0  0
 14 15  2  0  0  0  0
 15 16  1  0  0  0  0
 15 17  1  0  0  0  0
 17 18  2  0  0  0  0
 17 33  1  0  0  0  0
 18 19  1  0  0  0  0
 18 34  1  0  0  0  0
 19 20  2  0  0  0  0
 19 35  1  0  0  0  0
 20 21  1  0  0  0  0
M  CHG  1   3   1
M  END
> <s_m_source_file>
AV-unprocessed.smi

> <i_m_source_file_index>
1821

> <i_lp_mmshare_version>
43012

> <i_f3d_flags>
0

> <s_epik_input>
W2NIXTFbY0hdW2NIXVtjSF1jKGMxMiluKGMobjIpW0NIM10pW0NIMl1bQ0BIXShbT0hdKWMzYyhGKVtjSF1bY0hdW2NIXWMzRg==

> <s_epik_cmdline>
J2VwaWtfcHl0aG9uJywgJy1waCcsICc3LjAnLCAnLXRuJywgJzgnLCAnLW1hJywgJzIwMCcsICctbWV0YWxfYmluZGluZycsICctaW1hZScsICc8aW5maWxlLm1hZT4nLCAnLW9tYWUnLCAnPG91dGZpbGUubWFlPic=

> <r_epik_Ionization_Penalty>
0.963869

> <r_epik_Ionization_Penalty_Charging>
0.963868

> <r_epik_Ionization_Penalty_Neutral>
1.34362e-06

> <r_epik_State_Penalty>
1.00924

> <r_epik_Charging_Adjusted_Penalty>
1.9731

> <i_epik_Tot_Q>
1

> <i_epik_Tot_abs_Q>
1

> <r_epik_Metal_State_Penalty>
4.98304

> <b_epik_Metal_Only>
0

> <s_lp_Force_Field>
OPLS_2005

> <r_lp_Energy>
15.8655

> <b_lp_Chiralities_Consistent>
1

> <s_lp_Variant>
AV-unprocessed.smi:1821-4

> <Gold.Version>
5.8.1

> <Gold.Id.Protein>
6NUR|6NUR_protein|mol2

> <Gold.PLP.Fitness>
54.2253

> <Gold.PLP.PLP>
-49.7312

> <Gold.PLP.part.hbond>
-2.0000

> <Gold.PLP.part.metal>
0.0000

> <Gold.PLP.part.buried>
2.2856

> <Gold.PLP.part.nonpolar>
-49.8612

> <Gold.PLP.part.repulsive>
0.0657

> <Gold.PLP.ligand.clash>
0.0000

> <Gold.PLP.ligand.torsion>
0.7690

> <Gold.PLP.Chemscore.Hbond>
2.0000

> <Gold.PLP.Chemscore.CHOScore>
0.0000

> <Gold.PLP.Chemscore.Metal>
0.0000

> <Gold.Chemscore.Hbonds>
donor molecule, donor type, donor heavy atom, donor atom, acceptor molecule, acceptor atom, score
      L1  H     3    36       P1  7948  2.00

> <Gold.PLP.Chemscore.Internal.Correction>
0.0321

> <Gold.Rescore>
     Score         DG    S(hbond)    S(metal)    S(lipo)     H(rot)  DE(clash)    DE(int)     intcor
     16.09     -17.87       0.97        0.00     120.72       1.94       0.30       1.48       ----

> <Gold.Chemscore.Fitness>
16.0920

> <Gold.Chemscore.DG>
-17.8748

> <Gold.Chemscore.ZeroCoef>
-5.4800

> <Gold.Chemscore.Hbond>
0.9673

> <Gold.Chemscore.Metal>
0.0000

> <Gold.Chemscore.Lipo>
120.7169

> <Gold.Chemscore.Internal_Hbond>
0.0000

> <Gold.Chemscore.DEClash>
0.3012

> <Gold.Chemscore.DEInternal>
1.4816

> <Gold.Chemscore.Rot>
1.9375

> <Gold.Chemscore.Internal.Correction>
   9.000000E+99

> <Gold.Chemscore.Hbonds>
donor molecule, donor type, donor heavy atom, donor atom, acceptor molecule, acceptor atom, score
      L1  H     3    36       P1  7948  0.94

> <Gold.Chemscore.Hbond.Weighted>
-3.2308

> <Gold.Chemscore.Metal.Weighted>
-0.0000

> <Gold.Chemscore.Lipo.Weighted>
-14.1239

> <Gold.Chemscore.Internal_Hbond.Weighted>
0.0000

> <Gold.Chemscore.DEClash.Weighted>
0.3012

> <Gold.Chemscore.DEInternal.Weighted>
1.4816

> <Gold.Chemscore.Rot.Weighted>
4.9599

> <Gold.Chemscore.Internal.Correction.Weighted>
   9.000000E+99

> <Gold.Protein.RotatedTorsions>
[ 6907 6896 6895 6894 ] final -114.54 input  -60.11 | X-H torsion
[ 7974 7965 7964 7962 ] final   57.16 input  175.53 | X-H torsion
[ 8008 7997 7996 7995 ] final  -46.11 input   59.86 | X-H torsion
[ 10167 10162 10161 10158 ] final  121.10 input  -65.29 | X-H torsion
[ 10718 10713 10712 10709 ] final -140.09 input   66.30 | X-H torsion
[ 10763 10752 10751 10750 ] final -138.65 input  -60.55 | X-H torsion
[ 11005 11000 10999 10996 ] final  -36.69 input  -57.11 | X-H torsion

> <Gold.Protein.ActiveResidues>
 VAL166  LYS551  ARG553  GLY616  TRP617  ASP618  TYR619  PRO620  LYS621  CYS622 
 ASP623  PHE694  ASN695  SER759  ASP760  ASP761  ALA762  ILE779  LEU786  VAL792 
 PHE793  MET794  SER795  GLU796  ALA797  LYS798  CYS799  TRP800  GLU811  SER814 

> <Gold.Protein.RotatedAtoms>
  150.7910  133.8786  159.3279 H   0  0  0  0  0  0  0  0  0  0  0  0  # atno 6907 bound_to 6896
  151.6624  135.0985  160.0191 H   0  0  0  0  0  0  0  0  0  0  0  0  # atno 6908 bound_to 6896
  152.3984  133.6742  159.6331 H   0  0  0  0  0  0  0  0  0  0  0  0  # atno 6909 bound_to 6896
  145.9320  139.3815  143.0415 H   0  0  0  0  0  0  0  0  0  0  0  0  # atno 7974 bound_to 7965
  154.4005  140.1380  156.3957 H   0  0  0  0  0  0  0  0  0  0  0  0  # atno 8008 bound_to 7997
  155.7872  140.3480  155.5309 H   0  0  0  0  0  0  0  0  0  0  0  0  # atno 8009 bound_to 7997
  155.8615  140.0957  157.1600 H   0  0  0  0  0  0  0  0  0  0  0  0  # atno 8010 bound_to 7997
  139.5940  144.7035  151.3220 H   0  0  0  0  0  0  0  0  0  0  0  0  # atno 10167 bound_to 10162
  156.3183  130.7520  151.1612 H   0  0  0  0  0  0  0  0  0  0  0  0  # atno 10718 bound_to 10713
  154.8631  135.3605  154.5420 H   0  0  0  0  0  0  0  0  0  0  0  0  # atno 10763 bound_to 10752
  153.6041  135.7011  153.5377 H   0  0  0  0  0  0  0  0  0  0  0  0  # atno 10764 bound_to 10752
  153.3265  135.4136  155.1421 H   0  0  0  0  0  0  0  0  0  0  0  0  # atno 10765 bound_to 10752
  140.9894  133.7013  156.1823 H   0  0  0  0  0  0  0  0  0  0  0  0  # atno 11005 bound_to 11000
  145.8413  140.9579  143.0797 LP  0  0  0  0  0  0  0  0  0  0  0  0  # atno 17320 bound_to 7965
  144.6766  140.0288  143.7483 LP  0  0  0  0  0  0  0  0  0  0  0  0  # atno 17321 bound_to 7965
  140.7197  143.7170  150.7725 LP  0  0  0  0  0  0  0  0  0  0  0  0  # atno 17342 bound_to 10162
  140.0732  143.5040  152.2569 LP  0  0  0  0  0  0  0  0  0  0  0  0  # atno 17343 bound_to 10162
  157.7406  131.0514  150.5153 LP  0  0  0  0  0  0  0  0  0  0  0  0  # atno 17370 bound_to 10713
  156.5302  130.4183  149.6206 LP  0  0  0  0  0  0  0  0  0  0  0  0  # atno 17371 bound_to 10713
  140.7063  134.4509  157.5584 LP  0  0  0  0  0  0  0  0  0  0  0  0  # atno 17394 bound_to 11000
  139.8985  134.8611  156.1998 LP  0  0  0  0  0  0  0  0  0  0  0  0  # atno 17395 bound_to 11000

$$$$
