AV-unprocessed.smi:751|AV-procd|sdf|3594|dock7
  -GOLD-   22720 0583D 1   1.00000     0.00000
 Structure written by MMmdl.
 32 33  0  0  0  0  0  0  0  0  1 V2000
  152.2968  137.4470  159.3871 N   0  0  0  0  0  0  0  0  0  0  0  0
  152.2620  138.6013  159.3162 C   0  0  0  0  0  0  0  0  0  0  0  0
  152.2178  140.0551  159.2270 C   0  0  0  0  0  0  0  0  0  0  0  0
  153.0705  140.8077  160.0604 C   0  0  0  0  0  0  0  0  0  0  0  0
  153.0395  142.2097  159.9876 C   0  0  0  0  0  0  0  0  0  0  0  0
  152.1474  142.8053  159.0757 C   0  0  0  0  0  0  0  0  0  0  0  0
  152.0456  144.3168  158.9265 C   0  0  0  0  0  0  0  0  0  0  0  0
  152.2194  144.9411  160.0921 F   0  0  0  0  0  0  0  0  0  0  0  0
  152.9768  144.7467  158.0745 F   0  0  0  0  0  0  0  0  0  0  0  0
  150.8438  144.6414  158.4492 F   0  0  0  0  0  0  0  0  0  0  0  0
  151.3323  142.0794  158.2799 N   0  0  0  0  0  0  0  0  0  0  0  0
  151.3409  140.7211  158.3270 C   0  0  0  0  0  0  0  0  0  0  0  0
  150.4567  140.0020  157.4677 N   0  0  0  0  0  0  0  0  0  0  0  0
  149.4438  140.8204  156.8090 C   0  0  0  0  0  0  0  0  0  0  0  0
  149.6640  139.9392  155.5817 C   0  0  0  0  0  0  0  0  0  0  0  0
  149.7520  140.6994  154.3887 O   0  0  0  0  0  0  0  0  0  0  0  0
  148.6405  141.5619  154.2024 C   0  0  0  0  0  0  0  0  0  0  0  0
  147.4294  140.7321  153.7787 C   0  0  0  0  0  0  0  0  0  0  0  0
  146.2808  141.3850  153.5816 N   0  0  0  0  0  0  0  0  0  0  0  0
  147.5320  139.5182  153.6159 O   0  0  0  0  0  0  0  0  0  0  0  0
  151.0197  139.5763  156.1893 C   0  0  0  0  0  0  0  0  0  0  0  0
  153.7439  140.3196  160.7507 H   0  0  0  0  0  0  0  0  0  0  0  0
  153.6854  142.8029  160.6178 H   0  0  0  0  0  0  0  0  0  0  0  0
  148.4519  140.7304  157.2522 H   0  0  0  0  0  0  0  0  0  0  0  0
  149.7348  141.8601  156.6514 H   0  0  0  0  0  0  0  0  0  0  0  0
  148.9635  139.1024  155.5318 H   0  0  0  0  0  0  0  0  0  0  0  0
  148.4000  142.0917  155.1253 H   0  0  0  0  0  0  0  0  0  0  0  0
  148.8660  142.3066  153.4373 H   0  0  0  0  0  0  0  0  0  0  0  0
  145.4574  140.8753  153.2945 H   0  0  0  0  0  0  0  0  0  0  0  0
  146.2418  142.3851  153.7139 H   0  0  0  0  0  0  0  0  0  0  0  0
  151.8364  140.1955  155.8155 H   0  0  0  0  0  0  0  0  0  0  0  0
  151.2555  138.5128  156.1477 H   0  0  0  0  0  0  0  0  0  0  0  0
  1  2  3  0  0  0  0
  2  3  1  0  0  0  0
  3 12  1  0  0  0  0
  3  4  2  0  0  0  0
  4  5  1  0  0  0  0
  4 22  1  0  0  0  0
  5  6  2  0  0  0  0
  5 23  1  0  0  0  0
  6  7  1  0  0  0  0
  6 11  1  0  0  0  0
  7  8  1  0  0  0  0
  7  9  1  0  0  0  0
  7 10  1  0  0  0  0
 11 12  2  0  0  0  0
 12 13  1  0  0  0  0
 13 21  1  0  0  0  0
 13 14  1  0  0  0  0
 14 15  1  0  0  0  0
 14 24  1  0  0  0  0
 14 25  1  0  0  0  0
 15 16  1  0  0  0  0
 15 21  1  0  0  0  0
 15 26  1  0  0  0  0
 16 17  1  0  0  0  0
 17 18  1  0  0  0  0
 17 27  1  0  0  0  0
 17 28  1  0  0  0  0
 18 19  1  0  0  0  0
 18 20  2  0  0  0  0
 19 29  1  0  0  0  0
 19 30  1  0  0  0  0
 21 31  1  0  0  0  0
 21 32  1  0  0  0  0
M  END
> <s_m_source_file>
AV-unprocessed.smi

> <i_m_source_file_index>
751

> <i_lp_mmshare_version>
43012

> <i_f3d_flags>
0

> <s_epik_input>
TiNDYzFbY0hdW2NIXWMoQyhGKShGKUYpbmMxTjJbQ0gyXVtDSF0oW0NIMl0yKU9bQ0gyXUMoPU8pW05IMl0=

> <s_epik_cmdline>
J2VwaWtfcHl0aG9uJywgJy1waCcsICc3LjAnLCAnLXRuJywgJzgnLCAnLW1hJywgJzIwMCcsICctbWV0YWxfYmluZGluZycsICctaW1hZScsICc8aW5maWxlLm1hZT4nLCAnLW9tYWUnLCAnPG91dGZpbGUubWFlPic=

> <r_lp_tautomer_probability>
1

> <r_epik_Ionization_Penalty>
6.47511e-08

> <r_epik_Ionization_Penalty_Charging>
0

> <r_epik_Ionization_Penalty_Neutral>
6.47511e-08

> <r_epik_State_Penalty>
-0

> <r_epik_Charging_Adjusted_Penalty>
0

> <i_epik_Tot_Q>
0

> <i_epik_Tot_abs_Q>
0

> <r_epik_Metal_State_Penalty>
-0

> <b_epik_Metal_Only>
0

> <s_lp_Force_Field>
OPLS_2005

> <r_lp_Energy>
25.0077

> <b_lp_Chiralities_Consistent>
1

> <s_lp_Variant>
AV-unprocessed.smi:751-1

> <Gold.Version>
5.8.1

> <Gold.Id.Protein>
6NUR|6NUR_protein|mol2

> <Gold.PLP.Fitness>
45.8659

> <Gold.PLP.PLP>
-43.9195

> <Gold.PLP.part.hbond>
-2.0000

> <Gold.PLP.part.metal>
0.0000

> <Gold.PLP.part.buried>
-6.9058

> <Gold.PLP.part.nonpolar>
-36.5874

> <Gold.PLP.part.repulsive>
0.6960

> <Gold.PLP.ligand.clash>
0.0000

> <Gold.PLP.ligand.torsion>
1.7684

> <Gold.PLP.Chemscore.Hbond>
1.7040

> <Gold.PLP.Chemscore.CHOScore>
0.0000

> <Gold.PLP.Chemscore.Metal>
0.0000

> <Gold.Chemscore.Hbonds>
donor molecule, donor type, donor heavy atom, donor atom, acceptor molecule, acceptor atom, score
      L1  H    19    29       P1 10175  1.00
      P1  H  7989  7998       L1    16  0.63

> <Gold.PLP.Chemscore.Internal.Correction>
0.3712

> <Gold.Rescore>
     Score         DG    S(hbond)    S(metal)    S(lipo)     H(rot)  DE(clash)    DE(int)     intcor
      9.44     -12.45       1.56        0.00      71.77       2.59       0.01       2.99       ----

> <Gold.Chemscore.Fitness>
9.4440

> <Gold.Chemscore.DG>
-12.4492

> <Gold.Chemscore.ZeroCoef>
-5.4800

> <Gold.Chemscore.Hbond>
1.5567

> <Gold.Chemscore.Metal>
0.0000

> <Gold.Chemscore.Lipo>
71.7701

> <Gold.Chemscore.Internal_Hbond>
0.0000

> <Gold.Chemscore.DEClash>
0.0116

> <Gold.Chemscore.DEInternal>
2.9936

> <Gold.Chemscore.Rot>
2.5888

> <Gold.Chemscore.Internal.Correction>
   9.000000E+99

> <Gold.Chemscore.Hbonds>
donor molecule, donor type, donor heavy atom, donor atom, acceptor molecule, acceptor atom, score
      L1  H    19    29       P1 10175  0.63
      P1  H  7989  7998       L1    16  0.58

> <Gold.Chemscore.Hbond.Weighted>
-5.1993

> <Gold.Chemscore.Metal.Weighted>
-0.0000

> <Gold.Chemscore.Lipo.Weighted>
-8.3971

> <Gold.Chemscore.Internal_Hbond.Weighted>
0.0000

> <Gold.Chemscore.DEClash.Weighted>
0.0116

> <Gold.Chemscore.DEInternal.Weighted>
2.9936

> <Gold.Chemscore.Rot.Weighted>
6.6272

> <Gold.Chemscore.Internal.Correction.Weighted>
   9.000000E+99

> <Gold.Protein.RotatedTorsions>
[ 6907 6896 6895 6894 ] final  153.30 input  -60.11 | X-H torsion
[ 7974 7965 7964 7962 ] final   45.24 input  175.53 | X-H torsion
[ 8008 7997 7996 7995 ] final -111.00 input   59.86 | X-H torsion
[ 10167 10162 10161 10158 ] final  117.63 input  -65.29 | X-H torsion
[ 10718 10713 10712 10709 ] final  -34.46 input   66.30 | X-H torsion
[ 10763 10752 10751 10750 ] final -160.81 input  -60.55 | X-H torsion
[ 11005 11000 10999 10996 ] final  -20.81 input  -57.11 | X-H torsion

> <Gold.Protein.ActiveResidues>
 VAL166  LYS551  ARG553  GLY616  TRP617  ASP618  TYR619  PRO620  LYS621  CYS622 
 ASP623  PHE694  ASN695  SER759  ASP760  ASP761  ALA762  ILE779  LEU786  VAL792 
 PHE793  MET794  SER795  GLU796  ALA797  LYS798  CYS799  TRP800  GLU811  SER814 

> <Gold.Protein.RotatedAtoms>
  152.0745  133.4123  159.4473 H   0  0  0  0  0  0  0  0  0  0  0  0  # atno 6907 bound_to 6896
  150.6863  134.3053  159.4732 H   0  0  0  0  0  0  0  0  0  0  0  0  # atno 6908 bound_to 6896
  152.0888  134.9421  160.0623 H   0  0  0  0  0  0  0  0  0  0  0  0  # atno 6909 bound_to 6896
  146.0497  139.4986  142.9726 H   0  0  0  0  0  0  0  0  0  0  0  0  # atno 7974 bound_to 7965
  154.9832  140.0396  157.2287 H   0  0  0  0  0  0  0  0  0  0  0  0  # atno 8008 bound_to 7997
  154.7695  140.2799  155.6126 H   0  0  0  0  0  0  0  0  0  0  0  0  # atno 8009 bound_to 7997
  156.2918  140.2612  156.2494 H   0  0  0  0  0  0  0  0  0  0  0  0  # atno 8010 bound_to 7997
  139.6166  144.7093  151.2727 H   0  0  0  0  0  0  0  0  0  0  0  0  # atno 10167 bound_to 10162
  156.3503  130.4307  149.7710 H   0  0  0  0  0  0  0  0  0  0  0  0  # atno 10718 bound_to 10713
  154.7358  135.3057  154.8814 H   0  0  0  0  0  0  0  0  0  0  0  0  # atno 10763 bound_to 10752
  153.9643  135.6749  153.4750 H   0  0  0  0  0  0  0  0  0  0  0  0  # atno 10764 bound_to 10752
  153.0961  135.4935  154.8703 H   0  0  0  0  0  0  0  0  0  0  0  0  # atno 10765 bound_to 10752
  140.8501  133.7863  155.9956 H   0  0  0  0  0  0  0  0  0  0  0  0  # atno 11005 bound_to 11000
  145.6745  141.0208  143.1640 LP  0  0  0  0  0  0  0  0  0  0  0  0  # atno 17320 bound_to 7965
  144.7116  139.8349  143.7412 LP  0  0  0  0  0  0  0  0  0  0  0  0  # atno 17321 bound_to 7965
  140.7354  143.6736  150.8060 LP  0  0  0  0  0  0  0  0  0  0  0  0  # atno 17342 bound_to 10162
  140.0340  143.5414  152.2747 LP  0  0  0  0  0  0  0  0  0  0  0  0  # atno 17343 bound_to 10162
  156.4913  130.8086  151.3095 LP  0  0  0  0  0  0  0  0  0  0  0  0  # atno 17370 bound_to 10713
  157.7460  130.9974  150.2816 LP  0  0  0  0  0  0  0  0  0  0  0  0  # atno 17371 bound_to 10713
  140.8800  134.2623  157.5149 LP  0  0  0  0  0  0  0  0  0  0  0  0  # atno 17394 bound_to 11000
  139.8704  134.9610  156.4382 LP  0  0  0  0  0  0  0  0  0  0  0  0  # atno 17395 bound_to 11000

$$$$
