AV-unprocessed.smi:1434|AV-procd|sdf|5855|dock4
  -GOLD-   22720 5523D 1   1.00000     0.00000
 Structure written by MMmdl.
 44 45  0  0  0  0  0  0  0  0  3 V2000
  157.5175  136.2373  155.4093 C   0  0  0  0  0  0  0  0  0  0  0  0
  156.7032  137.0410  156.8459 S   0  0  0  0  0  0  0  0  0  0  0  0
  157.2718  136.3973  158.0411 O   0  0  0  0  0  0  0  0  0  0  0  0
  156.9408  138.4843  156.6817 O   0  0  0  0  0  0  0  0  0  0  0  0
  155.1581  136.6225  156.5839 N   0  5  0  0  0  0  0  0  0  0  0  0
  154.0821  137.4230  157.1507 C   0  0  2  0  0  0  0  0  0  0  0  0
  153.6776  136.9021  158.5559 C   0  0  0  0  0  0  0  0  0  0  0  0
  152.3740  137.5437  159.1022 C   0  0  0  0  0  0  0  0  0  0  0  0
  151.2110  137.4817  158.0864 C   0  0  0  0  0  0  0  0  0  0  0  0
  151.6904  138.0911  156.8253 N   0  0  0  0  0  0  0  0  0  0  0  0
  151.1696  139.1993  156.2339 C   0  0  0  0  0  0  0  0  0  0  0  0
  151.5040  139.5922  155.1153 O   0  0  0  0  0  0  0  0  0  0  0  0
  150.2859  139.8774  156.9846 N   0  0  0  0  0  0  0  0  0  0  0  0
  149.6351  141.1150  156.5774 C   0  0  0  0  0  0  0  0  0  0  0  0
  150.6753  142.1803  156.2069 C   0  0  0  0  0  0  0  0  0  0  0  0
  151.2686  142.8498  157.4315 C   0  0  0  0  0  0  0  0  0  0  0  0
  152.0379  142.1382  158.3777 C   0  0  0  0  0  0  0  0  0  0  0  0
  152.5692  142.8243  159.4897 C   0  0  0  0  0  0  0  0  0  0  0  0
  152.3217  144.2055  159.6316 C   0  0  0  0  0  0  0  0  0  0  0  0
  151.5483  144.8669  158.6560 C   0  0  0  0  0  0  0  0  0  0  0  0
  151.0564  144.1747  157.6048 N   0  3  0  0  0  0  0  0  0  0  0  0
  152.8301  137.3528  156.2329 C   0  0  0  0  0  0  0  0  0  0  0  0
  158.5886  136.4318  155.4472 H   0  0  0  0  0  0  0  0  0  0  0  0
  157.1069  136.6440  154.4854 H   0  0  0  0  0  0  0  0  0  0  0  0
  157.3412  135.1627  155.4453 H   0  0  0  0  0  0  0  0  0  0  0  0
  154.3684  138.4719  157.2401 H   0  0  0  0  0  0  0  0  0  0  0  0
  153.5332  135.8215  158.5096 H   0  0  0  0  0  0  0  0  0  0  0  0
  154.4861  137.0691  159.2677 H   0  0  0  0  0  0  0  0  0  0  0  0
  152.0816  137.0414  160.0246 H   0  0  0  0  0  0  0  0  0  0  0  0
  152.5588  138.5847  159.3750 H   0  0  0  0  0  0  0  0  0  0  0  0
  150.9381  136.4429  157.8955 H   0  0  0  0  0  0  0  0  0  0  0  0
  150.3208  137.9464  158.5097 H   0  0  0  0  0  0  0  0  0  0  0  0
  150.0661  139.5158  157.9013 H   0  0  0  0  0  0  0  0  0  0  0  0
  148.9844  140.9219  155.7228 H   0  0  0  0  0  0  0  0  0  0  0  0
  149.0021  141.4692  157.3924 H   0  0  0  0  0  0  0  0  0  0  0  0
  151.4806  141.7321  155.6231 H   0  0  0  0  0  0  0  0  0  0  0  0
  150.2197  142.9410  155.5711 H   0  0  0  0  0  0  0  0  0  0  0  0
  152.2224  141.0809  158.2535 H   0  0  0  0  0  0  0  0  0  0  0  0
  153.1608  142.2976  160.2242 H   0  0  0  0  0  0  0  0  0  0  0  0
  152.7205  144.7495  160.4754 H   0  0  0  0  0  0  0  0  0  0  0  0
  151.3108  145.9204  158.6835 H   0  0  0  0  0  0  0  0  0  0  0  0
  153.0907  137.7204  155.2391 H   0  0  0  0  0  0  0  0  0  0  0  0
  152.5286  136.3139  156.0880 H   0  0  0  0  0  0  0  0  0  0  0  0
  150.5012  144.6745  156.9099 H   0  0  0  0  0  0  0  0  0  0  0  0
  1  2  1  0  0  0  0
  1 23  1  0  0  0  0
  1 24  1  0  0  0  0
  1 25  1  0  0  0  0
  2  3  2  0  0  0  0
  2  4  2  0  0  0  0
  2  5  1  0  0  0  0
  5  6  1  0  0  0  0
  6 22  1  0  0  0  0
  6  7  1  0  0  0  0
  6 26  1  0  0  0  0
  7  8  1  0  0  0  0
  7 27  1  0  0  0  0
  7 28  1  0  0  0  0
  8  9  1  0  0  0  0
  8 29  1  0  0  0  0
  8 30  1  0  0  0  0
  9 10  1  0  0  0  0
  9 31  1  0  0  0  0
  9 32  1  0  0  0  0
 10 11  1  0  0  0  0
 10 22  1  0  0  0  0
 11 12  2  0  0  0  0
 11 13  1  0  0  0  0
 13 14  1  0  0  0  0
 13 33  1  0  0  0  0
 14 15  1  0  0  0  0
 14 34  1  0  0  0  0
 14 35  1  0  0  0  0
 15 16  1  0  0  0  0
 15 36  1  0  0  0  0
 15 37  1  0  0  0  0
 16 21  1  0  0  0  0
 16 17  2  0  0  0  0
 17 18  1  0  0  0  0
 17 38  1  0  0  0  0
 18 19  2  0  0  0  0
 18 39  1  0  0  0  0
 19 20  1  0  0  0  0
 19 40  1  0  0  0  0
 20 21  2  0  0  0  0
 20 41  1  0  0  0  0
 21 44  1  0  0  0  0
 22 42  1  0  0  0  0
 22 43  1  0  0  0  0
M  CHG  1   5  -1
M  CHG  1  21   1
M  END
> <s_m_source_file>
AV-unprocessed.smi

> <i_m_source_file_index>
1434

> <i_lp_mmshare_version>
43012

> <i_f3d_flags>
0

> <s_epik_input>
W0NIM11TKD1PKSg9TylbTkhdW0NAQEhdMVtDSDJdW0NIMl1bQ0gyXU4oW0NIMl0xKUMoPU8pW05IXVtDSDJdW0NIMl1jMltjSF1bY0hdW2NIXVtjSF1uMg==

> <s_epik_cmdline>
J2VwaWtfcHl0aG9uJywgJy1waCcsICc3LjAnLCAnLXRuJywgJzgnLCAnLW1hJywgJzIwMCcsICctbWV0YWxfYmluZGluZycsICctaW1hZScsICc8aW5maWxlLm1hZT4nLCAnLW9tYWUnLCAnPG91dGZpbGUubWFlPic=

> <r_epik_Ionization_Penalty>
8.07847

> <r_epik_Ionization_Penalty_Charging>
8.0784

> <r_epik_Ionization_Penalty_Neutral>
6.25603e-05

> <r_epik_State_Penalty>
8.17261

> <r_epik_Charging_Adjusted_Penalty>
16.251

> <i_epik_Tot_Q>
0

> <i_epik_Tot_abs_Q>
2

> <r_epik_Metal_State_Penalty>
4.14042

> <b_epik_Metal_Only>
1

> <s_lp_Force_Field>
OPLS_2005

> <r_lp_Energy>
29.5402

> <b_lp_Chiralities_Consistent>
1

> <s_lp_Variant>
AV-unprocessed.smi:1434-7

> <Gold.Version>
5.8.1

> <Gold.Id.Protein>
6NUR|6NUR_protein|mol2

> <Gold.PLP.Fitness>
48.0870

> <Gold.PLP.PLP>
-33.0231

> <Gold.PLP.part.hbond>
-3.9988

> <Gold.PLP.part.metal>
0.0000

> <Gold.PLP.part.buried>
-4.0882

> <Gold.PLP.part.nonpolar>
-25.8254

> <Gold.PLP.part.repulsive>
0.2393

> <Gold.PLP.ligand.clash>
0.0000

> <Gold.PLP.ligand.torsion>
1.1409

> <Gold.PLP.Chemscore.Hbond>
5.4320

> <Gold.PLP.Chemscore.CHOScore>
0.0000

> <Gold.PLP.Chemscore.Metal>
0.0000

> <Gold.Chemscore.Hbonds>
donor molecule, donor type, donor heavy atom, donor atom, acceptor molecule, acceptor atom, score
      L1  H    21    44       P1  8028  2.00
      P1  H  7989  7998       L1    12  0.93
      P1  H  7997  8008       L1     4  0.59
      P1  H 10752 10765       L1     5  1.79

> <Gold.PLP.Chemscore.Internal.Correction>
1.0498

> <Gold.Rescore>
     Score         DG    S(hbond)    S(metal)    S(lipo)     H(rot)  DE(clash)    DE(int)     intcor
     20.13     -23.07       3.22        0.00      97.02       1.77       0.48       2.45       ----

> <Gold.Chemscore.Fitness>
20.1348

> <Gold.Chemscore.DG>
-23.0686

> <Gold.Chemscore.ZeroCoef>
-5.4800

> <Gold.Chemscore.Hbond>
3.2211

> <Gold.Chemscore.Metal>
0.0000

> <Gold.Chemscore.Lipo>
97.0179

> <Gold.Chemscore.Internal_Hbond>
0.0000

> <Gold.Chemscore.DEClash>
0.4844

> <Gold.Chemscore.DEInternal>
2.4494

> <Gold.Chemscore.Rot>
1.7661

> <Gold.Chemscore.Internal.Correction>
   9.000000E+99

> <Gold.Chemscore.Hbonds>
donor molecule, donor type, donor heavy atom, donor atom, acceptor molecule, acceptor atom, score
      L1  H    21    44       P1  8028  0.72
      P1  H  7989  7998       L1    12  0.88
      P1  H  7997  8008       L1     4  0.58
      P1  H 10752 10765       L1     5  0.72

> <Gold.Chemscore.Hbond.Weighted>
-10.7586

> <Gold.Chemscore.Metal.Weighted>
-0.0000

> <Gold.Chemscore.Lipo.Weighted>
-11.3511

> <Gold.Chemscore.Internal_Hbond.Weighted>
0.0000

> <Gold.Chemscore.DEClash.Weighted>
0.4844

> <Gold.Chemscore.DEInternal.Weighted>
2.4494

> <Gold.Chemscore.Rot.Weighted>
4.5211

> <Gold.Chemscore.Internal.Correction.Weighted>
   9.000000E+99

> <Gold.Protein.RotatedTorsions>
[ 6907 6896 6895 6894 ] final  135.34 input  -60.11 | X-H torsion
[ 7974 7965 7964 7962 ] final   67.57 input  175.53 | X-H torsion
[ 8008 7997 7996 7995 ] final  148.39 input   59.86 | X-H torsion
[ 10167 10162 10161 10158 ] final  137.49 input  -65.29 | X-H torsion
[ 10718 10713 10712 10709 ] final  -51.38 input   66.30 | X-H torsion
[ 10763 10752 10751 10750 ] final  -61.34 input  -60.55 | X-H torsion
[ 11005 11000 10999 10996 ] final -110.34 input  -57.11 | X-H torsion

> <Gold.Protein.ActiveResidues>
 VAL166  LYS551  ARG553  GLY616  TRP617  ASP618  TYR619  PRO620  LYS621  CYS622 
 ASP623  PHE694  ASN695  SER759  ASP760  ASP761  ALA762  ILE779  LEU786  VAL792 
 PHE793  MET794  SER795  GLU796  ALA797  LYS798  CYS799  TRP800  GLU811  SER814 

> <Gold.Protein.RotatedAtoms>
  152.3015  133.5660  159.5621 H   0  0  0  0  0  0  0  0  0  0  0  0  # atno 6907 bound_to 6896
  150.7280  134.0284  159.3734 H   0  0  0  0  0  0  0  0  0  0  0  0  # atno 6908 bound_to 6896
  151.8183  135.0660  160.0473 H   0  0  0  0  0  0  0  0  0  0  0  0  # atno 6909 bound_to 6896
  145.8130  139.3043  143.1088 H   0  0  0  0  0  0  0  0  0  0  0  0  # atno 7974 bound_to 7965
  156.2793  140.2130  156.5690 H   0  0  0  0  0  0  0  0  0  0  0  0  # atno 8008 bound_to 7997
  154.7151  140.0508  157.0610 H   0  0  0  0  0  0  0  0  0  0  0  0  # atno 8009 bound_to 7997
  155.0553  140.3160  155.4681 H   0  0  0  0  0  0  0  0  0  0  0  0  # atno 8010 bound_to 7997
  139.5142  144.6407  151.5577 H   0  0  0  0  0  0  0  0  0  0  0  0  # atno 10167 bound_to 10162
  156.1715  130.4149  149.9640 H   0  0  0  0  0  0  0  0  0  0  0  0  # atno 10718 bound_to 10713
  154.2832  135.6268  153.5355 H   0  0  0  0  0  0  0  0  0  0  0  0  # atno 10763 bound_to 10752
  152.9863  135.5638  154.5473 H   0  0  0  0  0  0  0  0  0  0  0  0  # atno 10764 bound_to 10752
  154.5068  135.2875  155.1351 H   0  0  0  0  0  0  0  0  0  0  0  0  # atno 10765 bound_to 10752
  141.0797  133.9240  157.2314 H   0  0  0  0  0  0  0  0  0  0  0  0  # atno 11005 bound_to 11000
  145.9756  140.8724  143.0140 LP  0  0  0  0  0  0  0  0  0  0  0  0  # atno 17320 bound_to 7965
  144.6755  140.2008  143.7387 LP  0  0  0  0  0  0  0  0  0  0  0  0  # atno 17321 bound_to 7965
  140.6172  143.9326  150.6498 LP  0  0  0  0  0  0  0  0  0  0  0  0  # atno 17342 bound_to 10162
  140.2588  143.3539  152.1341 LP  0  0  0  0  0  0  0  0  0  0  0  0  # atno 17343 bound_to 10162
  156.7438  130.9089  151.3633 LP  0  0  0  0  0  0  0  0  0  0  0  0  # atno 17370 bound_to 10713
  157.6806  130.9136  150.0258 LP  0  0  0  0  0  0  0  0  0  0  0  0  # atno 17371 bound_to 10713
  139.9610  135.0154  156.9262 LP  0  0  0  0  0  0  0  0  0  0  0  0  # atno 17394 bound_to 11000
  140.5495  134.0641  155.7365 LP  0  0  0  0  0  0  0  0  0  0  0  0  # atno 17395 bound_to 11000

$$$$
