#       Name:                AV-unprocessed.smi:290
#       Creating user name   scv26
#       Creation time:       Thu Mar 26 22:05:58 2020


#       File generated by GOLD software.
#

@<TRIPOS>MOLECULE
AV-unprocessed.smi:290
    69    72     1
SMALL
NO_CHARGES


@<TRIPOS>ATOM
      1 ****        -6.7887  -2.2777  -0.6694 C.3            1 S1                 0.0000
      2 ****        -6.0026  -2.2257   0.6499 C.3            1 S1                 0.0000
      3 ****        -6.0391  -3.5243   1.2337 O.3            1 S1                 0.0000
      4 ****        -4.8828  -3.6893   2.0337 C.3            1 S1                 0.0000
      5 ****        -3.8000  -3.0659   1.1665 C.3            1 S1                 0.0000
      6 ****        -4.4958  -1.8489   0.5595 C.3            1 S1                 0.0000
      7 ****        -4.2711  -0.7478   1.4242 O.3            1 S1                 0.0000
      8 ****        -3.9647  -1.4777  -0.8501 C.3            1 S1                 0.0000
      9 ****        -2.5518  -1.1303  -0.8641 N.pl3          1 S1                 0.0000
     10 ****        -1.4875  -1.9934  -0.9998 C.2            1 S1                 0.0000
     11 ****        -0.3091  -1.4323  -0.9785 N.2            1 S1                 0.0000
     12 ****        -0.5828  -0.0778  -0.8294 C.ar           1 S1                 0.0000
     13 ****         0.2176   1.0960  -0.7381 C.ar           1 S1                 0.0000
     14 ****         1.5675   1.1175  -0.7737 N.3            1 S1                 0.0000
     15 ****         2.1690   0.6105  -2.0017 C.3            1 S1                 0.0000
     16 ****         3.5282   0.0031  -1.6217 C.3            1 S1                 0.0000
     17 ****         3.6843   0.2390  -0.1090 C.3            1 S1                 0.0000
     18 ****         4.6742   1.3002   0.2606 N.4            1 S1                 1.0000
     19 ****         6.0646   0.7828   0.2259 C.3            1 S1                 0.0000
     20 ****         4.5214   2.6019  -0.4521 C.3            1 S1                 0.0000
     21 ****         5.2118   3.7737   0.2690 C.3            1 S1                 0.0000
     22 ****         4.6243   3.9885   1.5343 O.3            1 S1                 0.0000
     23 ****         2.2419   0.4990   0.3598 C.3            1 S1                 0.0000
     24 ****         2.0755   1.2669   1.6840 C.3            1 S1                 0.0000
     25 ****        -0.4116   2.2871  -0.5915 N.ar           1 S1                 0.0000
     26 ****        -1.7465   2.3344  -0.5387 C.ar           1 S1                 0.0000
     27 ****        -2.6214   1.3287  -0.6116 N.ar           1 S1                 0.0000
     28 ****        -1.9886   0.1290  -0.7571 C.ar           1 S1                 0.0000
     29 ****         4.0119  -0.6851   0.3696 H              1 S1                 0.0000
     30 ****         1.7860  -0.4814   0.5057 H              1 S1                 0.0000
     31 ****        -6.8151  -1.3036  -1.1579 H              1 S1                 0.0000
     32 ****        -7.8209  -2.5777  -0.4871 H              1 S1                 0.0000
     33 ****        -6.3584  -2.9989  -1.3646 H              1 S1                 0.0000
     34 ****        -6.5218  -1.5495   1.3320 H              1 S1                 0.0000
     35 ****        -4.9997  -3.1462   2.9728 H              1 S1                 0.0000
     36 ****        -4.6938  -4.7392   2.2578 H              1 S1                 0.0000
     37 ****        -2.8909  -2.8267   1.7201 H              1 S1                 0.0000
     38 ****        -3.5329  -3.7759   0.3828 H              1 S1                 0.0000
     39 ****        -4.7264   0.0045   1.0779 H              1 S1                 0.0000
     40 ****        -4.1085  -2.3073  -1.5430 H              1 S1                 0.0000
     41 ****        -4.5234  -0.6345  -1.2578 H              1 S1                 0.0000
     42 ****        -1.6132  -3.0606  -1.1119 H              1 S1                 0.0000
     43 ****         1.5423  -0.1271  -2.5038 H              1 S1                 0.0000
     44 ****         2.3051   1.4431  -2.6924 H              1 S1                 0.0000
     45 ****         3.5004  -1.0693  -1.8185 H              1 S1                 0.0000
     46 ****         4.3461   0.4074  -2.2176 H              1 S1                 0.0000
     47 ****         6.3804   0.5737  -0.7967 H              1 S1                 0.0000
     48 ****         6.1531  -0.1389   0.8018 H              1 S1                 0.0000
     49 ****         6.7694   1.4887   0.6623 H              1 S1                 0.0000
     50 ****         4.9172   2.5161  -1.4644 H              1 S1                 0.0000
     51 ****         3.4693   2.8593  -0.5574 H              1 S1                 0.0000
     52 ****         6.2846   3.6217   0.3800 H              1 S1                 0.0000
     53 ****         5.0896   4.6838  -0.3187 H              1 S1                 0.0000
     54 ****         5.0210   4.7528   1.9253 H              1 S1                 0.0000
     55 ****         2.6479   0.7954   2.4828 H              1 S1                 0.0000
     56 ****         1.0315   1.2841   1.9981 H              1 S1                 0.0000
     57 ****         2.4048   2.3018   1.5984 H              1 S1                 0.0000
     58 ****        -2.1750   3.3188  -0.4209 H              1 S1                 0.0000
     59 ****         4.4854   1.5035   1.2322 H              1 S1                 0.0000
     60 ****        -6.0528  -4.2178   0.5133 LP             1 S1                 0.0000
     61 ****        -6.8577  -3.6164   1.8007 LP             1 S1                 0.0000
     62 ****        -3.2914  -0.5544   1.4760 LP             1 S1                 0.0000
     63 ****        -4.6177  -0.9605   2.3378 LP             1 S1                 0.0000
     64 ****         0.5845  -1.8749  -1.0524 LP             1 S1                 0.0000
     65 ****         1.7229   2.1042  -0.7267 LP             1 S1                 0.0000
     66 ****         4.7807   3.1918   2.1180 LP             1 S1                 0.0000
     67 ****         3.6409   4.1362   1.4284 LP             1 S1                 0.0000
     68 ****         0.1221   3.1300  -0.5229 LP             1 S1                 0.0000
     69 ****        -3.6141   1.4406  -0.5655 LP             1 S1                 0.0000
@<TRIPOS>BOND
    1    1    2 1     
    2    1   31 1     
    3    1   32 1     
    4    1   33 1     
    5    2    6 1     
    6    2    3 1     
    7    2   34 1     
    8    3    4 1     
    9    4    5 1     
   10    4   35 1     
   11    4   36 1     
   12    5    6 1     
   13    5   37 1     
   14    5   38 1     
   15    6    7 1     
   16    6    8 1     
   17    7   39 1     
   18    8    9 1     
   19    8   40 1     
   20    8   41 1     
   21    9   28 1     
   22    9   10 1     
   23   10   11 2     
   24   10   42 1     
   25   11   12 1     
   26   12   28 ar    
   27   12   13 ar    
   28   13   14 1     
   29   13   25 ar    
   30   14   23 1     
   31   14   15 1     
   32   15   16 1     
   33   15   43 1     
   34   15   44 1     
   35   16   17 1     
   36   16   45 1     
   37   16   46 1     
   38   17   29 1     
   39   17   18 1     
   40   17   23 1     
   41   18   19 1     
   42   18   20 1     
   43   18   59 1     
   44   19   47 1     
   45   19   48 1     
   46   19   49 1     
   47   20   21 1     
   48   20   50 1     
   49   20   51 1     
   50   21   22 1     
   51   21   52 1     
   52   21   53 1     
   53   22   54 1     
   54   23   30 1     
   55   23   24 1     
   56   24   55 1     
   57   24   56 1     
   58   24   57 1     
   59   25   26 ar    
   60   26   27 ar    
   61   26   58 1     
   62   27   28 ar    
   63    3   60 1     
   64    3   61 1     
   65    7   62 1     
   66    7   63 1     
   67   11   64 1     
   68   14   65 1     
   69   22   66 1     
   70   22   67 1     
   71   25   68 1     
   72   27   69 1     
@<TRIPOS>SUBSTRUCTURE
      1 S1             1
@<TRIPOS>SET
LONE_PAIRS      STATIC     ATOMS    <user>   **** ""
10 60 61 62 63 64 65 66 67 68 69
DONOR_HYDROGENS      STATIC     ATOMS    <user>   **** ""
3 39 59 54
ATOM$BLUE        STATIC     ATOMS    COLORGROUP SYSTEM
10 60 61 62 63 64 65 66 67 68 69
ATOM$RED        STATIC     ATOMS    COLORGROUP SYSTEM
3 39 59 54
