AV-unprocessed.smi:829|AV-procd|sdf|3867|dock10
  -GOLD-   22720 1323D 1   1.00000     0.00000
 Structure written by MMmdl.
 49 51  0  0  0  0  0  0  0  0  2 V2000
  149.6033  140.5834  156.4155 O   0  0  0  0  0  0  0  0  0  0  0  0
  149.5471  141.7474  156.0198 C   0  0  0  0  0  0  0  0  0  0  0  0
  150.1999  142.7892  156.5639 N   0  0  0  0  0  0  0  0  0  0  0  0
  151.0787  142.8003  157.6814 C   0  0  0  0  0  0  0  0  0  0  0  0
  151.7080  144.0189  158.0088 C   0  0  0  0  0  0  0  0  0  0  0  0
  152.5948  144.0532  159.1037 C   0  0  0  0  0  0  0  0  0  0  0  0
  152.8849  142.9717  159.8570 N   0  0  0  0  0  0  0  0  0  0  0  0
  152.2934  141.8024  159.5328 C   0  0  0  0  0  0  0  0  0  0  0  0
  151.3916  141.6594  158.4592 C   0  0  0  0  0  0  0  0  0  0  0  0
  148.7894  142.1368  154.9836 N   0  0  0  0  0  0  0  0  0  0  0  0
  147.9416  141.2556  154.1806 C   0  0  2  0  0  0  0  0  0  0  0  0
  147.2751  142.0410  153.0371 C   0  0  0  0  0  0  0  0  0  0  0  0
  146.1674  142.9835  153.5449 C   0  0  0  0  0  0  0  0  0  0  0  0
  145.1553  142.2442  154.3431 N   0  3  2  0  0  0  0  0  0  0  0  0
  143.9889  143.0833  154.7217 C   0  0  0  0  0  0  0  0  0  0  0  0
  144.3949  144.5438  155.0020 C   0  0  0  0  0  0  0  0  0  0  0  0
  143.4380  145.2620  155.9565 C   0  0  0  0  0  0  0  0  0  0  0  0
  143.7367  146.7504  155.7611 C   0  0  0  0  0  0  0  0  0  0  0  0
  144.2638  146.8904  154.3264 C   0  0  0  0  0  0  0  0  0  0  0  0
  144.4072  145.4658  153.7769 C   0  0  0  0  0  0  0  0  0  0  0  0
  145.7788  141.5527  155.5012 C   0  0  0  0  0  0  0  0  0  0  0  0
  146.8597  140.5634  155.0343 C   0  0  0  0  0  0  0  0  0  0  0  0
  149.9943  143.6957  156.1708 H   0  0  0  0  0  0  0  0  0  0  0  0
  151.5143  144.9160  157.4392 H   0  0  0  0  0  0  0  0  0  0  0  0
  153.0858  144.9746  159.3799 H   0  0  0  0  0  0  0  0  0  0  0  0
  152.5512  140.9509  160.1448 H   0  0  0  0  0  0  0  0  0  0  0  0
  150.9746  140.6864  158.2509 H   0  0  0  0  0  0  0  0  0  0  0  0
  148.8061  143.1128  154.7262 H   0  0  0  0  0  0  0  0  0  0  0  0
  148.5819  140.4911  153.7367 H   0  0  0  0  0  0  0  0  0  0  0  0
  148.0227  142.6058  152.4786 H   0  0  0  0  0  0  0  0  0  0  0  0
  146.8397  141.3353  152.3280 H   0  0  0  0  0  0  0  0  0  0  0  0
  146.5948  143.7856  154.1488 H   0  0  0  0  0  0  0  0  0  0  0  0
  145.6857  143.4550  152.6874 H   0  0  0  0  0  0  0  0  0  0  0  0
  143.2059  143.0266  153.9637 H   0  0  0  0  0  0  0  0  0  0  0  0
  143.5407  142.6879  155.6347 H   0  0  0  0  0  0  0  0  0  0  0  0
  145.3875  144.5570  155.4563 H   0  0  0  0  0  0  0  0  0  0  0  0
  142.4042  145.0578  155.6731 H   0  0  0  0  0  0  0  0  0  0  0  0
  143.5650  144.9474  156.9931 H   0  0  0  0  0  0  0  0  0  0  0  0
  142.8565  147.3685  155.9403 H   0  0  0  0  0  0  0  0  0  0  0  0
  144.5076  147.0676  156.4647 H   0  0  0  0  0  0  0  0  0  0  0  0
  143.5866  147.4787  153.7064 H   0  0  0  0  0  0  0  0  0  0  0  0
  145.2274  147.4011  154.3298 H   0  0  0  0  0  0  0  0  0  0  0  0
  145.3110  145.3501  153.1779 H   0  0  0  0  0  0  0  0  0  0  0  0
  143.5535  145.2431  153.1350 H   0  0  0  0  0  0  0  0  0  0  0  0
  146.2093  142.2903  156.1803 H   0  0  0  0  0  0  0  0  0  0  0  0
  145.0253  141.0110  156.0704 H   0  0  0  0  0  0  0  0  0  0  0  0
  146.3884  139.7765  154.4438 H   0  0  0  0  0  0  0  0  0  0  0  0
  147.3056  140.0637  155.8949 H   0  0  0  0  0  0  0  0  0  0  0  0
  144.7944  141.5253  153.7323 H   0  0  0  0  0  0  0  0  0  0  0  0
  1  2  2  0  0  0  0
  2  3  1  0  0  0  0
  2 10  1  0  0  0  0
  3  4  1  0  0  0  0
  3 23  1  0  0  0  0
  4  9  1  0  0  0  0
  4  5  2  0  0  0  0
  5  6  1  0  0  0  0
  5 24  1  0  0  0  0
  6  7  2  0  0  0  0
  6 25  1  0  0  0  0
  7  8  1  0  0  0  0
  8  9  2  0  0  0  0
  8 26  1  0  0  0  0
  9 27  1  0  0  0  0
 10 11  1  0  0  0  0
 10 28  1  0  0  0  0
 11 22  1  0  0  0  0
 11 12  1  0  0  0  0
 11 29  1  0  0  0  0
 12 13  1  0  0  0  0
 12 30  1  0  0  0  0
 12 31  1  0  0  0  0
 13 14  1  0  0  0  0
 13 32  1  0  0  0  0
 13 33  1  0  0  0  0
 14 15  1  0  0  0  0
 14 21  1  0  0  0  0
 14 49  1  0  0  0  0
 15 16  1  0  0  0  0
 15 34  1  0  0  0  0
 15 35  1  0  0  0  0
 16 20  1  0  0  0  0
 16 17  1  0  0  0  0
 16 36  1  0  0  0  0
 17 18  1  0  0  0  0
 17 37  1  0  0  0  0
 17 38  1  0  0  0  0
 18 19  1  0  0  0  0
 18 39  1  0  0  0  0
 18 40  1  0  0  0  0
 19 20  1  0  0  0  0
 19 41  1  0  0  0  0
 19 42  1  0  0  0  0
 20 43  1  0  0  0  0
 20 44  1  0  0  0  0
 21 22  1  0  0  0  0
 21 45  1  0  0  0  0
 21 46  1  0  0  0  0
 22 47  1  0  0  0  0
 22 48  1  0  0  0  0
M  CHG  1  14   1
M  END
> <s_m_source_file>
AV-unprocessed.smi

> <i_m_source_file_index>
829

> <i_lp_mmshare_version>
43012

> <i_f3d_flags>
0

> <s_epik_input>
W2NIXTFbY0hdbltjSF1bY0hdYzFbTkhdQyg9TylbTkhdW0NIXTJbQ0gyXVtDSDJdTihbQ0gyXVtDSDJdMilbQ0gyXVtDSF0zW0NIMl1bQ0gyXVtDSDJdW0NIMl0z

> <s_epik_cmdline>
J2VwaWtfcHl0aG9uJywgJy1waCcsICc3LjAnLCAnLXRuJywgJzgnLCAnLW1hJywgJzIwMCcsICctbWV0YWxfYmluZGluZycsICctaW1hZScsICc8aW5maWxlLm1hZT4nLCAnLW9tYWUnLCAnPG91dGZpbGUubWFlPic=

> <r_epik_Ionization_Penalty>
0.101981

> <r_epik_Ionization_Penalty_Charging>
0.00207989

> <r_epik_Ionization_Penalty_Neutral>
0.0999008

> <r_epik_State_Penalty>
0.0935668

> <r_epik_Charging_Adjusted_Penalty>
0.0956467

> <i_epik_Tot_Q>
1

> <i_epik_Tot_abs_Q>
1

> <r_epik_Metal_State_Penalty>
0.0787682

> <b_epik_Metal_Only>
0

> <s_lp_Force_Field>
OPLS_2005

> <r_lp_Energy>
43.3749

> <b_lp_Chiralities_Consistent>
1

> <s_lp_Variant>
AV-unprocessed.smi:829-2

> <Gold.Version>
5.8.1

> <Gold.Id.Protein>
6NUR|6NUR_protein|mol2

> <Gold.PLP.Fitness>
50.4826

> <Gold.PLP.PLP>
-40.2139

> <Gold.PLP.part.hbond>
-3.0000

> <Gold.PLP.part.metal>
0.0000

> <Gold.PLP.part.buried>
-7.0065

> <Gold.PLP.part.nonpolar>
-31.1520

> <Gold.PLP.part.repulsive>
0.3063

> <Gold.PLP.ligand.clash>
0.0000

> <Gold.PLP.ligand.torsion>
0.6730

> <Gold.PLP.Chemscore.Hbond>
3.8625

> <Gold.PLP.Chemscore.CHOScore>
0.0000

> <Gold.PLP.Chemscore.Metal>
0.0000

> <Gold.Chemscore.Hbonds>
donor molecule, donor type, donor heavy atom, donor atom, acceptor molecule, acceptor atom, score
      L1  H     3    23       P1  8028  0.98
      L1  H    10    28       P1  8028  0.74
      L1  H    14    49       P1 10175  1.70

> <Gold.PLP.Chemscore.Internal.Correction>
0.0272

> <Gold.Rescore>
     Score         DG    S(hbond)    S(metal)    S(lipo)     H(rot)  DE(clash)    DE(int)     intcor
     20.40     -23.74       2.58        0.00     111.77       1.35       1.43       1.91       ----

> <Gold.Chemscore.Fitness>
20.3987

> <Gold.Chemscore.DG>
-23.7399

> <Gold.Chemscore.ZeroCoef>
-5.4800

> <Gold.Chemscore.Hbond>
2.5831

> <Gold.Chemscore.Metal>
0.0000

> <Gold.Chemscore.Lipo>
111.7691

> <Gold.Chemscore.Internal_Hbond>
0.0000

> <Gold.Chemscore.DEClash>
1.4309

> <Gold.Chemscore.DEInternal>
1.9103

> <Gold.Chemscore.Rot>
1.3455

> <Gold.Chemscore.Internal.Correction>
   9.000000E+99

> <Gold.Chemscore.Hbonds>
donor molecule, donor type, donor heavy atom, donor atom, acceptor molecule, acceptor atom, score
      L1  H     3    23       P1  8028  0.91
      L1  H    10    28       P1  8028  0.72
      L1  H    14    49       P1 10175  0.14

> <Gold.Chemscore.Hbond.Weighted>
-8.6274

> <Gold.Chemscore.Metal.Weighted>
-0.0000

> <Gold.Chemscore.Lipo.Weighted>
-13.0770

> <Gold.Chemscore.Internal_Hbond.Weighted>
0.0000

> <Gold.Chemscore.DEClash.Weighted>
1.4309

> <Gold.Chemscore.DEInternal.Weighted>
1.9103

> <Gold.Chemscore.Rot.Weighted>
3.4445

> <Gold.Chemscore.Internal.Correction.Weighted>
   9.000000E+99

> <Gold.Protein.RotatedTorsions>
[ 6907 6896 6895 6894 ] final  100.62 input  -60.11 | X-H torsion
[ 7974 7965 7964 7962 ] final  136.87 input  175.53 | X-H torsion
[ 8008 7997 7996 7995 ] final   80.16 input   59.86 | X-H torsion
[ 10167 10162 10161 10158 ] final -138.26 input  -65.29 | X-H torsion
[ 10718 10713 10712 10709 ] final   -1.30 input   66.30 | X-H torsion
[ 10763 10752 10751 10750 ] final  165.88 input  -60.55 | X-H torsion
[ 11005 11000 10999 10996 ] final  145.27 input  -57.11 | X-H torsion

> <Gold.Protein.ActiveResidues>
 VAL166  LYS551  ARG553  GLY616  TRP617  ASP618  TYR619  PRO620  LYS621  CYS622 
 ASP623  PHE694  ASN695  SER759  ASP760  ASP761  ALA762  ILE779  LEU786  VAL792 
 PHE793  MET794  SER795  GLU796  ALA797  LYS798  CYS799  TRP800  GLU811  SER814 

> <Gold.Protein.RotatedAtoms>
  152.5368  134.0249  159.7998 H   0  0  0  0  0  0  0  0  0  0  0  0  # atno 6907 bound_to 6896
  151.0429  133.5682  159.2656 H   0  0  0  0  0  0  0  0  0  0  0  0  # atno 6908 bound_to 6896
  151.2645  135.0672  159.9164 H   0  0  0  0  0  0  0  0  0  0  0  0  # atno 6909 bound_to 6896
  144.9523  139.4805  143.5520 H   0  0  0  0  0  0  0  0  0  0  0  0  # atno 7974 bound_to 7965
  155.8797  140.3444  155.5879 H   0  0  0  0  0  0  0  0  0  0  0  0  # atno 8008 bound_to 7997
  155.7734  140.0848  157.2115 H   0  0  0  0  0  0  0  0  0  0  0  0  # atno 8009 bound_to 7997
  154.4023  140.1514  156.2955 H   0  0  0  0  0  0  0  0  0  0  0  0  # atno 8010 bound_to 7997
  139.8496  143.7216  152.2658 H   0  0  0  0  0  0  0  0  0  0  0  0  # atno 10167 bound_to 10162
  156.8076  130.5414  149.5713 H   0  0  0  0  0  0  0  0  0  0  0  0  # atno 10718 bound_to 10713
  154.3307  135.2755  155.2473 H   0  0  0  0  0  0  0  0  0  0  0  0  # atno 10763 bound_to 10752
  154.4786  135.5864  153.6377 H   0  0  0  0  0  0  0  0  0  0  0  0  # atno 10764 bound_to 10752
  152.9867  135.6106  154.3499 H   0  0  0  0  0  0  0  0  0  0  0  0  # atno 10765 bound_to 10752
  140.0699  134.9158  157.1327 H   0  0  0  0  0  0  0  0  0  0  0  0  # atno 11005 bound_to 11000
  146.3325  139.8616  142.8855 LP  0  0  0  0  0  0  0  0  0  0  0  0  # atno 17320 bound_to 7965
  145.2826  141.0143  143.3709 LP  0  0  0  0  0  0  0  0  0  0  0  0  # atno 17321 bound_to 7965
  139.7478  144.7542  151.0553 LP  0  0  0  0  0  0  0  0  0  0  0  0  # atno 17342 bound_to 10162
  140.7789  143.4895  150.9911 LP  0  0  0  0  0  0  0  0  0  0  0  0  # atno 17343 bound_to 10162
  156.1063  130.6007  150.9976 LP  0  0  0  0  0  0  0  0  0  0  0  0  # atno 17370 bound_to 10713
  157.6522  131.0895  150.8026 LP  0  0  0  0  0  0  0  0  0  0  0  0  # atno 17371 bound_to 10713
  140.3643  134.2460  155.7184 LP  0  0  0  0  0  0  0  0  0  0  0  0  # atno 17394 bound_to 11000
  141.2007  133.7979  157.0474 LP  0  0  0  0  0  0  0  0  0  0  0  0  # atno 17395 bound_to 11000

$$$$
