AV-unprocessed.smi:1572|AV-procd|sdf|6332|dock3
  -GOLD-   22720 6543D 1   1.00000     0.00000
 Structure written by MMmdl.
 41 42  0  0  0  0  0  0  0  0  2 V2000
  152.7226  143.7810  159.8917 C   0  0  0  0  0  0  0  0  0  0  0  0
  152.3313  142.7420  158.9515 N   0  0  0  0  0  0  0  0  0  0  0  0
  152.5723  141.4089  159.4957 C   0  0  0  0  0  0  0  0  0  0  0  0
  152.1678  140.3094  158.4968 C   0  0  0  0  0  0  0  0  0  0  0  0
  150.7477  140.4085  158.1243 N   0  0  0  0  0  0  0  0  0  0  0  0
  150.2419  139.2966  157.2719 C   0  0  0  0  0  0  0  0  0  0  0  0
  148.7099  139.3459  157.0589 C   0  0  0  0  0  0  0  0  0  0  0  0
  150.9034  139.3259  155.8706 C   0  0  0  0  0  0  0  0  0  0  0  0
  150.5772  137.9059  157.8825 C   0  0  0  0  0  0  0  0  0  0  0  0
  149.9160  137.6909  159.1668 N   0  0  0  0  0  0  0  0  0  0  0  0
  148.8542  136.9004  159.3680 C   0  0  0  0  0  0  0  0  0  0  0  0
  148.3648  136.2784  158.4223 O   0  0  0  0  0  0  0  0  0  0  0  0
  148.4240  136.8807  160.6502 N   0  5  0  0  0  0  0  0  0  0  0  0
  147.6990  135.8430  161.0991 C   0  0  0  0  0  0  0  0  0  0  0  0
  147.3203  134.8325  160.2999 N   0  0  0  0  0  0  0  0  0  0  0  0
  146.5836  133.8594  160.9617 N   0  0  0  0  0  0  0  0  0  0  0  0
  146.4313  134.1589  162.2515 C   0  0  0  0  0  0  0  0  0  0  0  0
  147.1761  135.6545  162.7754 S   0  0  0  0  0  0  0  0  0  0  0  0
  150.5097  141.7580  157.5864 C   0  0  0  0  0  0  0  0  0  0  0  0
  150.9212  142.8515  158.5886 C   0  0  0  0  0  0  0  0  0  0  0  0
  153.7816  143.6993  160.1383 H   0  0  0  0  0  0  0  0  0  0  0  0
  152.1513  143.7100  160.8181 H   0  0  0  0  0  0  0  0  0  0  0  0
  152.5563  144.7704  159.4648 H   0  0  0  0  0  0  0  0  0  0  0  0
  153.6284  141.2986  159.7442 H   0  0  0  0  0  0  0  0  0  0  0  0
  152.0174  141.2782  160.4262 H   0  0  0  0  0  0  0  0  0  0  0  0
  152.8005  140.3793  157.6118 H   0  0  0  0  0  0  0  0  0  0  0  0
  152.3801  139.3492  158.9628 H   0  0  0  0  0  0  0  0  0  0  0  0
  148.3775  138.5218  156.4268 H   0  0  0  0  0  0  0  0  0  0  0  0
  148.3912  140.2654  156.5687 H   0  0  0  0  0  0  0  0  0  0  0  0
  148.1620  139.2623  157.9972 H   0  0  0  0  0  0  0  0  0  0  0  0
  150.6743  138.4244  155.3010 H   0  0  0  0  0  0  0  0  0  0  0  0
  151.9895  139.3975  155.9399 H   0  0  0  0  0  0  0  0  0  0  0  0
  150.5553  140.1628  155.2654 H   0  0  0  0  0  0  0  0  0  0  0  0
  150.3074  137.0987  157.2008 H   0  0  0  0  0  0  0  0  0  0  0  0
  151.6548  137.8097  158.0275 H   0  0  0  0  0  0  0  0  0  0  0  0
  150.2886  138.1899  159.9615 H   0  0  0  0  0  0  0  0  0  0  0  0
  145.8797  133.4939  162.8990 H   0  0  0  0  0  0  0  0  0  0  0  0
  151.0588  141.8998  156.6553 H   0  0  0  0  0  0  0  0  0  0  0  0
  149.4559  141.9041  157.3574 H   0  0  0  0  0  0  0  0  0  0  0  0
  150.2973  142.7813  159.4812 H   0  0  0  0  0  0  0  0  0  0  0  0
  150.7292  143.8316  158.1507 H   0  0  0  0  0  0  0  0  0  0  0  0
  1  2  1  0  0  0  0
  1 21  1  0  0  0  0
  1 22  1  0  0  0  0
  1 23  1  0  0  0  0
  2 20  1  0  0  0  0
  2  3  1  0  0  0  0
  3  4  1  0  0  0  0
  3 24  1  0  0  0  0
  3 25  1  0  0  0  0
  4  5  1  0  0  0  0
  4 26  1  0  0  0  0
  4 27  1  0  0  0  0
  5  6  1  0  0  0  0
  5 19  1  0  0  0  0
  6  7  1  0  0  0  0
  6  8  1  0  0  0  0
  6  9  1  0  0  0  0
  7 28  1  0  0  0  0
  7 29  1  0  0  0  0
  7 30  1  0  0  0  0
  8 31  1  0  0  0  0
  8 32  1  0  0  0  0
  8 33  1  0  0  0  0
  9 10  1  0  0  0  0
  9 34  1  0  0  0  0
  9 35  1  0  0  0  0
 10 11  1  0  0  0  0
 10 36  1  0  0  0  0
 11 12  2  0  0  0  0
 11 13  1  0  0  0  0
 13 14  1  0  0  0  0
 14 18  1  0  0  0  0
 14 15  2  0  0  0  0
 15 16  1  0  0  0  0
 16 17  2  0  0  0  0
 17 18  1  0  0  0  0
 17 37  1  0  0  0  0
 19 20  1  0  0  0  0
 19 38  1  0  0  0  0
 19 39  1  0  0  0  0
 20 40  1  0  0  0  0
 20 41  1  0  0  0  0
M  CHG  1  13  -1
M  END
> <s_m_source_file>
AV-unprocessed.smi

> <i_m_source_file_index>
1572

> <i_lp_mmshare_version>
43012

> <i_f3d_flags>
0

> <s_epik_input>
W0NIM11OMVtDSDJdW0NIMl1OKFtDSDJdW0NIMl0xKUMoW0NIM10pKFtDSDNdKVtDSDJdW05IXUMoPU8pW05IXWMybm5bY0hdczI=

> <s_epik_cmdline>
J2VwaWtfcHl0aG9uJywgJy1waCcsICc3LjAnLCAnLXRuJywgJzgnLCAnLW1hJywgJzIwMCcsICctbWV0YWxfYmluZGluZycsICctaW1hZScsICc8aW5maWxlLm1hZT4nLCAnLW9tYWUnLCAnPG91dGZpbGUubWFlPic=

> <r_lp_tautomer_probability>
1

> <r_epik_Ionization_Penalty>
6.61874

> <r_epik_Ionization_Penalty_Charging>
3.54798

> <r_epik_Ionization_Penalty_Neutral>
3.07076

> <r_epik_State_Penalty>
5.68339

> <r_epik_Charging_Adjusted_Penalty>
9.23137

> <i_epik_Tot_Q>
-1

> <i_epik_Tot_abs_Q>
1

> <r_epik_Metal_State_Penalty>
2.66763

> <b_epik_Metal_Only>
1

> <s_lp_Force_Field>
OPLS_2005

> <r_lp_Energy>
47.6706

> <b_lp_Chiralities_Consistent>
1

> <s_lp_Variant>
AV-unprocessed.smi:1572-6

> <Gold.Version>
5.8.1

> <Gold.Id.Protein>
6NUR|6NUR_protein|mol2

> <Gold.PLP.Fitness>
37.5706

> <Gold.PLP.PLP>
-32.4568

> <Gold.PLP.part.hbond>
-1.1687

> <Gold.PLP.part.metal>
0.0000

> <Gold.PLP.part.buried>
-6.9100

> <Gold.PLP.part.nonpolar>
-25.8241

> <Gold.PLP.part.repulsive>
0.2297

> <Gold.PLP.ligand.clash>
0.0000

> <Gold.PLP.ligand.torsion>
0.2596

> <Gold.PLP.Chemscore.Hbond>
1.8560

> <Gold.PLP.Chemscore.CHOScore>
0.0000

> <Gold.PLP.Chemscore.Metal>
0.0000

> <Gold.Chemscore.Hbonds>
donor molecule, donor type, donor heavy atom, donor atom, acceptor molecule, acceptor atom, score
      P1  H  6931  6943       L1    13  1.86

> <Gold.PLP.Chemscore.Internal.Correction>
0.0650

> <Gold.Rescore>
     Score         DG    S(hbond)    S(metal)    S(lipo)     H(rot)  DE(clash)    DE(int)     intcor
     10.90     -12.83       0.92        0.00      72.30       1.63       0.00       1.93       ----

> <Gold.Chemscore.Fitness>
10.8967

> <Gold.Chemscore.DG>
-12.8262

> <Gold.Chemscore.ZeroCoef>
-5.4800

> <Gold.Chemscore.Hbond>
0.9182

> <Gold.Chemscore.Metal>
0.0000

> <Gold.Chemscore.Lipo>
72.3010

> <Gold.Chemscore.Internal_Hbond>
0.0000

> <Gold.Chemscore.DEClash>
0.0029

> <Gold.Chemscore.DEInternal>
1.9265

> <Gold.Chemscore.Rot>
1.6328

> <Gold.Chemscore.Internal.Correction>
   9.000000E+99

> <Gold.Chemscore.Hbonds>
donor molecule, donor type, donor heavy atom, donor atom, acceptor molecule, acceptor atom, score
      P1  H  6931  6943       L1    13  0.84

> <Gold.Chemscore.Hbond.Weighted>
-3.0669

> <Gold.Chemscore.Metal.Weighted>
-0.0000

> <Gold.Chemscore.Lipo.Weighted>
-8.4592

> <Gold.Chemscore.Internal_Hbond.Weighted>
0.0000

> <Gold.Chemscore.DEClash.Weighted>
0.0029

> <Gold.Chemscore.DEInternal.Weighted>
1.9265

> <Gold.Chemscore.Rot.Weighted>
4.1800

> <Gold.Chemscore.Internal.Correction.Weighted>
   9.000000E+99

> <Gold.Protein.RotatedTorsions>
[ 6907 6896 6895 6894 ] final  105.77 input  -60.11 | X-H torsion
[ 7974 7965 7964 7962 ] final   -6.74 input  175.53 | X-H torsion
[ 8008 7997 7996 7995 ] final  -79.92 input   59.86 | X-H torsion
[ 10167 10162 10161 10158 ] final  159.51 input  -65.29 | X-H torsion
[ 10718 10713 10712 10709 ] final  174.29 input   66.30 | X-H torsion
[ 10763 10752 10751 10750 ] final   73.03 input  -60.55 | X-H torsion
[ 11005 11000 10999 10996 ] final -172.11 input  -57.11 | X-H torsion

> <Gold.Protein.ActiveResidues>
 VAL166  LYS551  ARG553  GLY616  TRP617  ASP618  TYR619  PRO620  LYS621  CYS622 
 ASP623  PHE694  ASN695  SER759  ASP760  ASP761  ALA762  ILE779  LEU786  VAL792 
 PHE793  MET794  SER795  GLU796  ALA797  LYS798  CYS799  TRP800  GLU811  SER814 

> <Gold.Protein.RotatedAtoms>
  152.5218  133.9479  159.7657 H   0  0  0  0  0  0  0  0  0  0  0  0  # atno 6907 bound_to 6896
  150.9795  133.6252  159.2732 H   0  0  0  0  0  0  0  0  0  0  0  0  # atno 6908 bound_to 6896
  151.3434  135.0874  159.9432 H   0  0  0  0  0  0  0  0  0  0  0  0  # atno 6909 bound_to 6896
  146.2324  140.2215  142.8337 H   0  0  0  0  0  0  0  0  0  0  0  0  # atno 7974 bound_to 7965
  154.5832  140.0671  156.9134 H   0  0  0  0  0  0  0  0  0  0  0  0  # atno 8008 bound_to 7997
  155.2425  140.3345  155.4272 H   0  0  0  0  0  0  0  0  0  0  0  0  # atno 8009 bound_to 7997
  156.2204  140.1796  156.7474 H   0  0  0  0  0  0  0  0  0  0  0  0  # atno 8010 bound_to 7997
  139.4833  144.4723  151.8560 H   0  0  0  0  0  0  0  0  0  0  0  0  # atno 10167 bound_to 10162
  156.9518  131.0033  151.2947 H   0  0  0  0  0  0  0  0  0  0  0  0  # atno 10718 bound_to 10713
  153.0495  135.5078  154.7832 H   0  0  0  0  0  0  0  0  0  0  0  0  # atno 10763 bound_to 10752
  154.6705  135.2952  154.9750 H   0  0  0  0  0  0  0  0  0  0  0  0  # atno 10764 bound_to 10752
  154.0570  135.6696  153.4860 H   0  0  0  0  0  0  0  0  0  0  0  0  # atno 10765 bound_to 10752
  140.5007  134.5896  157.4987 H   0  0  0  0  0  0  0  0  0  0  0  0  # atno 11005 bound_to 11000
  144.9628  140.8292  143.5503 LP  0  0  0  0  0  0  0  0  0  0  0  0  # atno 17320 bound_to 7965
  145.2188  139.2169  143.5104 LP  0  0  0  0  0  0  0  0  0  0  0  0  # atno 17321 bound_to 7965
  140.4192  144.2266  150.5887 LP  0  0  0  0  0  0  0  0  0  0  0  0  # atno 17342 bound_to 10162
  140.4890  143.2353  151.8846 LP  0  0  0  0  0  0  0  0  0  0  0  0  # atno 17343 bound_to 10162
  157.5717  130.8315  149.8400 LP  0  0  0  0  0  0  0  0  0  0  0  0  # atno 17370 bound_to 10713
  156.0359  130.3751  150.1560 LP  0  0  0  0  0  0  0  0  0  0  0  0  # atno 17371 bound_to 10713
  139.9715  134.7285  156.0032 LP  0  0  0  0  0  0  0  0  0  0  0  0  # atno 17394 bound_to 11000
  141.1437  133.6560  156.3804 LP  0  0  0  0  0  0  0  0  0  0  0  0  # atno 17395 bound_to 11000

$$$$
