AV-unprocessed.smi:291|AV-procd|sdf|2247|dock4
  -GOLD-   2262022133D 1   1.00000     0.00000
 Structure written by MMmdl.
 35 36  0  0  0  0  0  0  0  0  1 V2000
  153.6480  142.2998  160.4851 C   0  0  0  0  0  0  0  0  0  0  0  0
  152.4430  142.3223  159.5338 C   0  0  2  0  0  0  0  0  0  0  0  0
  152.3408  141.0157  158.7238 C   0  0  0  0  0  0  0  0  0  0  0  0
  151.1396  141.0338  157.7648 C   0  0  0  0  0  0  0  0  0  0  0  0
  151.1869  142.2537  156.8241 C   0  0  1  0  0  0  0  0  0  0  0  0
  149.9967  142.2930  155.9810 N   0  0  0  0  0  0  0  0  0  0  0  0
  149.6889  141.4025  155.0244 C   0  0  0  0  0  0  0  0  0  0  0  0
  150.3859  140.4241  154.7576 O   0  0  0  0  0  0  0  0  0  0  0  0
  148.3892  141.6453  154.2542 C   0  0  0  0  0  0  0  0  0  0  0  0
  147.2338  141.6067  155.1335 N   0  0  0  0  0  0  0  0  0  0  0  0
  145.9272  141.5702  154.8506 C   0  0  0  0  0  0  0  0  0  0  0  0
  145.1441  141.5487  155.9222 N   0  0  0  0  0  0  0  0  0  0  0  0
  146.1070  141.5745  156.8889 C   0  0  0  0  0  0  0  0  0  0  0  0
  145.7660  141.5644  158.3013 C   0  0  0  0  0  0  0  0  0  0  0  0
  145.4951  141.5560  159.4263 N   0  0  0  0  0  0  0  0  0  0  0  0
  147.3740  141.6096  156.4819 N   0  0  0  0  0  0  0  0  0  0  0  0
  151.2895  143.5600  157.6316 C   0  0  0  0  0  0  0  0  0  0  0  0
  152.4935  143.5369  158.5872 C   0  0  0  0  0  0  0  0  0  0  0  0
  154.5863  142.2156  159.9358 H   0  0  0  0  0  0  0  0  0  0  0  0
  153.5885  141.4562  161.1735 H   0  0  0  0  0  0  0  0  0  0  0  0
  153.6932  143.2102  161.0835 H   0  0  0  0  0  0  0  0  0  0  0  0
  151.5438  142.4099  160.1456 H   0  0  0  0  0  0  0  0  0  0  0  0
  153.2575  140.8628  158.1525 H   0  0  0  0  0  0  0  0  0  0  0  0
  152.2539  140.1642  159.3997 H   0  0  0  0  0  0  0  0  0  0  0  0
  151.1233  140.1111  157.1833 H   0  0  0  0  0  0  0  0  0  0  0  0
  150.2153  141.0494  158.3444 H   0  0  0  0  0  0  0  0  0  0  0  0
  152.0747  142.1781  156.1928 H   0  0  0  0  0  0  0  0  0  0  0  0
  149.3601  143.0626  156.1308 H   0  0  0  0  0  0  0  0  0  0  0  0
  148.4207  142.6200  153.7650 H   0  0  0  0  0  0  0  0  0  0  0  0
  148.2790  140.8945  153.4704 H   0  0  0  0  0  0  0  0  0  0  0  0
  145.5426  141.5620  153.8410 H   0  0  0  0  0  0  0  0  0  0  0  0
  151.3747  144.4116  156.9553 H   0  0  0  0  0  0  0  0  0  0  0  0
  150.3754  143.7133  158.2073 H   0  0  0  0  0  0  0  0  0  0  0  0
  152.5168  144.4604  159.1667 H   0  0  0  0  0  0  0  0  0  0  0  0
  153.4168  143.5148  158.0066 H   0  0  0  0  0  0  0  0  0  0  0  0
  1  2  1  0  0  0  0
  1 19  1  0  0  0  0
  1 20  1  0  0  0  0
  1 21  1  0  0  0  0
  2 18  1  0  0  0  0
  2  3  1  0  0  0  0
  2 22  1  0  0  0  0
  3  4  1  0  0  0  0
  3 23  1  0  0  0  0
  3 24  1  0  0  0  0
  4  5  1  0  0  0  0
  4 25  1  0  0  0  0
  4 26  1  0  0  0  0
  5  6  1  0  0  0  0
  5 17  1  0  0  0  0
  5 27  1  0  0  0  0
  6  7  1  0  0  0  0
  6 28  1  0  0  0  0
  7  8  2  0  0  0  0
  7  9  1  0  0  0  0
  9 10  1  0  0  0  0
  9 29  1  0  0  0  0
  9 30  1  0  0  0  0
 10 16  1  0  0  0  0
 10 11  1  0  0  0  0
 11 12  2  0  0  0  0
 11 31  1  0  0  0  0
 12 13  1  0  0  0  0
 13 14  1  0  0  0  0
 13 16  2  0  0  0  0
 14 15  3  0  0  0  0
 17 18  1  0  0  0  0
 17 32  1  0  0  0  0
 17 33  1  0  0  0  0
 18 34  1  0  0  0  0
 18 35  1  0  0  0  0
M  END
> <s_m_source_file>
AV-unprocessed.smi

> <i_m_source_file_index>
291

> <i_lp_mmshare_version>
43012

> <i_f3d_flags>
0

> <s_epik_input>
W0NIM11bQ0BASF0xW0NIMl1bQ0gyXVtDQEhdKFtDSDJdW0NIMl0xKVtOSF1DKD1PKVtDSDJdbjJbY0hdbmMobjIpQyNO

> <s_epik_cmdline>
J2VwaWtfcHl0aG9uJywgJy1waCcsICc3LjAnLCAnLXRuJywgJzgnLCAnLW1hJywgJzIwMCcsICctbWV0YWxfYmluZGluZycsICctaW1hZScsICc8aW5maWxlLm1hZT4nLCAnLW9tYWUnLCAnPG91dGZpbGUubWFlPic=

> <r_lp_tautomer_probability>
1

> <r_epik_Ionization_Penalty>
5.31112e-08

> <r_epik_Ionization_Penalty_Charging>
0

> <r_epik_Ionization_Penalty_Neutral>
5.31112e-08

> <r_epik_State_Penalty>
-0

> <r_epik_Charging_Adjusted_Penalty>
0

> <i_epik_Tot_Q>
0

> <i_epik_Tot_abs_Q>
0

> <r_epik_Metal_State_Penalty>
-0

> <b_epik_Metal_Only>
0

> <s_lp_Force_Field>
OPLS_2005

> <r_lp_Energy>
12.4936

> <b_lp_Chiralities_Consistent>
1

> <s_lp_Variant>
AV-unprocessed.smi:291-1

> <Gold.Version>
5.8.1

> <Gold.Id.Protein>
6NUR|6NUR_protein|mol2

> <Gold.PLP.Fitness>
45.8411

> <Gold.PLP.PLP>
-34.4137

> <Gold.PLP.part.hbond>
-3.0000

> <Gold.PLP.part.metal>
0.0000

> <Gold.PLP.part.buried>
-4.4291

> <Gold.PLP.part.nonpolar>
-27.6367

> <Gold.PLP.part.repulsive>
0.4006

> <Gold.PLP.ligand.clash>
0.0000

> <Gold.PLP.ligand.torsion>
0.1834

> <Gold.PLP.Chemscore.Hbond>
2.9440

> <Gold.PLP.Chemscore.CHOScore>
0.9864

> <Gold.PLP.Chemscore.Metal>
0.0000

> <Gold.Chemscore.Hbonds>
donor molecule, donor type, donor heavy atom, donor atom, acceptor molecule, acceptor atom, score
      L1  H     6    28       P1  8028  0.93
      P1  H  6934  6946       L1    15  0.99
      P1  H  7989  7998       L1     8  1.00
      L1  C    11    31       P1 10175  0.99

> <Gold.PLP.Chemscore.Internal.Correction>
0.0031

> <Gold.Rescore>
     Score         DG    S(hbond)    S(metal)    S(lipo)     H(rot)  DE(clash)    DE(int)     intcor
     17.09     -18.69       2.68        0.00      79.04       1.95       0.13       1.47       ----

> <Gold.Chemscore.Fitness>
17.0889

> <Gold.Chemscore.DG>
-18.6889

> <Gold.Chemscore.ZeroCoef>
-5.4800

> <Gold.Chemscore.Hbond>
2.6785

> <Gold.Chemscore.Metal>
0.0000

> <Gold.Chemscore.Lipo>
79.0438

> <Gold.Chemscore.Internal_Hbond>
0.0000

> <Gold.Chemscore.DEClash>
0.1317

> <Gold.Chemscore.DEInternal>
1.4684

> <Gold.Chemscore.Rot>
1.9474

> <Gold.Chemscore.Internal.Correction>
   9.000000E+99

> <Gold.Chemscore.Hbonds>
donor molecule, donor type, donor heavy atom, donor atom, acceptor molecule, acceptor atom, score
      L1  H     6    28       P1  8028  0.91
      P1  H  6934  6946       L1    15  0.83
      P1  H  7989  7998       L1     8  0.67

> <Gold.Chemscore.Hbond.Weighted>
-8.9461

> <Gold.Chemscore.Metal.Weighted>
-0.0000

> <Gold.Chemscore.Lipo.Weighted>
-9.2481

> <Gold.Chemscore.Internal_Hbond.Weighted>
0.0000

> <Gold.Chemscore.DEClash.Weighted>
0.1317

> <Gold.Chemscore.DEInternal.Weighted>
1.4684

> <Gold.Chemscore.Rot.Weighted>
4.9852

> <Gold.Chemscore.Internal.Correction.Weighted>
   9.000000E+99

> <Gold.Protein.RotatedTorsions>
[ 6907 6896 6895 6894 ] final   48.10 input  -60.11 | X-H torsion
[ 7974 7965 7964 7962 ] final   19.96 input  175.53 | X-H torsion
[ 8008 7997 7996 7995 ] final  -30.03 input   59.86 | X-H torsion
[ 10167 10162 10161 10158 ] final -147.63 input  -65.29 | X-H torsion
[ 10718 10713 10712 10709 ] final  -24.73 input   66.30 | X-H torsion
[ 10763 10752 10751 10750 ] final  -50.15 input  -60.55 | X-H torsion
[ 11005 11000 10999 10996 ] final -149.70 input  -57.11 | X-H torsion

> <Gold.Protein.ActiveResidues>
 VAL166  LYS551  ARG553  GLY616  TRP617  ASP618  TYR619  PRO620  LYS621  CYS622 
 ASP623  PHE694  ASN695  SER759  ASP760  ASP761  ALA762  ILE779  LEU786  VAL792 
 PHE793  MET794  SER795  GLU796  ALA797  LYS798  CYS799  TRP800  GLU811  SER814 

> <Gold.Protein.RotatedAtoms>
  152.2757  134.7884  160.0405 H   0  0  0  0  0  0  0  0  0  0  0  0  # atno 6907 bound_to 6896
  151.8481  133.3430  159.3672 H   0  0  0  0  0  0  0  0  0  0  0  0  # atno 6908 bound_to 6896
  150.7169  134.5254  159.5718 H   0  0  0  0  0  0  0  0  0  0  0  0  # atno 6909 bound_to 6896
  146.2129  139.8237  142.8674 H   0  0  0  0  0  0  0  0  0  0  0  0  # atno 7974 bound_to 7965
  154.4266  140.1802  156.1341 H   0  0  0  0  0  0  0  0  0  0  0  0  # atno 8008 bound_to 7997
  156.0044  140.3357  155.6852 H   0  0  0  0  0  0  0  0  0  0  0  0  # atno 8009 bound_to 7997
  155.6198  140.0658  157.2672 H   0  0  0  0  0  0  0  0  0  0  0  0  # atno 8010 bound_to 7997
  139.7605  143.8385  152.2606 H   0  0  0  0  0  0  0  0  0  0  0  0  # atno 10167 bound_to 10162
  156.4738  130.4530  149.6853 H   0  0  0  0  0  0  0  0  0  0  0  0  # atno 10718 bound_to 10713
  154.1057  135.6556  153.4876 H   0  0  0  0  0  0  0  0  0  0  0  0  # atno 10763 bound_to 10752
  153.0273  135.5235  154.7242 H   0  0  0  0  0  0  0  0  0  0  0  0  # atno 10764 bound_to 10752
  154.6407  135.2988  155.0076 H   0  0  0  0  0  0  0  0  0  0  0  0  # atno 10765 bound_to 10752
  140.7480  134.3439  157.5132 H   0  0  0  0  0  0  0  0  0  0  0  0  # atno 11005 bound_to 11000
  145.3069  141.0209  143.3577 LP  0  0  0  0  0  0  0  0  0  0  0  0  # atno 17320 bound_to 7965
  144.8964  139.4706  143.6653 LP  0  0  0  0  0  0  0  0  0  0  0  0  # atno 17321 bound_to 7965
  139.8389  144.7219  150.9356 LP  0  0  0  0  0  0  0  0  0  0  0  0  # atno 17342 bound_to 10162
  140.7806  143.4001  151.1163 LP  0  0  0  0  0  0  0  0  0  0  0  0  # atno 17343 bound_to 10162
  156.3591  130.7472  151.2442 LP  0  0  0  0  0  0  0  0  0  0  0  0  # atno 17370 bound_to 10713
  157.7489  131.0355  150.4367 LP  0  0  0  0  0  0  0  0  0  0  0  0  # atno 17371 bound_to 10713
  139.8793  134.9124  156.3058 LP  0  0  0  0  0  0  0  0  0  0  0  0  # atno 17394 bound_to 11000
  140.9777  133.7287  156.0626 LP  0  0  0  0  0  0  0  0  0  0  0  0  # atno 17395 bound_to 11000

$$$$
