AV-unprocessed.smi:2451|AV-procd|sdf|9682|dock4
  -GOLD-   2272013323D 1   1.00000     0.00000
 Structure written by MMmdl.
 37 38  0  0  0  0  0  0  0  0  2 V2000
  152.7127  144.4871  159.3062 C   0  0  0  0  0  0  0  0  0  0  0  0
  152.0596  143.1389  158.9454 C   0  0  1  0  0  0  0  0  0  0  0  0
  151.2837  143.3035  157.6150 C   0  0  0  0  0  0  0  0  0  0  0  0
  150.6206  141.9741  157.2153 C   0  0  0  0  0  0  0  0  0  0  0  0
  151.6457  140.8241  157.1236 C   0  0  0  0  0  0  0  0  0  0  0  0
  152.4398  140.6080  158.4332 C   0  0  1  0  0  0  0  0  0  0  0  0
  153.4633  139.5965  158.2044 N   0  5  0  0  0  0  0  0  0  0  0  0
  153.3403  138.1570  158.9392 S   0  0  0  0  0  0  0  0  0  0  0  0
  154.2011  137.1329  158.3244 O   0  0  0  0  0  0  0  0  0  0  0  0
  153.3783  138.2670  160.4069 O   0  0  0  0  0  0  0  0  0  0  0  0
  151.6081  137.7009  158.5016 C   0  0  0  0  0  0  0  0  0  0  0  0
  151.4843  137.4848  157.0188 C   0  0  0  0  0  0  0  0  0  0  0  0
  150.3033  137.3374  156.2389 C   0  0  0  0  0  0  0  0  0  0  0  0
  150.7766  137.1772  154.9688 C   0  0  0  0  0  0  0  0  0  0  0  0
  152.1321  137.2308  154.9563 O   0  0  0  0  0  0  0  0  0  0  0  0
  152.5747  137.4302  156.2690 N   0  0  0  0  0  0  0  0  0  0  0  0
  153.0880  141.9520  158.9087 C   0  0  2  0  0  0  0  0  0  0  0  0
  153.8013  141.7882  160.2776 C   0  0  0  0  0  0  0  0  0  0  0  0
  153.5383  144.7206  158.6330 H   0  0  0  0  0  0  0  0  0  0  0  0
  153.0940  144.4970  160.3264 H   0  0  0  0  0  0  0  0  0  0  0  0
  151.9915  145.3019  159.2378 H   0  0  0  0  0  0  0  0  0  0  0  0
  151.3225  142.9309  159.7242 H   0  0  0  0  0  0  0  0  0  0  0  0
  150.5239  144.0801  157.7082 H   0  0  0  0  0  0  0  0  0  0  0  0
  151.9643  143.6242  156.8251 H   0  0  0  0  0  0  0  0  0  0  0  0
  149.8324  141.7259  157.9292 H   0  0  0  0  0  0  0  0  0  0  0  0
  150.1237  142.0932  156.2521 H   0  0  0  0  0  0  0  0  0  0  0  0
  151.1291  139.9031  156.8500 H   0  0  0  0  0  0  0  0  0  0  0  0
  152.3370  141.0385  156.3067 H   0  0  0  0  0  0  0  0  0  0  0  0
  151.7301  140.2978  159.2018 H   0  0  0  0  0  0  0  0  0  0  0  0
  151.3424  136.7991  159.0524 H   0  0  0  0  0  0  0  0  0  0  0  0
  150.9522  138.5027  158.8423 H   0  0  0  0  0  0  0  0  0  0  0  0
  149.2734  137.3411  156.5641 H   0  0  0  0  0  0  0  0  0  0  0  0
  150.2986  137.0248  154.0124 H   0  0  0  0  0  0  0  0  0  0  0  0
  153.8525  142.2184  158.1768 H   0  0  0  0  0  0  0  0  0  0  0  0
  153.0939  141.5916  161.0853 H   0  0  0  0  0  0  0  0  0  0  0  0
  154.3594  142.6836  160.5464 H   0  0  0  0  0  0  0  0  0  0  0  0
  154.5369  140.9814  160.2809 H   0  0  0  0  0  0  0  0  0  0  0  0
  1  2  1  0  0  0  0
  1 19  1  0  0  0  0
  1 20  1  0  0  0  0
  1 21  1  0  0  0  0
  2 17  1  0  0  0  0
  2  3  1  0  0  0  0
  2 22  1  0  0  0  0
  3  4  1  0  0  0  0
  3 23  1  0  0  0  0
  3 24  1  0  0  0  0
  4  5  1  0  0  0  0
  4 25  1  0  0  0  0
  4 26  1  0  0  0  0
  5  6  1  0  0  0  0
  5 27  1  0  0  0  0
  5 28  1  0  0  0  0
  6  7  1  0  0  0  0
  6 17  1  0  0  0  0
  6 29  1  0  0  0  0
  7  8  1  0  0  0  0
  8  9  2  0  0  0  0
  8 10  2  0  0  0  0
  8 11  1  0  0  0  0
 11 12  1  0  0  0  0
 11 30  1  0  0  0  0
 11 31  1  0  0  0  0
 12 16  2  0  0  0  0
 12 13  1  0  0  0  0
 13 14  2  0  0  0  0
 13 32  1  0  0  0  0
 14 15  1  0  0  0  0
 14 33  1  0  0  0  0
 15 16  1  0  0  0  0
 17 18  1  0  0  0  0
 17 34  1  0  0  0  0
 18 35  1  0  0  0  0
 18 36  1  0  0  0  0
 18 37  1  0  0  0  0
M  CHG  1   7  -1
M  END
> <s_m_source_file>
AV-unprocessed.smi

> <i_m_source_file_index>
2451

> <i_lp_mmshare_version>
43012

> <i_f3d_flags>
0

> <s_epik_input>
W0NIM11bQ0BASF0xW0NIMl1bQ0gyXVtDSDJdW0NASF0oW0NASF0xW0NIM10pW05IXVMoPU8pKD1PKVtDSDJdYzJbY0hdW2NIXW9uMg==

> <s_epik_cmdline>
J2VwaWtfcHl0aG9uJywgJy1waCcsICc3LjAnLCAnLXRuJywgJzgnLCAnLW1hJywgJzIwMCcsICctbWV0YWxfYmluZGluZycsICctaW1hZScsICc8aW5maWxlLm1hZT4nLCAnLW9tYWUnLCAnPG91dGZpbGUubWFlPic=

> <r_lp_tautomer_probability>
1

> <r_epik_Ionization_Penalty>
5.22693

> <r_epik_Ionization_Penalty_Charging>
5.22693

> <r_epik_Ionization_Penalty_Neutral>
2.67702e-10

> <r_epik_State_Penalty>
5.22685

> <r_epik_Charging_Adjusted_Penalty>
10.4538

> <i_epik_Tot_Q>
-1

> <i_epik_Tot_abs_Q>
1

> <r_epik_Metal_State_Penalty>
1.28716

> <b_epik_Metal_Only>
1

> <s_lp_Force_Field>
OPLS_2005

> <r_lp_Energy>
12.2025

> <b_lp_Chiralities_Consistent>
1

> <s_lp_Variant>
AV-unprocessed.smi:2451-14

> <Gold.Version>
5.8.1

> <Gold.Id.Protein>
6NUR|6NUR_protein|mol2

> <Gold.PLP.Fitness>
42.6490

> <Gold.PLP.PLP>
-31.5936

> <Gold.PLP.part.hbond>
-2.7431

> <Gold.PLP.part.metal>
0.0000

> <Gold.PLP.part.buried>
-5.3596

> <Gold.PLP.part.nonpolar>
-23.9401

> <Gold.PLP.part.repulsive>
0.0962

> <Gold.PLP.ligand.clash>
0.0000

> <Gold.PLP.ligand.torsion>
0.7584

> <Gold.PLP.Chemscore.Hbond>
2.6720

> <Gold.PLP.Chemscore.CHOScore>
1.1862

> <Gold.PLP.Chemscore.Metal>
0.0000

> <Gold.Chemscore.Hbonds>
donor molecule, donor type, donor heavy atom, donor atom, acceptor molecule, acceptor atom, score
      P1  H  7997  8010       L1     7  2.00
      P1  H 10752 10764       L1    15  0.70
      L1  C    14    33       P1  7948  0.76
      L1  C    14    33       P1  7949  0.07

> <Gold.PLP.Chemscore.Internal.Correction>
0.9975

> <Gold.Rescore>
     Score         DG    S(hbond)    S(metal)    S(lipo)     H(rot)  DE(clash)    DE(int)     intcor
     16.12     -18.96       1.79        0.00      94.58       1.40       0.09       2.75       ----

> <Gold.Chemscore.Fitness>
16.1180

> <Gold.Chemscore.DG>
-18.9560

> <Gold.Chemscore.ZeroCoef>
-5.4800

> <Gold.Chemscore.Hbond>
1.7935

> <Gold.Chemscore.Metal>
0.0000

> <Gold.Chemscore.Lipo>
94.5825

> <Gold.Chemscore.Internal_Hbond>
0.0000

> <Gold.Chemscore.DEClash>
0.0887

> <Gold.Chemscore.DEInternal>
2.7493

> <Gold.Chemscore.Rot>
1.3986

> <Gold.Chemscore.Internal.Correction>
   9.000000E+99

> <Gold.Chemscore.Hbonds>
donor molecule, donor type, donor heavy atom, donor atom, acceptor molecule, acceptor atom, score
      P1  H  7997  8010       L1     7  0.92
      P1  H 10752 10764       L1    15  0.47

> <Gold.Chemscore.Hbond.Weighted>
-5.9902

> <Gold.Chemscore.Metal.Weighted>
-0.0000

> <Gold.Chemscore.Lipo.Weighted>
-11.0662

> <Gold.Chemscore.Internal_Hbond.Weighted>
0.0000

> <Gold.Chemscore.DEClash.Weighted>
0.0887

> <Gold.Chemscore.DEInternal.Weighted>
2.7493

> <Gold.Chemscore.Rot.Weighted>
3.5804

> <Gold.Chemscore.Internal.Correction.Weighted>
   9.000000E+99

> <Gold.Protein.RotatedTorsions>
[ 6907 6896 6895 6894 ] final -171.30 input  -60.11 | X-H torsion
[ 7974 7965 7964 7962 ] final   51.78 input  175.53 | X-H torsion
[ 8008 7997 7996 7995 ] final   16.43 input   59.86 | X-H torsion
[ 10167 10162 10161 10158 ] final  133.36 input  -65.29 | X-H torsion
[ 10718 10713 10712 10709 ] final  173.19 input   66.30 | X-H torsion
[ 10763 10752 10751 10750 ] final  -83.08 input  -60.55 | X-H torsion
[ 11005 11000 10999 10996 ] final  166.96 input  -57.11 | X-H torsion

> <Gold.Protein.ActiveResidues>
 VAL166  LYS551  ARG553  GLY616  TRP617  ASP618  TYR619  PRO620  LYS621  CYS622 
 ASP623  PHE694  ASN695  SER759  ASP760  ASP761  ALA762  ILE779  LEU786  VAL792 
 PHE793  MET794  SER795  GLU796  ALA797  LYS798  CYS799  TRP800  GLU811  SER814 

> <Gold.Protein.RotatedAtoms>
  151.5216  133.3465  159.2902 H   0  0  0  0  0  0  0  0  0  0  0  0  # atno 6907 bound_to 6896
  150.8648  134.8012  159.7122 H   0  0  0  0  0  0  0  0  0  0  0  0  # atno 6908 bound_to 6896
  152.4656  134.5091  159.9800 H   0  0  0  0  0  0  0  0  0  0  0  0  # atno 6909 bound_to 6896
  145.9879  139.4308  143.0092 H   0  0  0  0  0  0  0  0  0  0  0  0  # atno 7974 bound_to 7965
  154.8769  140.2967  155.5448 H   0  0  0  0  0  0  0  0  0  0  0  0  # atno 8008 bound_to 7997
  156.3022  140.2449  156.3700 H   0  0  0  0  0  0  0  0  0  0  0  0  # atno 8009 bound_to 7997
  154.8758  140.0399  157.1741 H   0  0  0  0  0  0  0  0  0  0  0  0  # atno 8010 bound_to 7997
  139.5300  144.6619  151.4985 H   0  0  0  0  0  0  0  0  0  0  0  0  # atno 10167 bound_to 10162
  156.9679  131.0081  151.2912 H   0  0  0  0  0  0  0  0  0  0  0  0  # atno 10718 bound_to 10713
  154.5835  135.5568  153.7208 H   0  0  0  0  0  0  0  0  0  0  0  0  # atno 10763 bound_to 10752
  153.0090  135.6326  154.1950 H   0  0  0  0  0  0  0  0  0  0  0  0  # atno 10764 bound_to 10752
  154.1890  135.2883  155.3008 H   0  0  0  0  0  0  0  0  0  0  0  0  # atno 10765 bound_to 10752
  140.2719  134.7820  157.3682 H   0  0  0  0  0  0  0  0  0  0  0  0  # atno 11005 bound_to 11000
  145.7674  140.9911  143.1168 LP  0  0  0  0  0  0  0  0  0  0  0  0  # atno 17320 bound_to 7965
  144.6880  139.9404  143.7475 LP  0  0  0  0  0  0  0  0  0  0  0  0  # atno 17321 bound_to 7965
  140.6472  143.8771  150.6749 LP  0  0  0  0  0  0  0  0  0  0  0  0  # atno 17342 bound_to 10162
  140.2124  143.3873  152.1707 LP  0  0  0  0  0  0  0  0  0  0  0  0  # atno 17343 bound_to 10162
  157.5613  130.8248  149.8269 LP  0  0  0  0  0  0  0  0  0  0  0  0  # atno 17370 bound_to 10713
  156.0295  130.3769  150.1728 LP  0  0  0  0  0  0  0  0  0  0  0  0  # atno 17371 bound_to 10713
  140.1365  134.5027  155.8064 LP  0  0  0  0  0  0  0  0  0  0  0  0  # atno 17394 bound_to 11000
  141.2176  133.6809  156.7134 LP  0  0  0  0  0  0  0  0  0  0  0  0  # atno 17395 bound_to 11000

$$$$
