AV-unprocessed.smi:99|AV-procd|sdf|878|dock5
  -GOLD-   2262017353D 1   1.00000     0.00000
 Structure written by MMmdl.
 53 56  0  0  0  0  0  0  0  0  1 V2000
  155.9661  139.5176  154.1627 O   0  0  0  0  0  0  0  0  0  0  0  0
  155.6162  138.3992  153.7801 C   0  0  0  0  0  0  0  0  0  0  0  0
  154.5012  137.7789  154.2127 O   0  0  0  0  0  0  0  0  0  0  0  0
  153.7501  138.3318  155.2806 C   0  0  0  0  0  0  0  0  0  0  0  0
  152.3335  138.6444  154.7885 C   0  0  1  0  0  0  0  0  0  0  0  0
  151.7907  137.5176  154.1027 O   0  0  0  0  0  0  0  0  0  0  0  0
  150.4017  137.4646  154.2719 C   0  0  1  0  0  0  0  0  0  0  0  0
  150.0223  136.1196  154.8513 N   0  0  0  0  0  0  0  0  0  0  0  0
  150.9789  135.1687  155.1849 C   0  0  0  0  0  0  0  0  0  0  0  0
  150.6674  133.9654  155.7224 C   0  0  0  0  0  0  0  0  0  0  0  0
  149.2772  133.6099  155.9876 C   0  0  0  0  0  0  0  0  0  0  0  0
  148.8974  132.5444  156.4683 O   0  0  0  0  0  0  0  0  0  0  0  0
  148.3508  134.6011  155.6514 N   0  0  0  0  0  0  0  0  0  0  0  0
  148.6596  135.8459  155.1011 C   0  0  0  0  0  0  0  0  0  0  0  0
  147.7627  136.6535  154.8621 O   0  0  0  0  0  0  0  0  0  0  0  0
  150.0030  138.5864  155.2420 C   0  0  2  0  0  0  0  0  0  0  0  0
  149.5166  139.7061  154.5244 O   0  0  0  0  0  0  0  0  0  0  0  0
  151.3367  138.8654  155.9196 C   0  0  2  0  0  0  0  0  0  0  0  0
  151.4070  140.1563  156.5145 O   0  0  0  0  0  0  0  0  0  0  0  0
  152.1247  140.3544  157.6415 C   0  0  0  0  0  0  0  0  0  0  0  0
  152.9598  139.5548  158.0684 O   0  0  0  0  0  0  0  0  0  0  0  0
  151.7943  141.6393  158.3220 C   0  0  0  0  0  0  0  0  0  0  0  0
  152.5552  142.0439  159.4435 C   0  0  0  0  0  0  0  0  0  0  0  0
  152.2654  143.2507  160.1095 C   0  0  0  0  0  0  0  0  0  0  0  0
  151.2109  144.0674  159.6620 C   0  0  0  0  0  0  0  0  0  0  0  0
  150.4470  143.6763  158.5469 C   0  0  0  0  0  0  0  0  0  0  0  0
  150.7355  142.4699  157.8793 C   0  0  0  0  0  0  0  0  0  0  0  0
  156.3841  137.5894  152.7903 C   0  0  0  0  0  0  0  0  0  0  0  0
  155.7372  136.5325  152.1079 C   0  0  0  0  0  0  0  0  0  0  0  0
  156.4354  135.7539  151.1643 C   0  0  0  0  0  0  0  0  0  0  0  0
  157.7892  136.0227  150.8916 C   0  0  0  0  0  0  0  0  0  0  0  0
  158.4445  137.0706  151.5641 C   0  0  0  0  0  0  0  0  0  0  0  0
  157.7479  137.8502  152.5082 C   0  0  0  0  0  0  0  0  0  0  0  0
  147.3767  134.4019  155.8266 H   0  0  0  0  0  0  0  0  0  0  0  0
  153.7190  137.6435  156.1262 H   0  0  0  0  0  0  0  0  0  0  0  0
  154.2354  139.2484  155.6188 H   0  0  0  0  0  0  0  0  0  0  0  0
  152.3325  139.5061  154.1188 H   0  0  0  0  0  0  0  0  0  0  0  0
  149.9211  137.5223  153.2930 H   0  0  0  0  0  0  0  0  0  0  0  0
  152.0251  135.3793  155.0209 H   0  0  0  0  0  0  0  0  0  0  0  0
  151.4522  133.2619  155.9603 H   0  0  0  0  0  0  0  0  0  0  0  0
  149.2378  138.2571  155.9463 H   0  0  0  0  0  0  0  0  0  0  0  0
  148.7428  140.0289  154.9605 H   0  0  0  0  0  0  0  0  0  0  0  0
  151.5157  138.0981  156.6752 H   0  0  0  0  0  0  0  0  0  0  0  0
  153.3692  141.4329  159.8064 H   0  0  0  0  0  0  0  0  0  0  0  0
  152.8532  143.5490  160.9652 H   0  0  0  0  0  0  0  0  0  0  0  0
  150.9885  144.9924  160.1734 H   0  0  0  0  0  0  0  0  0  0  0  0
  149.6373  144.3027  158.2025 H   0  0  0  0  0  0  0  0  0  0  0  0
  150.1293  142.1997  157.0269 H   0  0  0  0  0  0  0  0  0  0  0  0
  154.6982  136.3074  152.3001 H   0  0  0  0  0  0  0  0  0  0  0  0
  155.9308  134.9504  150.6486 H   0  0  0  0  0  0  0  0  0  0  0  0
  158.3240  135.4264  150.1672 H   0  0  0  0  0  0  0  0  0  0  0  0
  159.4836  137.2785  151.3553 H   0  0  0  0  0  0  0  0  0  0  0  0
  158.2808  138.6478  153.0049 H   0  0  0  0  0  0  0  0  0  0  0  0
  1  2  2  0  0  0  0
  2  3  1  0  0  0  0
  2 28  1  0  0  0  0
  3  4  1  0  0  0  0
  4  5  1  0  0  0  0
  4 35  1  0  0  0  0
  4 36  1  0  0  0  0
  5 18  1  0  0  0  0
  5  6  1  0  0  0  0
  5 37  1  0  0  0  0
  6  7  1  0  0  0  0
  7  8  1  0  0  0  0
  7 16  1  0  0  0  0
  7 38  1  0  0  0  0
  8 14  1  0  0  0  0
  8  9  1  0  0  0  0
  9 10  2  0  0  0  0
  9 39  1  0  0  0  0
 10 11  1  0  0  0  0
 10 40  1  0  0  0  0
 11 12  2  0  0  0  0
 11 13  1  0  0  0  0
 13 34  1  0  0  0  0
 13 14  1  0  0  0  0
 14 15  2  0  0  0  0
 16 17  1  0  0  0  0
 16 18  1  0  0  0  0
 16 41  1  0  0  0  0
 17 42  1  0  0  0  0
 18 19  1  0  0  0  0
 18 43  1  0  0  0  0
 19 20  1  0  0  0  0
 20 21  2  0  0  0  0
 20 22  1  0  0  0  0
 22 27  1  0  0  0  0
 22 23  2  0  0  0  0
 23 24  1  0  0  0  0
 23 44  1  0  0  0  0
 24 25  2  0  0  0  0
 24 45  1  0  0  0  0
 25 26  1  0  0  0  0
 25 46  1  0  0  0  0
 26 27  2  0  0  0  0
 26 47  1  0  0  0  0
 27 48  1  0  0  0  0
 28 33  1  0  0  0  0
 28 29  2  0  0  0  0
 29 30  1  0  0  0  0
 29 49  1  0  0  0  0
 30 31  2  0  0  0  0
 30 50  1  0  0  0  0
 31 32  1  0  0  0  0
 31 51  1  0  0  0  0
 32 33  2  0  0  0  0
 32 52  1  0  0  0  0
 33 53  1  0  0  0  0
M  END
> <s_m_source_file>
AV-unprocessed.smi

> <i_m_source_file_index>
99

> <i_lp_mmshare_version>
43012

> <i_f3d_flags>
0

> <s_epik_input>
W2NIXTFbY0hdW2NIXVtjSF1bY0hdYzFDKD1PKU9bQ0gyXVtDQEBIXTJPW0NAQEhdKG4zW2NIXVtjSF1jKD1PKVtuSF1jMz1PKVtDQEBIXShbT0hdKVtDQEhdMk9DKD1PKWM0W2NIXVtjSF1bY0hdW2NIXVtjSF00

> <s_epik_cmdline>
J2VwaWtfcHl0aG9uJywgJy1waCcsICc3LjAnLCAnLXRuJywgJzgnLCAnLW1hJywgJzIwMCcsICctbWV0YWxfYmluZGluZycsICctaW1hZScsICc8aW5maWxlLm1hZT4nLCAnLW9tYWUnLCAnPG91dGZpbGUubWFlPic=

> <r_lp_tautomer_probability>
1

> <r_epik_Ionization_Penalty>
0.00454555

> <r_epik_Ionization_Penalty_Charging>
0.0045191

> <r_epik_Ionization_Penalty_Neutral>
2.64449e-05

> <r_epik_State_Penalty>
-0

> <r_epik_Charging_Adjusted_Penalty>
0.0045191

> <i_epik_Tot_Q>
0

> <i_epik_Tot_abs_Q>
0

> <r_epik_Metal_State_Penalty>
1.27877

> <b_epik_Metal_Only>
0

> <s_epik_Chemistry_Notes>
This compound has an ester and may undergo hydrolysis at high or low pH. This compound contains an acetal/aminal-like group ( X-CH(R)-Y where X, Y are N, S, or O) that may be acid/base labile, releasing an aldehyde.

> <s_lp_Force_Field>
OPLS_2005

> <r_lp_Energy>
38.7636

> <b_lp_Chiralities_Consistent>
1

> <s_lp_Variant>
AV-unprocessed.smi:99-14

> <Gold.Version>
5.8.1

> <Gold.Id.Protein>
6NUR|6NUR_protein|mol2

> <Gold.PLP.Fitness>
58.1057

> <Gold.PLP.PLP>
-52.7564

> <Gold.PLP.part.hbond>
-4.0012

> <Gold.PLP.part.metal>
0.0000

> <Gold.PLP.part.buried>
5.8994

> <Gold.PLP.part.nonpolar>
-54.4964

> <Gold.PLP.part.repulsive>
0.2709

> <Gold.PLP.ligand.clash>
0.0000

> <Gold.PLP.ligand.torsion>
1.3834

> <Gold.PLP.Chemscore.Hbond>
2.6128

> <Gold.PLP.Chemscore.CHOScore>
0.0000

> <Gold.PLP.Chemscore.Metal>
0.0000

> <Gold.Chemscore.Hbonds>
donor molecule, donor type, donor heavy atom, donor atom, acceptor molecule, acceptor atom, score
      P1  H  7997  8008       L1    21  0.95
      P1  H  7997  8009       L1     1  0.93
      P1  H 10752 10764       L1     6  0.61

> <Gold.PLP.Chemscore.Internal.Correction>
0.2776

> <Gold.Rescore>
     Score         DG    S(hbond)    S(metal)    S(lipo)     H(rot)  DE(clash)    DE(int)     intcor
     18.42     -24.77       2.42        0.00     165.62       3.19       4.65       1.70       ----

> <Gold.Chemscore.Fitness>
18.4223

> <Gold.Chemscore.DG>
-24.7693

> <Gold.Chemscore.ZeroCoef>
-5.4800

> <Gold.Chemscore.Hbond>
2.4189

> <Gold.Chemscore.Metal>
0.0000

> <Gold.Chemscore.Lipo>
165.6168

> <Gold.Chemscore.Internal_Hbond>
0.0000

> <Gold.Chemscore.DEClash>
4.6474

> <Gold.Chemscore.DEInternal>
1.6996

> <Gold.Chemscore.Rot>
3.1903

> <Gold.Chemscore.Internal.Correction>
   9.000000E+99

> <Gold.Chemscore.Hbonds>
donor molecule, donor type, donor heavy atom, donor atom, acceptor molecule, acceptor atom, score
      P1  H  7997  8008       L1    21  0.21
      P1  H  7997  8009       L1     1  0.88
      P1  H 10752 10764       L1     6  0.51

> <Gold.Chemscore.Hbond.Weighted>
-8.0792

> <Gold.Chemscore.Metal.Weighted>
-0.0000

> <Gold.Chemscore.Lipo.Weighted>
-19.3772

> <Gold.Chemscore.Internal_Hbond.Weighted>
0.0000

> <Gold.Chemscore.DEClash.Weighted>
4.6474

> <Gold.Chemscore.DEInternal.Weighted>
1.6996

> <Gold.Chemscore.Rot.Weighted>
8.1671

> <Gold.Chemscore.Internal.Correction.Weighted>
   9.000000E+99

> <Gold.Protein.RotatedTorsions>
[ 6907 6896 6895 6894 ] final   50.11 input  -60.11 | X-H torsion
[ 7974 7965 7964 7962 ] final  154.61 input  175.53 | X-H torsion
[ 8008 7997 7996 7995 ] final  -76.04 input   59.86 | X-H torsion
[ 10167 10162 10161 10158 ] final  -72.90 input  -65.29 | X-H torsion
[ 10718 10713 10712 10709 ] final  -91.04 input   66.30 | X-H torsion
[ 10763 10752 10751 10750 ] final  -78.74 input  -60.55 | X-H torsion
[ 11005 11000 10999 10996 ] final   26.39 input  -57.11 | X-H torsion

> <Gold.Protein.ActiveResidues>
 VAL166  LYS551  ARG553  GLY616  TRP617  ASP618  TYR619  PRO620  LYS621  CYS622 
 ASP623  PHE694  ASN695  SER759  ASP760  ASP761  ALA762  ILE779  LEU786  VAL792 
 PHE793  MET794  SER795  GLU796  ALA797  LYS798  CYS799  TRP800  GLU811  SER814 

> <Gold.Protein.RotatedAtoms>
  152.2982  134.7642  160.0363 H   0  0  0  0  0  0  0  0  0  0  0  0  # atno 6907 bound_to 6896
  151.8165  133.3383  159.3579 H   0  0  0  0  0  0  0  0  0  0  0  0  # atno 6908 bound_to 6896
  150.7261  134.5544  159.5855 H   0  0  0  0  0  0  0  0  0  0  0  0  # atno 6909 bound_to 6896
  144.8078  139.6957  143.6155 H   0  0  0  0  0  0  0  0  0  0  0  0  # atno 7974 bound_to 7965
  154.5470  140.0734  156.8604 H   0  0  0  0  0  0  0  0  0  0  0  0  # atno 8008 bound_to 7997
  155.3068  140.3387  155.4227 H   0  0  0  0  0  0  0  0  0  0  0  0  # atno 8009 bound_to 7997
  156.1927  140.1692  156.8047 H   0  0  0  0  0  0  0  0  0  0  0  0  # atno 8010 bound_to 7997
  140.5155  143.2338  151.7521 H   0  0  0  0  0  0  0  0  0  0  0  0  # atno 10167 bound_to 10162
  155.9991  130.4933  150.5415 H   0  0  0  0  0  0  0  0  0  0  0  0  # atno 10718 bound_to 10713
  154.5297  135.5719  153.6749 H   0  0  0  0  0  0  0  0  0  0  0  0  # atno 10763 bound_to 10752
  152.9936  135.6202  154.2645 H   0  0  0  0  0  0  0  0  0  0  0  0  # atno 10764 bound_to 10752
  154.2571  135.2857  155.2773 H   0  0  0  0  0  0  0  0  0  0  0  0  # atno 10765 bound_to 10752
  140.3375  134.2369  155.7694 H   0  0  0  0  0  0  0  0  0  0  0  0  # atno 11005 bound_to 11000
  146.2372  139.5928  142.9516 LP  0  0  0  0  0  0  0  0  0  0  0  0  # atno 17320 bound_to 7965
  145.5397  141.0421  143.2337 LP  0  0  0  0  0  0  0  0  0  0  0  0  # atno 17321 bound_to 7965
  139.4908  144.4330  151.9851 LP  0  0  0  0  0  0  0  0  0  0  0  0  # atno 17342 bound_to 10162
  140.3424  144.3187  150.5964 LP  0  0  0  0  0  0  0  0  0  0  0  0  # atno 17343 bound_to 10162
  157.3350  131.0706  151.1831 LP  0  0  0  0  0  0  0  0  0  0  0  0  # atno 17370 bound_to 10713
  157.2699  130.6699  149.6014 LP  0  0  0  0  0  0  0  0  0  0  0  0  # atno 17371 bound_to 10713
  141.2047  133.7879  157.0272 LP  0  0  0  0  0  0  0  0  0  0  0  0  # atno 17394 bound_to 11000
  140.0808  134.9649  157.1622 LP  0  0  0  0  0  0  0  0  0  0  0  0  # atno 17395 bound_to 11000

$$$$
