AV-unprocessed.smi:1107|AV-procd|sdf|4786|dock5
  -GOLD-   22720 3333D 1   1.00000     0.00000
 Structure written by MMmdl.
 48 49  0  0  0  0  0  0  0  0  3 V2000
  152.0248  141.4565  158.3828 C   0  0  0  0  0  0  0  0  0  0  0  0
  151.7258  140.4595  157.2844 C   0  0  0  0  0  0  0  0  0  0  0  0
  150.6544  140.5869  156.5992 N   0  0  0  0  0  0  0  0  0  0  0  0
  150.3636  139.6543  155.5888 C   0  0  0  0  0  0  0  0  0  0  0  0
  149.0575  139.8702  154.8453 C   0  0  0  0  0  0  0  0  0  0  0  0
  151.2099  138.6193  155.3199 C   0  0  0  0  0  0  0  0  0  0  0  0
  150.9298  137.5564  154.2584 C   0  0  0  0  0  0  0  0  0  0  0  0
  150.7107  136.1559  154.8266 C   0  0  0  0  0  0  0  0  0  0  0  0
  151.6208  135.5716  155.4128 O   0  0  0  0  0  0  0  0  0  0  0  0
  149.5042  135.6178  154.5937 N   0  0  0  0  0  0  0  0  0  0  0  0
  149.1219  134.2279  154.8256 C   0  0  1  0  0  0  0  0  0  0  0  0
  149.6127  133.7758  156.2076 C   0  0  0  0  0  0  0  0  0  0  0  0
  147.5922  134.0647  154.6726 C   0  0  0  0  0  0  0  0  0  0  0  0
  147.1253  134.0216  153.2596 N   0  3  0  0  0  0  0  0  0  0  0  0
  145.7799  134.6337  153.1019 C   0  0  0  0  0  0  0  0  0  0  0  0
  145.3576  134.6996  151.6246 C   0  0  0  0  0  0  0  0  0  0  0  0
  145.4183  133.3163  150.9654 C   0  0  0  0  0  0  0  0  0  0  0  0
  146.8075  132.6997  151.1675 C   0  0  0  0  0  0  0  0  0  0  0  0
  147.1837  132.6627  152.6573 C   0  0  0  0  0  0  0  0  0  0  0  0
  152.4313  138.5053  156.1370 C   0  0  0  0  0  0  0  0  0  0  0  0
  153.2120  137.5710  155.9588 O   0  0  0  0  0  0  0  0  0  0  0  0
  152.6412  139.4482  157.0973 N   0  5  0  0  0  0  0  0  0  0  0  0
  151.3749  142.3295  158.3076 H   0  0  0  0  0  0  0  0  0  0  0  0
  153.0590  141.7970  158.3192 H   0  0  0  0  0  0  0  0  0  0  0  0
  151.8709  140.9964  159.3592 H   0  0  0  0  0  0  0  0  0  0  0  0
  148.4258  138.9848  154.9125 H   0  0  0  0  0  0  0  0  0  0  0  0
  149.2477  140.0844  153.7936 H   0  0  0  0  0  0  0  0  0  0  0  0
  148.4999  140.7095  155.2627 H   0  0  0  0  0  0  0  0  0  0  0  0
  150.0481  137.8376  153.6825 H   0  0  0  0  0  0  0  0  0  0  0  0
  151.7397  137.5275  153.5280 H   0  0  0  0  0  0  0  0  0  0  0  0
  148.8252  136.1993  154.1224 H   0  0  0  0  0  0  0  0  0  0  0  0
  149.6050  133.5836  154.0901 H   0  0  0  0  0  0  0  0  0  0  0  0
  149.3512  132.7338  156.3940 H   0  0  0  0  0  0  0  0  0  0  0  0
  149.1727  134.3774  157.0038 H   0  0  0  0  0  0  0  0  0  0  0  0
  150.6969  133.8622  156.2861 H   0  0  0  0  0  0  0  0  0  0  0  0
  147.2497  133.1749  155.2029 H   0  0  0  0  0  0  0  0  0  0  0  0
  147.1127  134.9148  155.1605 H   0  0  0  0  0  0  0  0  0  0  0  0
  145.0501  134.0593  153.6747 H   0  0  0  0  0  0  0  0  0  0  0  0
  145.7852  135.6432  153.5148 H   0  0  0  0  0  0  0  0  0  0  0  0
  144.3497  135.1072  151.5424 H   0  0  0  0  0  0  0  0  0  0  0  0
  146.0095  135.3884  151.0895 H   0  0  0  0  0  0  0  0  0  0  0  0
  144.6587  132.6658  151.4008 H   0  0  0  0  0  0  0  0  0  0  0  0
  145.1923  133.3964  149.9016 H   0  0  0  0  0  0  0  0  0  0  0  0
  146.8331  131.6928  150.7501 H   0  0  0  0  0  0  0  0  0  0  0  0
  147.5496  133.2796  150.6190 H   0  0  0  0  0  0  0  0  0  0  0  0
  148.1868  132.2483  152.7489 H   0  0  0  0  0  0  0  0  0  0  0  0
  146.5139  131.9935  153.1992 H   0  0  0  0  0  0  0  0  0  0  0  0
  147.7616  134.6015  152.7302 H   0  0  0  0  0  0  0  0  0  0  0  0
  1  2  1  0  0  0  0
  1 23  1  0  0  0  0
  1 24  1  0  0  0  0
  1 25  1  0  0  0  0
  2 22  1  0  0  0  0
  2  3  2  0  0  0  0
  3  4  1  0  0  0  0
  4  5  1  0  0  0  0
  4  6  2  0  0  0  0
  5 26  1  0  0  0  0
  5 27  1  0  0  0  0
  5 28  1  0  0  0  0
  6  7  1  0  0  0  0
  6 20  1  0  0  0  0
  7  8  1  0  0  0  0
  7 29  1  0  0  0  0
  7 30  1  0  0  0  0
  8  9  2  0  0  0  0
  8 10  1  0  0  0  0
 10 11  1  0  0  0  0
 10 31  1  0  0  0  0
 11 12  1  0  0  0  0
 11 13  1  0  0  0  0
 11 32  1  0  0  0  0
 12 33  1  0  0  0  0
 12 34  1  0  0  0  0
 12 35  1  0  0  0  0
 13 14  1  0  0  0  0
 13 36  1  0  0  0  0
 13 37  1  0  0  0  0
 14 19  1  0  0  0  0
 14 15  1  0  0  0  0
 14 48  1  0  0  0  0
 15 16  1  0  0  0  0
 15 38  1  0  0  0  0
 15 39  1  0  0  0  0
 16 17  1  0  0  0  0
 16 40  1  0  0  0  0
 16 41  1  0  0  0  0
 17 18  1  0  0  0  0
 17 42  1  0  0  0  0
 17 43  1  0  0  0  0
 18 19  1  0  0  0  0
 18 44  1  0  0  0  0
 18 45  1  0  0  0  0
 19 46  1  0  0  0  0
 19 47  1  0  0  0  0
 20 21  2  0  0  0  0
 20 22  1  0  0  0  0
M  CHG  1  14   1
M  CHG  1  22  -1
M  END
> <s_m_source_file>
AV-unprocessed.smi

> <i_m_source_file_index>
1107

> <i_lp_mmshare_version>
43012

> <i_f3d_flags>
0

> <s_epik_input>
W0NIM11jMW5jKFtDSDNdKWMoYyg9TylbbkhdMSlbQ0gyXUMoPU8pW05IXVtDQEhdKFtDSDNdKVtDSDJdTjJbQ0gyXVtDSDJdW0NIMl1bQ0gyXVtDSDJdMg==

> <s_epik_cmdline>
J2VwaWtfcHl0aG9uJywgJy1waCcsICc3LjAnLCAnLXRuJywgJzgnLCAnLW1hJywgJzIwMCcsICctbWV0YWxfYmluZGluZycsICctaW1hZScsICc8aW5maWxlLm1hZT4nLCAnLW9tYWUnLCAnPG91dGZpbGUubWFlPic=

> <r_lp_tautomer_probability>
0.839158

> <r_epik_Ionization_Penalty>
6.34615

> <r_epik_Ionization_Penalty_Charging>
0.00266072

> <r_epik_Ionization_Penalty_Neutral>
6.34348

> <r_epik_State_Penalty>
4.30851

> <r_epik_Charging_Adjusted_Penalty>
4.31117

> <i_epik_Tot_Q>
0

> <i_epik_Tot_abs_Q>
2

> <r_epik_Metal_State_Penalty>
0.75957

> <b_epik_Metal_Only>
1

> <s_lp_Force_Field>
OPLS_2005

> <r_lp_Energy>
17.1347

> <b_lp_Chiralities_Consistent>
1

> <s_lp_Variant>
AV-unprocessed.smi:1107-6

> <Gold.Version>
5.8.1

> <Gold.Id.Protein>
6NUR|6NUR_protein|mol2

> <Gold.PLP.Fitness>
50.5772

> <Gold.PLP.PLP>
-36.4227

> <Gold.PLP.part.hbond>
-4.4238

> <Gold.PLP.part.metal>
0.0000

> <Gold.PLP.part.buried>
-2.1655

> <Gold.PLP.part.nonpolar>
-28.1537

> <Gold.PLP.part.repulsive>
0.1564

> <Gold.PLP.ligand.clash>
0.0000

> <Gold.PLP.ligand.torsion>
0.6985

> <Gold.PLP.Chemscore.Hbond>
5.1602

> <Gold.PLP.Chemscore.CHOScore>
0.0000

> <Gold.PLP.Chemscore.Metal>
0.0000

> <Gold.Chemscore.Hbonds>
donor molecule, donor type, donor heavy atom, donor atom, acceptor molecule, acceptor atom, score
      L1  H    10    31       P1  7948  0.14
      L1  H    14    48       P1  7948  1.33
      P1  H  7997  8009       L1    22  2.00
      P1  H 10752 10764       L1     9  0.98

> <Gold.PLP.Chemscore.Internal.Correction>
0.0712

> <Gold.Rescore>
     Score         DG    S(hbond)    S(metal)    S(lipo)     H(rot)  DE(clash)    DE(int)     intcor
     14.37     -18.48       2.65        0.00      77.43       1.92       0.48       3.64       ----

> <Gold.Chemscore.Fitness>
14.3669

> <Gold.Chemscore.DG>
-18.4794

> <Gold.Chemscore.ZeroCoef>
-5.4800

> <Gold.Chemscore.Hbond>
2.6540

> <Gold.Chemscore.Metal>
0.0000

> <Gold.Chemscore.Lipo>
77.4265

> <Gold.Chemscore.Internal_Hbond>
0.0000

> <Gold.Chemscore.DEClash>
0.4754

> <Gold.Chemscore.DEInternal>
3.6371

> <Gold.Chemscore.Rot>
1.9233

> <Gold.Chemscore.Internal.Correction>
   9.000000E+99

> <Gold.Chemscore.Hbonds>
donor molecule, donor type, donor heavy atom, donor atom, acceptor molecule, acceptor atom, score
      L1  H    10    31       P1  7948  0.14
      L1  H    14    48       P1  7948  0.55
      P1  H  7997  8009       L1    22  0.44
      P1  H 10752 10764       L1     9  0.89

> <Gold.Chemscore.Hbond.Weighted>
-8.8643

> <Gold.Chemscore.Metal.Weighted>
-0.0000

> <Gold.Chemscore.Lipo.Weighted>
-9.0589

> <Gold.Chemscore.Internal_Hbond.Weighted>
0.0000

> <Gold.Chemscore.DEClash.Weighted>
0.4754

> <Gold.Chemscore.DEInternal.Weighted>
3.6371

> <Gold.Chemscore.Rot.Weighted>
4.9237

> <Gold.Chemscore.Internal.Correction.Weighted>
   9.000000E+99

> <Gold.Protein.RotatedTorsions>
[ 6907 6896 6895 6894 ] final  -53.12 input  -60.11 | X-H torsion
[ 7974 7965 7964 7962 ] final -166.16 input  175.53 | X-H torsion
[ 8008 7997 7996 7995 ] final  167.78 input   59.86 | X-H torsion
[ 10167 10162 10161 10158 ] final -139.25 input  -65.29 | X-H torsion
[ 10718 10713 10712 10709 ] final  154.06 input   66.30 | X-H torsion
[ 10763 10752 10751 10750 ] final  -29.54 input  -60.55 | X-H torsion
[ 11005 11000 10999 10996 ] final -120.55 input  -57.11 | X-H torsion

> <Gold.Protein.ActiveResidues>
 VAL166  LYS551  ARG553  GLY616  TRP617  ASP618  TYR619  PRO620  LYS621  CYS622 
 ASP623  PHE694  ASN695  SER759  ASP760  ASP761  ALA762  ILE779  LEU786  VAL792 
 PHE793  MET794  SER795  GLU796  ALA797  LYS798  CYS799  TRP800  GLU811  SER814 

> <Gold.Protein.RotatedAtoms>
  150.8455  134.7762  159.6966 H   0  0  0  0  0  0  0  0  0  0  0  0  # atno 6907 bound_to 6896
  152.4533  134.5344  159.9830 H   0  0  0  0  0  0  0  0  0  0  0  0  # atno 6908 bound_to 6896
  151.5475  133.3385  159.2982 H   0  0  0  0  0  0  0  0  0  0  0  0  # atno 6909 bound_to 6896
  144.7252  140.2708  143.6251 H   0  0  0  0  0  0  0  0  0  0  0  0  # atno 7974 bound_to 7965
  156.1604  140.1608  156.8621 H   0  0  0  0  0  0  0  0  0  0  0  0  # atno 8008 bound_to 7997
  154.5155  140.0790  156.8109 H   0  0  0  0  0  0  0  0  0  0  0  0  # atno 8009 bound_to 7997
  155.3718  140.3400  155.4246 H   0  0  0  0  0  0  0  0  0  0  0  0  # atno 8010 bound_to 7997
  139.8397  143.7337  152.2663 H   0  0  0  0  0  0  0  0  0  0  0  0  # atno 10167 bound_to 10162
  157.2365  131.0750  151.1820 H   0  0  0  0  0  0  0  0  0  0  0  0  # atno 10718 bound_to 10713
  153.7662  135.6915  153.4915 H   0  0  0  0  0  0  0  0  0  0  0  0  # atno 10763 bound_to 10752
  153.1905  135.4473  155.0142 H   0  0  0  0  0  0  0  0  0  0  0  0  # atno 10764 bound_to 10752
  154.8135  135.3388  154.7175 H   0  0  0  0  0  0  0  0  0  0  0  0  # atno 10765 bound_to 10752
  141.0135  134.0229  157.3381 H   0  0  0  0  0  0  0  0  0  0  0  0  # atno 11005 bound_to 11000
  145.8045  139.1978  143.2029 LP  0  0  0  0  0  0  0  0  0  0  0  0  # atno 17320 bound_to 7965
  146.0648  140.7932  142.9717 LP  0  0  0  0  0  0  0  0  0  0  0  0  # atno 17321 bound_to 7965
  139.7571  144.7517  151.0419 LP  0  0  0  0  0  0  0  0  0  0  0  0  # atno 17342 bound_to 10162
  140.7799  143.4793  151.0039 LP  0  0  0  0  0  0  0  0  0  0  0  0  # atno 17343 bound_to 10162
  157.3423  130.7040  149.6389 LP  0  0  0  0  0  0  0  0  0  0  0  0  # atno 17370 bound_to 10713
  155.9672  130.4276  150.4752 LP  0  0  0  0  0  0  0  0  0  0  0  0  # atno 17371 bound_to 10713
  139.9103  135.0189  156.7665 LP  0  0  0  0  0  0  0  0  0  0  0  0  # atno 17394 bound_to 11000
  140.6694  133.9573  155.7848 LP  0  0  0  0  0  0  0  0  0  0  0  0  # atno 17395 bound_to 11000

$$$$
