#       Name:                AV-unprocessed.smi:160
#       Creating user name   scv26
#       Creation time:       Thu Mar 26 19:05:41 2020


#       File generated by GOLD software.
#

@<TRIPOS>MOLECULE
AV-unprocessed.smi:160
    41    42     1
SMALL
NO_CHARGES


@<TRIPOS>ATOM
      1 ****        -4.2495   2.3038  -0.6747 N.am           1 S1                 0.0000
      2 ****        -4.2485   1.2027   0.0838 C.2            1 S1                 0.0000
      3 ****        -5.2869   0.6480   0.4400 O.2            1 S1                 0.0000
      4 ****        -2.8990   0.6682   0.4775 C.2            1 S1                 0.0000
      5 ****        -2.7813  -0.4708   1.2216 N.2            1 S1                 0.0000
      6 ****        -1.4587  -0.5257   1.3110 C.2            1 S1                 0.0000
      7 ****        -0.8238   0.4651   0.6724 N.pl3          1 S1                 0.0000
      8 ****         0.6339   0.7987   0.5645 C.3            1 S1                 0.0000
      9 ****         1.3673  -0.2129   1.1804 O.3            1 S1                 0.0000
     10 ****         1.6394  -1.2341   0.2298 C.3            1 S1                 0.0000
     11 ****         2.8137  -2.0998   0.7107 C.3            1 S1                 0.0000
     12 ****         2.3558  -3.0769   1.6209 O.3            1 S1                 0.0000
     13 ****         1.9525  -0.4265  -1.0357 C.3            1 S1                 0.0000
     14 ****         1.5947  -1.1679  -2.1847 O.3            1 S1                 0.0000
     15 ****         1.0795   0.8239  -0.9099 C.3            1 S1                 0.0000
     16 ****         1.8298   1.9851  -1.2024 O.3            1 S1                 0.0000
     17 ****        -1.7643   1.2805   0.1336 N.2            1 S1                 0.0000
     18 ****         0.7306   1.7494   1.0909 H              1 S1                 0.0000
     19 ****         0.7449  -1.8408   0.0741 H              1 S1                 0.0000
     20 ****         3.0116  -0.1647  -1.0675 H              1 S1                 0.0000
     21 ****         0.2127   0.7861  -1.5715 H              1 S1                 0.0000
     22 ****        -5.1246   2.7096  -0.9722 H              1 S1                 0.0000
     23 ****        -3.3715   2.7219  -0.9461 H              1 S1                 0.0000
     24 ****        -0.9446  -1.3042   1.8557 H              1 S1                 0.0000
     25 ****         3.2610  -2.6249  -0.1337 H              1 S1                 0.0000
     26 ****         3.5960  -1.4917   1.1662 H              1 S1                 0.0000
     27 ****         3.0915  -3.6061   1.8890 H              1 S1                 0.0000
     28 ****         1.7634  -0.6359  -2.9473 H              1 S1                 0.0000
     29 ****         1.2751   2.7399  -1.0770 H              1 S1                 0.0000
     30 ****        -6.1729   1.0193   0.1621 LP             1 S1                 0.0000
     31 ****        -5.2452  -0.1743   1.0075 LP             1 S1                 0.0000
     32 ****        -3.4827  -1.0813   1.5894 LP             1 S1                 0.0000
     33 ****         0.8400  -0.5941   1.9398 LP             1 S1                 0.0000
     34 ****         2.2280   0.1605   1.5265 LP             1 S1                 0.0000
     35 ****         1.6688  -3.6537   1.1790 LP             1 S1                 0.0000
     36 ****         1.9524  -2.6308   2.4198 LP             1 S1                 0.0000
     37 ****         0.6237  -1.4039  -2.1456 LP             1 S1                 0.0000
     38 ****         2.1396  -2.0052  -2.2296 LP             1 S1                 0.0000
     39 ****         2.1459   1.9525  -2.1505 LP             1 S1                 0.0000
     40 ****         2.6183   2.0404  -0.5899 LP             1 S1                 0.0000
     41 ****        -1.6394   2.1245  -0.3879 LP             1 S1                 0.0000
@<TRIPOS>BOND
    1    1    2 am    
    2    1   22 1     
    3    1   23 1     
    4    2    3 2     
    5    2    4 1     
    6    4   17 2     
    7    4    5 1     
    8    5    6 2     
    9    6    7 1     
   10    6   24 1     
   11    7    8 1     
   12    7   17 1     
   13    8   18 1     
   14    8   15 1     
   15    8    9 1     
   16    9   10 1     
   17   10   19 1     
   18   10   11 1     
   19   10   13 1     
   20   11   12 1     
   21   11   25 1     
   22   11   26 1     
   23   12   27 1     
   24   13   20 1     
   25   13   14 1     
   26   13   15 1     
   27   14   28 1     
   28   15   21 1     
   29   15   16 1     
   30   16   29 1     
   31    3   30 1     
   32    3   31 1     
   33    5   32 1     
   34    9   33 1     
   35    9   34 1     
   36   12   35 1     
   37   12   36 1     
   38   14   37 1     
   39   14   38 1     
   40   16   39 1     
   41   16   40 1     
   42   17   41 1     
@<TRIPOS>SUBSTRUCTURE
      1 S1             1
@<TRIPOS>SET
LONE_PAIRS      STATIC     ATOMS    <user>   **** ""
12 30 31 32 33 34 35 36 37 38 39 40 41
DONOR_HYDROGENS      STATIC     ATOMS    <user>   **** ""
5 22 23 27 28 29
ATOM$BLUE        STATIC     ATOMS    COLORGROUP SYSTEM
12 30 31 32 33 34 35 36 37 38 39 40 41
ATOM$RED        STATIC     ATOMS    COLORGROUP SYSTEM
5 22 23 27 28 29
