AV-unprocessed.smi:1093|AV-procd|sdf|4740|dock4
  -GOLD-   22720 3273D 1   1.00000     0.00000
 Structure written by MMmdl.
 48 49  0  0  0  0  0  0  0  0  3 V2000
  146.0848  131.6104  152.2595 C   0  0  0  0  0  0  0  0  0  0  0  0
  147.2523  132.6072  152.2938 C   0  0  0  0  0  0  0  0  0  0  0  0
  146.7882  134.0167  152.3091 N   0  3  1  0  0  0  0  0  0  0  0  0
  145.9654  134.3565  151.1192 C   0  0  0  0  0  0  0  0  0  0  0  0
  145.6311  135.8581  151.0847 C   0  0  0  0  0  0  0  0  0  0  0  0
  144.9542  136.3123  152.3887 C   0  0  0  0  0  0  0  0  0  0  0  0
  145.7911  135.9068  153.6150 C   0  0  2  0  0  0  0  0  0  0  0  0
  147.0179  136.7038  153.6705 N   0  0  0  0  0  0  0  0  0  0  0  0
  147.4211  137.4309  154.7227 C   0  0  0  0  0  0  0  0  0  0  0  0
  146.8033  137.4803  155.7856 O   0  0  0  0  0  0  0  0  0  0  0  0
  148.5780  138.0655  154.4643 N   0  0  0  0  0  0  0  0  0  0  0  0
  149.3200  138.9372  155.3082 C   0  0  0  0  0  0  0  0  0  0  0  0
  149.8804  140.0948  154.7283 C   0  0  0  0  0  0  0  0  0  0  0  0
  150.6154  140.9958  155.5258 C   0  0  0  0  0  0  0  0  0  0  0  0
  150.7798  140.7406  156.9092 C   0  0  0  0  0  0  0  0  0  0  0  0
  151.4991  141.5946  157.7730 N   0  0  0  0  0  0  0  0  0  0  0  0
  151.5458  143.0270  157.5005 C   0  0  0  0  0  0  0  0  0  0  0  0
  152.0732  141.0629  159.0025 C   0  0  0  0  0  0  0  0  0  0  0  0
  150.2115  139.6227  157.4235 N   0  3  0  0  0  0  0  0  0  0  0  0
  149.5026  138.7321  156.6967 C   0  0  0  0  0  0  0  0  0  0  0  0
  146.0902  134.3917  153.5677 C   0  0  0  0  0  0  0  0  0  0  0  0
  146.4533  130.5872  152.3362 H   0  0  0  0  0  0  0  0  0  0  0  0
  145.5125  131.6779  151.3346 H   0  0  0  0  0  0  0  0  0  0  0  0
  145.4002  131.7772  153.0917 H   0  0  0  0  0  0  0  0  0  0  0  0
  147.8301  132.4079  153.1974 H   0  0  0  0  0  0  0  0  0  0  0  0
  147.9277  132.4424  151.4533 H   0  0  0  0  0  0  0  0  0  0  0  0
  146.5032  134.0909  150.2081 H   0  0  0  0  0  0  0  0  0  0  0  0
  145.0480  133.7657  151.1293 H   0  0  0  0  0  0  0  0  0  0  0  0
  146.5449  136.4314  150.9233 H   0  0  0  0  0  0  0  0  0  0  0  0
  144.9819  136.0744  150.2358 H   0  0  0  0  0  0  0  0  0  0  0  0
  144.7889  137.3904  152.3748 H   0  0  0  0  0  0  0  0  0  0  0  0
  143.9675  135.8528  152.4587 H   0  0  0  0  0  0  0  0  0  0  0  0
  145.2074  136.1243  154.5116 H   0  0  0  0  0  0  0  0  0  0  0  0
  147.5834  136.7248  152.8341 H   0  0  0  0  0  0  0  0  0  0  0  0
  148.9978  137.8740  153.5663 H   0  0  0  0  0  0  0  0  0  0  0  0
  149.7536  140.2944  153.6742 H   0  0  0  0  0  0  0  0  0  0  0  0
  151.0393  141.8733  155.0605 H   0  0  0  0  0  0  0  0  0  0  0  0
  151.9751  143.2176  156.5164 H   0  0  0  0  0  0  0  0  0  0  0  0
  152.1567  143.5511  158.2356 H   0  0  0  0  0  0  0  0  0  0  0  0
  150.5435  143.4552  157.5315 H   0  0  0  0  0  0  0  0  0  0  0  0
  151.2989  140.6130  159.6249 H   0  0  0  0  0  0  0  0  0  0  0  0
  152.5550  141.8475  159.5865 H   0  0  0  0  0  0  0  0  0  0  0  0
  152.8258  140.3061  158.7789 H   0  0  0  0  0  0  0  0  0  0  0  0
  149.1055  137.9044  157.2642 H   0  0  0  0  0  0  0  0  0  0  0  0
  145.1591  133.8277  153.6444 H   0  0  0  0  0  0  0  0  0  0  0  0
  146.6860  134.1082  154.4343 H   0  0  0  0  0  0  0  0  0  0  0  0
  147.6183  134.5888  152.2511 H   0  0  0  0  0  0  0  0  0  0  0  0
  150.3232  139.4426  158.4213 H   0  0  0  0  0  0  0  0  0  0  0  0
  1  2  1  0  0  0  0
  1 22  1  0  0  0  0
  1 23  1  0  0  0  0
  1 24  1  0  0  0  0
  2  3  1  0  0  0  0
  2 25  1  0  0  0  0
  2 26  1  0  0  0  0
  3 21  1  0  0  0  0
  3  4  1  0  0  0  0
  3 47  1  0  0  0  0
  4  5  1  0  0  0  0
  4 27  1  0  0  0  0
  4 28  1  0  0  0  0
  5  6  1  0  0  0  0
  5 29  1  0  0  0  0
  5 30  1  0  0  0  0
  6  7  1  0  0  0  0
  6 31  1  0  0  0  0
  6 32  1  0  0  0  0
  7  8  1  0  0  0  0
  7 21  1  0  0  0  0
  7 33  1  0  0  0  0
  8  9  1  0  0  0  0
  8 34  1  0  0  0  0
  9 10  2  0  0  0  0
  9 11  1  0  0  0  0
 11 12  1  0  0  0  0
 11 35  1  0  0  0  0
 12 20  1  0  0  0  0
 12 13  2  0  0  0  0
 13 14  1  0  0  0  0
 13 36  1  0  0  0  0
 14 15  2  0  0  0  0
 14 37  1  0  0  0  0
 15 16  1  0  0  0  0
 15 19  1  0  0  0  0
 16 17  1  0  0  0  0
 16 18  1  0  0  0  0
 17 38  1  0  0  0  0
 17 39  1  0  0  0  0
 17 40  1  0  0  0  0
 18 41  1  0  0  0  0
 18 42  1  0  0  0  0
 18 43  1  0  0  0  0
 19 20  2  0  0  0  0
 19 48  1  0  0  0  0
 20 44  1  0  0  0  0
 21 45  1  0  0  0  0
 21 46  1  0  0  0  0
M  CHG  1   3   1
M  CHG  1  19   1
M  END
> <s_m_source_file>
AV-unprocessed.smi

> <i_m_source_file_index>
1093

> <i_lp_mmshare_version>
43012

> <i_f3d_flags>
0

> <s_epik_input>
W0NIM11bQ0gyXU4xW0NIMl1bQ0gyXVtDSDJdW0NASF0oW0NIMl0xKVtOSF1DKD1PKVtOSF1jMltjSF1bY0hdYyhOKFtDSDNdKVtDSDNdKW5bY0hdMg==

> <s_epik_cmdline>
J2VwaWtfcHl0aG9uJywgJy1waCcsICc3LjAnLCAnLXRuJywgJzgnLCAnLW1hJywgJzIwMCcsICctbWV0YWxfYmluZGluZycsICctaW1hZScsICc8aW5maWxlLm1hZT4nLCAnLW9tYWUnLCAnPG91dGZpbGUubWFlPic=

> <r_lp_tautomer_probability>
0.999994

> <r_epik_Ionization_Penalty>
0.346711

> <r_epik_Ionization_Penalty_Charging>
0.346691

> <r_epik_Ionization_Penalty_Neutral>
1.93006e-05

> <r_epik_State_Penalty>
0.339838

> <r_epik_Charging_Adjusted_Penalty>
0.68653

> <i_epik_Tot_Q>
2

> <i_epik_Tot_abs_Q>
2

> <r_epik_Metal_State_Penalty>
0.600835

> <b_epik_Metal_Only>
0

> <s_lp_Force_Field>
OPLS_2005

> <r_lp_Energy>
35.5794

> <b_lp_Chiralities_Consistent>
1

> <s_lp_Variant>
AV-unprocessed.smi:1093-3

> <Gold.Version>
5.8.1

> <Gold.Id.Protein>
6NUR|6NUR_protein|mol2

> <Gold.PLP.Fitness>
37.5551

> <Gold.PLP.PLP>
-29.3296

> <Gold.PLP.part.hbond>
-2.6728

> <Gold.PLP.part.metal>
0.0000

> <Gold.PLP.part.buried>
-1.6359

> <Gold.PLP.part.nonpolar>
-24.6456

> <Gold.PLP.part.repulsive>
0.1058

> <Gold.PLP.ligand.clash>
0.0000

> <Gold.PLP.ligand.torsion>
0.6992

> <Gold.PLP.Chemscore.Hbond>
3.1922

> <Gold.PLP.Chemscore.CHOScore>
0.0000

> <Gold.PLP.Chemscore.Metal>
0.0000

> <Gold.Chemscore.Hbonds>
donor molecule, donor type, donor heavy atom, donor atom, acceptor molecule, acceptor atom, score
      L1  H     3    47       P1  7948  1.62
      L1  H     8    34       P1  7948  1.00
      L1  H    11    35       P1  7948  0.17

> <Gold.PLP.Chemscore.Internal.Correction>
0.0473

> <Gold.Rescore>
     Score         DG    S(hbond)    S(metal)    S(lipo)     H(rot)  DE(clash)    DE(int)     intcor
     16.24     -17.23       1.86        0.00      73.49       1.19       0.23       0.76       ----

> <Gold.Chemscore.Fitness>
16.2361

> <Gold.Chemscore.DG>
-17.2282

> <Gold.Chemscore.ZeroCoef>
-5.4800

> <Gold.Chemscore.Hbond>
1.8590

> <Gold.Chemscore.Metal>
0.0000

> <Gold.Chemscore.Lipo>
73.4880

> <Gold.Chemscore.Internal_Hbond>
0.0000

> <Gold.Chemscore.DEClash>
0.2296

> <Gold.Chemscore.DEInternal>
0.7625

> <Gold.Chemscore.Rot>
1.1949

> <Gold.Chemscore.Internal.Correction>
   9.000000E+99

> <Gold.Chemscore.Hbonds>
donor molecule, donor type, donor heavy atom, donor atom, acceptor molecule, acceptor atom, score
      L1  H     3    47       P1  7948  0.55
      L1  H     8    34       P1  7948  0.98
      L1  H    11    35       P1  7948  0.17

> <Gold.Chemscore.Hbond.Weighted>
-6.2090

> <Gold.Chemscore.Metal.Weighted>
-0.0000

> <Gold.Chemscore.Lipo.Weighted>
-8.5981

> <Gold.Chemscore.Internal_Hbond.Weighted>
0.0000

> <Gold.Chemscore.DEClash.Weighted>
0.2296

> <Gold.Chemscore.DEInternal.Weighted>
0.7625

> <Gold.Chemscore.Rot.Weighted>
3.0590

> <Gold.Chemscore.Internal.Correction.Weighted>
   9.000000E+99

> <Gold.Protein.RotatedTorsions>
[ 6907 6896 6895 6894 ] final  -82.30 input  -60.11 | X-H torsion
[ 7974 7965 7964 7962 ] final -168.98 input  175.53 | X-H torsion
[ 8008 7997 7996 7995 ] final   -3.31 input   59.86 | X-H torsion
[ 10167 10162 10161 10158 ] final   85.88 input  -65.29 | X-H torsion
[ 10718 10713 10712 10709 ] final   85.99 input   66.30 | X-H torsion
[ 10763 10752 10751 10750 ] final  -23.99 input  -60.55 | X-H torsion
[ 11005 11000 10999 10996 ] final   94.21 input  -57.11 | X-H torsion

> <Gold.Protein.ActiveResidues>
 VAL166  LYS551  ARG553  GLY616  TRP617  ASP618  TYR619  PRO620  LYS621  CYS622 
 ASP623  PHE694  ASN695  SER759  ASP760  ASP761  ALA762  ILE779  LEU786  VAL792 
 PHE793  MET794  SER795  GLU796  ALA797  LYS798  CYS799  TRP800  GLU811  SER814 

> <Gold.Protein.RotatedAtoms>
  150.6899  134.3686  159.4981 H   0  0  0  0  0  0  0  0  0  0  0  0  # atno 6907 bound_to 6896
  152.1505  134.8989  160.0557 H   0  0  0  0  0  0  0  0  0  0  0  0  # atno 6908 bound_to 6896
  152.0089  133.3819  159.4248 H   0  0  0  0  0  0  0  0  0  0  0  0  # atno 6909 bound_to 6896
  144.7193  140.2289  143.6306 H   0  0  0  0  0  0  0  0  0  0  0  0  # atno 7974 bound_to 7965
  154.6262  140.2512  155.7488 H   0  0  0  0  0  0  0  0  0  0  0  0  # atno 8008 bound_to 7997
  156.2454  140.2916  156.0513 H   0  0  0  0  0  0  0  0  0  0  0  0  # atno 8009 bound_to 7997
  155.1817  140.0389  157.2874 H   0  0  0  0  0  0  0  0  0  0  0  0  # atno 8010 bound_to 7997
  139.8932  144.6373  150.8716 H   0  0  0  0  0  0  0  0  0  0  0  0  # atno 10167 bound_to 10162
  157.6922  131.0197  150.2905 H   0  0  0  0  0  0  0  0  0  0  0  0  # atno 10718 bound_to 10713
  153.6766  135.6969  153.5131 H   0  0  0  0  0  0  0  0  0  0  0  0  # atno 10763 bound_to 10752
  153.2517  135.4273  155.0803 H   0  0  0  0  0  0  0  0  0  0  0  0  # atno 10764 bound_to 10752
  154.8412  135.3533  154.6309 H   0  0  0  0  0  0  0  0  0  0  0  0  # atno 10765 bound_to 10752
  139.8801  134.8832  156.3830 H   0  0  0  0  0  0  0  0  0  0  0  0  # atno 11005 bound_to 11000
  145.8430  139.2139  143.1816 LP  0  0  0  0  0  0  0  0  0  0  0  0  # atno 17320 bound_to 7965
  146.0329  140.8240  142.9867 LP  0  0  0  0  0  0  0  0  0  0  0  0  # atno 17321 bound_to 7965
  140.7722  143.3494  151.2045 LP  0  0  0  0  0  0  0  0  0  0  0  0  # atno 17342 bound_to 10162
  139.7091  143.9406  152.2940 LP  0  0  0  0  0  0  0  0  0  0  0  0  # atno 17343 bound_to 10162
  156.3437  130.3819  149.7387 LP  0  0  0  0  0  0  0  0  0  0  0  0  # atno 17370 bound_to 10713
  156.4888  130.8075  151.3086 LP  0  0  0  0  0  0  0  0  0  0  0  0  # atno 17371 bound_to 10713
  140.9385  133.7530  156.0116 LP  0  0  0  0  0  0  0  0  0  0  0  0  # atno 17394 bound_to 11000
  140.8247  134.3248  157.5370 LP  0  0  0  0  0  0  0  0  0  0  0  0  # atno 17395 bound_to 11000

$$$$
