AV-unprocessed.smi:240|AV-procd|sdf|1833|dock10
  -GOLD-   2262020443D 1   1.00000     0.00000
 Structure written by MMmdl.
 55 59  0  0  0  0  0  0  0  0  1 V2000
  150.0956  140.2372  154.2604 O   0  0  0  0  0  0  0  0  0  0  0  0
  150.2956  139.1739  155.1696 C   0  0  1  0  0  0  0  0  0  0  0  0
  150.9733  138.0341  154.3997 C   0  0  0  0  0  0  0  0  0  0  0  0
  152.4836  138.3220  154.4670 C   0  0  0  0  0  0  0  0  0  0  0  0
  152.6816  139.3824  155.5631 C   0  0  0  0  0  0  0  0  0  0  0  0
  151.3233  139.4872  156.2722 C   0  0  1  0  0  0  0  0  0  0  0  0
  151.0947  140.7242  157.2044 C   0  0  2  0  0  0  0  0  0  0  0  0
  151.0028  142.0799  156.4525 C   0  0  0  0  0  0  0  0  0  0  0  0
  150.8436  143.1612  157.3629 O   0  0  0  0  0  0  0  0  0  0  0  0
  151.9481  143.2768  158.2460 C   0  0  0  0  0  0  0  0  0  0  0  0
  152.0189  142.0061  159.0974 C   0  0  0  0  0  0  0  0  0  0  0  0
  152.1322  140.8274  158.2455 N   0  0  0  0  0  0  0  0  0  0  0  0
  152.3621  139.7354  159.0110 C   0  0  0  0  0  0  0  0  0  0  0  0
  151.5909  138.6244  158.8709 N   0  0  0  0  0  0  0  0  0  0  0  0
  151.8209  137.5532  159.6362 C   0  0  0  0  0  0  0  0  0  0  0  0
  152.7445  137.3883  160.5864 N   0  0  0  0  0  0  0  0  0  0  0  0
  153.5104  138.5075  160.7351 C   0  0  0  0  0  0  0  0  0  0  0  0
  153.3862  139.7145  159.9930 C   0  0  0  0  0  0  0  0  0  0  0  0
  154.3382  140.6345  160.4111 N   0  0  0  0  0  0  0  0  0  0  0  0
  154.9912  140.0056  161.3502 C   0  0  0  0  0  0  0  0  0  0  0  0
  154.5543  138.7266  161.6173 N   0  0  0  0  0  0  0  0  0  0  0  0
  155.0983  137.8084  162.6072 C   0  0  0  0  0  0  0  0  0  0  0  0
  155.5067  136.4341  162.0233 C   0  0  2  0  0  0  0  0  0  0  0  0
  156.5102  135.8669  162.8465 O   0  0  0  0  0  0  0  0  0  0  0  0
  156.0398  136.5435  160.5929 C   0  0  0  0  0  0  0  0  0  0  0  0
  154.9281  135.9324  159.7488 C   0  0  0  0  0  0  0  0  0  0  0  0
  154.4363  134.9014  160.5859 O   0  0  0  0  0  0  0  0  0  0  0  0
  154.3329  135.4417  161.8954 C   0  0  0  0  0  0  0  0  0  0  0  0
  149.2071  140.5459  154.3525 H   0  0  0  0  0  0  0  0  0  0  0  0
  149.3320  138.8716  155.5812 H   0  0  0  0  0  0  0  0  0  0  0  0
  150.7695  137.0911  154.9091 H   0  0  0  0  0  0  0  0  0  0  0  0
  150.6083  137.9280  153.3772 H   0  0  0  0  0  0  0  0  0  0  0  0
  153.0372  137.4099  154.6924 H   0  0  0  0  0  0  0  0  0  0  0  0
  152.8505  138.6968  153.5109 H   0  0  0  0  0  0  0  0  0  0  0  0
  153.4824  139.1136  156.2527 H   0  0  0  0  0  0  0  0  0  0  0  0
  152.9553  140.3295  155.0999 H   0  0  0  0  0  0  0  0  0  0  0  0
  151.2654  138.6049  156.9101 H   0  0  0  0  0  0  0  0  0  0  0  0
  150.1417  140.5787  157.7154 H   0  0  0  0  0  0  0  0  0  0  0  0
  151.8816  142.2595  155.8331 H   0  0  0  0  0  0  0  0  0  0  0  0
  150.1357  142.1099  155.7976 H   0  0  0  0  0  0  0  0  0  0  0  0
  152.8728  143.4306  157.6873 H   0  0  0  0  0  0  0  0  0  0  0  0
  151.8066  144.1500  158.8827 H   0  0  0  0  0  0  0  0  0  0  0  0
  152.8732  142.0664  159.7735 H   0  0  0  0  0  0  0  0  0  0  0  0
  151.1234  141.9252  159.7157 H   0  0  0  0  0  0  0  0  0  0  0  0
  151.1707  136.7080  159.4644 H   0  0  0  0  0  0  0  0  0  0  0  0
  155.8132  140.4629  161.8816 H   0  0  0  0  0  0  0  0  0  0  0  0
  155.9606  138.2830  163.0771 H   0  0  0  0  0  0  0  0  0  0  0  0
  154.3560  137.6795  163.3960 H   0  0  0  0  0  0  0  0  0  0  0  0
  157.2712  136.4268  162.8178 H   0  0  0  0  0  0  0  0  0  0  0  0
  156.2746  137.5650  160.2917 H   0  0  0  0  0  0  0  0  0  0  0  0
  156.9466  135.9496  160.4655 H   0  0  0  0  0  0  0  0  0  0  0  0
  154.1380  136.6597  159.5533 H   0  0  0  0  0  0  0  0  0  0  0  0
  155.2864  135.5439  158.7954 H   0  0  0  0  0  0  0  0  0  0  0  0
  154.3376  134.6566  162.6527 H   0  0  0  0  0  0  0  0  0  0  0  0
  153.3735  135.9550  161.9615 H   0  0  0  0  0  0  0  0  0  0  0  0
  1  2  1  0  0  0  0
  1 29  1  0  0  0  0
  2  6  1  0  0  0  0
  2  3  1  0  0  0  0
  2 30  1  0  0  0  0
  3  4  1  0  0  0  0
  3 31  1  0  0  0  0
  3 32  1  0  0  0  0
  4  5  1  0  0  0  0
  4 33  1  0  0  0  0
  4 34  1  0  0  0  0
  5  6  1  0  0  0  0
  5 35  1  0  0  0  0
  5 36  1  0  0  0  0
  6  7  1  0  0  0  0
  6 37  1  0  0  0  0
  7 12  1  0  0  0  0
  7  8  1  0  0  0  0
  7 38  1  0  0  0  0
  8  9  1  0  0  0  0
  8 39  1  0  0  0  0
  8 40  1  0  0  0  0
  9 10  1  0  0  0  0
 10 11  1  0  0  0  0
 10 41  1  0  0  0  0
 10 42  1  0  0  0  0
 11 12  1  0  0  0  0
 11 43  1  0  0  0  0
 11 44  1  0  0  0  0
 12 13  1  0  0  0  0
 13 18  1  0  0  0  0
 13 14  2  0  0  0  0
 14 15  1  0  0  0  0
 15 16  2  0  0  0  0
 15 45  1  0  0  0  0
 16 17  1  0  0  0  0
 17 21  1  0  0  0  0
 17 18  2  0  0  0  0
 18 19  1  0  0  0  0
 19 20  2  0  0  0  0
 20 21  1  0  0  0  0
 20 46  1  0  0  0  0
 21 22  1  0  0  0  0
 22 23  1  0  0  0  0
 22 47  1  0  0  0  0
 22 48  1  0  0  0  0
 23 28  1  0  0  0  0
 23 24  1  0  0  0  0
 23 25  1  0  0  0  0
 24 49  1  0  0  0  0
 25 26  1  0  0  0  0
 25 50  1  0  0  0  0
 25 51  1  0  0  0  0
 26 27  1  0  0  0  0
 26 52  1  0  0  0  0
 26 53  1  0  0  0  0
 27 28  1  0  0  0  0
 28 54  1  0  0  0  0
 28 55  1  0  0  0  0
M  END
> <s_m_source_file>
AV-unprocessed.smi

> <i_m_source_file_index>
240

> <i_lp_mmshare_version>
43012

> <i_f3d_flags>
0

> <s_epik_input>
W09IXVtDQEBIXTFbQ0gyXVtDSDJdW0NIMl1bQ0BIXTFbQ0BASF0yW0NIMl1PW0NIMl1bQ0gyXU4yYyhuW2NIXW4zKWMoYzM0KW5bY0hdbjRbQ0gyXVtDQEBdNShbT0hdKVtDSDJdW0NIMl1PW0NIMl01

> <s_epik_cmdline>
J2VwaWtfcHl0aG9uJywgJy1waCcsICc3LjAnLCAnLXRuJywgJzgnLCAnLW1hJywgJzIwMCcsICctbWV0YWxfYmluZGluZycsICctaW1hZScsICc8aW5maWxlLm1hZT4nLCAnLW9tYWUnLCAnPG91dGZpbGUubWFlPic=

> <r_lp_tautomer_probability>
1

> <r_epik_Ionization_Penalty>
0.000130618

> <r_epik_Ionization_Penalty_Charging>
0

> <r_epik_Ionization_Penalty_Neutral>
0.000130618

> <r_epik_State_Penalty>
-0

> <r_epik_Charging_Adjusted_Penalty>
0

> <i_epik_Tot_Q>
0

> <i_epik_Tot_abs_Q>
0

> <r_epik_Metal_State_Penalty>
-0

> <b_epik_Metal_Only>
0

> <s_lp_Force_Field>
OPLS_2005

> <r_lp_Energy>
64.6726

> <b_lp_Chiralities_Consistent>
1

> <s_lp_Variant>
AV-unprocessed.smi:240-10

> <Gold.Version>
5.8.1

> <Gold.Id.Protein>
6NUR|6NUR_protein|mol2

> <Gold.PLP.Fitness>
41.4109

> <Gold.PLP.PLP>
-39.5575

> <Gold.PLP.part.hbond>
-2.2860

> <Gold.PLP.part.metal>
0.0000

> <Gold.PLP.part.buried>
-5.6231

> <Gold.PLP.part.nonpolar>
-32.2533

> <Gold.PLP.part.repulsive>
0.7464

> <Gold.PLP.ligand.clash>
0.0000

> <Gold.PLP.ligand.torsion>
0.5768

> <Gold.PLP.Chemscore.Hbond>
0.9280

> <Gold.PLP.Chemscore.CHOScore>
0.0000

> <Gold.PLP.Chemscore.Metal>
0.0000

> <Gold.Chemscore.Hbonds>
donor molecule, donor type, donor heavy atom, donor atom, acceptor molecule, acceptor atom, score
      P1  H  7989  7998       L1     1  0.94

> <Gold.PLP.Chemscore.Internal.Correction>
0.2230

> <Gold.Rescore>
     Score         DG    S(hbond)    S(metal)    S(lipo)     H(rot)  DE(clash)    DE(int)     intcor
      7.54     -12.47       0.94        0.00      98.76       3.00       2.72       2.22       ----

> <Gold.Chemscore.Fitness>
7.5382

> <Gold.Chemscore.DG>
-12.4706

> <Gold.Chemscore.ZeroCoef>
-5.4800

> <Gold.Chemscore.Hbond>
0.9357

> <Gold.Chemscore.Metal>
0.0000

> <Gold.Chemscore.Lipo>
98.7636

> <Gold.Chemscore.Internal_Hbond>
0.0000

> <Gold.Chemscore.DEClash>
2.7162

> <Gold.Chemscore.DEInternal>
2.2161

> <Gold.Chemscore.Rot>
3.0039

> <Gold.Chemscore.Internal.Correction>
   9.000000E+99

> <Gold.Chemscore.Hbonds>
donor molecule, donor type, donor heavy atom, donor atom, acceptor molecule, acceptor atom, score
      P1  H  7989  7998       L1     1  0.84

> <Gold.Chemscore.Hbond.Weighted>
-3.1251

> <Gold.Chemscore.Metal.Weighted>
-0.0000

> <Gold.Chemscore.Lipo.Weighted>
-11.5553

> <Gold.Chemscore.Internal_Hbond.Weighted>
0.0000

> <Gold.Chemscore.DEClash.Weighted>
2.7162

> <Gold.Chemscore.DEInternal.Weighted>
2.2161

> <Gold.Chemscore.Rot.Weighted>
7.6899

> <Gold.Chemscore.Internal.Correction.Weighted>
   9.000000E+99

> <Gold.Protein.RotatedTorsions>
[ 6907 6896 6895 6894 ] final  141.75 input  -60.11 | X-H torsion
[ 7974 7965 7964 7962 ] final -133.31 input  175.53 | X-H torsion
[ 8008 7997 7996 7995 ] final    1.78 input   59.86 | X-H torsion
[ 10167 10162 10161 10158 ] final  -82.18 input  -65.29 | X-H torsion
[ 10718 10713 10712 10709 ] final   75.91 input   66.30 | X-H torsion
[ 10763 10752 10751 10750 ] final   99.23 input  -60.55 | X-H torsion
[ 11005 11000 10999 10996 ] final   -9.98 input  -57.11 | X-H torsion

> <Gold.Protein.ActiveResidues>
 VAL166  LYS551  ARG553  GLY616  TRP617  ASP618  TYR619  PRO620  LYS621  CYS622 
 ASP623  PHE694  ASN695  SER759  ASP760  ASP761  ALA762  ILE779  LEU786  VAL792 
 PHE793  MET794  SER795  GLU796  ALA797  LYS798  CYS799  TRP800  GLU811  SER814 

> <Gold.Protein.RotatedAtoms>
  152.2271  133.5029  159.5194 H   0  0  0  0  0  0  0  0  0  0  0  0  # atno 6907 bound_to 6896
  150.7028  134.1265  159.4063 H   0  0  0  0  0  0  0  0  0  0  0  0  # atno 6908 bound_to 6896
  151.9186  135.0308  160.0571 H   0  0  0  0  0  0  0  0  0  0  0  0  # atno 6909 bound_to 6896
  144.9205  140.7008  143.4968 H   0  0  0  0  0  0  0  0  0  0  0  0  # atno 7974 bound_to 7965
  154.6838  140.2638  155.6881 H   0  0  0  0  0  0  0  0  0  0  0  0  # atno 8008 bound_to 7997
  156.2707  140.2805  156.1314 H   0  0  0  0  0  0  0  0  0  0  0  0  # atno 8009 bound_to 7997
  155.0994  140.0374  157.2682 H   0  0  0  0  0  0  0  0  0  0  0  0  # atno 8010 bound_to 7997
  140.4343  143.2537  151.8715 H   0  0  0  0  0  0  0  0  0  0  0  0  # atno 10167 bound_to 10162
  157.6653  130.9749  150.1422 H   0  0  0  0  0  0  0  0  0  0  0  0  # atno 10718 bound_to 10713
  153.2988  135.4121  155.1233 H   0  0  0  0  0  0  0  0  0  0  0  0  # atno 10763 bound_to 10752
  154.8543  135.3536  154.5880 H   0  0  0  0  0  0  0  0  0  0  0  0  # atno 10764 bound_to 10752
  153.6305  135.7061  153.5335 H   0  0  0  0  0  0  0  0  0  0  0  0  # atno 10765 bound_to 10752
  140.7399  133.8679  155.8959 H   0  0  0  0  0  0  0  0  0  0  0  0  # atno 11005 bound_to 11000
  145.3304  139.1761  143.4540 LP  0  0  0  0  0  0  0  0  0  0  0  0  # atno 17320 bound_to 7965
  146.3202  140.3332  142.8642 LP  0  0  0  0  0  0  0  0  0  0  0  0  # atno 17321 bound_to 7965
  139.4786  144.5300  151.8681 LP  0  0  0  0  0  0  0  0  0  0  0  0  # atno 17342 bound_to 10162
  140.4391  144.2011  150.5890 LP  0  0  0  0  0  0  0  0  0  0  0  0  # atno 17343 bound_to 10162
  156.2242  130.3676  149.8520 LP  0  0  0  0  0  0  0  0  0  0  0  0  # atno 17370 bound_to 10713
  156.6365  130.8687  151.3505 LP  0  0  0  0  0  0  0  0  0  0  0  0  # atno 17371 bound_to 10713
  140.9846  134.1360  157.4464 LP  0  0  0  0  0  0  0  0  0  0  0  0  # atno 17394 bound_to 11000
  139.8808  135.0021  156.6108 LP  0  0  0  0  0  0  0  0  0  0  0  0  # atno 17395 bound_to 11000

$$$$
