AV-unprocessed.smi:1046|AV-procd|sdf|4554|dock9
  -GOLD-   22720 2583D 1   1.00000     0.00000
 Structure written by MMmdl.
 54 56  0  0  0  0  0  0  0  0  3 V2000
  153.2315  142.8853  160.8217 C   0  0  0  0  0  0  0  0  0  0  0  0
  152.3786  142.4994  159.6260 C   0  0  0  0  0  0  0  0  0  0  0  0
  152.2533  141.1341  159.2832 C   0  0  0  0  0  0  0  0  0  0  0  0
  151.4703  140.7340  158.1784 C   0  0  0  0  0  0  0  0  0  0  0  0
  151.2102  139.4733  157.6691 N   0  0  0  0  0  0  0  0  0  0  0  0
  150.4202  139.7573  156.6380 C   0  0  0  0  0  0  0  0  0  0  0  0
  150.1312  141.0554  156.4229 N   0  0  0  0  0  0  0  0  0  0  0  0
  149.2964  141.6076  155.3713 C   0  0  0  0  0  0  0  0  0  0  0  0
  148.6533  140.5135  154.4978 C   0  0  2  0  0  0  0  0  0  0  0  0
  149.5823  140.0943  153.5166 O   0  0  0  0  0  0  0  0  0  0  0  0
  147.3809  141.0223  153.7920 C   0  0  0  0  0  0  0  0  0  0  0  0
  146.6437  139.9440  153.0834 N   0  3  2  0  0  0  0  0  0  0  0  0
  146.6241  138.6758  153.8537 C   0  0  0  0  0  0  0  0  0  0  0  0
  145.7730  137.6050  153.1482 C   0  0  0  0  0  0  0  0  0  0  0  0
  146.2452  137.3743  151.7591 N   0  3  1  0  0  0  0  0  0  0  0  0
  145.5102  136.2931  151.0533 C   0  0  0  0  0  0  0  0  0  0  0  0
  145.5340  134.9609  151.8226 C   0  0  0  0  0  0  0  0  0  0  0  0
  146.8637  134.5059  151.9586 O   0  0  0  0  0  0  0  0  0  0  0  0
  146.2628  138.6420  150.9886 C   0  0  0  0  0  0  0  0  0  0  0  0
  147.1146  139.7129  151.6936 C   0  0  0  0  0  0  0  0  0  0  0  0
  150.8115  141.7452  157.4201 C   0  0  0  0  0  0  0  0  0  0  0  0
  150.9292  143.1067  157.7501 C   0  0  0  0  0  0  0  0  0  0  0  0
  151.7142  143.4891  158.8579 C   0  0  0  0  0  0  0  0  0  0  0  0
  151.8350  144.9618  159.2073 C   0  0  0  0  0  0  0  0  0  0  0  0
  153.6758  142.0088  161.2943 H   0  0  0  0  0  0  0  0  0  0  0  0
  152.6291  143.3995  161.5708 H   0  0  0  0  0  0  0  0  0  0  0  0
  154.0423  143.5466  160.5149 H   0  0  0  0  0  0  0  0  0  0  0  0
  152.7599  140.3802  159.8678 H   0  0  0  0  0  0  0  0  0  0  0  0
  150.0244  138.9761  156.0052 H   0  0  0  0  0  0  0  0  0  0  0  0
  148.5243  142.2191  155.8401 H   0  0  0  0  0  0  0  0  0  0  0  0
  149.9002  142.2814  154.7610 H   0  0  0  0  0  0  0  0  0  0  0  0
  148.4203  139.6587  155.1317 H   0  0  0  0  0  0  0  0  0  0  0  0
  149.2422  140.3226  152.6638 H   0  0  0  0  0  0  0  0  0  0  0  0
  146.7133  141.5052  154.5073 H   0  0  0  0  0  0  0  0  0  0  0  0
  147.6711  141.7953  153.0782 H   0  0  0  0  0  0  0  0  0  0  0  0
  147.6454  138.3151  153.9871 H   0  0  0  0  0  0  0  0  0  0  0  0
  146.2188  138.8562  154.8501 H   0  0  0  0  0  0  0  0  0  0  0  0
  145.8185  136.6808  153.7233 H   0  0  0  0  0  0  0  0  0  0  0  0
  144.7266  137.9143  153.1305 H   0  0  0  0  0  0  0  0  0  0  0  0
  144.4816  136.6090  150.8731 H   0  0  0  0  0  0  0  0  0  0  0  0
  145.9530  136.1267  150.0700 H   0  0  0  0  0  0  0  0  0  0  0  0
  145.0702  135.0422  152.8050 H   0  0  0  0  0  0  0  0  0  0  0  0
  144.9706  134.2079  151.2709 H   0  0  0  0  0  0  0  0  0  0  0  0
  147.4407  135.2555  151.9626 H   0  0  0  0  0  0  0  0  0  0  0  0
  146.6664  138.4613  149.9915 H   0  0  0  0  0  0  0  0  0  0  0  0
  145.2410  139.0024  150.8573 H   0  0  0  0  0  0  0  0  0  0  0  0
  147.0673  140.6350  151.1157 H   0  0  0  0  0  0  0  0  0  0  0  0
  148.1614  139.4049  151.7098 H   0  0  0  0  0  0  0  0  0  0  0  0
  150.4202  143.8508  157.1557 H   0  0  0  0  0  0  0  0  0  0  0  0
  151.2384  145.5808  158.5366 H   0  0  0  0  0  0  0  0  0  0  0  0
  152.8725  145.2873  159.1290 H   0  0  0  0  0  0  0  0  0  0  0  0
  151.4901  145.1441  160.2253 H   0  0  0  0  0  0  0  0  0  0  0  0
  145.6842  140.2562  153.0257 H   0  0  0  0  0  0  0  0  0  0  0  0
  147.2053  137.0643  151.8171 H   0  0  0  0  0  0  0  0  0  0  0  0
  1  2  1  0  0  0  0
  1 25  1  0  0  0  0
  1 26  1  0  0  0  0
  1 27  1  0  0  0  0
  2 23  1  0  0  0  0
  2  3  2  0  0  0  0
  3  4  1  0  0  0  0
  3 28  1  0  0  0  0
  4 21  2  0  0  0  0
  4  5  1  0  0  0  0
  5  6  2  0  0  0  0
  6  7  1  0  0  0  0
  6 29  1  0  0  0  0
  7  8  1  0  0  0  0
  7 21  1  0  0  0  0
  8  9  1  0  0  0  0
  8 30  1  0  0  0  0
  8 31  1  0  0  0  0
  9 10  1  0  0  0  0
  9 11  1  0  0  0  0
  9 32  1  0  0  0  0
 10 33  1  0  0  0  0
 11 12  1  0  0  0  0
 11 34  1  0  0  0  0
 11 35  1  0  0  0  0
 12 20  1  0  0  0  0
 12 13  1  0  0  0  0
 12 53  1  0  0  0  0
 13 14  1  0  0  0  0
 13 36  1  0  0  0  0
 13 37  1  0  0  0  0
 14 15  1  0  0  0  0
 14 38  1  0  0  0  0
 14 39  1  0  0  0  0
 15 16  1  0  0  0  0
 15 19  1  0  0  0  0
 15 54  1  0  0  0  0
 16 17  1  0  0  0  0
 16 40  1  0  0  0  0
 16 41  1  0  0  0  0
 17 18  1  0  0  0  0
 17 42  1  0  0  0  0
 17 43  1  0  0  0  0
 18 44  1  0  0  0  0
 19 20  1  0  0  0  0
 19 45  1  0  0  0  0
 19 46  1  0  0  0  0
 20 47  1  0  0  0  0
 20 48  1  0  0  0  0
 21 22  1  0  0  0  0
 22 23  2  0  0  0  0
 22 49  1  0  0  0  0
 23 24  1  0  0  0  0
 24 50  1  0  0  0  0
 24 51  1  0  0  0  0
 24 52  1  0  0  0  0
M  CHG  1  12   1
M  CHG  1  15   1
M  END
> <s_m_source_file>
AV-unprocessed.smi

> <i_m_source_file_index>
1046

> <i_lp_mmshare_version>
43012

> <i_f3d_flags>
0

> <s_epik_input>
W0NIM11jKFtjSF0xKWMoW0NIM10pW2NIXWMoYzEyKW4oW2NIXW4yKVtDSDJdW0NASF0oW09IXSlbQ0gyXU4zW0NIMl1bQ0gyXU4oW0NIMl1bQ0gyXTMpW0NIMl1bQ0gyXVtPSF0=

> <s_epik_cmdline>
J2VwaWtfcHl0aG9uJywgJy1waCcsICc3LjAnLCAnLXRuJywgJzgnLCAnLW1hJywgJzIwMCcsICctbWV0YWxfYmluZGluZycsICctaW1hZScsICc8aW5maWxlLm1hZT4nLCAnLW9tYWUnLCAnPG91dGZpbGUubWFlPic=

> <r_epik_Ionization_Penalty>
3.17398

> <r_epik_Ionization_Penalty_Charging>
3.09061

> <r_epik_Ionization_Penalty_Neutral>
0.0833726

> <r_epik_State_Penalty>
2.17606

> <r_epik_Charging_Adjusted_Penalty>
5.26667

> <i_epik_Tot_Q>
2

> <i_epik_Tot_abs_Q>
2

> <r_epik_Metal_State_Penalty>
2.08587

> <b_epik_Metal_Only>
0

> <s_lp_Force_Field>
OPLS_2005

> <r_lp_Energy>
27.9633

> <b_lp_Chiralities_Consistent>
1

> <s_lp_Variant>
AV-unprocessed.smi:1046-7

> <Gold.Version>
5.8.1

> <Gold.Id.Protein>
6NUR|6NUR_protein|mol2

> <Gold.PLP.Fitness>
64.1498

> <Gold.PLP.PLP>
-47.4782

> <Gold.PLP.part.hbond>
-4.2479

> <Gold.PLP.part.metal>
0.0000

> <Gold.PLP.part.buried>
1.4914

> <Gold.PLP.part.nonpolar>
-45.7303

> <Gold.PLP.part.repulsive>
0.0672

> <Gold.PLP.ligand.clash>
0.0000

> <Gold.PLP.ligand.torsion>
0.5355

> <Gold.PLP.Chemscore.Hbond>
5.8295

> <Gold.PLP.Chemscore.CHOScore>
0.0000

> <Gold.PLP.Chemscore.Metal>
0.0000

> <Gold.Chemscore.Hbonds>
donor molecule, donor type, donor heavy atom, donor atom, acceptor molecule, acceptor atom, score
      L1  H    10    33       P1  7957  0.75
      L1  H    12    53       P1 10175  1.72
      L1  H    15    54       P1  7948  2.00
      L1  H    18    44       P1  7948  1.00
      P1  H  7989  7998       L1    10  0.39

> <Gold.PLP.Chemscore.Internal.Correction>
0.2540

> <Gold.Rescore>
     Score         DG    S(hbond)    S(metal)    S(lipo)     H(rot)  DE(clash)    DE(int)     intcor
     22.45     -26.13       3.78        0.00     140.32       3.28       3.09       0.59       ----

> <Gold.Chemscore.Fitness>
22.4477

> <Gold.Chemscore.DG>
-26.1340

> <Gold.Chemscore.ZeroCoef>
-5.4800

> <Gold.Chemscore.Hbond>
3.7844

> <Gold.Chemscore.Metal>
0.0000

> <Gold.Chemscore.Lipo>
140.3249

> <Gold.Chemscore.Internal_Hbond>
0.0000

> <Gold.Chemscore.DEClash>
3.0933

> <Gold.Chemscore.DEInternal>
0.5930

> <Gold.Chemscore.Rot>
3.2828

> <Gold.Chemscore.Internal.Correction>
   9.000000E+99

> <Gold.Chemscore.Hbonds>
donor molecule, donor type, donor heavy atom, donor atom, acceptor molecule, acceptor atom, score
      L1  H    10    33       P1  7957  0.73
      L1  H    12    53       P1 10175  0.80
      L1  H    15    54       P1  7948  1.00
      L1  H    18    44       P1  7948  0.98
      P1  H  7989  7998       L1    10  0.16

> <Gold.Chemscore.Hbond.Weighted>
-12.6399

> <Gold.Chemscore.Metal.Weighted>
-0.0000

> <Gold.Chemscore.Lipo.Weighted>
-16.4180

> <Gold.Chemscore.Internal_Hbond.Weighted>
0.0000

> <Gold.Chemscore.DEClash.Weighted>
3.0933

> <Gold.Chemscore.DEInternal.Weighted>
0.5930

> <Gold.Chemscore.Rot.Weighted>
8.4039

> <Gold.Chemscore.Internal.Correction.Weighted>
   9.000000E+99

> <Gold.Protein.RotatedTorsions>
[ 6907 6896 6895 6894 ] final  -95.54 input  -60.11 | X-H torsion
[ 7974 7965 7964 7962 ] final -167.51 input  175.53 | X-H torsion
[ 8008 7997 7996 7995 ] final  -83.98 input   59.86 | X-H torsion
[ 10167 10162 10161 10158 ] final  -89.86 input  -65.29 | X-H torsion
[ 10718 10713 10712 10709 ] final   41.10 input   66.30 | X-H torsion
[ 10763 10752 10751 10750 ] final -177.04 input  -60.55 | X-H torsion
[ 11005 11000 10999 10996 ] final -135.27 input  -57.11 | X-H torsion

> <Gold.Protein.ActiveResidues>
 VAL166  LYS551  ARG553  GLY616  TRP617  ASP618  TYR619  PRO620  LYS621  CYS622 
 ASP623  PHE694  ASN695  SER759  ASP760  ASP761  ALA762  ILE779  LEU786  VAL792 
 PHE793  MET794  SER795  GLU796  ALA797  LYS798  CYS799  TRP800  GLU811  SER814 

> <Gold.Protein.RotatedAtoms>
  150.6966  134.1642  159.4187 H   0  0  0  0  0  0  0  0  0  0  0  0  # atno 6907 bound_to 6896
  151.9622  135.0116  160.0557 H   0  0  0  0  0  0  0  0  0  0  0  0  # atno 6908 bound_to 6896
  152.1917  133.4742  159.5048 H   0  0  0  0  0  0  0  0  0  0  0  0  # atno 6909 bound_to 6896
  144.7221  140.2507  143.6279 H   0  0  0  0  0  0  0  0  0  0  0  0  # atno 7974 bound_to 7965
  154.6249  140.0611  156.9661 H   0  0  0  0  0  0  0  0  0  0  0  0  # atno 8008 bound_to 7997
  155.1758  140.3295  155.4366 H   0  0  0  0  0  0  0  0  0  0  0  0  # atno 8009 bound_to 7997
  156.2452  140.1906  156.6858 H   0  0  0  0  0  0  0  0  0  0  0  0  # atno 8010 bound_to 7997
  140.3606  143.2844  151.9619 H   0  0  0  0  0  0  0  0  0  0  0  0  # atno 10167 bound_to 10162
  157.3897  130.7799  149.7259 H   0  0  0  0  0  0  0  0  0  0  0  0  # atno 10718 bound_to 10713
  154.5650  135.2823  155.0883 H   0  0  0  0  0  0  0  0  0  0  0  0  # atno 10763 bound_to 10752
  154.2277  135.6380  153.5169 H   0  0  0  0  0  0  0  0  0  0  0  0  # atno 10764 bound_to 10752
  153.0040  135.5529  154.6256 H   0  0  0  0  0  0  0  0  0  0  0  0  # atno 10765 bound_to 10752
  140.8914  134.1807  157.4525 H   0  0  0  0  0  0  0  0  0  0  0  0  # atno 11005 bound_to 11000
  145.8230  139.2052  143.1927 LP  0  0  0  0  0  0  0  0  0  0  0  0  # atno 17320 bound_to 7965
  146.0497  140.8082  142.9788 LP  0  0  0  0  0  0  0  0  0  0  0  0  # atno 17321 bound_to 7965
  139.4814  144.5996  151.7629 LP  0  0  0  0  0  0  0  0  0  0  0  0  # atno 17342 bound_to 10162
  140.5130  144.0995  150.6000 LP  0  0  0  0  0  0  0  0  0  0  0  0  # atno 17343 bound_to 10162
  155.9795  130.4039  150.3582 LP  0  0  0  0  0  0  0  0  0  0  0  0  # atno 17370 bound_to 10713
  157.1696  131.0365  151.2801 LP  0  0  0  0  0  0  0  0  0  0  0  0  # atno 17371 bound_to 10713
  139.8730  134.9860  156.5305 LP  0  0  0  0  0  0  0  0  0  0  0  0  # atno 17394 bound_to 11000
  140.8343  133.8255  155.9013 LP  0  0  0  0  0  0  0  0  0  0  0  0  # atno 17395 bound_to 11000

$$$$
