#       Name:                AV-unprocessed.smi:3336
#       Creating user name   scv26
#       Creation time:       Fri Mar 27 19:25:04 2020


#       File generated by GOLD software.
#

@<TRIPOS>MOLECULE
AV-unprocessed.smi:3336
    47    48     1
SMALL
NO_CHARGES


@<TRIPOS>ATOM
      1 ****        -1.9810  -1.7203  -0.1555 C.3            1 S1                 0.0000
      2 ****        -1.4593  -0.7802   0.9490 C.3            1 S1                 0.0000
      3 ****        -1.8340  -1.2659   2.3643 C.3            1 S1                 0.0000
      4 ****        -3.2670  -1.3944   2.5604 N.pl3          1 S1                 0.0000
      5 ****        -4.1889  -0.4001   2.8121 C.2            1 S1                 0.0000
      6 ****        -5.4111  -0.9984   2.9239 C.2            1 S1                 0.0000
      7 ****        -5.1312  -2.3794   2.7260 C.2            1 S1                 0.0000
      8 ****        -3.8466  -2.6133   2.5101 N.2            1 S1                 0.0000
      9 ****         0.0130  -0.6347   0.8667 N.4            1 S1                 1.0000
     10 ****         0.5417   0.2895  -0.1682 C.3            1 S1                 0.0000
     11 ****         0.3698   1.7559   0.2770 C.3            1 S1                 0.0000
     12 ****         2.0304  -0.0105  -0.4432 C.2            1 S1                 0.0000
     13 ****         2.6806  -0.5716   0.4410 O.2            1 S1                 0.0000
     14 ****         2.5949   0.3460  -1.6252 N.am           1 S1                 0.0000
     15 ****         4.0044   0.0867  -1.9410 C.3            1 S1                 0.0000
     16 ****         4.7219   1.4342  -2.1304 C.3            1 S1                 0.0000
     17 ****         4.0866   2.1649  -3.1752 O.3            1 S1                 0.0000
     18 ****         2.7089   2.4191  -2.9167 C.3            1 S1                 0.0000
     19 ****         1.9581   1.0885  -2.7202 C.3            1 S1                 0.0000
     20 ****        -3.0680  -1.7988  -0.1320 H              1 S1                 0.0000
     21 ****        -1.5748  -2.7257  -0.0416 H              1 S1                 0.0000
     22 ****        -1.7161  -1.3676  -1.1515 H              1 S1                 0.0000
     23 ****        -1.9179   0.1986   0.8099 H              1 S1                 0.0000
     24 ****        -1.3614  -2.2274   2.5736 H              1 S1                 0.0000
     25 ****        -1.4564  -0.5676   3.1125 H              1 S1                 0.0000
     26 ****        -3.9025   0.6386   2.8893 H              1 S1                 0.0000
     27 ****        -6.3609  -0.5227   3.1191 H              1 S1                 0.0000
     28 ****        -5.8181  -3.2128   2.7329 H              1 S1                 0.0000
     29 ****         0.3544  -0.3093   1.7598 H              1 S1                 0.0000
     30 ****        -0.0223   0.1040  -1.0798 H              1 S1                 0.0000
     31 ****         0.7934   2.4520  -0.4466 H              1 S1                 0.0000
     32 ****         0.8628   1.9402   1.2325 H              1 S1                 0.0000
     33 ****        -0.6797   2.0248   0.3911 H              1 S1                 0.0000
     34 ****         4.5175  -0.4955  -1.1747 H              1 S1                 0.0000
     35 ****         4.0670  -0.5030  -2.8567 H              1 S1                 0.0000
     36 ****         4.7118   2.0147  -1.2065 H              1 S1                 0.0000
     37 ****         5.7666   1.2731  -2.3964 H              1 S1                 0.0000
     38 ****         2.6085   3.0571  -2.0374 H              1 S1                 0.0000
     39 ****         2.2889   2.9687  -3.7592 H              1 S1                 0.0000
     40 ****         2.0101   0.4926  -3.6327 H              1 S1                 0.0000
     41 ****         0.9034   1.3014  -2.5638 H              1 S1                 0.0000
     42 ****         0.4025  -1.5522   0.7014 H              1 S1                 0.0000
     43 ****        -3.4042  -3.4950   2.3464 LP             1 S1                 0.0000
     44 ****         2.2411  -0.8181   1.3048 LP             1 S1                 0.0000
     45 ****         3.6476  -0.7802   0.2946 LP             1 S1                 0.0000
     46 ****         4.1604   1.6391  -4.0226 LP             1 S1                 0.0000
     47 ****         4.5575   3.0404  -3.2840 LP             1 S1                 0.0000
@<TRIPOS>BOND
    1    1    2 1     
    2    1   20 1     
    3    1   21 1     
    4    1   22 1     
    5    2    3 1     
    6    2    9 1     
    7    2   23 1     
    8    3    4 1     
    9    3   24 1     
   10    3   25 1     
   11    4    8 1     
   12    4    5 1     
   13    5    6 2     
   14    5   26 1     
   15    6    7 1     
   16    6   27 1     
   17    7    8 2     
   18    7   28 1     
   19    9   10 1     
   20    9   29 1     
   21    9   42 1     
   22   10   11 1     
   23   10   12 1     
   24   10   30 1     
   25   11   31 1     
   26   11   32 1     
   27   11   33 1     
   28   12   13 2     
   29   12   14 am    
   30   14   19 1     
   31   14   15 1     
   32   15   16 1     
   33   15   34 1     
   34   15   35 1     
   35   16   17 1     
   36   16   36 1     
   37   16   37 1     
   38   17   18 1     
   39   18   19 1     
   40   18   38 1     
   41   18   39 1     
   42   19   40 1     
   43   19   41 1     
   44    8   43 1     
   45   13   44 1     
   46   13   45 1     
   47   17   46 1     
   48   17   47 1     
@<TRIPOS>SUBSTRUCTURE
      1 S1             1
@<TRIPOS>SET
LONE_PAIRS      STATIC     ATOMS    <user>   **** ""
5 43 44 45 46 47
DONOR_HYDROGENS      STATIC     ATOMS    <user>   **** ""
2 29 42
ATOM$BLUE        STATIC     ATOMS    COLORGROUP SYSTEM
5 43 44 45 46 47
ATOM$RED        STATIC     ATOMS    COLORGROUP SYSTEM
2 29 42
