AV-unprocessed.smi:2163|AV-procd|sdf|8805|dock8
  -GOLD-   2272011593D 1   1.00000     0.00000
 Structure written by MMmdl.
 43 45  0  0  0  0  0  0  0  0  1 V2000
  150.7381  138.3386  158.4009 C   0  0  0  0  0  0  0  0  0  0  0  0
  151.1729  139.7680  158.4715 C   0  0  0  0  0  0  0  0  0  0  0  0
  152.1579  140.1703  159.2751 N   0  0  0  0  0  0  0  0  0  0  0  0
  152.2152  141.5281  159.0273 C   0  0  0  0  0  0  0  0  0  0  0  0
  153.0559  142.5264  159.5698 C   0  0  0  0  0  0  0  0  0  0  0  0
  152.9260  143.8694  159.1594 C   0  0  0  0  0  0  0  0  0  0  0  0
  151.9566  144.2330  158.2022 C   0  0  0  0  0  0  0  0  0  0  0  0
  151.1090  143.2540  157.6486 C   0  0  0  0  0  0  0  0  0  0  0  0
  151.2429  141.9150  158.0617 C   0  0  0  0  0  0  0  0  0  0  0  0
  150.5865  140.7359  157.7238 N   0  0  0  0  0  0  0  0  0  0  0  0
  149.4959  140.6045  156.7659 C   0  0  0  0  0  0  0  0  0  0  0  0
  149.8123  141.2673  155.4099 C   0  0  1  0  0  0  0  0  0  0  0  0
  150.7137  140.4470  154.6931 O   0  0  0  0  0  0  0  0  0  0  0  0
  148.5485  141.4574  154.5568 C   0  0  0  0  0  0  0  0  0  0  0  0
  147.4300  141.6041  155.4223 O   0  0  0  0  0  0  0  0  0  0  0  0
  146.4460  142.5039  155.0726 C   0  0  0  0  0  0  0  0  0  0  0  0
  145.4934  142.8268  156.0610 C   0  0  0  0  0  0  0  0  0  0  0  0
  144.4542  143.7380  155.7918 C   0  0  0  0  0  0  0  0  0  0  0  0
  144.3547  144.3398  154.5225 C   0  0  0  0  0  0  0  0  0  0  0  0
  143.2439  145.3269  154.2313 C   0  0  0  0  0  0  0  0  0  0  0  0
  143.3595  146.5406  155.0534 C   0  0  0  0  0  0  0  0  0  0  0  0
  143.4507  147.4959  155.6996 N   0  0  0  0  0  0  0  0  0  0  0  0
  145.2988  144.0237  153.5263 C   0  0  0  0  0  0  0  0  0  0  0  0
  146.3384  143.1125  153.7962 C   0  0  0  0  0  0  0  0  0  0  0  0
  151.3855  137.7109  159.0140 H   0  0  0  0  0  0  0  0  0  0  0  0
  150.7848  137.9761  157.3741 H   0  0  0  0  0  0  0  0  0  0  0  0
  149.7160  138.2381  158.7663 H   0  0  0  0  0  0  0  0  0  0  0  0
  153.8017  142.2581  160.3034 H   0  0  0  0  0  0  0  0  0  0  0  0
  153.5735  144.6238  159.5814 H   0  0  0  0  0  0  0  0  0  0  0  0
  151.8643  145.2640  157.8930 H   0  0  0  0  0  0  0  0  0  0  0  0
  150.3652  143.5281  156.9155 H   0  0  0  0  0  0  0  0  0  0  0  0
  149.2518  139.5510  156.6293 H   0  0  0  0  0  0  0  0  0  0  0  0
  148.6099  141.0641  157.2056 H   0  0  0  0  0  0  0  0  0  0  0  0
  150.2816  142.2357  155.5873 H   0  0  0  0  0  0  0  0  0  0  0  0
  150.2799  139.6315  154.4930 H   0  0  0  0  0  0  0  0  0  0  0  0
  148.6579  142.3132  153.8880 H   0  0  0  0  0  0  0  0  0  0  0  0
  148.3934  140.5698  153.9411 H   0  0  0  0  0  0  0  0  0  0  0  0
  145.5614  142.3726  157.0387 H   0  0  0  0  0  0  0  0  0  0  0  0
  143.7363  143.9756  156.5632 H   0  0  0  0  0  0  0  0  0  0  0  0
  143.2681  145.6180  153.1808 H   0  0  0  0  0  0  0  0  0  0  0  0
  142.2730  144.8700  154.4236 H   0  0  0  0  0  0  0  0  0  0  0  0
  145.2294  144.4828  152.5511 H   0  0  0  0  0  0  0  0  0  0  0  0
  147.0411  142.8976  153.0059 H   0  0  0  0  0  0  0  0  0  0  0  0
  1  2  1  0  0  0  0
  1 25  1  0  0  0  0
  1 26  1  0  0  0  0
  1 27  1  0  0  0  0
  2 10  1  0  0  0  0
  2  3  2  0  0  0  0
  3  4  1  0  0  0  0
  4  9  2  0  0  0  0
  4  5  1  0  0  0  0
  5  6  2  0  0  0  0
  5 28  1  0  0  0  0
  6  7  1  0  0  0  0
  6 29  1  0  0  0  0
  7  8  2  0  0  0  0
  7 30  1  0  0  0  0
  8  9  1  0  0  0  0
  8 31  1  0  0  0  0
  9 10  1  0  0  0  0
 10 11  1  0  0  0  0
 11 12  1  0  0  0  0
 11 32  1  0  0  0  0
 11 33  1  0  0  0  0
 12 13  1  0  0  0  0
 12 14  1  0  0  0  0
 12 34  1  0  0  0  0
 13 35  1  0  0  0  0
 14 15  1  0  0  0  0
 14 36  1  0  0  0  0
 14 37  1  0  0  0  0
 15 16  1  0  0  0  0
 16 24  1  0  0  0  0
 16 17  2  0  0  0  0
 17 18  1  0  0  0  0
 17 38  1  0  0  0  0
 18 19  2  0  0  0  0
 18 39  1  0  0  0  0
 19 20  1  0  0  0  0
 19 23  1  0  0  0  0
 20 21  1  0  0  0  0
 20 40  1  0  0  0  0
 20 41  1  0  0  0  0
 21 22  3  0  0  0  0
 23 24  2  0  0  0  0
 23 42  1  0  0  0  0
 24 43  1  0  0  0  0
M  END
> <s_m_source_file>
AV-unprocessed.smi

> <i_m_source_file_index>
2163

> <i_lp_mmshare_version>
43012

> <i_f3d_flags>
0

> <s_epik_input>
W2NIXTFbY0hdW2NIXVtjSF1jKGMxMiluKGMobjIpW0NIM10pW0NIMl1bQ0BIXShbT0hdKVtDSDJdT2MzW2NIXVtjSF1jKFtDSDJdQyNOKVtjSF1bY0hdMw==

> <s_epik_cmdline>
J2VwaWtfcHl0aG9uJywgJy1waCcsICc3LjAnLCAnLXRuJywgJzgnLCAnLW1hJywgJzIwMCcsICctbWV0YWxfYmluZGluZycsICctaW1hZScsICc8aW5maWxlLm1hZT4nLCAnLW9tYWUnLCAnPG91dGZpbGUubWFlPic=

> <r_lp_tautomer_probability>
1

> <r_epik_Ionization_Penalty>
0.114213

> <r_epik_Ionization_Penalty_Charging>
0

> <r_epik_Ionization_Penalty_Neutral>
0.114213

> <r_epik_State_Penalty>
0.103875

> <r_epik_Charging_Adjusted_Penalty>
0.103875

> <i_epik_Tot_Q>
0

> <i_epik_Tot_abs_Q>
0

> <r_epik_Metal_State_Penalty>
0.000113526

> <b_epik_Metal_Only>
0

> <s_lp_Force_Field>
OPLS_2005

> <r_lp_Energy>
15.853

> <b_lp_Chiralities_Consistent>
1

> <s_lp_Variant>
AV-unprocessed.smi:2163-2

> <Gold.Version>
5.8.1

> <Gold.Id.Protein>
6NUR|6NUR_protein|mol2

> <Gold.PLP.Fitness>
54.4335

> <Gold.PLP.PLP>
-53.3232

> <Gold.PLP.part.hbond>
-1.9899

> <Gold.PLP.part.metal>
0.0000

> <Gold.PLP.part.buried>
-7.2899

> <Gold.PLP.part.nonpolar>
-43.9699

> <Gold.PLP.part.repulsive>
0.1131

> <Gold.PLP.ligand.clash>
0.0000

> <Gold.PLP.ligand.torsion>
1.0303

> <Gold.PLP.Chemscore.Hbond>
1.0000

> <Gold.PLP.Chemscore.CHOScore>
0.0000

> <Gold.PLP.Chemscore.Metal>
0.0000

> <Gold.Chemscore.Hbonds>
donor molecule, donor type, donor heavy atom, donor atom, acceptor molecule, acceptor atom, score
      P1  H  7989  7998       L1    13  1.00

> <Gold.PLP.Chemscore.Internal.Correction>
0.1709

> <Gold.Rescore>
     Score         DG    S(hbond)    S(metal)    S(lipo)     H(rot)  DE(clash)    DE(int)     intcor
     15.24     -16.61       0.94        0.00     123.31       2.51       0.12       1.25       ----

> <Gold.Chemscore.Fitness>
15.2403

> <Gold.Chemscore.DG>
-16.6095

> <Gold.Chemscore.ZeroCoef>
-5.4800

> <Gold.Chemscore.Hbond>
0.9377

> <Gold.Chemscore.Metal>
0.0000

> <Gold.Chemscore.Lipo>
123.3079

> <Gold.Chemscore.Internal_Hbond>
0.0000

> <Gold.Chemscore.DEClash>
0.1153

> <Gold.Chemscore.DEInternal>
1.2539

> <Gold.Chemscore.Rot>
2.5115

> <Gold.Chemscore.Internal.Correction>
   9.000000E+99

> <Gold.Chemscore.Hbonds>
donor molecule, donor type, donor heavy atom, donor atom, acceptor molecule, acceptor atom, score
      P1  H  7989  7998       L1    13  0.70

> <Gold.Chemscore.Hbond.Weighted>
-3.1321

> <Gold.Chemscore.Metal.Weighted>
-0.0000

> <Gold.Chemscore.Lipo.Weighted>
-14.4270

> <Gold.Chemscore.Internal_Hbond.Weighted>
0.0000

> <Gold.Chemscore.DEClash.Weighted>
0.1153

> <Gold.Chemscore.DEInternal.Weighted>
1.2539

> <Gold.Chemscore.Rot.Weighted>
6.4296

> <Gold.Chemscore.Internal.Correction.Weighted>
   9.000000E+99

> <Gold.Protein.RotatedTorsions>
[ 6907 6896 6895 6894 ] final   -1.20 input  -60.11 | X-H torsion
[ 7974 7965 7964 7962 ] final  160.27 input  175.53 | X-H torsion
[ 8008 7997 7996 7995 ] final  -27.93 input   59.86 | X-H torsion
[ 10167 10162 10161 10158 ] final  -39.24 input  -65.29 | X-H torsion
[ 10718 10713 10712 10709 ] final  -75.66 input   66.30 | X-H torsion
[ 10763 10752 10751 10750 ] final -147.16 input  -60.55 | X-H torsion
[ 11005 11000 10999 10996 ] final  110.30 input  -57.11 | X-H torsion

> <Gold.Protein.ActiveResidues>
 VAL166  LYS551  ARG553  GLY616  TRP617  ASP618  TYR619  PRO620  LYS621  CYS622 
 ASP623  PHE694  ASN695  SER759  ASP760  ASP761  ALA762  ILE779  LEU786  VAL792 
 PHE793  MET794  SER795  GLU796  ALA797  LYS798  CYS799  TRP800  GLU811  SER814 

> <Gold.Protein.RotatedAtoms>
  151.5500  135.1067  159.9947 H   0  0  0  0  0  0  0  0  0  0  0  0  # atno 6907 bound_to 6896
  152.4496  133.7599  159.6751 H   0  0  0  0  0  0  0  0  0  0  0  0  # atno 6908 bound_to 6896
  150.8420  133.7853  159.3081 H   0  0  0  0  0  0  0  0  0  0  0  0  # atno 6909 bound_to 6896
  144.7746  139.7733  143.6284 H   0  0  0  0  0  0  0  0  0  0  0  0  # atno 7974 bound_to 7965
  154.4355  140.1859  156.1009 H   0  0  0  0  0  0  0  0  0  0  0  0  # atno 8008 bound_to 7997
  156.0293  140.3332  155.7096 H   0  0  0  0  0  0  0  0  0  0  0  0  # atno 8009 bound_to 7997
  155.5863  140.0626  157.2761 H   0  0  0  0  0  0  0  0  0  0  0  0  # atno 8010 bound_to 7997
  140.7069  143.3226  151.2755 H   0  0  0  0  0  0  0  0  0  0  0  0  # atno 10167 bound_to 10162
  156.0200  130.4446  150.3076 H   0  0  0  0  0  0  0  0  0  0  0  0  # atno 10718 bound_to 10713
  154.8300  135.3367  154.6775 H   0  0  0  0  0  0  0  0  0  0  0  0  # atno 10763 bound_to 10752
  153.7396  135.6946  153.4974 H   0  0  0  0  0  0  0  0  0  0  0  0  # atno 10764 bound_to 10752
  153.2253  135.4435  155.0486 H   0  0  0  0  0  0  0  0  0  0  0  0  # atno 10765 bound_to 10752
  139.8879  134.9480  156.6258 H   0  0  0  0  0  0  0  0  0  0  0  0  # atno 11005 bound_to 11000
  146.1916  139.5160  142.9801 LP  0  0  0  0  0  0  0  0  0  0  0  0  # atno 17320 bound_to 7965
  145.6224  141.0320  143.1907 LP  0  0  0  0  0  0  0  0  0  0  0  0  # atno 17321 bound_to 7965
  139.6685  144.0062  152.2738 LP  0  0  0  0  0  0  0  0  0  0  0  0  # atno 17342 bound_to 10162
  139.9653  144.6530  150.8040 LP  0  0  0  0  0  0  0  0  0  0  0  0  # atno 17343 bound_to 10162
  157.1178  131.0238  151.3022 LP  0  0  0  0  0  0  0  0  0  0  0  0  # atno 17370 bound_to 10713
  157.4653  130.7677  149.7273 LP  0  0  0  0  0  0  0  0  0  0  0  0  # atno 17371 bound_to 10713
  140.7704  133.8743  155.8487 LP  0  0  0  0  0  0  0  0  0  0  0  0  # atno 17394 bound_to 11000
  140.9846  134.1359  157.4463 LP  0  0  0  0  0  0  0  0  0  0  0  0  # atno 17395 bound_to 11000

$$$$
