AV-unprocessed.smi:2901|AV-procd|sdf|11150|dock9
  -GOLD-   2272016 33D 1   1.00000     0.00000
 Structure written by MMmdl.
 40 41  0  0  0  0  0  0  0  0  1 V2000
  151.7151  141.2405  158.3905 C   0  0  0  0  0  0  0  0  0  0  0  0
  151.5241  140.4806  157.1234 C   0  0  0  0  0  0  0  0  0  0  0  0
  150.4144  140.3915  156.3928 N   0  0  0  0  0  0  0  0  0  0  0  0
  150.7585  139.5731  155.3257 C   0  0  0  0  0  0  0  0  0  0  0  0
  149.7857  139.2205  154.2426 C   0  0  0  0  0  0  0  0  0  0  0  0
  148.5090  138.5753  154.8052 C   0  0  0  0  0  0  0  0  0  0  0  0
  148.0099  137.5167  153.9351 N   0  0  0  0  0  0  0  0  0  0  0  0
  146.8677  136.8426  154.1287 C   0  0  0  0  0  0  0  0  0  0  0  0
  146.0979  137.0475  155.0676 O   0  0  0  0  0  0  0  0  0  0  0  0
  146.6661  135.9205  153.1773 N   0  0  0  0  0  0  0  0  0  0  0  0
  145.5065  135.0395  153.0992 C   0  0  0  0  0  0  0  0  0  0  0  0
  145.3394  134.4516  151.6886 C   0  0  1  0  0  0  0  0  0  0  0  0
  146.5103  133.5756  151.2490 C   0  0  0  0  0  0  0  0  0  0  0  0
  145.8699  132.7345  150.1688 C   0  0  0  0  0  0  0  0  0  0  0  0
  144.4718  132.4978  150.7354 C   0  0  0  0  0  0  0  0  0  0  0  0
  144.2097  133.5857  151.6190 O   0  0  0  0  0  0  0  0  0  0  0  0
  152.0753  139.2166  155.4677 C   0  0  0  0  0  0  0  0  0  0  0  0
  152.9978  138.3794  154.6479 C   0  0  0  0  0  0  0  0  0  0  0  0
  152.5736  139.7844  156.6092 O   0  0  0  0  0  0  0  0  0  0  0  0
  150.7612  141.6295  158.7480 H   0  0  0  0  0  0  0  0  0  0  0  0
  152.3955  142.0758  158.2247 H   0  0  0  0  0  0  0  0  0  0  0  0
  152.1369  140.5893  159.1561 H   0  0  0  0  0  0  0  0  0  0  0  0
  149.5291  140.1153  153.6743 H   0  0  0  0  0  0  0  0  0  0  0  0
  150.2542  138.5397  153.5306 H   0  0  0  0  0  0  0  0  0  0  0  0
  148.7112  138.1430  155.7856 H   0  0  0  0  0  0  0  0  0  0  0  0
  147.7345  139.3302  154.9528 H   0  0  0  0  0  0  0  0  0  0  0  0
  148.5758  137.2793  153.1335 H   0  0  0  0  0  0  0  0  0  0  0  0
  147.3583  135.8281  152.4485 H   0  0  0  0  0  0  0  0  0  0  0  0
  145.6599  134.2315  153.8148 H   0  0  0  0  0  0  0  0  0  0  0  0
  144.5988  135.5588  153.4116 H   0  0  0  0  0  0  0  0  0  0  0  0
  145.1992  135.2512  150.9591 H   0  0  0  0  0  0  0  0  0  0  0  0
  147.3642  134.1524  150.8928 H   0  0  0  0  0  0  0  0  0  0  0  0
  146.8439  132.9379  152.0690 H   0  0  0  0  0  0  0  0  0  0  0  0
  145.8081  133.3049  149.2411 H   0  0  0  0  0  0  0  0  0  0  0  0
  146.4109  131.8097  149.9662 H   0  0  0  0  0  0  0  0  0  0  0  0
  143.7172  132.4345  149.9508 H   0  0  0  0  0  0  0  0  0  0  0  0
  144.4409  131.5712  151.3095 H   0  0  0  0  0  0  0  0  0  0  0  0
  152.6579  138.3231  153.6136 H   0  0  0  0  0  0  0  0  0  0  0  0
  153.0505  137.3648  155.0427 H   0  0  0  0  0  0  0  0  0  0  0  0
  154.0049  138.7969  154.6479 H   0  0  0  0  0  0  0  0  0  0  0  0
  1  2  1  0  0  0  0
  1 20  1  0  0  0  0
  1 21  1  0  0  0  0
  1 22  1  0  0  0  0
  2 19  1  0  0  0  0
  2  3  2  0  0  0  0
  3  4  1  0  0  0  0
  4  5  1  0  0  0  0
  4 17  2  0  0  0  0
  5  6  1  0  0  0  0
  5 23  1  0  0  0  0
  5 24  1  0  0  0  0
  6  7  1  0  0  0  0
  6 25  1  0  0  0  0
  6 26  1  0  0  0  0
  7  8  1  0  0  0  0
  7 27  1  0  0  0  0
  8  9  2  0  0  0  0
  8 10  1  0  0  0  0
 10 11  1  0  0  0  0
 10 28  1  0  0  0  0
 11 12  1  0  0  0  0
 11 29  1  0  0  0  0
 11 30  1  0  0  0  0
 12 16  1  0  0  0  0
 12 13  1  0  0  0  0
 12 31  1  0  0  0  0
 13 14  1  0  0  0  0
 13 32  1  0  0  0  0
 13 33  1  0  0  0  0
 14 15  1  0  0  0  0
 14 34  1  0  0  0  0
 14 35  1  0  0  0  0
 15 16  1  0  0  0  0
 15 36  1  0  0  0  0
 15 37  1  0  0  0  0
 17 18  1  0  0  0  0
 17 19  1  0  0  0  0
 18 38  1  0  0  0  0
 18 39  1  0  0  0  0
 18 40  1  0  0  0  0
M  END
> <s_m_source_file>
AV-unprocessed.smi

> <i_m_source_file_index>
2901

> <i_lp_mmshare_version>
43012

> <i_f3d_flags>
0

> <s_epik_input>
W0NIM11jMW5jKGMobzEpW0NIM10pW0NIMl1bQ0gyXVtOSF1DKD1PKVtOSF1bQ0gyXVtDQEBIXTJbQ0gyXVtDSDJdW0NIMl1PMg==

> <s_epik_cmdline>
J2VwaWtfcHl0aG9uJywgJy1waCcsICc3LjAnLCAnLXRuJywgJzgnLCAnLW1hJywgJzIwMCcsICctbWV0YWxfYmluZGluZycsICctaW1hZScsICc8aW5maWxlLm1hZT4nLCAnLW9tYWUnLCAnPG91dGZpbGUubWFlPic=

> <r_lp_tautomer_probability>
1

> <r_epik_Ionization_Penalty>
9.58254e-05

> <r_epik_Ionization_Penalty_Charging>
0

> <r_epik_Ionization_Penalty_Neutral>
9.58254e-05

> <r_epik_State_Penalty>
-0

> <r_epik_Charging_Adjusted_Penalty>
0

> <i_epik_Tot_Q>
0

> <i_epik_Tot_abs_Q>
0

> <r_epik_Metal_State_Penalty>
-0

> <b_epik_Metal_Only>
0

> <s_lp_Force_Field>
OPLS_2005

> <r_lp_Energy>
8.56878

> <b_lp_Chiralities_Consistent>
1

> <s_lp_Variant>
AV-unprocessed.smi:2901-2

> <Gold.Version>
5.8.1

> <Gold.Id.Protein>
6NUR|6NUR_protein|mol2

> <Gold.PLP.Fitness>
39.0563

> <Gold.PLP.PLP>
-30.8680

> <Gold.PLP.part.hbond>
-3.0000

> <Gold.PLP.part.metal>
0.0000

> <Gold.PLP.part.buried>
-3.5103

> <Gold.PLP.part.nonpolar>
-25.1379

> <Gold.PLP.part.repulsive>
0.1942

> <Gold.PLP.ligand.clash>
0.0000

> <Gold.PLP.ligand.torsion>
0.4244

> <Gold.PLP.Chemscore.Hbond>
3.0000

> <Gold.PLP.Chemscore.CHOScore>
0.0000

> <Gold.PLP.Chemscore.Metal>
0.0000

> <Gold.Chemscore.Hbonds>
donor molecule, donor type, donor heavy atom, donor atom, acceptor molecule, acceptor atom, score
      L1  H     7    27       P1  7948  1.00
      L1  H    10    28       P1  7948  0.99
      P1  H  7997  8008       L1    19  1.00

> <Gold.PLP.Chemscore.Internal.Correction>
0.0370

> <Gold.Rescore>
     Score         DG    S(hbond)    S(metal)    S(lipo)     H(rot)  DE(clash)    DE(int)     intcor
     18.10     -18.71       2.90        0.00      72.30       1.92       0.18       0.43       ----

> <Gold.Chemscore.Fitness>
18.1003

> <Gold.Chemscore.DG>
-18.7122

> <Gold.Chemscore.ZeroCoef>
-5.4800

> <Gold.Chemscore.Hbond>
2.8981

> <Gold.Chemscore.Metal>
0.0000

> <Gold.Chemscore.Lipo>
72.3019

> <Gold.Chemscore.Internal_Hbond>
0.0000

> <Gold.Chemscore.DEClash>
0.1815

> <Gold.Chemscore.DEInternal>
0.4304

> <Gold.Chemscore.Rot>
1.9167

> <Gold.Chemscore.Internal.Correction>
   9.000000E+99

> <Gold.Chemscore.Hbonds>
donor molecule, donor type, donor heavy atom, donor atom, acceptor molecule, acceptor atom, score
      L1  H     7    27       P1  7948  0.95
      L1  H    10    28       P1  7948  0.93
      P1  H  7997  8008       L1    19  0.49

> <Gold.Chemscore.Hbond.Weighted>
-9.6797

> <Gold.Chemscore.Metal.Weighted>
-0.0000

> <Gold.Chemscore.Lipo.Weighted>
-8.4593

> <Gold.Chemscore.Internal_Hbond.Weighted>
0.0000

> <Gold.Chemscore.DEClash.Weighted>
0.1815

> <Gold.Chemscore.DEInternal.Weighted>
0.4304

> <Gold.Chemscore.Rot.Weighted>
4.9069

> <Gold.Chemscore.Internal.Correction.Weighted>
   9.000000E+99

> <Gold.Protein.RotatedTorsions>
[ 6907 6896 6895 6894 ] final  -76.28 input  -60.11 | X-H torsion
[ 7974 7965 7964 7962 ] final  -56.00 input  175.53 | X-H torsion
[ 8008 7997 7996 7995 ] final  -35.11 input   59.86 | X-H torsion
[ 10167 10162 10161 10158 ] final   49.05 input  -65.29 | X-H torsion
[ 10718 10713 10712 10709 ] final  178.91 input   66.30 | X-H torsion
[ 10763 10752 10751 10750 ] final   14.88 input  -60.55 | X-H torsion
[ 11005 11000 10999 10996 ] final   55.64 input  -57.11 | X-H torsion

> <Gold.Protein.ActiveResidues>
 VAL166  LYS551  ARG553  GLY616  TRP617  ASP618  TYR619  PRO620  LYS621  CYS622 
 ASP623  PHE694  ASN695  SER759  ASP760  ASP761  ALA762  ILE779  LEU786  VAL792 
 PHE793  MET794  SER795  GLU796  ALA797  LYS798  CYS799  TRP800  GLU811  SER814 

> <Gold.Protein.RotatedAtoms>
  150.7032  134.4595  159.5373 H   0  0  0  0  0  0  0  0  0  0  0  0  # atno 6907 bound_to 6896
  152.2272  134.8354  160.0487 H   0  0  0  0  0  0  0  0  0  0  0  0  # atno 6908 bound_to 6896
  151.9183  133.3544  159.3924 H   0  0  0  0  0  0  0  0  0  0  0  0  # atno 6909 bound_to 6896
  145.8677  140.8239  142.9904 H   0  0  0  0  0  0  0  0  0  0  0  0  # atno 7974 bound_to 7965
  154.4103  140.1666  156.2158 H   0  0  0  0  0  0  0  0  0  0  0  0  # atno 8008 bound_to 7997
  155.9406  140.3408  155.6301 H   0  0  0  0  0  0  0  0  0  0  0  0  # atno 8009 bound_to 7997
  155.6994  140.0743  157.2407 H   0  0  0  0  0  0  0  0  0  0  0  0  # atno 8010 bound_to 7997
  140.2869  144.3091  150.6250 H   0  0  0  0  0  0  0  0  0  0  0  0  # atno 10167 bound_to 10162
  156.8836  130.9824  151.3059 H   0  0  0  0  0  0  0  0  0  0  0  0  # atno 10718 bound_to 10713
  153.1579  135.6790  153.8785 H   0  0  0  0  0  0  0  0  0  0  0  0  # atno 10763 bound_to 10752
  153.8190  135.3132  155.3409 H   0  0  0  0  0  0  0  0  0  0  0  0  # atno 10764 bound_to 10752
  154.7911  135.4834  154.0143 H   0  0  0  0  0  0  0  0  0  0  0  0  # atno 10765 bound_to 10752
  140.0591  134.5627  155.9173 H   0  0  0  0  0  0  0  0  0  0  0  0  # atno 11005 bound_to 11000
  144.6726  140.1192  143.7451 LP  0  0  0  0  0  0  0  0  0  0  0  0  # atno 17320 bound_to 7965
  145.9173  139.2524  143.1402 LP  0  0  0  0  0  0  0  0  0  0  0  0  # atno 17321 bound_to 7965
  140.5765  143.2176  151.7506 LP  0  0  0  0  0  0  0  0  0  0  0  0  # atno 17342 bound_to 10162
  139.4948  144.4142  152.0047 LP  0  0  0  0  0  0  0  0  0  0  0  0  # atno 17343 bound_to 10162
  157.6125  130.8594  149.8975 LP  0  0  0  0  0  0  0  0  0  0  0  0  # atno 17370 bound_to 10713
  156.0664  130.3691  150.0868 LP  0  0  0  0  0  0  0  0  0  0  0  0  # atno 17371 bound_to 10713
  141.1965  133.6592  156.5696 LP  0  0  0  0  0  0  0  0  0  0  0  0  # atno 17394 bound_to 11000
  140.3798  134.7534  157.4653 LP  0  0  0  0  0  0  0  0  0  0  0  0  # atno 17395 bound_to 11000

$$$$
