#       Name:                AV-unprocessed.smi:2774
#       Creating user name   scv26
#       Creation time:       Fri Mar 27 15:13:12 2020


#       File generated by GOLD software.
#

@<TRIPOS>MOLECULE
AV-unprocessed.smi:2774
    38    39     1
SMALL
NO_CHARGES


@<TRIPOS>ATOM
      1 ****        -2.5765  -1.6463  -0.4948 O.3            1 S1                 0.0000
      2 ****        -2.0611  -1.0941   0.7010 C.3            1 S1                 0.0000
      3 ****        -0.5213  -1.1515   0.6678 C.3            1 S1                 0.0000
      4 ****         0.0477  -0.1533  -0.2413 N.3            1 S1                 0.0000
      5 ****         1.5107  -0.0885  -0.2871 C.3            1 S1                 0.0000
      6 ****         2.1242  -1.3664  -0.9069 C.3            1 S1                 0.0000
      7 ****         3.6615  -1.3405  -0.9326 C.3            1 S1                 0.0000
      8 ****         4.2193  -0.1745  -1.7587 C.3            1 S1                 0.0000
      9 ****         3.7214   1.4169  -1.0517 S.3            1 S1                 0.0000
     10 ****         1.9261   1.1650  -1.0797 C.3            1 S1                 0.0000
     11 ****        -2.6122   0.2889   1.0283 C.ar           1 S1                 0.0000
     12 ****        -2.9997   1.1918   0.0131 C.ar           1 S1                 0.0000
     13 ****        -3.4934   2.4571   0.3879 C.ar           1 S1                 0.0000
     14 ****        -3.6193   2.8538   1.6723 N.ar           1 S1                 0.0000
     15 ****        -3.2464   1.9880   2.6386 C.ar           1 S1                 0.0000
     16 ****        -2.7390   0.7008   2.3716 C.ar           1 S1                 0.0000
     17 ****        -3.5149  -1.7169  -0.4095 H              1 S1                 0.0000
     18 ****        -2.3963  -1.7650   1.4931 H              1 S1                 0.0000
     19 ****        -0.1404  -0.9758   1.6745 H              1 S1                 0.0000
     20 ****        -0.2111  -2.1585   0.3913 H              1 S1                 0.0000
     21 ****        -0.3186  -0.3040  -1.1761 H              1 S1                 0.0000
     22 ****         1.8873   0.0191   0.7312 H              1 S1                 0.0000
     23 ****         1.8210  -2.2477  -0.3433 H              1 S1                 0.0000
     24 ****         1.7442  -1.5066  -1.9200 H              1 S1                 0.0000
     25 ****         4.0457  -1.2859   0.0866 H              1 S1                 0.0000
     26 ****         4.0286  -2.2800  -1.3468 H              1 S1                 0.0000
     27 ****         5.3080  -0.2188  -1.7884 H              1 S1                 0.0000
     28 ****         3.8671  -0.2337  -2.7891 H              1 S1                 0.0000
     29 ****         1.5958   1.0927  -2.1168 H              1 S1                 0.0000
     30 ****         1.4555   2.0538  -0.6573 H              1 S1                 0.0000
     31 ****        -2.9145   0.9302  -1.0312 H              1 S1                 0.0000
     32 ****        -3.7942   3.1702  -0.3653 H              1 S1                 0.0000
     33 ****        -3.3550   2.3312   3.6569 H              1 S1                 0.0000
     34 ****        -2.4518   0.0474   3.1825 H              1 S1                 0.0000
     35 ****        -2.1817  -2.5525  -0.6462 LP             1 S1                 0.0000
     36 ****        -2.3510  -1.0514  -1.2664 LP             1 S1                 0.0000
     37 ****        -0.2330   0.7310   0.1319 LP             1 S1                 0.0000
     38 ****        -3.9770   3.7594   1.9003 LP             1 S1                 0.0000
@<TRIPOS>BOND
    1    1    2 1     
    2    1   17 1     
    3    2    3 1     
    4    2   11 1     
    5    2   18 1     
    6    3    4 1     
    7    3   19 1     
    8    3   20 1     
    9    4    5 1     
   10    4   21 1     
   11    5   10 1     
   12    5    6 1     
   13    5   22 1     
   14    6    7 1     
   15    6   23 1     
   16    6   24 1     
   17    7    8 1     
   18    7   25 1     
   19    7   26 1     
   20    8    9 1     
   21    8   27 1     
   22    8   28 1     
   23    9   10 1     
   24   10   29 1     
   25   10   30 1     
   26   11   16 ar    
   27   11   12 ar    
   28   12   13 ar    
   29   12   31 1     
   30   13   14 ar    
   31   13   32 1     
   32   14   15 ar    
   33   15   16 ar    
   34   15   33 1     
   35   16   34 1     
   36    1   35 1     
   37    1   36 1     
   38    4   37 1     
   39   14   38 1     
@<TRIPOS>SUBSTRUCTURE
      1 S1             1
@<TRIPOS>SET
LONE_PAIRS      STATIC     ATOMS    <user>   **** ""
4 35 36 37 38
DONOR_HYDROGENS      STATIC     ATOMS    <user>   **** ""
2 17 21
ATOM$BLUE        STATIC     ATOMS    COLORGROUP SYSTEM
4 35 36 37 38
ATOM$RED        STATIC     ATOMS    COLORGROUP SYSTEM
2 17 21
