AV-unprocessed.smi:1802|AV-procd|sdf|7272|dock5
  -GOLD-   22720 8533D 1   1.00000     0.00000
 Structure written by MMmdl.
 41 42  0  0  0  0  0  0  0  0  2 V2000
  143.5414  132.2931  150.7571 C   0  0  0  0  0  0  0  0  0  0  0  0
  144.7473  133.0804  150.2150 C   0  0  1  0  0  0  0  0  0  0  0  0
  144.5893  134.6040  150.3767 C   0  0  0  0  0  0  0  0  0  0  0  0
  144.7827  135.0329  151.8384 C   0  0  0  0  0  0  0  0  0  0  0  0
  146.1128  134.5045  152.3986 C   0  0  0  0  0  0  0  0  0  0  0  0
  146.2029  133.0284  152.2573 N   0  3  2  0  0  0  0  0  0  0  0  0
  147.4012  132.4658  152.9291 C   0  0  0  0  0  0  0  0  0  0  0  0
  147.5450  132.9718  154.3742 C   0  0  0  0  0  0  0  0  0  0  0  0
  148.9773  133.4324  154.6924 C   0  0  0  0  0  0  0  0  0  0  0  0
  149.2004  134.8164  154.2893 N   0  0  0  0  0  0  0  0  0  0  0  0
  149.8467  135.7326  155.0255 C   0  0  0  0  0  0  0  0  0  0  0  0
  150.3324  135.4903  156.1311 O   0  0  0  0  0  0  0  0  0  0  0  0
  149.8920  136.9215  154.3987 N   0  0  0  0  0  0  0  0  0  0  0  0
  150.4882  138.1298  154.8482 C   0  0  0  0  0  0  0  0  0  0  0  0
  150.0252  139.3498  154.5336 N   0  0  0  0  0  0  0  0  0  0  0  0
  150.7903  140.3590  155.1038 N   0  0  0  0  0  0  0  0  0  0  0  0
  151.7987  139.8613  155.8250 C   0  0  0  0  0  0  0  0  0  0  0  0
  151.9143  138.1107  155.8759 S   0  0  0  0  0  0  0  0  0  0  0  0
  146.0769  132.6057  150.8360 C   0  0  0  0  0  0  0  0  0  0  0  0
  143.4223  132.4185  151.8332 H   0  0  0  0  0  0  0  0  0  0  0  0
  143.6528  131.2263  150.5617 H   0  0  0  0  0  0  0  0  0  0  0  0
  142.6154  132.6173  150.2814 H   0  0  0  0  0  0  0  0  0  0  0  0
  144.7934  132.8717  149.1452 H   0  0  0  0  0  0  0  0  0  0  0  0
  145.3318  135.1092  149.7575 H   0  0  0  0  0  0  0  0  0  0  0  0
  143.6149  134.9300  150.0110 H   0  0  0  0  0  0  0  0  0  0  0  0
  144.7555  136.1207  151.9113 H   0  0  0  0  0  0  0  0  0  0  0  0
  143.9553  134.6665  152.4471 H   0  0  0  0  0  0  0  0  0  0  0  0
  146.9539  134.9737  151.8856 H   0  0  0  0  0  0  0  0  0  0  0  0
  146.1877  134.7812  153.4510 H   0  0  0  0  0  0  0  0  0  0  0  0
  147.3734  131.3755  152.8962 H   0  0  0  0  0  0  0  0  0  0  0  0
  148.2948  132.7670  152.3805 H   0  0  0  0  0  0  0  0  0  0  0  0
  146.8514  133.7992  154.5291 H   0  0  0  0  0  0  0  0  0  0  0  0
  147.2588  132.1937  155.0816 H   0  0  0  0  0  0  0  0  0  0  0  0
  149.1628  133.3560  155.7642 H   0  0  0  0  0  0  0  0  0  0  0  0
  149.7066  132.7829  154.2049 H   0  0  0  0  0  0  0  0  0  0  0  0
  148.8299  135.0974  153.3930 H   0  0  0  0  0  0  0  0  0  0  0  0
  149.4522  136.9683  153.4916 H   0  0  0  0  0  0  0  0  0  0  0  0
  152.4797  140.5299  156.3300 H   0  0  0  0  0  0  0  0  0  0  0  0
  146.1482  131.5217  150.7499 H   0  0  0  0  0  0  0  0  0  0  0  0
  146.9147  133.0151  150.2690 H   0  0  0  0  0  0  0  0  0  0  0  0
  145.4029  132.6538  152.7474 H   0  0  0  0  0  0  0  0  0  0  0  0
  1  2  1  0  0  0  0
  1 20  1  0  0  0  0
  1 21  1  0  0  0  0
  1 22  1  0  0  0  0
  2 19  1  0  0  0  0
  2  3  1  0  0  0  0
  2 23  1  0  0  0  0
  3  4  1  0  0  0  0
  3 24  1  0  0  0  0
  3 25  1  0  0  0  0
  4  5  1  0  0  0  0
  4 26  1  0  0  0  0
  4 27  1  0  0  0  0
  5  6  1  0  0  0  0
  5 28  1  0  0  0  0
  5 29  1  0  0  0  0
  6  7  1  0  0  0  0
  6 19  1  0  0  0  0
  6 41  1  0  0  0  0
  7  8  1  0  0  0  0
  7 30  1  0  0  0  0
  7 31  1  0  0  0  0
  8  9  1  0  0  0  0
  8 32  1  0  0  0  0
  8 33  1  0  0  0  0
  9 10  1  0  0  0  0
  9 34  1  0  0  0  0
  9 35  1  0  0  0  0
 10 11  1  0  0  0  0
 10 36  1  0  0  0  0
 11 12  2  0  0  0  0
 11 13  1  0  0  0  0
 13 14  1  0  0  0  0
 13 37  1  0  0  0  0
 14 18  1  0  0  0  0
 14 15  2  0  0  0  0
 15 16  1  0  0  0  0
 16 17  2  0  0  0  0
 17 18  1  0  0  0  0
 17 38  1  0  0  0  0
 19 39  1  0  0  0  0
 19 40  1  0  0  0  0
M  CHG  1   6   1
M  END
> <s_m_source_file>
AV-unprocessed.smi

> <i_m_source_file_index>
1802

> <i_lp_mmshare_version>
43012

> <i_f3d_flags>
0

> <s_epik_input>
W0NIM11bQ0BASF0xW0NIMl1bQ0gyXVtDSDJdTihbQ0gyXTEpW0NIMl1bQ0gyXVtDSDJdW05IXUMoPU8pW05IXWMybm5bY0hdczI=

> <s_epik_cmdline>
J2VwaWtfcHl0aG9uJywgJy1waCcsICc3LjAnLCAnLXRuJywgJzgnLCAnLW1hJywgJzIwMCcsICctbWV0YWxfYmluZGluZycsICctaW1hZScsICc8aW5maWxlLm1hZT4nLCAnLW9tYWUnLCAnPG91dGZpbGUubWFlPic=

> <r_lp_tautomer_probability>
1

> <r_epik_Ionization_Penalty>
0.00272894

> <r_epik_Ionization_Penalty_Charging>
0.000288442

> <r_epik_Ionization_Penalty_Neutral>
0.0024405

> <r_epik_State_Penalty>
-0

> <r_epik_Charging_Adjusted_Penalty>
0.000288442

> <i_epik_Tot_Q>
1

> <i_epik_Tot_abs_Q>
1

> <r_epik_Metal_State_Penalty>
0.350525

> <b_epik_Metal_Only>
0

> <s_lp_Force_Field>
OPLS_2005

> <r_lp_Energy>
17.5372

> <b_lp_Chiralities_Consistent>
1

> <s_lp_Variant>
AV-unprocessed.smi:1802-2

> <Gold.Version>
5.8.1

> <Gold.Id.Protein>
6NUR|6NUR_protein|mol2

> <Gold.PLP.Fitness>
40.7825

> <Gold.PLP.PLP>
-33.5348

> <Gold.PLP.part.hbond>
-4.3505

> <Gold.PLP.part.metal>
0.0000

> <Gold.PLP.part.buried>
-2.0742

> <Gold.PLP.part.nonpolar>
-27.2678

> <Gold.PLP.part.repulsive>
0.3648

> <Gold.PLP.ligand.clash>
0.0000

> <Gold.PLP.ligand.torsion>
0.8109

> <Gold.PLP.Chemscore.Hbond>
2.9440

> <Gold.PLP.Chemscore.CHOScore>
0.0000

> <Gold.PLP.Chemscore.Metal>
0.0000

> <Gold.Chemscore.Hbonds>
donor molecule, donor type, donor heavy atom, donor atom, acceptor molecule, acceptor atom, score
      L1  H    10    36       P1  7948  0.96
      L1  H    13    37       P1  7948  1.00
      P1  H  7989  7998       L1    16  0.80

> <Gold.PLP.Chemscore.Internal.Correction>
0.0375

> <Gold.Rescore>
     Score         DG    S(hbond)    S(metal)    S(lipo)     H(rot)  DE(clash)    DE(int)     intcor
     12.40     -13.29       1.48        0.00      67.79       1.98       0.00       0.89       ----

> <Gold.Chemscore.Fitness>
12.3989

> <Gold.Chemscore.DG>
-13.2896

> <Gold.Chemscore.ZeroCoef>
-5.4800

> <Gold.Chemscore.Hbond>
1.4807

> <Gold.Chemscore.Metal>
0.0000

> <Gold.Chemscore.Lipo>
67.7854

> <Gold.Chemscore.Internal_Hbond>
0.0000

> <Gold.Chemscore.DEClash>
0.0000

> <Gold.Chemscore.DEInternal>
0.8907

> <Gold.Chemscore.Rot>
1.9793

> <Gold.Chemscore.Internal.Correction>
   9.000000E+99

> <Gold.Chemscore.Hbonds>
donor molecule, donor type, donor heavy atom, donor atom, acceptor molecule, acceptor atom, score
      L1  H    10    36       P1  7948  0.51
      L1  H    13    37       P1  7948  0.87
      P1  H  7989  7998       L1    16  0.05

> <Gold.Chemscore.Hbond.Weighted>
-4.9457

> <Gold.Chemscore.Metal.Weighted>
-0.0000

> <Gold.Chemscore.Lipo.Weighted>
-7.9309

> <Gold.Chemscore.Internal_Hbond.Weighted>
0.0000

> <Gold.Chemscore.DEClash.Weighted>
0.0000

> <Gold.Chemscore.DEInternal.Weighted>
0.8907

> <Gold.Chemscore.Rot.Weighted>
5.0670

> <Gold.Chemscore.Internal.Correction.Weighted>
   9.000000E+99

> <Gold.Protein.RotatedTorsions>
[ 6907 6896 6895 6894 ] final  -86.68 input  -60.11 | X-H torsion
[ 7974 7965 7964 7962 ] final   18.26 input  175.53 | X-H torsion
[ 8008 7997 7996 7995 ] final  -80.17 input   59.86 | X-H torsion
[ 10167 10162 10161 10158 ] final  -44.78 input  -65.29 | X-H torsion
[ 10718 10713 10712 10709 ] final  -74.54 input   66.30 | X-H torsion
[ 10763 10752 10751 10750 ] final  121.16 input  -60.55 | X-H torsion
[ 11005 11000 10999 10996 ] final  174.52 input  -57.11 | X-H torsion

> <Gold.Protein.ActiveResidues>
 VAL166  LYS551  ARG553  GLY616  TRP617  ASP618  TYR619  PRO620  LYS621  CYS622 
 ASP623  PHE694  ASN695  SER759  ASP760  ASP761  ALA762  ILE779  LEU786  VAL792 
 PHE793  MET794  SER795  GLU796  ALA797  LYS798  CYS799  TRP800  GLU811  SER814 

> <Gold.Protein.RotatedAtoms>
  150.6866  134.3013  159.4707 H   0  0  0  0  0  0  0  0  0  0  0  0  # atno 6907 bound_to 6896
  152.0908  134.9405  160.0581 H   0  0  0  0  0  0  0  0  0  0  0  0  # atno 6908 bound_to 6896
  152.0722  133.4077  159.4501 H   0  0  0  0  0  0  0  0  0  0  0  0  # atno 6909 bound_to 6896
  146.2191  139.8482  142.8627 H   0  0  0  0  0  0  0  0  0  0  0  0  # atno 7974 bound_to 7965
  154.5856  140.0667  156.9167 H   0  0  0  0  0  0  0  0  0  0  0  0  # atno 8008 bound_to 7997
  155.2385  140.3343  155.4277 H   0  0  0  0  0  0  0  0  0  0  0  0  # atno 8009 bound_to 7997
  156.2220  140.1803  156.7438 H   0  0  0  0  0  0  0  0  0  0  0  0  # atno 8010 bound_to 7997
  140.6884  143.2913  151.3544 H   0  0  0  0  0  0  0  0  0  0  0  0  # atno 10167 bound_to 10162
  156.0239  130.4419  150.2908 H   0  0  0  0  0  0  0  0  0  0  0  0  # atno 10718 bound_to 10713
  153.6097  135.3433  155.2974 H   0  0  0  0  0  0  0  0  0  0  0  0  # atno 10763 bound_to 10752
  154.8621  135.4247  154.2323 H   0  0  0  0  0  0  0  0  0  0  0  0  # atno 10764 bound_to 10752
  153.3171  135.7035  153.7136 H   0  0  0  0  0  0  0  0  0  0  0  0  # atno 10765 bound_to 10752
  140.3522  134.7185  157.4275 H   0  0  0  0  0  0  0  0  0  0  0  0  # atno 11005 bound_to 11000
  145.2828  141.0144  143.3707 LP  0  0  0  0  0  0  0  0  0  0  0  0  # atno 17320 bound_to 7965
  144.9137  139.4497  143.6575 LP  0  0  0  0  0  0  0  0  0  0  0  0  # atno 17321 bound_to 7965
  139.6262  144.0809  152.2436 LP  0  0  0  0  0  0  0  0  0  0  0  0  # atno 17342 bound_to 10162
  140.0269  144.6110  150.7520 LP  0  0  0  0  0  0  0  0  0  0  0  0  # atno 17343 bound_to 10162
  157.1011  131.0196  151.3085 LP  0  0  0  0  0  0  0  0  0  0  0  0  # atno 17370 bound_to 10713
  157.4779  130.7747  149.7385 LP  0  0  0  0  0  0  0  0  0  0  0  0  # atno 17371 bound_to 10713
  140.0694  134.5884  155.8659 LP  0  0  0  0  0  0  0  0  0  0  0  0  # atno 17394 bound_to 11000
  141.2009  133.6615  156.5920 LP  0  0  0  0  0  0  0  0  0  0  0  0  # atno 17395 bound_to 11000

$$$$
