AV-unprocessed.smi:1765|AV-procd|sdf|7134|dock6
  -GOLD-   22720 8373D 1   1.00000     0.00000
 Structure written by MMmdl.
 39 40  0  0  0  0  0  0  0  0  1 V2000
  146.5068  143.4373  153.5083 C   0  0  0  0  0  0  0  0  0  0  0  0
  147.6636  142.7320  154.0390 N   0  0  0  0  0  0  0  0  0  0  0  0
  148.0055  141.4751  153.7105 C   0  0  0  0  0  0  0  0  0  0  0  0
  147.3400  140.8113  152.9137 O   0  0  0  0  0  0  0  0  0  0  0  0
  149.2180  140.9970  154.3797 C   0  0  0  0  0  0  0  0  0  0  0  0
  149.9389  141.7782  155.3740 C   0  0  0  0  0  0  0  0  0  0  0  0
  151.0473  141.2855  155.9609 C   0  0  0  0  0  0  0  0  0  0  0  0
  151.5717  139.9580  155.6286 C   0  0  0  0  0  0  0  0  0  0  0  0
  152.5834  139.5030  156.1631 O   0  0  0  0  0  0  0  0  0  0  0  0
  150.8678  139.2592  154.6872 N   0  0  0  0  0  0  0  0  0  0  0  0
  151.3005  137.9145  154.2709 C   0  0  0  0  0  0  0  0  0  0  0  0
  150.7831  136.8008  155.1920 C   0  0  0  0  0  0  0  0  0  0  0  0
  151.1783  136.7109  156.3551 O   0  0  0  0  0  0  0  0  0  0  0  0
  149.8754  135.9705  154.6570 N   0  0  0  0  0  0  0  0  0  0  0  0
  149.2490  134.8473  155.3491 C   0  0  0  0  0  0  0  0  0  0  0  0
  150.3151  133.8788  155.8975 C   0  0  0  0  0  0  0  0  0  0  0  0
  149.8903  132.4797  155.4478 C   0  0  0  0  0  0  0  0  0  0  0  0
  149.1264  132.7145  154.1487 C   0  0  0  0  0  0  0  0  0  0  0  0
  148.3677  134.0187  154.3937 C   0  0  0  0  0  0  0  0  0  0  0  0
  149.7076  139.7780  154.0790 C   0  0  0  0  0  0  0  0  0  0  0  0
  146.4688  144.4477  153.9152 H   0  0  0  0  0  0  0  0  0  0  0  0
  145.5823  142.9256  153.7789 H   0  0  0  0  0  0  0  0  0  0  0  0
  146.5606  143.5096  152.4213 H   0  0  0  0  0  0  0  0  0  0  0  0
  148.2458  143.2299  154.6964 H   0  0  0  0  0  0  0  0  0  0  0  0
  149.6055  142.7634  155.6650 H   0  0  0  0  0  0  0  0  0  0  0  0
  151.5648  141.8833  156.6969 H   0  0  0  0  0  0  0  0  0  0  0  0
  150.9623  137.6977  153.2568 H   0  0  0  0  0  0  0  0  0  0  0  0
  152.3904  137.8717  154.2210 H   0  0  0  0  0  0  0  0  0  0  0  0
  149.6022  136.1230  153.6970 H   0  0  0  0  0  0  0  0  0  0  0  0
  148.6397  135.2190  156.1754 H   0  0  0  0  0  0  0  0  0  0  0  0
  151.2962  134.1050  155.4766 H   0  0  0  0  0  0  0  0  0  0  0  0
  150.4095  133.9434  156.9818 H   0  0  0  0  0  0  0  0  0  0  0  0
  150.7368  131.8039  155.3227 H   0  0  0  0  0  0  0  0  0  0  0  0
  149.2219  132.0426  156.1908 H   0  0  0  0  0  0  0  0  0  0  0  0
  149.8308  132.8470  153.3265 H   0  0  0  0  0  0  0  0  0  0  0  0
  148.4658  131.8856  153.8929 H   0  0  0  0  0  0  0  0  0  0  0  0
  147.4201  133.7953  154.8854 H   0  0  0  0  0  0  0  0  0  0  0  0
  148.1293  134.5339  153.4624 H   0  0  0  0  0  0  0  0  0  0  0  0
  149.2471  139.1142  153.3607 H   0  0  0  0  0  0  0  0  0  0  0  0
  1  2  1  0  0  0  0
  1 21  1  0  0  0  0
  1 22  1  0  0  0  0
  1 23  1  0  0  0  0
  2  3  1  0  0  0  0
  2 24  1  0  0  0  0
  3  4  2  0  0  0  0
  3  5  1  0  0  0  0
  5 20  2  0  0  0  0
  5  6  1  0  0  0  0
  6  7  2  0  0  0  0
  6 25  1  0  0  0  0
  7  8  1  0  0  0  0
  7 26  1  0  0  0  0
  8  9  2  0  0  0  0
  8 10  1  0  0  0  0
 10 11  1  0  0  0  0
 10 20  1  0  0  0  0
 11 12  1  0  0  0  0
 11 27  1  0  0  0  0
 11 28  1  0  0  0  0
 12 13  2  0  0  0  0
 12 14  1  0  0  0  0
 14 15  1  0  0  0  0
 14 29  1  0  0  0  0
 15 19  1  0  0  0  0
 15 16  1  0  0  0  0
 15 30  1  0  0  0  0
 16 17  1  0  0  0  0
 16 31  1  0  0  0  0
 16 32  1  0  0  0  0
 17 18  1  0  0  0  0
 17 33  1  0  0  0  0
 17 34  1  0  0  0  0
 18 19  1  0  0  0  0
 18 35  1  0  0  0  0
 18 36  1  0  0  0  0
 19 37  1  0  0  0  0
 19 38  1  0  0  0  0
 20 39  1  0  0  0  0
M  END
> <s_m_source_file>
AV-unprocessed.smi

> <i_m_source_file_index>
1765

> <i_lp_mmshare_version>
43012

> <i_f3d_flags>
0

> <s_epik_input>
W0NIM11bTkhdQyg9TyljMVtjSF1bY0hdYyg9TyluKFtjSF0xKVtDSDJdQyg9TylbTkhdW0NIXTJbQ0gyXVtDSDJdW0NIMl1bQ0gyXTI=

> <s_epik_cmdline>
J2VwaWtfcHl0aG9uJywgJy1waCcsICc3LjAnLCAnLXRuJywgJzgnLCAnLW1hJywgJzIwMCcsICctbWV0YWxfYmluZGluZycsICctaW1hZScsICc8aW5maWxlLm1hZT4nLCAnLW9tYWUnLCAnPG91dGZpbGUubWFlPic=

> <r_lp_tautomer_probability>
1

> <r_epik_Ionization_Penalty>
3.69544e-07

> <r_epik_Ionization_Penalty_Charging>
4.98828e-08

> <r_epik_Ionization_Penalty_Neutral>
3.19661e-07

> <r_epik_State_Penalty>
-0

> <r_epik_Charging_Adjusted_Penalty>
4.98828e-08

> <i_epik_Tot_Q>
0

> <i_epik_Tot_abs_Q>
0

> <r_epik_Metal_State_Penalty>
-0

> <b_epik_Metal_Only>
0

> <s_lp_Force_Field>
OPLS_2005

> <r_lp_Energy>
30.5558

> <b_lp_Chiralities_Consistent>
1

> <s_lp_Variant>
AV-unprocessed.smi:1765-1

> <Gold.Version>
5.8.1

> <Gold.Id.Protein>
6NUR|6NUR_protein|mol2

> <Gold.PLP.Fitness>
53.2194

> <Gold.PLP.PLP>
-43.4166

> <Gold.PLP.part.hbond>
-3.2747

> <Gold.PLP.part.metal>
0.0000

> <Gold.PLP.part.buried>
-3.2404

> <Gold.PLP.part.nonpolar>
-36.3124

> <Gold.PLP.part.repulsive>
0.4008

> <Gold.PLP.ligand.clash>
0.0000

> <Gold.PLP.ligand.torsion>
0.4403

> <Gold.PLP.Chemscore.Hbond>
2.9920

> <Gold.PLP.Chemscore.CHOScore>
0.5663

> <Gold.PLP.Chemscore.Metal>
0.0000

> <Gold.Chemscore.Hbonds>
donor molecule, donor type, donor heavy atom, donor atom, acceptor molecule, acceptor atom, score
      L1  H     2    24       P1  8028  1.00
      L1  H    14    29       P1  7948  1.00
      P1  H  7997  8010       L1     9  1.00
      L1  C    20    39       P1  7957  0.57

> <Gold.PLP.Chemscore.Internal.Correction>
0.0087

> <Gold.Rescore>
     Score         DG    S(hbond)    S(metal)    S(lipo)     H(rot)  DE(clash)    DE(int)     intcor
     16.62     -18.83       2.67        0.00      71.16       1.52       0.73       1.49       ----

> <Gold.Chemscore.Fitness>
16.6173

> <Gold.Chemscore.DG>
-18.8315

> <Gold.Chemscore.ZeroCoef>
-5.4800

> <Gold.Chemscore.Hbond>
2.6737

> <Gold.Chemscore.Metal>
0.0000

> <Gold.Chemscore.Lipo>
71.1562

> <Gold.Chemscore.Internal_Hbond>
0.0000

> <Gold.Chemscore.DEClash>
0.7280

> <Gold.Chemscore.DEInternal>
1.4863

> <Gold.Chemscore.Rot>
1.5250

> <Gold.Chemscore.Internal.Correction>
   9.000000E+99

> <Gold.Chemscore.Hbonds>
donor molecule, donor type, donor heavy atom, donor atom, acceptor molecule, acceptor atom, score
      L1  H     2    24       P1  8028  0.97
      L1  H    14    29       P1  7948  0.45
      P1  H  7997  8010       L1     9  1.00

> <Gold.Chemscore.Hbond.Weighted>
-8.9302

> <Gold.Chemscore.Metal.Weighted>
-0.0000

> <Gold.Chemscore.Lipo.Weighted>
-8.3253

> <Gold.Chemscore.Internal_Hbond.Weighted>
0.0000

> <Gold.Chemscore.DEClash.Weighted>
0.7280

> <Gold.Chemscore.DEInternal.Weighted>
1.4863

> <Gold.Chemscore.Rot.Weighted>
3.9039

> <Gold.Chemscore.Internal.Correction.Weighted>
   9.000000E+99

> <Gold.Protein.RotatedTorsions>
[ 6907 6896 6895 6894 ] final -158.63 input  -60.11 | X-H torsion
[ 7974 7965 7964 7962 ] final   48.87 input  175.53 | X-H torsion
[ 8008 7997 7996 7995 ] final   78.00 input   59.86 | X-H torsion
[ 10167 10162 10161 10158 ] final   83.74 input  -65.29 | X-H torsion
[ 10718 10713 10712 10709 ] final   36.66 input   66.30 | X-H torsion
[ 10763 10752 10751 10750 ] final  141.28 input  -60.55 | X-H torsion
[ 11005 11000 10999 10996 ] final  -77.52 input  -57.11 | X-H torsion

> <Gold.Protein.ActiveResidues>
 VAL166  LYS551  ARG553  GLY616  TRP617  ASP618  TYR619  PRO620  LYS621  CYS622 
 ASP623  PHE694  ASN695  SER759  ASP760  ASP761  ALA762  ILE779  LEU786  VAL792 
 PHE793  MET794  SER795  GLU796  ALA797  LYS798  CYS799  TRP800  GLU811  SER814 

> <Gold.Protein.RotatedAtoms>
  151.3212  133.4039  159.2654 H   0  0  0  0  0  0  0  0  0  0  0  0  # atno 6907 bound_to 6896
  151.0033  134.9340  159.7976 H   0  0  0  0  0  0  0  0  0  0  0  0  # atno 6908 bound_to 6896
  152.5281  134.3177  159.9189 H   0  0  0  0  0  0  0  0  0  0  0  0  # atno 6909 bound_to 6896
  146.0163  139.4600  142.9924 H   0  0  0  0  0  0  0  0  0  0  0  0  # atno 7974 bound_to 7965
  155.8496  140.3458  155.5684 H   0  0  0  0  0  0  0  0  0  0  0  0  # atno 8008 bound_to 7997
  155.8052  140.0891  157.1954 H   0  0  0  0  0  0  0  0  0  0  0  0  # atno 8009 bound_to 7997
  154.4007  140.1458  156.3309 H   0  0  0  0  0  0  0  0  0  0  0  0  # atno 8010 bound_to 7997
  139.9153  144.6246  150.8495 H   0  0  0  0  0  0  0  0  0  0  0  0  # atno 10167 bound_to 10162
  157.3376  130.7531  149.6890 H   0  0  0  0  0  0  0  0  0  0  0  0  # atno 10718 bound_to 10713
  153.9366  135.2984  155.3444 H   0  0  0  0  0  0  0  0  0  0  0  0  # atno 10763 bound_to 10752
  154.7499  135.4985  153.9273 H   0  0  0  0  0  0  0  0  0  0  0  0  # atno 10764 bound_to 10752
  153.1064  135.6748  153.9685 H   0  0  0  0  0  0  0  0  0  0  0  0  # atno 10765 bound_to 10752
  141.1660  133.7026  156.7833 H   0  0  0  0  0  0  0  0  0  0  0  0  # atno 11005 bound_to 11000
  145.7263  141.0058  143.1376 LP  0  0  0  0  0  0  0  0  0  0  0  0  # atno 17320 bound_to 7965
  144.6972  139.8930  143.7454 LP  0  0  0  0  0  0  0  0  0  0  0  0  # atno 17321 bound_to 7965
  140.7675  143.3336  151.2357 LP  0  0  0  0  0  0  0  0  0  0  0  0  # atno 17342 bound_to 10162
  139.6908  143.9696  152.2858 LP  0  0  0  0  0  0  0  0  0  0  0  0  # atno 17343 bound_to 10162
  155.9703  130.4177  150.4292 LP  0  0  0  0  0  0  0  0  0  0  0  0  # atno 17370 bound_to 10713
  157.2334  131.0509  151.2479 LP  0  0  0  0  0  0  0  0  0  0  0  0  # atno 17371 bound_to 10713
  140.2379  134.8636  157.3543 LP  0  0  0  0  0  0  0  0  0  0  0  0  # atno 17394 bound_to 11000
  140.1825  134.4471  155.7763 LP  0  0  0  0  0  0  0  0  0  0  0  0  # atno 17395 bound_to 11000

$$$$
