#       Name:                AV-unprocessed.smi:3331
#       Creating user name   scv26
#       Creation time:       Fri Mar 27 19:19:56 2020


#       File generated by GOLD software.
#

@<TRIPOS>MOLECULE
AV-unprocessed.smi:3331
    50    51     1
SMALL
NO_CHARGES


@<TRIPOS>ATOM
      1 ****        -2.1713  -3.1444  -2.3617 C.3            1 S1                 0.0000
      2 ****        -1.9084  -1.9265  -1.4652 C.3            1 S1                 0.0000
      3 ****        -2.9469  -1.8293  -0.3231 C.3            1 S1                 0.0000
      4 ****        -2.8034  -0.5391   0.5166 C.3            1 S1                 0.0000
      5 ****        -1.6294  -0.6205   1.5084 C.3            1 S1                 0.0000
      6 ****        -2.7162   0.6872  -0.4184 C.3            1 S1                 0.0000
      7 ****        -1.6110   0.5051  -1.3701 N.am           1 S1                 0.0000
      8 ****        -0.4388   1.1897  -1.3902 C.2            1 S1                 0.0000
      9 ****         0.4186   0.9838  -2.2520 O.2            1 S1                 0.0000
     10 ****        -0.1360   2.2581  -0.3126 C.3            1 S1                 0.0000
     11 ****        -0.6239   3.6354  -0.7881 C.3            1 S1                 0.0000
     12 ****         1.2928   2.3370   0.0451 N.3            1 S1                 0.0000
     13 ****         1.7967   1.1336   0.6989 C.3            1 S1                 0.0000
     14 ****         3.2665   1.3408   1.0877 C.3            1 S1                 0.0000
     15 ****         3.8161   0.1620   1.7281 N.pl3          1 S1                 0.0000
     16 ****         4.5416  -0.8623   1.1577 C.2            1 S1                 0.0000
     17 ****         4.8343  -1.7538   2.1497 C.2            1 S1                 0.0000
     18 ****         4.2354  -1.1805   3.3064 C.2            1 S1                 0.0000
     19 ****         3.6256  -0.0341   3.0506 N.2            1 S1                 0.0000
     20 ****        -1.8825  -0.6160  -2.2804 C.3            1 S1                 0.0000
     21 ****        -3.1411  -3.0725  -2.8551 H              1 S1                 0.0000
     22 ****        -2.1598  -4.0678  -1.7820 H              1 S1                 0.0000
     23 ****        -1.4097  -3.2332  -3.1369 H              1 S1                 0.0000
     24 ****        -0.9226  -2.0615  -1.0176 H              1 S1                 0.0000
     25 ****        -3.9469  -1.8460  -0.7590 H              1 S1                 0.0000
     26 ****        -2.8873  -2.7079   0.3204 H              1 S1                 0.0000
     27 ****        -3.7093  -0.4339   1.1148 H              1 S1                 0.0000
     28 ****        -0.6736  -0.7456   1.0001 H              1 S1                 0.0000
     29 ****        -1.7511  -1.4626   2.1896 H              1 S1                 0.0000
     30 ****        -1.5662   0.2830   2.1151 H              1 S1                 0.0000
     31 ****        -3.6455   0.7735  -0.9835 H              1 S1                 0.0000
     32 ****        -2.6663   1.6118   0.1529 H              1 S1                 0.0000
     33 ****        -0.6587   2.0161   0.6103 H              1 S1                 0.0000
     34 ****        -1.6906   3.6245  -1.0152 H              1 S1                 0.0000
     35 ****        -0.0963   3.9587  -1.6864 H              1 S1                 0.0000
     36 ****        -0.4638   4.3928  -0.0201 H              1 S1                 0.0000
     37 ****         1.8633   2.5591  -0.7584 H              1 S1                 0.0000
     38 ****         1.2015   0.9233   1.5888 H              1 S1                 0.0000
     39 ****         1.7157   0.2681   0.0407 H              1 S1                 0.0000
     40 ****         3.8672   1.5635   0.2045 H              1 S1                 0.0000
     41 ****         3.3710   2.1897   1.7654 H              1 S1                 0.0000
     42 ****         4.7845  -0.8720   0.1054 H              1 S1                 0.0000
     43 ****         5.3901  -2.6753   2.0623 H              1 S1                 0.0000
     44 ****         4.2252  -1.5610   4.3171 H              1 S1                 0.0000
     45 ****        -1.1494  -0.6951  -3.0844 H              1 S1                 0.0000
     46 ****        -2.8420  -0.4581  -2.7751 H              1 S1                 0.0000
     47 ****         0.2598   0.2971  -2.9613 LP             1 S1                 0.0000
     48 ****         1.2729   1.5036  -2.2417 LP             1 S1                 0.0000
     49 ****         1.3590   3.0801   0.7110 LP             1 S1                 0.0000
     50 ****         3.1342   0.5547   3.6924 LP             1 S1                 0.0000
@<TRIPOS>BOND
    1    1    2 1     
    2    1   21 1     
    3    1   22 1     
    4    1   23 1     
    5    2   20 1     
    6    2    3 1     
    7    2   24 1     
    8    3    4 1     
    9    3   25 1     
   10    3   26 1     
   11    4    5 1     
   12    4    6 1     
   13    4   27 1     
   14    5   28 1     
   15    5   29 1     
   16    5   30 1     
   17    6    7 1     
   18    6   31 1     
   19    6   32 1     
   20    7    8 am    
   21    7   20 1     
   22    8    9 2     
   23    8   10 1     
   24   10   11 1     
   25   10   12 1     
   26   10   33 1     
   27   11   34 1     
   28   11   35 1     
   29   11   36 1     
   30   12   13 1     
   31   12   37 1     
   32   13   14 1     
   33   13   38 1     
   34   13   39 1     
   35   14   15 1     
   36   14   40 1     
   37   14   41 1     
   38   15   19 1     
   39   15   16 1     
   40   16   17 2     
   41   16   42 1     
   42   17   18 1     
   43   17   43 1     
   44   18   19 2     
   45   18   44 1     
   46   20   45 1     
   47   20   46 1     
   48    9   47 1     
   49    9   48 1     
   50   12   49 1     
   51   19   50 1     
@<TRIPOS>SUBSTRUCTURE
      1 S1             1
@<TRIPOS>SET
LONE_PAIRS      STATIC     ATOMS    <user>   **** ""
4 47 48 49 50
DONOR_HYDROGENS      STATIC     ATOMS    <user>   **** ""
1 37
ATOM$BLUE        STATIC     ATOMS    COLORGROUP SYSTEM
4 47 48 49 50
ATOM$RED        STATIC     ATOMS    COLORGROUP SYSTEM
1 37
