#       Name:                AV-unprocessed.smi:3057
#       Creating user name   scv26
#       Creation time:       Fri Mar 27 17:06:59 2020


#       File generated by GOLD software.
#

@<TRIPOS>MOLECULE
AV-unprocessed.smi:3057
    45    47     1
SMALL
NO_CHARGES


@<TRIPOS>ATOM
      1 ****        -1.7867   2.7241   0.1899 C.3            1 S1                 0.0000
      2 ****        -2.5412   1.5124   0.7707 C.3            1 S1                 0.0000
      3 ****        -3.6907   1.9508   1.6963 C.3            1 S1                 0.0000
      4 ****        -3.0899   1.8994   3.1088 C.3            1 S1                 0.0000
      5 ****        -1.9376   0.9222   2.9395 C.2            1 S1                 0.0000
      6 ****        -1.3819   0.3614   3.8827 O.2            1 S1                 0.0000
      7 ****        -1.6836   0.7298   1.6390 N.am           1 S1                 0.0000
      8 ****        -0.9086  -0.3601   1.0401 C.3            1 S1                 0.0000
      9 ****         0.5965  -0.0384   1.0363 C.2            1 S1                 0.0000
     10 ****         1.0021   1.1232   1.0998 O.2            1 S1                 0.0000
     11 ****         1.4171  -1.0950   0.9403 N.am           1 S1                 0.0000
     12 ****         2.8748  -1.0297   0.8893 C.3            1 S1                 0.0000
     13 ****         3.4127  -0.4968  -0.4549 C.3            1 S1                 0.0000
     14 ****         2.8099  -1.1831  -1.6694 C.ar           1 S1                 0.0000
     15 ****         1.8362  -0.5304  -2.4558 C.ar           1 S1                 0.0000
     16 ****         1.2934  -1.2164  -3.5590 C.ar           1 S1                 0.0000
     17 ****         1.7468  -2.5205  -3.8356 C.ar           1 S1                 0.0000
     18 ****         2.7276  -3.0820  -2.9936 C.ar           1 S1                 0.0000
     19 ****         3.2523  -2.4337  -1.9311 N.ar           1 S1                 0.0000
     20 ****        -1.4128  -0.5056  -0.4184 C.3            1 S1                 0.0000
     21 ****        -3.0102   0.3485  -0.5200 S.3            1 S1                 0.0000
     22 ****        -1.4071   3.3736   0.9794 H              1 S1                 0.0000
     23 ****        -2.4409   3.3228  -0.4443 H              1 S1                 0.0000
     24 ****        -0.9364   2.4168  -0.4192 H              1 S1                 0.0000
     25 ****        -4.0784   2.9392   1.4473 H              1 S1                 0.0000
     26 ****        -4.5245   1.2499   1.6320 H              1 S1                 0.0000
     27 ****        -2.6974   2.8707   3.4112 H              1 S1                 0.0000
     28 ****        -3.8090   1.5586   3.8541 H              1 S1                 0.0000
     29 ****        -1.0988  -1.2804   1.5956 H              1 S1                 0.0000
     30 ****         1.0019  -2.0141   0.8894 H              1 S1                 0.0000
     31 ****         3.2548  -0.4292   1.7170 H              1 S1                 0.0000
     32 ****         3.2463  -2.0423   1.0489 H              1 S1                 0.0000
     33 ****         3.2227   0.5748  -0.5261 H              1 S1                 0.0000
     34 ****         4.4971  -0.6085  -0.4856 H              1 S1                 0.0000
     35 ****         1.5054   0.4693  -2.2146 H              1 S1                 0.0000
     36 ****         0.5418  -0.7514  -4.1795 H              1 S1                 0.0000
     37 ****         1.3528  -3.0769  -4.6731 H              1 S1                 0.0000
     38 ****         3.0993  -4.0793  -3.1773 H              1 S1                 0.0000
     39 ****        -0.7438  -0.0248  -1.1335 H              1 S1                 0.0000
     40 ****        -1.5138  -1.5498  -0.7154 H              1 S1                 0.0000
     41 ****        -1.6842   0.5399   4.8190 LP             1 S1                 0.0000
     42 ****        -0.6277  -0.2730   3.7132 LP             1 S1                 0.0000
     43 ****         0.3491   1.8785   1.1551 LP             1 S1                 0.0000
     44 ****         1.9844   1.3108   1.0959 LP             1 S1                 0.0000
     45 ****         3.9468  -2.8655  -1.3556 LP             1 S1                 0.0000
@<TRIPOS>BOND
    1    1    2 1     
    2    1   22 1     
    3    1   23 1     
    4    1   24 1     
    5    2    7 1     
    6    2   21 1     
    7    2    3 1     
    8    3    4 1     
    9    3   25 1     
   10    3   26 1     
   11    4    5 1     
   12    4   27 1     
   13    4   28 1     
   14    5    6 2     
   15    5    7 am    
   16    7    8 1     
   17    8    9 1     
   18    8   20 1     
   19    8   29 1     
   20    9   10 2     
   21    9   11 am    
   22   11   12 1     
   23   11   30 1     
   24   12   13 1     
   25   12   31 1     
   26   12   32 1     
   27   13   14 1     
   28   13   33 1     
   29   13   34 1     
   30   14   19 ar    
   31   14   15 ar    
   32   15   16 ar    
   33   15   35 1     
   34   16   17 ar    
   35   16   36 1     
   36   17   18 ar    
   37   17   37 1     
   38   18   19 ar    
   39   18   38 1     
   40   20   21 1     
   41   20   39 1     
   42   20   40 1     
   43    6   41 1     
   44    6   42 1     
   45   10   43 1     
   46   10   44 1     
   47   19   45 1     
@<TRIPOS>SUBSTRUCTURE
      1 S1             1
@<TRIPOS>SET
LONE_PAIRS      STATIC     ATOMS    <user>   **** ""
5 41 42 43 44 45
DONOR_HYDROGENS      STATIC     ATOMS    <user>   **** ""
1 30
ATOM$BLUE        STATIC     ATOMS    COLORGROUP SYSTEM
5 41 42 43 44 45
ATOM$RED        STATIC     ATOMS    COLORGROUP SYSTEM
1 30
