AV-unprocessed.smi:2294|AV-procd|sdf|9217|dock3
  -GOLD-   2272012433D 1   1.00000     0.00000
 Structure written by MMmdl.
 34 35  0  0  0  0  0  0  0  0  1 V2000
  151.0644  138.0772  154.8755 C   0  0  0  0  0  0  0  0  0  0  0  0
  151.1312  139.1829  155.9138 C   0  0  0  0  0  0  0  0  0  0  0  0
  150.7110  140.4440  155.4810 N   0  0  0  0  0  0  0  0  0  0  0  0
  150.7396  141.4477  156.2955 C   0  0  0  0  0  0  0  0  0  0  0  0
  151.1805  141.3093  157.6216 N   0  0  0  0  0  0  0  0  0  0  0  0
  151.1741  142.5320  158.4427 C   0  0  0  0  0  0  0  0  0  0  0  0
  152.6017  143.0132  158.7855 C   0  0  1  0  0  0  0  0  0  0  0  0
  152.8081  144.2775  158.1848 O   0  0  0  0  0  0  0  0  0  0  0  0
  152.8092  143.0697  160.2938 C   0  0  0  0  0  0  0  0  0  0  0  0
  152.2495  144.1209  161.0550 C   0  0  0  0  0  0  0  0  0  0  0  0
  152.4367  144.1691  162.4498 C   0  0  0  0  0  0  0  0  0  0  0  0
  153.1808  143.1638  163.0955 C   0  0  0  0  0  0  0  0  0  0  0  0
  153.7339  142.1087  162.3454 C   0  0  0  0  0  0  0  0  0  0  0  0
  153.5481  142.0586  160.9500 C   0  0  0  0  0  0  0  0  0  0  0  0
  154.0825  141.0314  160.2466 F   0  0  0  0  0  0  0  0  0  0  0  0
  151.6074  140.1148  158.1249 C   0  0  0  0  0  0  0  0  0  0  0  0
  151.9985  140.0060  159.2887 O   0  0  0  0  0  0  0  0  0  0  0  0
  151.5721  138.9823  157.1857 C   0  0  0  0  0  0  0  0  0  0  0  0
  152.0460  137.6331  157.7119 C   0  0  0  0  0  0  0  0  0  0  0  0
  150.4150  137.2703  155.2166 H   0  0  0  0  0  0  0  0  0  0  0  0
  152.0585  137.6705  154.6875 H   0  0  0  0  0  0  0  0  0  0  0  0
  150.6694  138.4453  153.9275 H   0  0  0  0  0  0  0  0  0  0  0  0
  150.4309  142.4535  156.0052 H   0  0  0  0  0  0  0  0  0  0  0  0
  150.5960  143.3387  157.9870 H   0  0  0  0  0  0  0  0  0  0  0  0
  150.6391  142.3101  159.3684 H   0  0  0  0  0  0  0  0  0  0  0  0
  153.3408  142.3337  158.3604 H   0  0  0  0  0  0  0  0  0  0  0  0
  153.7298  144.3729  157.9991 H   0  0  0  0  0  0  0  0  0  0  0  0
  151.6715  144.8953  160.5722 H   0  0  0  0  0  0  0  0  0  0  0  0
  152.0082  144.9770  163.0246 H   0  0  0  0  0  0  0  0  0  0  0  0
  153.3245  143.2000  164.1654 H   0  0  0  0  0  0  0  0  0  0  0  0
  154.3010  141.3348  162.8414 H   0  0  0  0  0  0  0  0  0  0  0  0
  153.0803  137.7048  158.0502 H   0  0  0  0  0  0  0  0  0  0  0  0
  152.0002  136.8407  156.9665 H   0  0  0  0  0  0  0  0  0  0  0  0
  151.4329  137.3233  158.5589 H   0  0  0  0  0  0  0  0  0  0  0  0
  1  2  1  0  0  0  0
  1 20  1  0  0  0  0
  1 21  1  0  0  0  0
  1 22  1  0  0  0  0
  2 18  2  0  0  0  0
  2  3  1  0  0  0  0
  3  4  2  0  0  0  0
  4  5  1  0  0  0  0
  4 23  1  0  0  0  0
  5  6  1  0  0  0  0
  5 16  1  0  0  0  0
  6  7  1  0  0  0  0
  6 24  1  0  0  0  0
  6 25  1  0  0  0  0
  7  8  1  0  0  0  0
  7  9  1  0  0  0  0
  7 26  1  0  0  0  0
  8 27  1  0  0  0  0
  9 14  1  0  0  0  0
  9 10  2  0  0  0  0
 10 11  1  0  0  0  0
 10 28  1  0  0  0  0
 11 12  2  0  0  0  0
 11 29  1  0  0  0  0
 12 13  1  0  0  0  0
 12 30  1  0  0  0  0
 13 14  2  0  0  0  0
 13 31  1  0  0  0  0
 14 15  1  0  0  0  0
 16 17  2  0  0  0  0
 16 18  1  0  0  0  0
 18 19  1  0  0  0  0
 19 32  1  0  0  0  0
 19 33  1  0  0  0  0
 19 34  1  0  0  0  0
M  END
> <s_m_source_file>
AV-unprocessed.smi

> <i_m_source_file_index>
2294

> <i_lp_mmshare_version>
43012

> <i_f3d_flags>
0

> <s_epik_input>
W0NIM11jMW5bY0hdbihjKD1PKWMxW0NIM10pW0NIMl1bQ0BIXShbT0hdKWMyW2NIXVtjSF1bY0hdW2NIXWMyRg==

> <s_epik_cmdline>
J2VwaWtfcHl0aG9uJywgJy1waCcsICc3LjAnLCAnLXRuJywgJzgnLCAnLW1hJywgJzIwMCcsICctbWV0YWxfYmluZGluZycsICctaW1hZScsICc8aW5maWxlLm1hZT4nLCAnLW9tYWUnLCAnPG91dGZpbGUubWFlPic=

> <r_lp_tautomer_probability>
1

> <r_epik_Ionization_Penalty>
5.07259e-05

> <r_epik_Ionization_Penalty_Charging>
7.56727e-08

> <r_epik_Ionization_Penalty_Neutral>
5.06502e-05

> <r_epik_State_Penalty>
-0

> <r_epik_Charging_Adjusted_Penalty>
7.56727e-08

> <i_epik_Tot_Q>
0

> <i_epik_Tot_abs_Q>
0

> <r_epik_Metal_State_Penalty>
-0

> <b_epik_Metal_Only>
0

> <s_lp_Force_Field>
OPLS_2005

> <r_lp_Energy>
19.7062

> <b_lp_Chiralities_Consistent>
1

> <s_lp_Variant>
AV-unprocessed.smi:2294-2

> <Gold.Version>
5.8.1

> <Gold.Id.Protein>
6NUR|6NUR_protein|mol2

> <Gold.PLP.Fitness>
49.9234

> <Gold.PLP.PLP>
-47.5672

> <Gold.PLP.part.hbond>
-1.0000

> <Gold.PLP.part.metal>
0.0000

> <Gold.PLP.part.buried>
-4.1363

> <Gold.PLP.part.nonpolar>
-42.4845

> <Gold.PLP.part.repulsive>
0.0653

> <Gold.PLP.ligand.clash>
0.0000

> <Gold.PLP.ligand.torsion>
1.2197

> <Gold.PLP.Chemscore.Hbond>
0.5936

> <Gold.PLP.Chemscore.CHOScore>
1.0000

> <Gold.PLP.Chemscore.Metal>
0.0000

> <Gold.Chemscore.Hbonds>
donor molecule, donor type, donor heavy atom, donor atom, acceptor molecule, acceptor atom, score
      P1  H  7989  7998       L1     3  0.52
      L1  C     4    23       P1  8028  0.42

> <Gold.PLP.Chemscore.Internal.Correction>
0.0149

> <Gold.Rescore>
     Score         DG    S(hbond)    S(metal)    S(lipo)     H(rot)  DE(clash)    DE(int)     intcor
     14.67     -16.21       0.81        0.00     112.67       2.02       0.07       1.47       ----

> <Gold.Chemscore.Fitness>
14.6723

> <Gold.Chemscore.DG>
-16.2105

> <Gold.Chemscore.ZeroCoef>
-5.4800

> <Gold.Chemscore.Hbond>
0.8125

> <Gold.Chemscore.Metal>
0.0000

> <Gold.Chemscore.Lipo>
112.6744

> <Gold.Chemscore.Internal_Hbond>
0.0000

> <Gold.Chemscore.DEClash>
0.0654

> <Gold.Chemscore.DEInternal>
1.4728

> <Gold.Chemscore.Rot>
2.0181

> <Gold.Chemscore.Internal.Correction>
   9.000000E+99

> <Gold.Chemscore.Hbonds>
donor molecule, donor type, donor heavy atom, donor atom, acceptor molecule, acceptor atom, score
      P1  H  7989  7998       L1     3  0.29

> <Gold.Chemscore.Hbond.Weighted>
-2.7139

> <Gold.Chemscore.Metal.Weighted>
-0.0000

> <Gold.Chemscore.Lipo.Weighted>
-13.1829

> <Gold.Chemscore.Internal_Hbond.Weighted>
0.0000

> <Gold.Chemscore.DEClash.Weighted>
0.0654

> <Gold.Chemscore.DEInternal.Weighted>
1.4728

> <Gold.Chemscore.Rot.Weighted>
5.1663

> <Gold.Chemscore.Internal.Correction.Weighted>
   9.000000E+99

> <Gold.Protein.RotatedTorsions>
[ 6907 6896 6895 6894 ] final  -11.06 input  -60.11 | X-H torsion
[ 7974 7965 7964 7962 ] final  138.39 input  175.53 | X-H torsion
[ 8008 7997 7996 7995 ] final   10.33 input   59.86 | X-H torsion
[ 10167 10162 10161 10158 ] final   40.21 input  -65.29 | X-H torsion
[ 10718 10713 10712 10709 ] final  124.63 input   66.30 | X-H torsion
[ 10763 10752 10751 10750 ] final  -32.35 input  -60.55 | X-H torsion
[ 11005 11000 10999 10996 ] final    5.09 input  -57.11 | X-H torsion

> <Gold.Protein.ActiveResidues>
 VAL166  LYS551  ARG553  GLY616  TRP617  ASP618  TYR619  PRO620  LYS621  CYS622 
 ASP623  PHE694  ASN695  SER759  ASP760  ASP761  ALA762  ILE779  LEU786  VAL792 
 PHE793  MET794  SER795  GLU796  ALA797  LYS798  CYS799  TRP800  GLU811  SER814 

> <Gold.Protein.RotatedAtoms>
  151.3922  135.0958  159.9529 H   0  0  0  0  0  0  0  0  0  0  0  0  # atno 6907 bound_to 6896
  152.5076  133.8968  159.7432 H   0  0  0  0  0  0  0  0  0  0  0  0  # atno 6908 bound_to 6896
  150.9424  133.6585  159.2816 H   0  0  0  0  0  0  0  0  0  0  0  0  # atno 6909 bound_to 6896
  144.9377  139.4969  143.5587 H   0  0  0  0  0  0  0  0  0  0  0  0  # atno 7974 bound_to 7965
  154.7919  140.2837  155.5985 H   0  0  0  0  0  0  0  0  0  0  0  0  # atno 8008 bound_to 7997
  156.2965  140.2603  156.2697 H   0  0  0  0  0  0  0  0  0  0  0  0  # atno 8009 bound_to 7997
  154.9660  140.0377  157.2202 H   0  0  0  0  0  0  0  0  0  0  0  0  # atno 8010 bound_to 7997
  140.3764  144.2038  150.6131 H   0  0  0  0  0  0  0  0  0  0  0  0  # atno 10167 bound_to 10162
  157.5569  131.1091  150.8606 H   0  0  0  0  0  0  0  0  0  0  0  0  # atno 10718 bound_to 10713
  153.8124  135.6881  153.4839 H   0  0  0  0  0  0  0  0  0  0  0  0  # atno 10763 bound_to 10752
  153.1620  135.4576  154.9783 H   0  0  0  0  0  0  0  0  0  0  0  0  # atno 10764 bound_to 10752
  154.7962  135.3320  154.7603 H   0  0  0  0  0  0  0  0  0  0  0  0  # atno 10765 bound_to 10752
  140.5746  134.0070  155.8022 H   0  0  0  0  0  0  0  0  0  0  0  0  # atno 11005 bound_to 11000
  146.3273  139.8373  142.8897 LP  0  0  0  0  0  0  0  0  0  0  0  0  # atno 17320 bound_to 7965
  145.3041  141.0202  143.3592 LP  0  0  0  0  0  0  0  0  0  0  0  0  # atno 17321 bound_to 7965
  140.4982  143.2326  151.8718 LP  0  0  0  0  0  0  0  0  0  0  0  0  # atno 17342 bound_to 10162
  139.4799  144.5090  151.8959 LP  0  0  0  0  0  0  0  0  0  0  0  0  # atno 17343 bound_to 10162
  156.9115  130.5282  149.5280 LP  0  0  0  0  0  0  0  0  0  0  0  0  # atno 17370 bound_to 10713
  156.0627  130.5676  150.9225 LP  0  0  0  0  0  0  0  0  0  0  0  0  # atno 17371 bound_to 10713
  141.1035  133.9731  157.3038 LP  0  0  0  0  0  0  0  0  0  0  0  0  # atno 17394 bound_to 11000
  139.9346  135.0197  156.8512 LP  0  0  0  0  0  0  0  0  0  0  0  0  # atno 17395 bound_to 11000

$$$$
