#       Name:                AV-unprocessed.smi:1076
#       Creating user name   scv26
#       Creation time:       Fri Mar 27 03:22:09 2020


#       File generated by GOLD software.
#

@<TRIPOS>MOLECULE
AV-unprocessed.smi:1076
    50    51     1
SMALL
NO_CHARGES


@<TRIPOS>ATOM
      1 ****        -0.9458  -0.8287   3.9180 C.3            1 S1                 0.0000
      2 ****        -1.9048  -0.6463   2.7776 C.2            1 S1                 0.0000
      3 ****        -2.9271   0.3355   2.6404 C.2            1 S1                 0.0000
      4 ****        -3.5926   0.2310   1.5016 N.2            1 S1                 0.0000
      5 ****        -3.0190  -0.8163   0.8722 N.pl3          1 S1                 0.0000
      6 ****        -3.4793  -1.2078  -0.4493 C.3            1 S1                 0.0000
      7 ****        -2.8851  -0.3146  -1.5566 C.3            1 S1                 0.0000
      8 ****        -3.4734  -0.6529  -2.9358 C.3            1 S1                 0.0000
      9 ****        -1.4389  -0.5010  -1.5766 N.3            1 S1                 0.0000
     10 ****        -0.7299   0.6495  -2.1215 C.3            1 S1                 0.0000
     11 ****         0.7873   0.5307  -1.8669 C.3            1 S1                 0.0000
     12 ****         1.2046   0.5576  -0.3812 C.2            1 S1                 0.0000
     13 ****         0.3652   0.8510   0.4721 O.2            1 S1                 0.0000
     14 ****         2.4847   0.2592  -0.0522 N.am           1 S1                 0.0000
     15 ****         2.9718   0.2441   1.3307 C.3            1 S1                 0.0000
     16 ****         4.0049   1.3727   1.4968 C.3            1 S1                 0.0000
     17 ****         5.0661   1.1891   0.5634 O.3            1 S1                 0.0000
     18 ****         4.6215   1.1749  -0.7908 C.3            1 S1                 0.0000
     19 ****         3.5919   0.0476  -0.9910 C.3            1 S1                 0.0000
     20 ****        -2.0033  -1.3693   1.6230 C.2            1 S1                 0.0000
     21 ****        -0.8611   0.0738   4.5238 H              1 S1                 0.0000
     22 ****         0.0567  -1.0725   3.5651 H              1 S1                 0.0000
     23 ****        -1.2599  -1.6343   4.5815 H              1 S1                 0.0000
     24 ****        -3.2009   1.1204   3.3298 H              1 S1                 0.0000
     25 ****        -3.2218  -2.2553  -0.6140 H              1 S1                 0.0000
     26 ****        -4.5688  -1.1494  -0.4620 H              1 S1                 0.0000
     27 ****        -3.1176   0.7232  -1.3124 H              1 S1                 0.0000
     28 ****        -4.5581  -0.5429  -2.9314 H              1 S1                 0.0000
     29 ****        -3.2469  -1.6798  -3.2247 H              1 S1                 0.0000
     30 ****        -3.0856   0.0067  -3.7123 H              1 S1                 0.0000
     31 ****        -1.1922  -1.3468  -2.0702 H              1 S1                 0.0000
     32 ****        -0.9234   0.7237  -3.1916 H              1 S1                 0.0000
     33 ****        -1.1030   1.5679  -1.6657 H              1 S1                 0.0000
     34 ****         1.1370  -0.3966  -2.3223 H              1 S1                 0.0000
     35 ****         1.2972   1.3487  -2.3771 H              1 S1                 0.0000
     36 ****         2.1746   0.3611   2.0661 H              1 S1                 0.0000
     37 ****         3.4336  -0.7220   1.5399 H              1 S1                 0.0000
     38 ****         3.5418   2.3497   1.3486 H              1 S1                 0.0000
     39 ****         4.4166   1.3633   2.5060 H              1 S1                 0.0000
     40 ****         4.1923   2.1436  -1.0525 H              1 S1                 0.0000
     41 ****         5.4814   1.0199  -1.4424 H              1 S1                 0.0000
     42 ****         4.0519  -0.9209  -0.7902 H              1 S1                 0.0000
     43 ****         3.2893   0.0240  -2.0361 H              1 S1                 0.0000
     44 ****        -1.4298  -2.2133   1.2690 H              1 S1                 0.0000
     45 ****        -4.3497   0.7996   1.1798 LP             1 S1                 0.0000
     46 ****        -1.1464  -0.5905  -0.6245 LP             1 S1                 0.0000
     47 ****        -0.5719   1.0676   0.1981 LP             1 S1                 0.0000
     48 ****         0.6210   0.8725   1.4386 LP             1 S1                 0.0000
     49 ****         5.5161   0.3181   0.7601 LP             1 S1                 0.0000
     50 ****         5.7217   1.9358   0.6756 LP             1 S1                 0.0000
@<TRIPOS>BOND
    1    1    2 1     
    2    1   21 1     
    3    1   22 1     
    4    1   23 1     
    5    2   20 2     
    6    2    3 1     
    7    3    4 2     
    8    3   24 1     
    9    4    5 1     
   10    5    6 1     
   11    5   20 1     
   12    6    7 1     
   13    6   25 1     
   14    6   26 1     
   15    7    8 1     
   16    7    9 1     
   17    7   27 1     
   18    8   28 1     
   19    8   29 1     
   20    8   30 1     
   21    9   10 1     
   22    9   31 1     
   23   10   11 1     
   24   10   32 1     
   25   10   33 1     
   26   11   12 1     
   27   11   34 1     
   28   11   35 1     
   29   12   13 2     
   30   12   14 am    
   31   14   19 1     
   32   14   15 1     
   33   15   16 1     
   34   15   36 1     
   35   15   37 1     
   36   16   17 1     
   37   16   38 1     
   38   16   39 1     
   39   17   18 1     
   40   18   19 1     
   41   18   40 1     
   42   18   41 1     
   43   19   42 1     
   44   19   43 1     
   45   20   44 1     
   46    4   45 1     
   47    9   46 1     
   48   13   47 1     
   49   13   48 1     
   50   17   49 1     
   51   17   50 1     
@<TRIPOS>SUBSTRUCTURE
      1 S1             1
@<TRIPOS>SET
LONE_PAIRS      STATIC     ATOMS    <user>   **** ""
6 45 46 47 48 49 50
DONOR_HYDROGENS      STATIC     ATOMS    <user>   **** ""
1 31
ATOM$BLUE        STATIC     ATOMS    COLORGROUP SYSTEM
6 45 46 47 48 49 50
ATOM$RED        STATIC     ATOMS    COLORGROUP SYSTEM
1 31
