AV-unprocessed.smi:1047|AV-procd|sdf|4564|dock2
  -GOLD-   22720 3 13D 1   1.00000     0.00000
 Structure written by MMmdl.
 57 59  0  0  0  0  0  0  0  0  3 V2000
  142.1896  138.7607  156.4752 C   0  0  0  0  0  0  0  0  0  0  0  0
  142.3850  139.2936  155.0484 C   0  0  0  0  0  0  0  0  0  0  0  0
  142.6487  140.7543  155.0113 N   0  3  1  0  0  0  0  0  0  0  0  0
  141.5612  141.5356  155.6477 C   0  0  0  0  0  0  0  0  0  0  0  0
  141.8413  143.0437  155.5379 C   0  0  0  0  0  0  0  0  0  0  0  0
  143.1008  143.3429  156.1283 O   0  0  0  0  0  0  0  0  0  0  0  0
  144.1726  142.6642  155.4824 C   0  0  1  0  0  0  0  0  0  0  0  0
  145.5040  143.1428  156.0864 C   0  0  0  0  0  0  0  0  0  0  0  0
  146.6600  142.8003  155.2317 N   0  3  0  0  0  0  0  0  0  0  0  0
  146.9707  141.3579  155.1927 C   0  0  0  0  0  0  0  0  0  0  0  0
  148.2168  141.0736  154.3324 C   0  0  1  0  0  0  0  0  0  0  0  0
  147.9041  141.3521  152.9810 O   0  0  0  0  0  0  0  0  0  0  0  0
  149.4533  141.9010  154.7479 C   0  0  0  0  0  0  0  0  0  0  0  0
  150.3154  141.2186  155.6996 N   0  0  0  0  0  0  0  0  0  0  0  0
  150.7408  139.9415  155.6405 C   0  0  0  0  0  0  0  0  0  0  0  0
  151.5380  139.5188  156.6166 N   0  0  0  0  0  0  0  0  0  0  0  0
  151.6352  140.6503  157.4073 C   0  0  0  0  0  0  0  0  0  0  0  0
  152.3426  140.8705  158.6092 C   0  0  0  0  0  0  0  0  0  0  0  0
  152.2988  142.1257  159.2565 C   0  0  0  0  0  0  0  0  0  0  0  0
  153.0720  142.3164  160.5495 C   0  0  0  0  0  0  0  0  0  0  0  0
  151.5371  143.1852  158.7018 C   0  0  0  0  0  0  0  0  0  0  0  0
  151.4717  144.5408  159.3827 C   0  0  0  0  0  0  0  0  0  0  0  0
  150.8259  142.9830  157.5007 C   0  0  0  0  0  0  0  0  0  0  0  0
  150.8782  141.7296  156.8649 C   0  0  0  0  0  0  0  0  0  0  0  0
  143.9632  141.1385  155.5841 C   0  0  0  0  0  0  0  0  0  0  0  0
  142.1064  137.6736  156.4676 H   0  0  0  0  0  0  0  0  0  0  0  0
  141.2813  139.1477  156.9367 H   0  0  0  0  0  0  0  0  0  0  0  0
  143.0328  139.0218  157.1152 H   0  0  0  0  0  0  0  0  0  0  0  0
  143.2364  138.7707  154.6106 H   0  0  0  0  0  0  0  0  0  0  0  0
  141.5211  139.0522  154.4274 H   0  0  0  0  0  0  0  0  0  0  0  0
  140.6092  141.3058  155.1673 H   0  0  0  0  0  0  0  0  0  0  0  0
  141.4682  141.2480  156.6962 H   0  0  0  0  0  0  0  0  0  0  0  0
  141.8267  143.3686  154.4962 H   0  0  0  0  0  0  0  0  0  0  0  0
  141.0658  143.6073  156.0570 H   0  0  0  0  0  0  0  0  0  0  0  0
  144.1726  142.9468  154.4278 H   0  0  0  0  0  0  0  0  0  0  0  0
  145.4724  144.2232  156.2341 H   0  0  0  0  0  0  0  0  0  0  0  0
  145.6458  142.6922  157.0695 H   0  0  0  0  0  0  0  0  0  0  0  0
  146.4741  143.1167  154.2906 H   0  0  0  0  0  0  0  0  0  0  0  0
  147.1130  140.9939  156.2112 H   0  0  0  0  0  0  0  0  0  0  0  0
  146.1106  140.8291  154.7796 H   0  0  0  0  0  0  0  0  0  0  0  0
  148.4732  140.0159  154.4042 H   0  0  0  0  0  0  0  0  0  0  0  0
  148.5841  140.9885  152.4334 H   0  0  0  0  0  0  0  0  0  0  0  0
  150.0459  142.1467  153.8660 H   0  0  0  0  0  0  0  0  0  0  0  0
  149.1455  142.8538  155.1810 H   0  0  0  0  0  0  0  0  0  0  0  0
  150.4545  139.2869  154.8301 H   0  0  0  0  0  0  0  0  0  0  0  0
  152.9206  140.0624  159.0333 H   0  0  0  0  0  0  0  0  0  0  0  0
  152.3887  142.5220  161.3736 H   0  0  0  0  0  0  0  0  0  0  0  0
  153.7704  143.1489  160.4615 H   0  0  0  0  0  0  0  0  0  0  0  0
  153.6463  141.4253  160.8046 H   0  0  0  0  0  0  0  0  0  0  0  0
  150.8102  145.2234  158.8486 H   0  0  0  0  0  0  0  0  0  0  0  0
  152.4617  144.9954  159.4226 H   0  0  0  0  0  0  0  0  0  0  0  0
  151.0954  144.4402  160.4007 H   0  0  0  0  0  0  0  0  0  0  0  0
  150.2415  143.7822  157.0697 H   0  0  0  0  0  0  0  0  0  0  0  0
  144.0089  140.8127  156.6245 H   0  0  0  0  0  0  0  0  0  0  0  0
  144.7693  140.6315  155.0543 H   0  0  0  0  0  0  0  0  0  0  0  0
  147.4768  143.2825  155.5796 H   0  0  0  0  0  0  0  0  0  0  0  0
  142.6579  141.0209  154.0367 H   0  0  0  0  0  0  0  0  0  0  0  0
  1  2  1  0  0  0  0
  1 26  1  0  0  0  0
  1 27  1  0  0  0  0
  1 28  1  0  0  0  0
  2  3  1  0  0  0  0
  2 29  1  0  0  0  0
  2 30  1  0  0  0  0
  3 25  1  0  0  0  0
  3  4  1  0  0  0  0
  3 57  1  0  0  0  0
  4  5  1  0  0  0  0
  4 31  1  0  0  0  0
  4 32  1  0  0  0  0
  5  6  1  0  0  0  0
  5 33  1  0  0  0  0
  5 34  1  0  0  0  0
  6  7  1  0  0  0  0
  7  8  1  0  0  0  0
  7 25  1  0  0  0  0
  7 35  1  0  0  0  0
  8  9  1  0  0  0  0
  8 36  1  0  0  0  0
  8 37  1  0  0  0  0
  9 10  1  0  0  0  0
  9 38  1  0  0  0  0
  9 56  1  0  0  0  0
 10 11  1  0  0  0  0
 10 39  1  0  0  0  0
 10 40  1  0  0  0  0
 11 12  1  0  0  0  0
 11 13  1  0  0  0  0
 11 41  1  0  0  0  0
 12 42  1  0  0  0  0
 13 14  1  0  0  0  0
 13 43  1  0  0  0  0
 13 44  1  0  0  0  0
 14 24  1  0  0  0  0
 14 15  1  0  0  0  0
 15 16  2  0  0  0  0
 15 45  1  0  0  0  0
 16 17  1  0  0  0  0
 17 24  2  0  0  0  0
 17 18  1  0  0  0  0
 18 19  2  0  0  0  0
 18 46  1  0  0  0  0
 19 20  1  0  0  0  0
 19 21  1  0  0  0  0
 20 47  1  0  0  0  0
 20 48  1  0  0  0  0
 20 49  1  0  0  0  0
 21 22  1  0  0  0  0
 21 23  2  0  0  0  0
 22 50  1  0  0  0  0
 22 51  1  0  0  0  0
 22 52  1  0  0  0  0
 23 24  1  0  0  0  0
 23 53  1  0  0  0  0
 25 54  1  0  0  0  0
 25 55  1  0  0  0  0
M  CHG  1   3   1
M  CHG  1   9   1
M  END
> <s_m_source_file>
AV-unprocessed.smi

> <i_m_source_file_index>
1047

> <i_lp_mmshare_version>
43012

> <i_f3d_flags>
0

> <s_epik_input>
W0NIM11bQ0gyXU4xW0NIMl1bQ0gyXU9bQ0BIXShbQ0gyXTEpW0NIMl1bTkhdW0NIMl1bQ0BIXShbT0hdKVtDSDJdbihbY0hdbjIpYyhjMjMpW2NIXWMoW0NIM10pYyhbY0hdMylbQ0gzXQ==

> <s_epik_cmdline>
J2VwaWtfcHl0aG9uJywgJy1waCcsICc3LjAnLCAnLXRuJywgJzgnLCAnLW1hJywgJzIwMCcsICctbWV0YWxfYmluZGluZycsICctaW1hZScsICc8aW5maWxlLm1hZT4nLCAnLW9tYWUnLCAnPG91dGZpbGUubWFlPic=

> <r_epik_Ionization_Penalty>
0.528991

> <r_epik_Ionization_Penalty_Charging>
0.438567

> <r_epik_Ionization_Penalty_Neutral>
0.0904237

> <r_epik_State_Penalty>
0.533036

> <r_epik_Charging_Adjusted_Penalty>
0.971603

> <i_epik_Tot_Q>
2

> <i_epik_Tot_abs_Q>
2

> <r_epik_Metal_State_Penalty>
0.448985

> <b_epik_Metal_Only>
0

> <s_lp_Force_Field>
OPLS_2005

> <r_lp_Energy>
29.0334

> <b_lp_Chiralities_Consistent>
1

> <s_lp_Variant>
AV-unprocessed.smi:1047-5

> <Gold.Version>
5.8.1

> <Gold.Id.Protein>
6NUR|6NUR_protein|mol2

> <Gold.PLP.Fitness>
55.6801

> <Gold.PLP.PLP>
-41.7610

> <Gold.PLP.part.hbond>
-3.3687

> <Gold.PLP.part.metal>
0.0000

> <Gold.PLP.part.buried>
-4.2459

> <Gold.PLP.part.nonpolar>
-33.9728

> <Gold.PLP.part.repulsive>
0.1428

> <Gold.PLP.ligand.clash>
0.0000

> <Gold.PLP.ligand.torsion>
0.7974

> <Gold.PLP.Chemscore.Hbond>
4.9840

> <Gold.PLP.Chemscore.CHOScore>
0.0000

> <Gold.PLP.Chemscore.Metal>
0.0000

> <Gold.Chemscore.Hbonds>
donor molecule, donor type, donor heavy atom, donor atom, acceptor molecule, acceptor atom, score
      L1  H     3    57       P1 10175  1.40
      L1  H     9    56       P1  8028  1.50
      L1  H    12    42       P1  7957  1.00

> <Gold.PLP.Chemscore.Internal.Correction>
0.5618

> <Gold.Rescore>
     Score         DG    S(hbond)    S(metal)    S(lipo)     H(rot)  DE(clash)    DE(int)     intcor
     18.06     -19.12       2.37        0.00     107.89       2.70       0.24       0.82       ----

> <Gold.Chemscore.Fitness>
18.0574

> <Gold.Chemscore.DG>
-19.1212

> <Gold.Chemscore.ZeroCoef>
-5.4800

> <Gold.Chemscore.Hbond>
2.3731

> <Gold.Chemscore.Metal>
0.0000

> <Gold.Chemscore.Lipo>
107.8894

> <Gold.Chemscore.Internal_Hbond>
0.0000

> <Gold.Chemscore.DEClash>
0.2405

> <Gold.Chemscore.DEInternal>
0.8234

> <Gold.Chemscore.Rot>
2.6985

> <Gold.Chemscore.Internal.Correction>
   9.000000E+99

> <Gold.Chemscore.Hbonds>
donor molecule, donor type, donor heavy atom, donor atom, acceptor molecule, acceptor atom, score
      L1  H     3    57       P1 10175  0.16
      L1  H     9    56       P1  8028  0.09
      L1  H    12    42       P1  7957  1.00

> <Gold.Chemscore.Hbond.Weighted>
-7.9263

> <Gold.Chemscore.Metal.Weighted>
-0.0000

> <Gold.Chemscore.Lipo.Weighted>
-12.6231

> <Gold.Chemscore.Internal_Hbond.Weighted>
0.0000

> <Gold.Chemscore.DEClash.Weighted>
0.2405

> <Gold.Chemscore.DEInternal.Weighted>
0.8234

> <Gold.Chemscore.Rot.Weighted>
6.9081

> <Gold.Chemscore.Internal.Correction.Weighted>
   9.000000E+99

> <Gold.Protein.RotatedTorsions>
[ 6907 6896 6895 6894 ] final   22.88 input  -60.11 | X-H torsion
[ 7974 7965 7964 7962 ] final -104.99 input  175.53 | X-H torsion
[ 8008 7997 7996 7995 ] final  149.72 input   59.86 | X-H torsion
[ 10167 10162 10161 10158 ] final -154.38 input  -65.29 | X-H torsion
[ 10718 10713 10712 10709 ] final  -17.67 input   66.30 | X-H torsion
[ 10763 10752 10751 10750 ] final  100.66 input  -60.55 | X-H torsion
[ 11005 11000 10999 10996 ] final -150.31 input  -57.11 | X-H torsion

> <Gold.Protein.ActiveResidues>
 VAL166  LYS551  ARG553  GLY616  TRP617  ASP618  TYR619  PRO620  LYS621  CYS622 
 ASP623  PHE694  ASN695  SER759  ASP760  ASP761  ALA762  ILE779  LEU786  VAL792 
 PHE793  MET794  SER795  GLU796  ALA797  LYS798  CYS799  TRP800  GLU811  SER814 

> <Gold.Protein.RotatedAtoms>
  151.9338  135.0244  160.0530 H   0  0  0  0  0  0  0  0  0  0  0  0  # atno 6907 bound_to 6896
  152.2095  133.4896  159.5110 H   0  0  0  0  0  0  0  0  0  0  0  0  # atno 6908 bound_to 6896
  150.6973  134.1402  159.4145 H   0  0  0  0  0  0  0  0  0  0  0  0  # atno 6909 bound_to 6896
  145.2362  140.9188  143.3176 H   0  0  0  0  0  0  0  0  0  0  0  0  # atno 7974 bound_to 7965
  156.2744  140.2094  156.5903 H   0  0  0  0  0  0  0  0  0  0  0  0  # atno 8008 bound_to 7997
  154.6988  140.0523  157.0460 H   0  0  0  0  0  0  0  0  0  0  0  0  # atno 8009 bound_to 7997
  155.0764  140.3182  155.4617 H   0  0  0  0  0  0  0  0  0  0  0  0  # atno 8010 bound_to 7997
  139.7018  143.9250  152.2432 H   0  0  0  0  0  0  0  0  0  0  0  0  # atno 10167 bound_to 10162
  156.5703  130.4748  149.6366 H   0  0  0  0  0  0  0  0  0  0  0  0  # atno 10718 bound_to 10713
  153.3167  135.4071  155.1382 H   0  0  0  0  0  0  0  0  0  0  0  0  # atno 10763 bound_to 10752
  154.8590  135.3577  154.5650 H   0  0  0  0  0  0  0  0  0  0  0  0  # atno 10764 bound_to 10752
  153.6082  135.7069  153.5416 H   0  0  0  0  0  0  0  0  0  0  0  0  # atno 10765 bound_to 10752
  140.7415  134.3509  157.5146 H   0  0  0  0  0  0  0  0  0  0  0  0  # atno 11005 bound_to 11000
  144.9631  139.3958  143.6346 LP  0  0  0  0  0  0  0  0  0  0  0  0  # atno 17320 bound_to 7965
  146.3340  139.8694  142.8842 LP  0  0  0  0  0  0  0  0  0  0  0  0  # atno 17321 bound_to 7965
  139.9095  144.6865  150.8578 LP  0  0  0  0  0  0  0  0  0  0  0  0  # atno 17342 bound_to 10162
  140.7711  143.3454  151.2122 LP  0  0  0  0  0  0  0  0  0  0  0  0  # atno 17343 bound_to 10162
  156.2720  130.7022  151.1823 LP  0  0  0  0  0  0  0  0  0  0  0  0  # atno 17370 bound_to 10713
  157.7349  131.0577  150.5496 LP  0  0  0  0  0  0  0  0  0  0  0  0  # atno 17371 bound_to 10713
  139.8805  134.9084  156.2966 LP  0  0  0  0  0  0  0  0  0  0  0  0  # atno 17394 bound_to 11000
  140.9832  133.7254  156.0703 LP  0  0  0  0  0  0  0  0  0  0  0  0  # atno 17395 bound_to 11000

$$$$
