AV-unprocessed.smi:27|AV-procd|sdf|187|dock7
  -GOLD-   2262015453D 1   1.00000     0.00000
 Structure written by MMmdl.
 53 56  0  0  0  0  0  0  0  0  1 V2000
  151.7270  136.3960  156.1046 O   0  0  0  0  0  0  0  0  0  0  0  0
  151.0932  136.7542  155.1131 C   0  0  0  0  0  0  0  0  0  0  0  0
  151.4987  138.0458  154.3776 C   0  0  0  0  0  0  0  0  0  0  0  0
  150.8758  139.2768  154.9217 N   0  0  0  0  0  0  0  0  0  0  0  0
  149.6350  139.7033  154.3880 C   0  0  0  0  0  0  0  0  0  0  0  0
  149.0603  139.0573  153.5109 O   0  0  0  0  0  0  0  0  0  0  0  0
  149.1115  140.9497  154.9335 C   0  0  0  0  0  0  0  0  0  0  0  0
  147.9282  141.4183  154.5021 F   0  0  0  0  0  0  0  0  0  0  0  0
  149.7980  141.6472  155.8623 C   0  0  0  0  0  0  0  0  0  0  0  0
  151.0212  141.2318  156.3614 N   0  0  0  0  0  0  0  0  0  0  0  0
  151.8400  142.0497  157.3401 C   0  0  2  0  0  0  0  0  0  0  0  0
  152.1116  141.3920  158.6957 C   0  0  0  0  0  0  0  0  0  0  0  0
  152.4245  142.6205  159.5179 C   0  0  0  0  0  0  0  0  0  0  0  0
  151.4007  143.6184  158.9770 C   0  0  0  0  0  0  0  0  0  0  0  0
  151.1324  143.2176  157.6338 O   0  0  0  0  0  0  0  0  0  0  0  0
  151.5787  140.0178  155.9020 C   0  0  0  0  0  0  0  0  0  0  0  0
  152.6650  139.6226  156.3314 O   0  0  0  0  0  0  0  0  0  0  0  0
  150.0454  136.0706  154.6264 N   0  0  0  0  0  0  0  0  0  0  0  0
  149.4921  134.8200  155.1352 C   0  0  0  0  0  0  0  0  0  0  0  0
  148.3446  134.3261  154.2595 C   0  0  0  0  0  0  0  0  0  0  0  0
  147.1009  135.0013  154.2254 C   0  0  0  0  0  0  0  0  0  0  0  0
  146.0561  134.5283  153.4086 C   0  0  0  0  0  0  0  0  0  0  0  0
  146.2421  133.3752  152.6231 C   0  0  0  0  0  0  0  0  0  0  0  0
  147.4728  132.6928  152.6584 C   0  0  0  0  0  0  0  0  0  0  0  0
  148.5189  133.1659  153.4743 C   0  0  0  0  0  0  0  0  0  0  0  0
  149.0554  134.9302  156.5921 C   0  0  0  0  0  0  0  0  0  0  0  0
  149.0590  136.1752  157.2628 C   0  0  0  0  0  0  0  0  0  0  0  0
  148.6479  136.2595  158.6071 C   0  0  0  0  0  0  0  0  0  0  0  0
  148.2259  135.1026  159.2895 C   0  0  0  0  0  0  0  0  0  0  0  0
  148.2124  133.8612  158.6256 C   0  0  0  0  0  0  0  0  0  0  0  0
  148.6246  133.7760  157.2815 C   0  0  0  0  0  0  0  0  0  0  0  0
  152.5874  138.1158  154.3866 H   0  0  0  0  0  0  0  0  0  0  0  0
  151.2531  137.9261  153.3213 H   0  0  0  0  0  0  0  0  0  0  0  0
  149.3370  142.5534  156.2185 H   0  0  0  0  0  0  0  0  0  0  0  0
  152.7685  142.2892  156.8170 H   0  0  0  0  0  0  0  0  0  0  0  0
  151.2118  140.9306  159.1016 H   0  0  0  0  0  0  0  0  0  0  0  0
  152.9218  140.6646  158.6405 H   0  0  0  0  0  0  0  0  0  0  0  0
  152.3331  142.4556  160.5918 H   0  0  0  0  0  0  0  0  0  0  0  0
  153.4381  142.9652  159.3085 H   0  0  0  0  0  0  0  0  0  0  0  0
  150.4728  143.5645  159.5469 H   0  0  0  0  0  0  0  0  0  0  0  0
  151.7650  144.6451  159.0191 H   0  0  0  0  0  0  0  0  0  0  0  0
  149.5945  136.4486  153.8063 H   0  0  0  0  0  0  0  0  0  0  0  0
  150.2794  134.0656  155.0779 H   0  0  0  0  0  0  0  0  0  0  0  0
  146.9338  135.8845  154.8247 H   0  0  0  0  0  0  0  0  0  0  0  0
  145.1109  135.0499  153.3867 H   0  0  0  0  0  0  0  0  0  0  0  0
  145.4406  133.0124  151.9968 H   0  0  0  0  0  0  0  0  0  0  0  0
  147.6150  131.8053  152.0593 H   0  0  0  0  0  0  0  0  0  0  0  0
  149.4591  132.6344  153.4947 H   0  0  0  0  0  0  0  0  0  0  0  0
  149.3736  137.0729  156.7509 H   0  0  0  0  0  0  0  0  0  0  0  0
  148.6553  137.2129  159.1144 H   0  0  0  0  0  0  0  0  0  0  0  0
  147.9107  135.1677  160.3204 H   0  0  0  0  0  0  0  0  0  0  0  0
  147.8852  132.9739  159.1472 H   0  0  0  0  0  0  0  0  0  0  0  0
  148.6099  132.8189  156.7807 H   0  0  0  0  0  0  0  0  0  0  0  0
  1  2  2  0  0  0  0
  2  3  1  0  0  0  0
  2 18  1  0  0  0  0
  3  4  1  0  0  0  0
  3 32  1  0  0  0  0
  3 33  1  0  0  0  0
  4 16  1  0  0  0  0
  4  5  1  0  0  0  0
  5  6  2  0  0  0  0
  5  7  1  0  0  0  0
  7  8  1  0  0  0  0
  7  9  2  0  0  0  0
  9 10  1  0  0  0  0
  9 34  1  0  0  0  0
 10 11  1  0  0  0  0
 10 16  1  0  0  0  0
 11 15  1  0  0  0  0
 11 12  1  0  0  0  0
 11 35  1  0  0  0  0
 12 13  1  0  0  0  0
 12 36  1  0  0  0  0
 12 37  1  0  0  0  0
 13 14  1  0  0  0  0
 13 38  1  0  0  0  0
 13 39  1  0  0  0  0
 14 15  1  0  0  0  0
 14 40  1  0  0  0  0
 14 41  1  0  0  0  0
 16 17  2  0  0  0  0
 18 19  1  0  0  0  0
 18 42  1  0  0  0  0
 19 20  1  0  0  0  0
 19 26  1  0  0  0  0
 19 43  1  0  0  0  0
 20 25  1  0  0  0  0
 20 21  2  0  0  0  0
 21 22  1  0  0  0  0
 21 44  1  0  0  0  0
 22 23  2  0  0  0  0
 22 45  1  0  0  0  0
 23 24  1  0  0  0  0
 23 46  1  0  0  0  0
 24 25  2  0  0  0  0
 24 47  1  0  0  0  0
 25 48  1  0  0  0  0
 26 31  1  0  0  0  0
 26 27  2  0  0  0  0
 27 28  1  0  0  0  0
 27 49  1  0  0  0  0
 28 29  2  0  0  0  0
 28 50  1  0  0  0  0
 29 30  1  0  0  0  0
 29 51  1  0  0  0  0
 30 31  2  0  0  0  0
 30 52  1  0  0  0  0
 31 53  1  0  0  0  0
M  END
> <s_m_source_file>
AV-unprocessed.smi

> <i_m_source_file_index>
27

> <i_lp_mmshare_version>
43012

> <i_f3d_flags>
0

> <s_epik_input>
W2NIXTFbY0hdW2NIXVtjSF1bY0hdYzFbQ0hdKGMyW2NIXVtjSF1bY0hdW2NIXVtjSF0yKVtOSF1DKD1PKVtDSDJdbjNjKD1PKWMoRilbY0hdbihjMz1PKVtDQEBIXTRbQ0gyXVtDSDJdW0NIMl1PNA==

> <s_epik_cmdline>
J2VwaWtfcHl0aG9uJywgJy1waCcsICc3LjAnLCAnLXRuJywgJzgnLCAnLW1hJywgJzIwMCcsICctbWV0YWxfYmluZGluZycsICctaW1hZScsICc8aW5maWxlLm1hZT4nLCAnLW9tYWUnLCAnPG91dGZpbGUubWFlPic=

> <r_lp_tautomer_probability>
1

> <r_epik_Ionization_Penalty>
5.29953e-08

> <r_epik_Ionization_Penalty_Charging>
3.6115e-09

> <r_epik_Ionization_Penalty_Neutral>
4.93838e-08

> <r_epik_State_Penalty>
-0

> <r_epik_Charging_Adjusted_Penalty>
3.6115e-09

> <i_epik_Tot_Q>
0

> <i_epik_Tot_abs_Q>
0

> <r_epik_Metal_State_Penalty>
-0

> <b_epik_Metal_Only>
0

> <s_epik_Chemistry_Notes>
This compound contains an acetal/aminal-like group ( X-CH(R)-Y where X, Y are N, S, or O) that may be acid/base labile, releasing an aldehyde.

> <s_lp_Force_Field>
OPLS_2005

> <r_lp_Energy>
32.38

> <b_lp_Chiralities_Consistent>
1

> <s_lp_Variant>
AV-unprocessed.smi:27-1

> <Gold.Version>
5.8.1

> <Gold.Id.Protein>
6NUR|6NUR_protein|mol2

> <Gold.PLP.Fitness>
57.7377

> <Gold.PLP.PLP>
-47.3572

> <Gold.PLP.part.hbond>
-3.0993

> <Gold.PLP.part.metal>
0.0000

> <Gold.PLP.part.buried>
-5.2810

> <Gold.PLP.part.nonpolar>
-42.4945

> <Gold.PLP.part.repulsive>
3.5946

> <Gold.PLP.ligand.clash>
0.0000

> <Gold.PLP.ligand.torsion>
0.9068

> <Gold.PLP.Chemscore.Hbond>
2.9760

> <Gold.PLP.Chemscore.CHOScore>
1.0000

> <Gold.PLP.Chemscore.Metal>
0.0000

> <Gold.Chemscore.Hbonds>
donor molecule, donor type, donor heavy atom, donor atom, acceptor molecule, acceptor atom, score
      L1  H    18    42       P1  7948  0.99
      P1  H  7997  8008       L1    17  1.00
      P1  H 10752 10764       L1     1  0.87
      L1  C     9    34       P1  8028  1.00

> <Gold.PLP.Chemscore.Internal.Correction>
0.2662

> <Gold.Rescore>
     Score         DG    S(hbond)    S(metal)    S(lipo)     H(rot)  DE(clash)    DE(int)     intcor
     17.65     -19.12       2.51        0.00      92.22       2.16       0.38       1.10       ----

> <Gold.Chemscore.Fitness>
17.6494

> <Gold.Chemscore.DG>
-19.1235

> <Gold.Chemscore.ZeroCoef>
-5.4800

> <Gold.Chemscore.Hbond>
2.5132

> <Gold.Chemscore.Metal>
0.0000

> <Gold.Chemscore.Lipo>
92.2208

> <Gold.Chemscore.Internal_Hbond>
0.0000

> <Gold.Chemscore.DEClash>
0.3761

> <Gold.Chemscore.DEInternal>
1.0980

> <Gold.Chemscore.Rot>
2.1642

> <Gold.Chemscore.Internal.Correction>
   9.000000E+99

> <Gold.Chemscore.Hbonds>
donor molecule, donor type, donor heavy atom, donor atom, acceptor molecule, acceptor atom, score
      L1  H    18    42       P1  7948  0.57
      P1  H  7997  8008       L1    17  1.00
      P1  H 10752 10764       L1     1  0.24

> <Gold.Chemscore.Hbond.Weighted>
-8.3941

> <Gold.Chemscore.Metal.Weighted>
-0.0000

> <Gold.Chemscore.Lipo.Weighted>
-10.7898

> <Gold.Chemscore.Internal_Hbond.Weighted>
0.0000

> <Gold.Chemscore.DEClash.Weighted>
0.3761

> <Gold.Chemscore.DEInternal.Weighted>
1.0980

> <Gold.Chemscore.Rot.Weighted>
5.5404

> <Gold.Chemscore.Internal.Correction.Weighted>
   9.000000E+99

> <Gold.Protein.RotatedTorsions>
[ 6907 6896 6895 6894 ] final -178.39 input  -60.11 | X-H torsion
[ 7974 7965 7964 7962 ] final  173.77 input  175.53 | X-H torsion
[ 8008 7997 7996 7995 ] final  -50.02 input   59.86 | X-H torsion
[ 10167 10162 10161 10158 ] final  -34.30 input  -65.29 | X-H torsion
[ 10718 10713 10712 10709 ] final -124.39 input   66.30 | X-H torsion
[ 10763 10752 10751 10750 ] final  -13.76 input  -60.55 | X-H torsion
[ 11005 11000 10999 10996 ] final -147.08 input  -57.11 | X-H torsion

> <Gold.Protein.ActiveResidues>
 VAL166  LYS551  ARG553  GLY616  TRP617  ASP618  TYR619  PRO620  LYS621  CYS622 
 ASP623  PHE694  ASN695  SER759  ASP760  ASP761  ALA762  ILE779  LEU786  VAL792 
 PHE793  MET794  SER795  GLU796  ALA797  LYS798  CYS799  TRP800  GLU811  SER814 

> <Gold.Protein.RotatedAtoms>
  151.6365  133.3328  159.3120 H   0  0  0  0  0  0  0  0  0  0  0  0  # atno 6907 bound_to 6896
  150.8029  134.7139  159.6629 H   0  0  0  0  0  0  0  0  0  0  0  0  # atno 6908 bound_to 6896
  152.4123  134.6107  160.0076 H   0  0  0  0  0  0  0  0  0  0  0  0  # atno 6909 bound_to 6896
  144.7236  139.9698  143.6437 H   0  0  0  0  0  0  0  0  0  0  0  0  # atno 7974 bound_to 7965
  154.4054  140.1282  156.4598 H   0  0  0  0  0  0  0  0  0  0  0  0  # atno 8008 bound_to 7997
  155.7284  140.3491  155.5028 H   0  0  0  0  0  0  0  0  0  0  0  0  # atno 8009 bound_to 7997
  155.9150  140.1042  157.1241 H   0  0  0  0  0  0  0  0  0  0  0  0  # atno 8010 bound_to 7997
  140.7188  143.3558  151.2063 H   0  0  0  0  0  0  0  0  0  0  0  0  # atno 10167 bound_to 10162
  156.1584  130.6584  151.0014 H   0  0  0  0  0  0  0  0  0  0  0  0  # atno 10718 bound_to 10713
  153.5182  135.7016  153.5745 H   0  0  0  0  0  0  0  0  0  0  0  0  # atno 10763 bound_to 10752
  153.3806  135.3921  155.1854 H   0  0  0  0  0  0  0  0  0  0  0  0  # atno 10764 bound_to 10752
  154.8697  135.3834  154.4668 H   0  0  0  0  0  0  0  0  0  0  0  0  # atno 10765 bound_to 10752
  140.7754  134.3141  157.5062 H   0  0  0  0  0  0  0  0  0  0  0  0  # atno 11005 bound_to 11000
  146.0572  139.3568  143.0603 LP  0  0  0  0  0  0  0  0  0  0  0  0  # atno 17320 bound_to 7965
  145.8139  140.9712  143.0934 LP  0  0  0  0  0  0  0  0  0  0  0  0  # atno 17321 bound_to 7965
  139.7098  143.9395  152.2943 LP  0  0  0  0  0  0  0  0  0  0  0  0  # atno 17342 bound_to 10162
  139.9116  144.6853  150.8556 LP  0  0  0  0  0  0  0  0  0  0  0  0  # atno 17343 bound_to 10162
  157.6713  131.0861  150.7605 LP  0  0  0  0  0  0  0  0  0  0  0  0  # atno 17370 bound_to 10713
  156.7669  130.4816  149.5426 LP  0  0  0  0  0  0  0  0  0  0  0  0  # atno 17371 bound_to 10713
  139.8750  134.9286  156.3455 LP  0  0  0  0  0  0  0  0  0  0  0  0  # atno 17394 bound_to 11000
  140.9534  133.7436  156.0302 LP  0  0  0  0  0  0  0  0  0  0  0  0  # atno 17395 bound_to 11000

$$$$
