AV-unprocessed.smi:1366|AV-procd|sdf|5571|dock3
  -GOLD-   22720 5163D 1   1.00000     0.00000
 Structure written by MMmdl.
 31 32  0  0  0  0  0  0  0  0  1 V2000
  150.1839  134.9239  154.6512 N   0  0  0  0  0  0  0  0  0  0  0  0
  150.4116  136.0225  154.9343 C   0  0  0  0  0  0  0  0  0  0  0  0
  150.6983  137.4053  155.2905 C   0  0  0  0  0  0  0  0  0  0  0  0
  151.2650  137.7172  156.5455 C   0  0  0  0  0  0  0  0  0  0  0  0
  151.5414  138.9882  156.9089 N   0  0  0  0  0  0  0  0  0  0  0  0
  151.2464  139.9370  156.0169 C   0  0  0  0  0  0  0  0  0  0  0  0
  151.5997  141.6204  156.4764 S   0  0  0  0  0  0  0  0  0  0  0  0
  151.5026  141.5417  158.2922 C   0  0  0  0  0  0  0  0  0  0  0  0
  152.0514  142.8091  158.9693 C   0  0  1  0  0  0  0  0  0  0  0  0
  151.6691  144.0864  158.1975 C   0  0  0  0  0  0  0  0  0  0  0  0
  152.1714  145.3316  158.9376 C   0  0  0  0  0  0  0  0  0  0  0  0
  151.6826  145.3027  160.3897 C   0  0  0  0  0  0  0  0  0  0  0  0
  152.0505  143.9655  161.0520 C   0  0  0  0  0  0  0  0  0  0  0  0
  151.5193  142.8855  160.2904 O   0  0  0  0  0  0  0  0  0  0  0  0
  150.7191  139.7697  154.8027 N   0  0  0  0  0  0  0  0  0  0  0  0
  150.4382  138.5021  154.4298 C   0  0  0  0  0  0  0  0  0  0  0  0
  149.8816  138.3434  153.1593 N   0  0  0  0  0  0  0  0  0  0  0  0
  151.4987  136.9467  157.2660 H   0  0  0  0  0  0  0  0  0  0  0  0
  150.4679  141.3676  158.5880 H   0  0  0  0  0  0  0  0  0  0  0  0
  152.0696  140.6710  158.6223 H   0  0  0  0  0  0  0  0  0  0  0  0
  153.1390  142.7443  159.0274 H   0  0  0  0  0  0  0  0  0  0  0  0
  152.0856  144.0590  157.1902 H   0  0  0  0  0  0  0  0  0  0  0  0
  150.5852  144.1402  158.0871 H   0  0  0  0  0  0  0  0  0  0  0  0
  153.2617  145.3559  158.9176 H   0  0  0  0  0  0  0  0  0  0  0  0
  151.8273  146.2374  158.4378 H   0  0  0  0  0  0  0  0  0  0  0  0
  152.1126  146.1334  160.9499 H   0  0  0  0  0  0  0  0  0  0  0  0
  150.6001  145.4344  160.4147 H   0  0  0  0  0  0  0  0  0  0  0  0
  153.1326  143.8606  161.1456 H   0  0  0  0  0  0  0  0  0  0  0  0
  151.6388  143.9213  162.0605 H   0  0  0  0  0  0  0  0  0  0  0  0
  149.6389  137.4323  152.7974 H   0  0  0  0  0  0  0  0  0  0  0  0
  149.7182  139.1358  152.5551 H   0  0  0  0  0  0  0  0  0  0  0  0
  1  2  3  0  0  0  0
  2  3  1  0  0  0  0
  3 16  1  0  0  0  0
  3  4  2  0  0  0  0
  4  5  1  0  0  0  0
  4 18  1  0  0  0  0
  5  6  2  0  0  0  0
  6  7  1  0  0  0  0
  6 15  1  0  0  0  0
  7  8  1  0  0  0  0
  8  9  1  0  0  0  0
  8 19  1  0  0  0  0
  8 20  1  0  0  0  0
  9 14  1  0  0  0  0
  9 10  1  0  0  0  0
  9 21  1  0  0  0  0
 10 11  1  0  0  0  0
 10 22  1  0  0  0  0
 10 23  1  0  0  0  0
 11 12  1  0  0  0  0
 11 24  1  0  0  0  0
 11 25  1  0  0  0  0
 12 13  1  0  0  0  0
 12 26  1  0  0  0  0
 12 27  1  0  0  0  0
 13 14  1  0  0  0  0
 13 28  1  0  0  0  0
 13 29  1  0  0  0  0
 15 16  2  0  0  0  0
 16 17  1  0  0  0  0
 17 30  1  0  0  0  0
 17 31  1  0  0  0  0
M  END
> <s_m_source_file>
AV-unprocessed.smi

> <i_m_source_file_index>
1366

> <i_lp_mmshare_version>
43012

> <i_f3d_flags>
0

> <s_epik_input>
TiNDYzFbY0hdbmMobmMxW05IMl0pU1tDSDJdW0NAQEhdMltDSDJdW0NIMl1bQ0gyXVtDSDJdTzI=

> <s_epik_cmdline>
J2VwaWtfcHl0aG9uJywgJy1waCcsICc3LjAnLCAnLXRuJywgJzgnLCAnLW1hJywgJzIwMCcsICctbWV0YWxfYmluZGluZycsICctaW1hZScsICc8aW5maWxlLm1hZT4nLCAnLW9tYWUnLCAnPG91dGZpbGUubWFlPic=

> <r_lp_tautomer_probability>
1

> <r_epik_Ionization_Penalty>
5.69531e-05

> <r_epik_Ionization_Penalty_Charging>
0

> <r_epik_Ionization_Penalty_Neutral>
5.69531e-05

> <r_epik_State_Penalty>
-0

> <r_epik_Charging_Adjusted_Penalty>
0

> <i_epik_Tot_Q>
0

> <i_epik_Tot_abs_Q>
0

> <r_epik_Metal_State_Penalty>
-0

> <b_epik_Metal_Only>
0

> <s_lp_Force_Field>
OPLS_2005

> <r_lp_Energy>
5.10679

> <b_lp_Chiralities_Consistent>
1

> <s_lp_Variant>
AV-unprocessed.smi:1366-2

> <Gold.Version>
5.8.1

> <Gold.Id.Protein>
6NUR|6NUR_protein|mol2

> <Gold.PLP.Fitness>
43.3176

> <Gold.PLP.PLP>
-35.5088

> <Gold.PLP.part.hbond>
-3.9324

> <Gold.PLP.part.metal>
0.0000

> <Gold.PLP.part.buried>
-6.2293

> <Gold.PLP.part.nonpolar>
-26.5515

> <Gold.PLP.part.repulsive>
0.3719

> <Gold.PLP.ligand.clash>
0.0000

> <Gold.PLP.ligand.torsion>
0.5970

> <Gold.PLP.Chemscore.Hbond>
3.0000

> <Gold.PLP.Chemscore.CHOScore>
0.0000

> <Gold.PLP.Chemscore.Metal>
0.0000

> <Gold.Chemscore.Hbonds>
donor molecule, donor type, donor heavy atom, donor atom, acceptor molecule, acceptor atom, score
      L1  H    17    30       P1  7948  1.00
      L1  H    17    31       P1  7957  1.00
      P1  H  7989  7998       L1    15  1.00

> <Gold.PLP.Chemscore.Internal.Correction>
0.0029

> <Gold.Rescore>
     Score         DG    S(hbond)    S(metal)    S(lipo)     H(rot)  DE(clash)    DE(int)     intcor
     18.49     -20.19       2.75        0.00      85.00       1.73       1.24       0.46       ----

> <Gold.Chemscore.Fitness>
18.4857

> <Gold.Chemscore.DG>
-20.1890

> <Gold.Chemscore.ZeroCoef>
-5.4800

> <Gold.Chemscore.Hbond>
2.7495

> <Gold.Chemscore.Metal>
0.0000

> <Gold.Chemscore.Lipo>
85.0049

> <Gold.Chemscore.Internal_Hbond>
0.0000

> <Gold.Chemscore.DEClash>
1.2390

> <Gold.Chemscore.DEInternal>
0.4643

> <Gold.Chemscore.Rot>
1.7266

> <Gold.Chemscore.Internal.Correction>
   9.000000E+99

> <Gold.Chemscore.Hbonds>
donor molecule, donor type, donor heavy atom, donor atom, acceptor molecule, acceptor atom, score
      L1  H    17    30       P1  7948  0.55
      L1  H    17    31       P1  7957  0.90
      P1  H  7989  7998       L1    15  0.72

> <Gold.Chemscore.Hbond.Weighted>
-9.1834

> <Gold.Chemscore.Metal.Weighted>
-0.0000

> <Gold.Chemscore.Lipo.Weighted>
-9.9456

> <Gold.Chemscore.Internal_Hbond.Weighted>
0.0000

> <Gold.Chemscore.DEClash.Weighted>
1.2390

> <Gold.Chemscore.DEInternal.Weighted>
0.4643

> <Gold.Chemscore.Rot.Weighted>
4.4200

> <Gold.Chemscore.Internal.Correction.Weighted>
   9.000000E+99

> <Gold.Protein.RotatedTorsions>
[ 6907 6896 6895 6894 ] final  -11.86 input  -60.11 | X-H torsion
[ 7974 7965 7964 7962 ] final -104.74 input  175.53 | X-H torsion
[ 8008 7997 7996 7995 ] final  141.15 input   59.86 | X-H torsion
[ 10167 10162 10161 10158 ] final  123.24 input  -65.29 | X-H torsion
[ 10718 10713 10712 10709 ] final    8.47 input   66.30 | X-H torsion
[ 10763 10752 10751 10750 ] final   12.67 input  -60.55 | X-H torsion
[ 11005 11000 10999 10996 ] final -145.50 input  -57.11 | X-H torsion

> <Gold.Protein.ActiveResidues>
 VAL166  LYS551  ARG553  GLY616  TRP617  ASP618  TYR619  PRO620  LYS621  CYS622 
 ASP623  PHE694  ASN695  SER759  ASP760  ASP761  ALA762  ILE779  LEU786  VAL792 
 PHE793  MET794  SER795  GLU796  ALA797  LYS798  CYS799  TRP800  GLU811  SER814 

> <Gold.Protein.RotatedAtoms>
  151.3796  135.0937  159.9491 H   0  0  0  0  0  0  0  0  0  0  0  0  # atno 6907 bound_to 6896
  152.5112  133.9085  159.7486 H   0  0  0  0  0  0  0  0  0  0  0  0  # atno 6908 bound_to 6896
  150.9516  133.6488  159.2800 H   0  0  0  0  0  0  0  0  0  0  0  0  # atno 6909 bound_to 6896
  145.2393  140.9199  143.3159 H   0  0  0  0  0  0  0  0  0  0  0  0  # atno 7974 bound_to 7965
  156.2970  140.2322  156.4518 H   0  0  0  0  0  0  0  0  0  0  0  0  # atno 8008 bound_to 7997
  154.8095  140.0444  157.1353 H   0  0  0  0  0  0  0  0  0  0  0  0  # atno 8009 bound_to 7997
  154.9440  140.3033  155.5110 H   0  0  0  0  0  0  0  0  0  0  0  0  # atno 8010 bound_to 7997
  139.5811  144.6986  151.3526 H   0  0  0  0  0  0  0  0  0  0  0  0  # atno 10167 bound_to 10162
  156.9521  130.5901  149.5657 H   0  0  0  0  0  0  0  0  0  0  0  0  # atno 10718 bound_to 10713
  153.1798  135.6826  153.8493 H   0  0  0  0  0  0  0  0  0  0  0  0  # atno 10763 bound_to 10752
  153.7828  135.3180  155.3369 H   0  0  0  0  0  0  0  0  0  0  0  0  # atno 10764 bound_to 10752
  154.8052  135.4753  154.0470 H   0  0  0  0  0  0  0  0  0  0  0  0  # atno 10765 bound_to 10752
  140.7916  134.2961  157.5011 H   0  0  0  0  0  0  0  0  0  0  0  0  # atno 11005 bound_to 11000
  144.9604  139.3986  143.6358 LP  0  0  0  0  0  0  0  0  0  0  0  0  # atno 17320 bound_to 7965
  146.3333  139.8655  142.8849 LP  0  0  0  0  0  0  0  0  0  0  0  0  # atno 17321 bound_to 7965
  140.7089  143.7441  150.7531 LP  0  0  0  0  0  0  0  0  0  0  0  0  # atno 17342 bound_to 10162
  140.0974  143.4820  152.2444 LP  0  0  0  0  0  0  0  0  0  0  0  0  # atno 17343 bound_to 10162
  156.0358  130.5446  150.8650 LP  0  0  0  0  0  0  0  0  0  0  0  0  # atno 17370 bound_to 10713
  157.5715  131.0946  150.9410 LP  0  0  0  0  0  0  0  0  0  0  0  0  # atno 17371 bound_to 10713
  139.8730  134.9378  156.3697 LP  0  0  0  0  0  0  0  0  0  0  0  0  # atno 17394 bound_to 11000
  140.9384  133.7531  156.0114 LP  0  0  0  0  0  0  0  0  0  0  0  0  # atno 17395 bound_to 11000

$$$$
