AV-unprocessed.smi:3249|AV-procd|sdf|12424|dock10
  -GOLD-   2272018313D 1   1.00000     0.00000
 Structure written by MMmdl.
 44 45  0  0  0  0  0  0  0  0  2 V2000
  145.9530  137.8530  151.2045 C   0  0  0  0  0  0  0  0  0  0  0  0
  146.3468  138.5869  152.4538 C   0  0  0  0  0  0  0  0  0  0  0  0
  146.0325  138.2517  153.8013 C   0  0  0  0  0  0  0  0  0  0  0  0
  146.5337  139.1102  154.6741 N   0  0  0  0  0  0  0  0  0  0  0  0
  147.1870  140.0213  153.9190 N   0  0  0  0  0  0  0  0  0  0  0  0
  147.8717  141.1424  154.5504 C   0  0  1  0  0  0  0  0  0  0  0  0
  146.8539  142.0257  155.2973 C   0  0  0  0  0  0  0  0  0  0  0  0
  149.0458  140.6767  155.4537 C   0  0  1  0  0  0  0  0  0  0  0  0
  150.0352  139.7478  154.7270 C   0  0  0  0  0  0  0  0  0  0  0  0
  149.7875  141.8447  155.9798 N   0  3  0  0  0  0  0  0  0  0  0  0
  149.8353  141.9390  157.4535 C   0  0  0  0  0  0  0  0  0  0  0  0
  151.2481  142.2915  157.9387 C   0  0  1  0  0  0  0  0  0  0  0  0
  151.5858  143.7747  157.6921 C   0  0  0  0  0  0  0  0  0  0  0  0
  152.9646  144.1169  158.2680 C   0  0  0  0  0  0  0  0  0  0  0  0
  153.0283  143.6957  159.7400 C   0  0  0  0  0  0  0  0  0  0  0  0
  152.6116  142.2244  159.8929 C   0  0  0  0  0  0  0  0  0  0  0  0
  151.3140  142.0267  159.3388 O   0  0  0  0  0  0  0  0  0  0  0  0
  147.0870  139.7288  152.5745 C   0  0  0  0  0  0  0  0  0  0  0  0
  145.1648  137.1238  151.3938 H   0  0  0  0  0  0  0  0  0  0  0  0
  146.7956  137.3111  150.7751 H   0  0  0  0  0  0  0  0  0  0  0  0
  145.5824  138.5330  150.4373 H   0  0  0  0  0  0  0  0  0  0  0  0
  145.4574  137.4147  154.1688 H   0  0  0  0  0  0  0  0  0  0  0  0
  148.2921  141.7424  153.7418 H   0  0  0  0  0  0  0  0  0  0  0  0
  147.3099  142.9490  155.6543 H   0  0  0  0  0  0  0  0  0  0  0  0
  146.4316  141.5087  156.1596 H   0  0  0  0  0  0  0  0  0  0  0  0
  146.0280  142.3080  154.6433 H   0  0  0  0  0  0  0  0  0  0  0  0
  148.6348  140.1103  156.2915 H   0  0  0  0  0  0  0  0  0  0  0  0
  149.5614  138.8189  154.4091 H   0  0  0  0  0  0  0  0  0  0  0  0
  150.8648  139.4736  155.3795 H   0  0  0  0  0  0  0  0  0  0  0  0
  150.4534  140.2283  153.8418 H   0  0  0  0  0  0  0  0  0  0  0  0
  150.7384  141.7944  155.6424 H   0  0  0  0  0  0  0  0  0  0  0  0
  149.1331  142.7072  157.7797 H   0  0  0  0  0  0  0  0  0  0  0  0
  149.5071  140.9956  157.8923 H   0  0  0  0  0  0  0  0  0  0  0  0
  151.9717  141.6642  157.4146 H   0  0  0  0  0  0  0  0  0  0  0  0
  151.5640  143.9970  156.6247 H   0  0  0  0  0  0  0  0  0  0  0  0
  150.8295  144.4076  158.1586 H   0  0  0  0  0  0  0  0  0  0  0  0
  153.7387  143.5963  157.7027 H   0  0  0  0  0  0  0  0  0  0  0  0
  153.1657  145.1838  158.1680 H   0  0  0  0  0  0  0  0  0  0  0  0
  154.0339  143.8475  160.1333 H   0  0  0  0  0  0  0  0  0  0  0  0
  152.3625  144.3262  160.3308 H   0  0  0  0  0  0  0  0  0  0  0  0
  153.3308  141.5629  159.4072 H   0  0  0  0  0  0  0  0  0  0  0  0
  152.5896  141.9495  160.9475 H   0  0  0  0  0  0  0  0  0  0  0  0
  147.5464  140.3510  151.8206 H   0  0  0  0  0  0  0  0  0  0  0  0
  149.3629  142.6844  155.6132 H   0  0  0  0  0  0  0  0  0  0  0  0
  1  2  1  0  0  0  0
  1 19  1  0  0  0  0
  1 20  1  0  0  0  0
  1 21  1  0  0  0  0
  2 18  2  0  0  0  0
  2  3  1  0  0  0  0
  3  4  2  0  0  0  0
  3 22  1  0  0  0  0
  4  5  1  0  0  0  0
  5  6  1  0  0  0  0
  5 18  1  0  0  0  0
  6  7  1  0  0  0  0
  6  8  1  0  0  0  0
  6 23  1  0  0  0  0
  7 24  1  0  0  0  0
  7 25  1  0  0  0  0
  7 26  1  0  0  0  0
  8  9  1  0  0  0  0
  8 10  1  0  0  0  0
  8 27  1  0  0  0  0
  9 28  1  0  0  0  0
  9 29  1  0  0  0  0
  9 30  1  0  0  0  0
 10 11  1  0  0  0  0
 10 31  1  0  0  0  0
 10 44  1  0  0  0  0
 11 12  1  0  0  0  0
 11 32  1  0  0  0  0
 11 33  1  0  0  0  0
 12 17  1  0  0  0  0
 12 13  1  0  0  0  0
 12 34  1  0  0  0  0
 13 14  1  0  0  0  0
 13 35  1  0  0  0  0
 13 36  1  0  0  0  0
 14 15  1  0  0  0  0
 14 37  1  0  0  0  0
 14 38  1  0  0  0  0
 15 16  1  0  0  0  0
 15 39  1  0  0  0  0
 15 40  1  0  0  0  0
 16 17  1  0  0  0  0
 16 41  1  0  0  0  0
 16 42  1  0  0  0  0
 18 43  1  0  0  0  0
M  CHG  1  10   1
M  END
> <s_m_source_file>
AV-unprocessed.smi

> <i_m_source_file_index>
3249

> <i_lp_mmshare_version>
43012

> <i_f3d_flags>
0

> <s_epik_input>
W0NIM11jMVtjSF1ubihbY0hdMSlbQ0BIXShbQ0gzXSlbQ0BIXShbQ0gzXSlbTkhdW0NIMl1bQ0BASF0yW0NIMl1bQ0gyXVtDSDJdW0NIMl1PMg==

> <s_epik_cmdline>
J2VwaWtfcHl0aG9uJywgJy1waCcsICc3LjAnLCAnLXRuJywgJzgnLCAnLW1hJywgJzIwMCcsICctbWV0YWxfYmluZGluZycsICctaW1hZScsICc8aW5maWxlLm1hZT4nLCAnLW9tYWUnLCAnPG91dGZpbGUubWFlPic=

> <r_lp_tautomer_probability>
1

> <r_epik_Ionization_Penalty>
0.00659207

> <r_epik_Ionization_Penalty_Charging>
0.00656881

> <r_epik_Ionization_Penalty_Neutral>
2.32662e-05

> <r_epik_State_Penalty>
0.0048654

> <r_epik_Charging_Adjusted_Penalty>
0.0114342

> <i_epik_Tot_Q>
1

> <i_epik_Tot_abs_Q>
1

> <r_epik_Metal_State_Penalty>
-0

> <b_epik_Metal_Only>
0

> <s_lp_Force_Field>
OPLS_2005

> <r_lp_Energy>
18.7987

> <b_lp_Chiralities_Consistent>
1

> <s_lp_Variant>
AV-unprocessed.smi:3249-8

> <Gold.Version>
5.8.1

> <Gold.Id.Protein>
6NUR|6NUR_protein|mol2

> <Gold.PLP.Fitness>
43.7716

> <Gold.PLP.PLP>
-37.8800

> <Gold.PLP.part.hbond>
-1.4005

> <Gold.PLP.part.metal>
0.0000

> <Gold.PLP.part.buried>
3.6967

> <Gold.PLP.part.nonpolar>
-41.3389

> <Gold.PLP.part.repulsive>
0.2222

> <Gold.PLP.ligand.clash>
0.0000

> <Gold.PLP.ligand.torsion>
1.2088

> <Gold.PLP.Chemscore.Hbond>
2.0000

> <Gold.PLP.Chemscore.CHOScore>
0.7400

> <Gold.PLP.Chemscore.Metal>
0.0000

> <Gold.Chemscore.Hbonds>
donor molecule, donor type, donor heavy atom, donor atom, acceptor molecule, acceptor atom, score
      L1  H    10    44       P1  8028  1.72
      L1  C    18    43       P1  7957  0.86

> <Gold.PLP.Chemscore.Internal.Correction>
0.0893

> <Gold.Rescore>
     Score         DG    S(hbond)    S(metal)    S(lipo)     H(rot)  DE(clash)    DE(int)     intcor
     16.26     -17.90       0.91        0.00     113.77       1.53       0.22       1.43       ----

> <Gold.Chemscore.Fitness>
16.2557

> <Gold.Chemscore.DG>
-17.9034

> <Gold.Chemscore.ZeroCoef>
-5.4800

> <Gold.Chemscore.Hbond>
0.9093

> <Gold.Chemscore.Metal>
0.0000

> <Gold.Chemscore.Lipo>
113.7749

> <Gold.Chemscore.Internal_Hbond>
0.0000

> <Gold.Chemscore.DEClash>
0.2220

> <Gold.Chemscore.DEInternal>
1.4257

> <Gold.Chemscore.Rot>
1.5333

> <Gold.Chemscore.Internal.Correction>
   9.000000E+99

> <Gold.Chemscore.Hbonds>
donor molecule, donor type, donor heavy atom, donor atom, acceptor molecule, acceptor atom, score
      L1  H    10    44       P1  8028  0.82

> <Gold.Chemscore.Hbond.Weighted>
-3.0369

> <Gold.Chemscore.Metal.Weighted>
-0.0000

> <Gold.Chemscore.Lipo.Weighted>
-13.3117

> <Gold.Chemscore.Internal_Hbond.Weighted>
0.0000

> <Gold.Chemscore.DEClash.Weighted>
0.2220

> <Gold.Chemscore.DEInternal.Weighted>
1.4257

> <Gold.Chemscore.Rot.Weighted>
3.9252

> <Gold.Chemscore.Internal.Correction.Weighted>
   9.000000E+99

> <Gold.Protein.RotatedTorsions>
[ 6907 6896 6895 6894 ] final -175.26 input  -60.11 | X-H torsion
[ 7974 7965 7964 7962 ] final  -40.80 input  175.53 | X-H torsion
[ 8008 7997 7996 7995 ] final   23.67 input   59.86 | X-H torsion
[ 10167 10162 10161 10158 ] final   96.38 input  -65.29 | X-H torsion
[ 10718 10713 10712 10709 ] final -178.35 input   66.30 | X-H torsion
[ 10763 10752 10751 10750 ] final  -71.94 input  -60.55 | X-H torsion
[ 11005 11000 10999 10996 ] final   -1.42 input  -57.11 | X-H torsion

> <Gold.Protein.ActiveResidues>
 VAL166  LYS551  ARG553  GLY616  TRP617  ASP618  TYR619  PRO620  LYS621  CYS622 
 ASP623  PHE694  ASN695  SER759  ASP760  ASP761  ALA762  ILE779  LEU786  VAL792 
 PHE793  MET794  SER795  GLU796  ALA797  LYS798  CYS799  TRP800  GLU811  SER814 

> <Gold.Protein.RotatedAtoms>
  151.5857  133.3372  159.3017 H   0  0  0  0  0  0  0  0  0  0  0  0  # atno 6907 bound_to 6896
  150.8288  134.7535  159.6847 H   0  0  0  0  0  0  0  0  0  0  0  0  # atno 6908 bound_to 6896
  152.4374  134.5664  159.9960 H   0  0  0  0  0  0  0  0  0  0  0  0  # atno 6909 bound_to 6896
  146.0271  140.6778  142.9150 H   0  0  0  0  0  0  0  0  0  0  0  0  # atno 7974 bound_to 7965
  154.9845  140.3106  155.4932 H   0  0  0  0  0  0  0  0  0  0  0  0  # atno 8008 bound_to 7997
  156.2949  140.2260  156.4886 H   0  0  0  0  0  0  0  0  0  0  0  0  # atno 8009 bound_to 7997
  154.7759  140.0449  157.1077 H   0  0  0  0  0  0  0  0  0  0  0  0  # atno 8010 bound_to 7997
  139.7900  144.6856  150.9905 H   0  0  0  0  0  0  0  0  0  0  0  0  # atno 10167 bound_to 10162
  156.8430  130.9693  151.3098 H   0  0  0  0  0  0  0  0  0  0  0  0  # atno 10718 bound_to 10713
  154.4388  135.5946  153.6116 H   0  0  0  0  0  0  0  0  0  0  0  0  # atno 10763 bound_to 10752
  152.9804  135.5993  154.3748 H   0  0  0  0  0  0  0  0  0  0  0  0  # atno 10764 bound_to 10752
  154.3595  135.2841  155.2306 H   0  0  0  0  0  0  0  0  0  0  0  0  # atno 10765 bound_to 10752
  140.6471  133.9437  155.8359 H   0  0  0  0  0  0  0  0  0  0  0  0  # atno 11005 bound_to 11000
  144.7014  140.3669  143.7153 LP  0  0  0  0  0  0  0  0  0  0  0  0  # atno 17320 bound_to 7965
  145.7100  139.1682  143.2544 LP  0  0  0  0  0  0  0  0  0  0  0  0  # atno 17321 bound_to 7965
  140.7820  143.4391  151.0579 LP  0  0  0  0  0  0  0  0  0  0  0  0  # atno 17342 bound_to 10162
  139.8068  143.8006  152.3168 LP  0  0  0  0  0  0  0  0  0  0  0  0  # atno 17343 bound_to 10162
  157.6345  130.8756  149.9334 LP  0  0  0  0  0  0  0  0  0  0  0  0  # atno 17370 bound_to 10713
  156.0870  130.3667  150.0468 LP  0  0  0  0  0  0  0  0  0  0  0  0  # atno 17371 bound_to 10713
  141.0564  134.0410  157.3717 LP  0  0  0  0  0  0  0  0  0  0  0  0  # atno 17394 bound_to 11000
  139.9059  135.0179  156.7482 LP  0  0  0  0  0  0  0  0  0  0  0  0  # atno 17395 bound_to 11000

$$$$
