AV-unprocessed.smi:221|AV-procd|sdf|1698|dock7
  -GOLD-   2262020153D 1   1.00000     0.00000
 Structure written by MMmdl.
 50 53  0  0  0  0  0  0  0  0  1 V2000
  151.3959  137.2766  153.8229 N   0  0  0  0  0  0  0  0  0  0  0  0
  151.0001  138.1170  154.7816 C   0  0  0  0  0  0  0  0  0  0  0  0
  151.5948  138.2119  155.8541 O   0  0  0  0  0  0  0  0  0  0  0  0
  149.7696  138.9836  154.4766 C   0  0  2  0  0  0  0  0  0  0  0  0
  150.0455  140.4747  154.7114 C   0  0  0  0  0  0  0  0  0  0  0  0
  148.6539  141.0476  154.9545 C   0  0  1  0  0  0  0  0  0  0  0  0
  148.0456  141.2552  153.7855 F   0  0  0  0  0  0  0  0  0  0  0  0
  147.9414  139.9233  155.7083 C   0  0  0  0  0  0  0  0  0  0  0  0
  148.6465  138.6889  155.3701 N   0  0  0  0  0  0  0  0  0  0  0  0
  147.8690  137.6439  155.0076 C   0  0  0  0  0  0  0  0  0  0  0  0
  147.8693  136.5056  155.7504 N   0  0  0  0  0  0  0  0  0  0  0  0
  147.0934  135.4775  155.3932 C   0  0  0  0  0  0  0  0  0  0  0  0
  146.2615  135.3809  154.3534 N   0  0  0  0  0  0  0  0  0  0  0  0
  146.2629  136.5238  153.6083 C   0  0  0  0  0  0  0  0  0  0  0  0
  147.0305  137.6935  153.8643 C   0  0  0  0  0  0  0  0  0  0  0  0
  146.7737  138.6562  152.8966 N   0  0  0  0  0  0  0  0  0  0  0  0
  145.9018  138.0868  152.1096 C   0  0  0  0  0  0  0  0  0  0  0  0
  145.5459  136.8031  152.4580 N   0  0  0  0  0  0  0  0  0  0  0  0
  144.6094  135.9432  151.7555 C   0  0  0  0  0  0  0  0  0  0  0  0
  144.1077  134.7570  152.6162 C   0  0  1  0  0  0  0  0  0  0  0  0
  142.5889  134.8290  152.9096 C   0  0  0  0  0  0  0  0  0  0  0  0
  142.3169  134.6205  154.2804 O   0  0  0  0  0  0  0  0  0  0  0  0
  144.5207  133.3931  152.0074 C   0  0  1  0  0  0  0  0  0  0  0  0
  143.7843  133.0098  150.7359 C   0  0  0  0  0  0  0  0  0  0  0  0
  144.6913  131.9298  150.1579 C   0  0  0  0  0  0  0  0  0  0  0  0
  146.0139  132.3164  150.5123 O   0  0  0  0  0  0  0  0  0  0  0  0
  145.9733  133.3203  151.5226 C   0  0  0  0  0  0  0  0  0  0  0  0
  149.4690  138.8369  153.4368 H   0  0  0  0  0  0  0  0  0  0  0  0
  148.6610  141.9944  155.4950 H   0  0  0  0  0  0  0  0  0  0  0  0
  152.1993  136.6848  153.9768 H   0  0  0  0  0  0  0  0  0  0  0  0
  150.8915  137.2339  152.9492 H   0  0  0  0  0  0  0  0  0  0  0  0
  150.6596  140.6226  155.6019 H   0  0  0  0  0  0  0  0  0  0  0  0
  150.5548  140.9482  153.8716 H   0  0  0  0  0  0  0  0  0  0  0  0
  148.0449  140.0734  156.7834 H   0  0  0  0  0  0  0  0  0  0  0  0
  146.8721  139.9020  155.4890 H   0  0  0  0  0  0  0  0  0  0  0  0
  147.1458  134.6086  156.0321 H   0  0  0  0  0  0  0  0  0  0  0  0
  145.4956  138.5883  151.2430 H   0  0  0  0  0  0  0  0  0  0  0  0
  143.7671  136.5469  151.4157 H   0  0  0  0  0  0  0  0  0  0  0  0
  145.1093  135.5804  150.8572 H   0  0  0  0  0  0  0  0  0  0  0  0
  144.6076  134.8398  153.5824 H   0  0  0  0  0  0  0  0  0  0  0  0
  142.1825  135.7973  152.6182 H   0  0  0  0  0  0  0  0  0  0  0  0
  142.0404  134.0886  152.3274 H   0  0  0  0  0  0  0  0  0  0  0  0
  142.2990  133.6903  154.4462 H   0  0  0  0  0  0  0  0  0  0  0  0
  144.3604  132.6021  152.7423 H   0  0  0  0  0  0  0  0  0  0  0  0
  142.7715  132.6483  150.9157 H   0  0  0  0  0  0  0  0  0  0  0  0
  143.7302  133.8590  150.0529 H   0  0  0  0  0  0  0  0  0  0  0  0
  144.4760  130.9657  150.6202 H   0  0  0  0  0  0  0  0  0  0  0  0
  144.5801  131.8214  149.0788 H   0  0  0  0  0  0  0  0  0  0  0  0
  146.2805  134.2654  151.0728 H   0  0  0  0  0  0  0  0  0  0  0  0
  146.6690  133.0905  152.3297 H   0  0  0  0  0  0  0  0  0  0  0  0
  1  2  1  0  0  0  0
  1 30  1  0  0  0  0
  1 31  1  0  0  0  0
  2  3  2  0  0  0  0
  2  4  1  0  0  0  0
  4 28  1  0  0  0  0
  4  9  1  0  0  0  0
  4  5  1  0  0  0  0
  5  6  1  0  0  0  0
  5 32  1  0  0  0  0
  5 33  1  0  0  0  0
  6 29  1  0  0  0  0
  6  7  1  0  0  0  0
  6  8  1  0  0  0  0
  8  9  1  0  0  0  0
  8 34  1  0  0  0  0
  8 35  1  0  0  0  0
  9 10  1  0  0  0  0
 10 15  1  0  0  0  0
 10 11  2  0  0  0  0
 11 12  1  0  0  0  0
 12 13  2  0  0  0  0
 12 36  1  0  0  0  0
 13 14  1  0  0  0  0
 14 18  1  0  0  0  0
 14 15  2  0  0  0  0
 15 16  1  0  0  0  0
 16 17  2  0  0  0  0
 17 18  1  0  0  0  0
 17 37  1  0  0  0  0
 18 19  1  0  0  0  0
 19 20  1  0  0  0  0
 19 38  1  0  0  0  0
 19 39  1  0  0  0  0
 20 21  1  0  0  0  0
 20 23  1  0  0  0  0
 20 40  1  0  0  0  0
 21 22  1  0  0  0  0
 21 41  1  0  0  0  0
 21 42  1  0  0  0  0
 22 43  1  0  0  0  0
 23 27  1  0  0  0  0
 23 24  1  0  0  0  0
 23 44  1  0  0  0  0
 24 25  1  0  0  0  0
 24 45  1  0  0  0  0
 24 46  1  0  0  0  0
 25 26  1  0  0  0  0
 25 47  1  0  0  0  0
 25 48  1  0  0  0  0
 26 27  1  0  0  0  0
 27 49  1  0  0  0  0
 27 50  1  0  0  0  0
M  END
> <s_m_source_file>
AV-unprocessed.smi

> <i_m_source_file_index>
221

> <i_lp_mmshare_version>
43012

> <i_f3d_flags>
0

> <s_epik_input>
W05IMl1DKD1PKVtDQEBIXTFbQ0gyXVtDQEBIXShGKVtDSDJdTjFjKG5bY0hdbjIpYyhjMjMpbltjSF1uM1tDSDJdW0NASF0oW0NIMl1bT0hdKVtDQEBIXTRbQ0gyXVtDSDJdT1tDSDJdNA==

> <s_epik_cmdline>
J2VwaWtfcHl0aG9uJywgJy1waCcsICc3LjAnLCAnLXRuJywgJzgnLCAnLW1hJywgJzIwMCcsICctbWV0YWxfYmluZGluZycsICctaW1hZScsICc8aW5maWxlLm1hZT4nLCAnLW9tYWUnLCAnPG91dGZpbGUubWFlPic=

> <r_lp_tautomer_probability>
1

> <r_epik_Ionization_Penalty>
0.000818822

> <r_epik_Ionization_Penalty_Charging>
0

> <r_epik_Ionization_Penalty_Neutral>
0.000818822

> <r_epik_State_Penalty>
0.000440551

> <r_epik_Charging_Adjusted_Penalty>
0.000440551

> <i_epik_Tot_Q>
0

> <i_epik_Tot_abs_Q>
0

> <r_epik_Metal_State_Penalty>
-0

> <b_epik_Metal_Only>
0

> <s_lp_Force_Field>
OPLS_2005

> <r_lp_Energy>
50.4935

> <b_lp_Chiralities_Consistent>
1

> <s_lp_Variant>
AV-unprocessed.smi:221-13

> <Gold.Version>
5.8.1

> <Gold.Id.Protein>
6NUR|6NUR_protein|mol2

> <Gold.PLP.Fitness>
41.3176

> <Gold.PLP.PLP>
-37.0178

> <Gold.PLP.part.hbond>
-2.8016

> <Gold.PLP.part.metal>
0.0000

> <Gold.PLP.part.buried>
-4.3422

> <Gold.PLP.part.nonpolar>
-31.4553

> <Gold.PLP.part.repulsive>
0.7121

> <Gold.PLP.ligand.clash>
0.0000

> <Gold.PLP.ligand.torsion>
1.8636

> <Gold.PLP.Chemscore.Hbond>
1.5328

> <Gold.PLP.Chemscore.CHOScore>
1.0664

> <Gold.PLP.Chemscore.Metal>
0.0000

> <Gold.Chemscore.Hbonds>
donor molecule, donor type, donor heavy atom, donor atom, acceptor molecule, acceptor atom, score
      L1  H     1    31       P1  7949  0.48
      L1  H    22    43       P1 10957  1.00
      L1  C    17    37       P1 10171  1.00
      L1  C    17    37       P1 10175  0.08

> <Gold.PLP.Chemscore.Internal.Correction>
0.2294

> <Gold.Rescore>
     Score         DG    S(hbond)    S(metal)    S(lipo)     H(rot)  DE(clash)    DE(int)     intcor
      3.97      -7.54       1.00        0.00      70.35       3.72       0.36       3.21       ----

> <Gold.Chemscore.Fitness>
3.9741

> <Gold.Chemscore.DG>
-7.5394

> <Gold.Chemscore.ZeroCoef>
-5.4800

> <Gold.Chemscore.Hbond>
1.0036

> <Gold.Chemscore.Metal>
0.0000

> <Gold.Chemscore.Lipo>
70.3512

> <Gold.Chemscore.Internal_Hbond>
0.0000

> <Gold.Chemscore.DEClash>
0.3576

> <Gold.Chemscore.DEInternal>
3.2076

> <Gold.Chemscore.Rot>
3.7202

> <Gold.Chemscore.Internal.Correction>
   9.000000E+99

> <Gold.Chemscore.Hbonds>
donor molecule, donor type, donor heavy atom, donor atom, acceptor molecule, acceptor atom, score
      L1  H     1    31       P1  7949  0.08
      L1  H    22    43       P1 10957  0.98

> <Gold.Chemscore.Hbond.Weighted>
-3.3521

> <Gold.Chemscore.Metal.Weighted>
-0.0000

> <Gold.Chemscore.Lipo.Weighted>
-8.2311

> <Gold.Chemscore.Internal_Hbond.Weighted>
0.0000

> <Gold.Chemscore.DEClash.Weighted>
0.3576

> <Gold.Chemscore.DEInternal.Weighted>
3.2076

> <Gold.Chemscore.Rot.Weighted>
9.5237

> <Gold.Chemscore.Internal.Correction.Weighted>
   9.000000E+99

> <Gold.Protein.RotatedTorsions>
[ 6907 6896 6895 6894 ] final -170.17 input  -60.11 | X-H torsion
[ 7974 7965 7964 7962 ] final -124.97 input  175.53 | X-H torsion
[ 8008 7997 7996 7995 ] final   12.33 input   59.86 | X-H torsion
[ 10167 10162 10161 10158 ] final -156.61 input  -65.29 | X-H torsion
[ 10718 10713 10712 10709 ] final  164.70 input   66.30 | X-H torsion
[ 10763 10752 10751 10750 ] final  144.51 input  -60.55 | X-H torsion
[ 11005 11000 10999 10996 ] final   14.38 input  -57.11 | X-H torsion

> <Gold.Protein.ActiveResidues>
 VAL166  LYS551  ARG553  GLY616  TRP617  ASP618  TYR619  PRO620  LYS621  CYS622 
 ASP623  PHE694  ASN695  SER759  ASP760  ASP761  ALA762  ILE779  LEU786  VAL792 
 PHE793  MET794  SER795  GLU796  ALA797  LYS798  CYS799  TRP800  GLU811  SER814 

> <Gold.Protein.RotatedAtoms>
  151.5034  133.3499  159.2872 H   0  0  0  0  0  0  0  0  0  0  0  0  # atno 6907 bound_to 6896
  150.8758  134.8143  159.7200 H   0  0  0  0  0  0  0  0  0  0  0  0  # atno 6908 bound_to 6896
  152.4730  134.4924  159.9751 H   0  0  0  0  0  0  0  0  0  0  0  0  # atno 6909 bound_to 6896
  145.0025  140.7833  143.4487 H   0  0  0  0  0  0  0  0  0  0  0  0  # atno 7974 bound_to 7965
  154.8192  140.2881  155.5799 H   0  0  0  0  0  0  0  0  0  0  0  0  # atno 8008 bound_to 7997
  156.2996  140.2553  156.3025 H   0  0  0  0  0  0  0  0  0  0  0  0  # atno 8009 bound_to 7997
  154.9359  140.0382  157.2061 H   0  0  0  0  0  0  0  0  0  0  0  0  # atno 8010 bound_to 7997
  139.6837  143.9538  152.2350 H   0  0  0  0  0  0  0  0  0  0  0  0  # atno 10167 bound_to 10162
  157.0906  131.0416  151.2538 H   0  0  0  0  0  0  0  0  0  0  0  0  # atno 10718 bound_to 10713
  153.9900  135.2933  155.3413 H   0  0  0  0  0  0  0  0  0  0  0  0  # atno 10763 bound_to 10752
  154.7220  135.5105  153.8830 H   0  0  0  0  0  0  0  0  0  0  0  0  # atno 10764 bound_to 10752
  153.0814  135.6680  154.0154 H   0  0  0  0  0  0  0  0  0  0  0  0  # atno 10765 bound_to 10752
  140.4701  134.1039  155.7731 H   0  0  0  0  0  0  0  0  0  0  0  0  # atno 11005 bound_to 11000
  145.2133  139.2194  143.5131 LP  0  0  0  0  0  0  0  0  0  0  0  0  # atno 17320 bound_to 7965
  146.3455  140.1976  142.8589 LP  0  0  0  0  0  0  0  0  0  0  0  0  # atno 17321 bound_to 7965
  139.9335  144.6726  150.8339 LP  0  0  0  0  0  0  0  0  0  0  0  0  # atno 17342 bound_to 10162
  140.7660  143.3292  151.2447 LP  0  0  0  0  0  0  0  0  0  0  0  0  # atno 17343 bound_to 10162
  157.4724  130.7716  149.7336 LP  0  0  0  0  0  0  0  0  0  0  0  0  # atno 17370 bound_to 10713
  155.9899  130.3948  150.3052 LP  0  0  0  0  0  0  0  0  0  0  0  0  # atno 17371 bound_to 10713
  141.1581  133.8845  157.1923 LP  0  0  0  0  0  0  0  0  0  0  0  0  # atno 17394 bound_to 11000
  139.9890  135.0071  156.9931 LP  0  0  0  0  0  0  0  0  0  0  0  0  # atno 17395 bound_to 11000

$$$$
