AV-unprocessed.smi:2248|AV-procd|sdf|9094|dock8
  -GOLD-   2272012293D 1   1.00000     0.00000
 Structure written by MMmdl.
 35 36  0  0  0  0  0  0  0  0  1 V2000
  153.7101  141.6208  160.5333 C   0  0  0  0  0  0  0  0  0  0  0  0
  152.6639  142.6266  160.1013 C   0  0  0  0  0  0  0  0  0  0  0  0
  152.4934  143.8393  160.7975 C   0  0  0  0  0  0  0  0  0  0  0  0
  151.5057  144.7310  160.3430 C   0  0  0  0  0  0  0  0  0  0  0  0
  150.7353  144.3768  159.2185 C   0  0  0  0  0  0  0  0  0  0  0  0
  150.9710  143.1406  158.5758 C   0  0  0  0  0  0  0  0  0  0  0  0
  150.1423  142.8774  157.4530 N   0  0  0  0  0  0  0  0  0  0  0  0
  150.0323  141.7356  156.7512 C   0  0  0  0  0  0  0  0  0  0  0  0
  150.6594  140.6989  156.9713 O   0  0  0  0  0  0  0  0  0  0  0  0
  149.1370  141.8590  155.7610 N   0  0  0  0  0  0  0  0  0  0  0  0
  148.7818  140.7994  154.8236 C   0  0  2  0  0  0  0  0  0  0  0  0
  148.5151  139.5138  155.5572 C   0  0  0  0  0  0  0  0  0  0  0  0
  149.2673  138.5068  155.1195 C   0  0  0  0  0  0  0  0  0  0  0  0
  150.1993  138.9130  154.0066 C   0  0  2  0  0  0  0  0  0  0  0  0
  151.6703  138.5749  154.3042 C   0  0  0  0  0  0  0  0  0  0  0  0
  152.0218  137.3343  153.7283 O   0  0  0  0  0  0  0  0  0  0  0  0
  149.9420  140.4343  153.8599 C   0  0  0  0  0  0  0  0  0  0  0  0
  151.9259  142.2872  159.0227 N   0  0  0  0  0  0  0  0  0  0  0  0
  147.8829  141.0712  154.2676 H   0  0  0  0  0  0  0  0  0  0  0  0
  149.8802  138.4017  153.0974 H   0  0  0  0  0  0  0  0  0  0  0  0
  154.0953  141.8547  161.5261 H   0  0  0  0  0  0  0  0  0  0  0  0
  154.5456  141.6222  159.8329 H   0  0  0  0  0  0  0  0  0  0  0  0
  153.2872  140.6161  160.5624 H   0  0  0  0  0  0  0  0  0  0  0  0
  153.1015  144.0819  161.6565 H   0  0  0  0  0  0  0  0  0  0  0  0
  151.3412  145.6716  160.8473 H   0  0  0  0  0  0  0  0  0  0  0  0
  149.9728  145.0512  158.8566 H   0  0  0  0  0  0  0  0  0  0  0  0
  149.5640  143.6473  157.1509 H   0  0  0  0  0  0  0  0  0  0  0  0
  148.6654  142.7443  155.6485 H   0  0  0  0  0  0  0  0  0  0  0  0
  147.7749  139.4403  156.3404 H   0  0  0  0  0  0  0  0  0  0  0  0
  149.2282  137.4952  155.4961 H   0  0  0  0  0  0  0  0  0  0  0  0
  152.3250  139.3439  153.8932 H   0  0  0  0  0  0  0  0  0  0  0  0
  151.8513  138.5364  155.3790 H   0  0  0  0  0  0  0  0  0  0  0  0
  151.7061  137.3155  152.8376 H   0  0  0  0  0  0  0  0  0  0  0  0
  149.6835  140.6875  152.8310 H   0  0  0  0  0  0  0  0  0  0  0  0
  150.8435  140.9999  154.1011 H   0  0  0  0  0  0  0  0  0  0  0  0
  1  2  1  0  0  0  0
  1 21  1  0  0  0  0
  1 22  1  0  0  0  0
  1 23  1  0  0  0  0
  2 18  1  0  0  0  0
  2  3  2  0  0  0  0
  3  4  1  0  0  0  0
  3 24  1  0  0  0  0
  4  5  2  0  0  0  0
  4 25  1  0  0  0  0
  5  6  1  0  0  0  0
  5 26  1  0  0  0  0
  6  7  1  0  0  0  0
  6 18  2  0  0  0  0
  7  8  1  0  0  0  0
  7 27  1  0  0  0  0
  8  9  2  0  0  0  0
  8 10  1  0  0  0  0
 10 11  1  0  0  0  0
 10 28  1  0  0  0  0
 11 19  1  0  0  0  0
 11 17  1  0  0  0  0
 11 12  1  0  0  0  0
 12 13  2  0  0  0  0
 12 29  1  0  0  0  0
 13 14  1  0  0  0  0
 13 30  1  0  0  0  0
 14 20  1  0  0  0  0
 14 15  1  0  0  0  0
 14 17  1  0  0  0  0
 15 16  1  0  0  0  0
 15 31  1  0  0  0  0
 15 32  1  0  0  0  0
 16 33  1  0  0  0  0
 17 34  1  0  0  0  0
 17 35  1  0  0  0  0
M  END
> <s_m_source_file>
AV-unprocessed.smi

> <i_m_source_file_index>
2248

> <i_lp_mmshare_version>
43012

> <i_f3d_flags>
0

> <s_epik_input>
W0NIM11jMVtjSF1bY0hdW2NIXWMobjEpW05IXUMoPU8pW05IXVtDQEBIXTJbQ0hdPVtDSF1bQ0BASF0oW0NIMl0yKVtDSDJdW09IXQ==

> <s_epik_cmdline>
J2VwaWtfcHl0aG9uJywgJy1waCcsICc3LjAnLCAnLXRuJywgJzgnLCAnLW1hJywgJzIwMCcsICctbWV0YWxfYmluZGluZycsICctaW1hZScsICc8aW5maWxlLm1hZT4nLCAnLW9tYWUnLCAnPG91dGZpbGUubWFlPic=

> <r_lp_tautomer_probability>
1

> <r_epik_Ionization_Penalty>
8.36606e-05

> <r_epik_Ionization_Penalty_Charging>
0

> <r_epik_Ionization_Penalty_Neutral>
8.36606e-05

> <r_epik_State_Penalty>
-0

> <r_epik_Charging_Adjusted_Penalty>
0

> <i_epik_Tot_Q>
0

> <i_epik_Tot_abs_Q>
0

> <r_epik_Metal_State_Penalty>
-0

> <b_epik_Metal_Only>
0

> <s_lp_Force_Field>
OPLS_2005

> <r_lp_Energy>
17.2686

> <b_lp_Chiralities_Consistent>
1

> <s_lp_Variant>
AV-unprocessed.smi:2248-1

> <Gold.Version>
5.8.1

> <Gold.Id.Protein>
6NUR|6NUR_protein|mol2

> <Gold.PLP.Fitness>
46.1093

> <Gold.PLP.PLP>
-35.2332

> <Gold.PLP.part.hbond>
-4.0000

> <Gold.PLP.part.metal>
0.0000

> <Gold.PLP.part.buried>
-1.1247

> <Gold.PLP.part.nonpolar>
-30.9521

> <Gold.PLP.part.repulsive>
0.1504

> <Gold.PLP.ligand.clash>
0.0000

> <Gold.PLP.ligand.torsion>
0.5686

> <Gold.PLP.Chemscore.Hbond>
4.0000

> <Gold.PLP.Chemscore.CHOScore>
0.0000

> <Gold.PLP.Chemscore.Metal>
0.0000

> <Gold.Chemscore.Hbonds>
donor molecule, donor type, donor heavy atom, donor atom, acceptor molecule, acceptor atom, score
      L1  H     7    27       P1  8028  0.98
      L1  H    10    28       P1  8028  0.91
      L1  H    16    33       P1  7949  0.78
      P1  H 10752 10765       L1    16  0.96

> <Gold.PLP.Chemscore.Internal.Correction>
0.0133

> <Gold.Rescore>
     Score         DG    S(hbond)    S(metal)    S(lipo)     H(rot)  DE(clash)    DE(int)     intcor
     17.52     -23.50       3.57        0.00      91.99       1.82       2.47       3.50       ----

> <Gold.Chemscore.Fitness>
17.5246

> <Gold.Chemscore.DG>
-23.4952

> <Gold.Chemscore.ZeroCoef>
-5.4800

> <Gold.Chemscore.Hbond>
3.5651

> <Gold.Chemscore.Metal>
0.0000

> <Gold.Chemscore.Lipo>
91.9884

> <Gold.Chemscore.Internal_Hbond>
0.0000

> <Gold.Chemscore.DEClash>
2.4738

> <Gold.Chemscore.DEInternal>
3.4968

> <Gold.Chemscore.Rot>
1.8184

> <Gold.Chemscore.Internal.Correction>
   9.000000E+99

> <Gold.Chemscore.Hbonds>
donor molecule, donor type, donor heavy atom, donor atom, acceptor molecule, acceptor atom, score
      L1  H     7    27       P1  8028  0.79
      L1  H    10    28       P1  8028  0.88
      L1  H    16    33       P1  7949  0.75
      P1  H 10752 10765       L1    16  0.75

> <Gold.Chemscore.Hbond.Weighted>
-11.9076

> <Gold.Chemscore.Metal.Weighted>
-0.0000

> <Gold.Chemscore.Lipo.Weighted>
-10.7626

> <Gold.Chemscore.Internal_Hbond.Weighted>
0.0000

> <Gold.Chemscore.DEClash.Weighted>
2.4738

> <Gold.Chemscore.DEInternal.Weighted>
3.4968

> <Gold.Chemscore.Rot.Weighted>
4.6551

> <Gold.Chemscore.Internal.Correction.Weighted>
   9.000000E+99

> <Gold.Protein.RotatedTorsions>
[ 6907 6896 6895 6894 ] final  -56.56 input  -60.11 | X-H torsion
[ 7974 7965 7964 7962 ] final  -16.03 input  175.53 | X-H torsion
[ 8008 7997 7996 7995 ] final   72.27 input   59.86 | X-H torsion
[ 10167 10162 10161 10158 ] final -139.95 input  -65.29 | X-H torsion
[ 10718 10713 10712 10709 ] final  108.53 input   66.30 | X-H torsion
[ 10763 10752 10751 10750 ] final  157.81 input  -60.55 | X-H torsion
[ 11005 11000 10999 10996 ] final  -20.71 input  -57.11 | X-H torsion

> <Gold.Protein.ActiveResidues>
 VAL166  LYS551  ARG553  GLY616  TRP617  ASP618  TYR619  PRO620  LYS621  CYS622 
 ASP623  PHE694  ASN695  SER759  ASP760  ASP761  ALA762  ILE779  LEU786  VAL792 
 PHE793  MET794  SER795  GLU796  ALA797  LYS798  CYS799  TRP800  GLU811  SER814 

> <Gold.Protein.RotatedAtoms>
  150.8158  134.7338  159.6728 H   0  0  0  0  0  0  0  0  0  0  0  0  # atno 6907 bound_to 6896
  152.4276  134.5835  159.9964 H   0  0  0  0  0  0  0  0  0  0  0  0  # atno 6908 bound_to 6896
  151.6032  133.3317  159.3088 H   0  0  0  0  0  0  0  0  0  0  0  0  # atno 6909 bound_to 6896
  146.2006  140.3577  142.8425 H   0  0  0  0  0  0  0  0  0  0  0  0  # atno 7974 bound_to 7965
  155.7664  140.3485  155.5224 H   0  0  0  0  0  0  0  0  0  0  0  0  # atno 8008 bound_to 7997
  155.8864  140.1010  157.1470 H   0  0  0  0  0  0  0  0  0  0  0  0  # atno 8009 bound_to 7997
  154.4029  140.1312  156.4248 H   0  0  0  0  0  0  0  0  0  0  0  0  # atno 8010 bound_to 7997
  139.8329  143.7423  152.2665 H   0  0  0  0  0  0  0  0  0  0  0  0  # atno 10167 bound_to 10162
  157.6582  131.0895  150.6319 H   0  0  0  0  0  0  0  0  0  0  0  0  # atno 10718 bound_to 10713
  154.2062  135.2788  155.2974 H   0  0  0  0  0  0  0  0  0  0  0  0  # atno 10763 bound_to 10752
  154.5815  135.5588  153.7193 H   0  0  0  0  0  0  0  0  0  0  0  0  # atno 10764 bound_to 10752
  153.0075  135.6346  154.2201 H   0  0  0  0  0  0  0  0  0  0  0  0  # atno 10765 bound_to 10752
  140.8491  133.7870  155.9946 H   0  0  0  0  0  0  0  0  0  0  0  0  # atno 11005 bound_to 11000
  144.8675  140.7226  143.6068 LP  0  0  0  0  0  0  0  0  0  0  0  0  # atno 17320 bound_to 7965
  145.3497  139.1709  143.4441 LP  0  0  0  0  0  0  0  0  0  0  0  0  # atno 17321 bound_to 7965
  139.7636  144.7499  151.0327 LP  0  0  0  0  0  0  0  0  0  0  0  0  # atno 17342 bound_to 10162
  140.7805  143.4723  151.0129 LP  0  0  0  0  0  0  0  0  0  0  0  0  # atno 17343 bound_to 10162
  156.6623  130.4516  149.5683 LP  0  0  0  0  0  0  0  0  0  0  0  0  # atno 17370 bound_to 10713
  156.2058  130.6648  151.1216 LP  0  0  0  0  0  0  0  0  0  0  0  0  # atno 17371 bound_to 10713
  140.8810  134.2611  157.5144 LP  0  0  0  0  0  0  0  0  0  0  0  0  # atno 17394 bound_to 11000
  139.8704  134.9615  156.4398 LP  0  0  0  0  0  0  0  0  0  0  0  0  # atno 17395 bound_to 11000

$$$$
