AV-unprocessed.smi:1438|AV-procd|sdf|5868|dock9
  -GOLD-   22720 5543D 1   1.00000     0.00000
 Structure written by MMmdl.
 43 44  0  0  0  0  0  0  0  0  1 V2000
  147.9160  134.7141  159.6772 C   0  0  0  0  0  0  0  0  0  0  0  0
  148.0368  136.1163  160.2955 C   0  0  1  0  0  0  0  0  0  0  0  0
  147.7227  137.2172  159.2747 C   0  0  0  0  0  0  0  0  0  0  0  0
  146.7379  137.9417  159.4204 O   0  0  0  0  0  0  0  0  0  0  0  0
  148.5803  137.3422  158.2498 N   0  0  0  0  0  0  0  0  0  0  0  0
  148.5233  138.3907  157.2395 C   0  0  0  0  0  0  0  0  0  0  0  0
  149.8885  138.9993  156.9802 C   0  0  0  0  0  0  0  0  0  0  0  0
  150.7740  138.4140  156.0553 C   0  0  0  0  0  0  0  0  0  0  0  0
  152.0134  139.0404  155.8311 C   0  0  0  0  0  0  0  0  0  0  0  0
  152.3958  140.1704  156.4620 N   0  0  0  0  0  0  0  0  0  0  0  0
  151.5533  140.7401  157.3598 C   0  0  0  0  0  0  0  0  0  0  0  0
  151.9718  141.9171  158.0185 N   0  0  0  0  0  0  0  0  0  0  0  0
  151.2374  143.1296  157.6640 C   0  0  0  0  0  0  0  0  0  0  0  0
  151.9573  144.3746  158.2108 C   0  0  0  0  0  0  0  0  0  0  0  0
  152.1576  144.2399  159.6138 O   0  0  0  0  0  0  0  0  0  0  0  0
  152.9731  143.1156  159.9258 C   0  0  0  0  0  0  0  0  0  0  0  0
  152.2843  141.8276  159.4441 C   0  0  0  0  0  0  0  0  0  0  0  0
  150.2816  140.1833  157.6375 C   0  0  0  0  0  0  0  0  0  0  0  0
  146.8978  136.2662  161.7518 S   0  0  0  0  0  0  0  0  0  0  0  0
  147.3597  134.8199  162.7973 C   0  0  0  0  0  0  0  0  0  0  0  0
  147.2303  137.4907  162.4963 O   0  0  0  0  0  0  0  0  0  0  0  0
  145.5212  136.0663  161.2735 O   0  0  0  0  0  0  0  0  0  0  0  0
  148.5643  134.6074  158.8067 H   0  0  0  0  0  0  0  0  0  0  0  0
  146.8937  134.5004  159.3628 H   0  0  0  0  0  0  0  0  0  0  0  0
  148.2049  133.9475  160.3964 H   0  0  0  0  0  0  0  0  0  0  0  0
  149.0531  136.2470  160.6688 H   0  0  0  0  0  0  0  0  0  0  0  0
  149.3583  136.7012  158.1965 H   0  0  0  0  0  0  0  0  0  0  0  0
  148.1450  137.9571  156.3136 H   0  0  0  0  0  0  0  0  0  0  0  0
  147.8124  139.1677  157.5260 H   0  0  0  0  0  0  0  0  0  0  0  0
  150.5078  137.5137  155.5208 H   0  0  0  0  0  0  0  0  0  0  0  0
  152.7165  138.6238  155.1252 H   0  0  0  0  0  0  0  0  0  0  0  0
  151.1244  143.2332  156.5859 H   0  0  0  0  0  0  0  0  0  0  0  0
  150.2322  143.0670  158.0834 H   0  0  0  0  0  0  0  0  0  0  0  0
  152.9142  144.5222  157.7076 H   0  0  0  0  0  0  0  0  0  0  0  0
  151.3587  145.2660  158.0224 H   0  0  0  0  0  0  0  0  0  0  0  0
  153.9566  143.2266  159.4664 H   0  0  0  0  0  0  0  0  0  0  0  0
  153.1278  143.0775  161.0042 H   0  0  0  0  0  0  0  0  0  0  0  0
  151.3634  141.6652  160.0063 H   0  0  0  0  0  0  0  0  0  0  0  0
  152.9386  140.9756  159.6344 H   0  0  0  0  0  0  0  0  0  0  0  0
  149.6041  140.6570  158.3325 H   0  0  0  0  0  0  0  0  0  0  0  0
  146.6761  134.7561  163.6435 H   0  0  0  0  0  0  0  0  0  0  0  0
  148.3756  134.9407  163.1729 H   0  0  0  0  0  0  0  0  0  0  0  0
  147.2923  133.9048  162.2098 H   0  0  0  0  0  0  0  0  0  0  0  0
  1  2  1  0  0  0  0
  1 23  1  0  0  0  0
  1 24  1  0  0  0  0
  1 25  1  0  0  0  0
  2  3  1  0  0  0  0
  2 19  1  0  0  0  0
  2 26  1  0  0  0  0
  3  4  2  0  0  0  0
  3  5  1  0  0  0  0
  5  6  1  0  0  0  0
  5 27  1  0  0  0  0
  6  7  1  0  0  0  0
  6 28  1  0  0  0  0
  6 29  1  0  0  0  0
  7 18  1  0  0  0  0
  7  8  2  0  0  0  0
  8  9  1  0  0  0  0
  8 30  1  0  0  0  0
  9 10  2  0  0  0  0
  9 31  1  0  0  0  0
 10 11  1  0  0  0  0
 11 12  1  0  0  0  0
 11 18  2  0  0  0  0
 12 17  1  0  0  0  0
 12 13  1  0  0  0  0
 13 14  1  0  0  0  0
 13 32  1  0  0  0  0
 13 33  1  0  0  0  0
 14 15  1  0  0  0  0
 14 34  1  0  0  0  0
 14 35  1  0  0  0  0
 15 16  1  0  0  0  0
 16 17  1  0  0  0  0
 16 36  1  0  0  0  0
 16 37  1  0  0  0  0
 17 38  1  0  0  0  0
 17 39  1  0  0  0  0
 18 40  1  0  0  0  0
 19 20  1  0  0  0  0
 19 21  2  0  0  0  0
 19 22  2  0  0  0  0
 20 41  1  0  0  0  0
 20 42  1  0  0  0  0
 20 43  1  0  0  0  0
M  END
> <s_m_source_file>
AV-unprocessed.smi

> <i_m_source_file_index>
1438

> <i_lp_mmshare_version>
43012

> <i_f3d_flags>
0

> <s_epik_input>
W0NIM11TKD1PKSg9TylbQ0BIXShbQ0gzXSlDKD1PKVtOSF1bQ0gyXWMxW2NIXVtjSF1uYyhbY0hdMSlOMltDSDJdW0NIMl1PW0NIMl1bQ0gyXTI=

> <s_epik_cmdline>
J2VwaWtfcHl0aG9uJywgJy1waCcsICc3LjAnLCAnLXRuJywgJzgnLCAnLW1hJywgJzIwMCcsICctbWV0YWxfYmluZGluZycsICctaW1hZScsICc8aW5maWxlLm1hZT4nLCAnLW9tYWUnLCAnPG91dGZpbGUubWFlPic=

> <r_lp_tautomer_probability>
1

> <r_epik_Ionization_Penalty>
0.00387635

> <r_epik_Ionization_Penalty_Charging>
0

> <r_epik_Ionization_Penalty_Neutral>
0.00387635

> <r_epik_State_Penalty>
0.0027681

> <r_epik_Charging_Adjusted_Penalty>
0.0027681

> <i_epik_Tot_Q>
0

> <i_epik_Tot_abs_Q>
0

> <r_epik_Metal_State_Penalty>
-0

> <b_epik_Metal_Only>
0

> <s_lp_Force_Field>
OPLS_2005

> <r_lp_Energy>
13.2689

> <b_lp_Chiralities_Consistent>
1

> <s_lp_Variant>
AV-unprocessed.smi:1438-2

> <Gold.Version>
5.8.1

> <Gold.Id.Protein>
6NUR|6NUR_protein|mol2

> <Gold.PLP.Fitness>
43.3779

> <Gold.PLP.PLP>
-37.3188

> <Gold.PLP.part.hbond>
-4.0000

> <Gold.PLP.part.metal>
0.0000

> <Gold.PLP.part.buried>
-3.5955

> <Gold.PLP.part.nonpolar>
-29.2793

> <Gold.PLP.part.repulsive>
0.1345

> <Gold.PLP.ligand.clash>
0.0000

> <Gold.PLP.ligand.torsion>
0.8198

> <Gold.PLP.Chemscore.Hbond>
2.4080

> <Gold.PLP.Chemscore.CHOScore>
0.0000

> <Gold.PLP.Chemscore.Metal>
0.0000

> <Gold.Chemscore.Hbonds>
donor molecule, donor type, donor heavy atom, donor atom, acceptor molecule, acceptor atom, score
      P1  H  6931  6943       L1    21  0.62
      P1  H  6934  6947       L1     4  0.74
      P1  H  7997  8010       L1    10  1.00

> <Gold.PLP.Chemscore.Internal.Correction>
0.4746

> <Gold.Rescore>
     Score         DG    S(hbond)    S(metal)    S(lipo)     H(rot)  DE(clash)    DE(int)     intcor
     14.58     -16.78       2.16        0.00      80.49       2.08       0.17       2.04       ----

> <Gold.Chemscore.Fitness>
14.5804

> <Gold.Chemscore.DG>
-16.7819

> <Gold.Chemscore.ZeroCoef>
-5.4800

> <Gold.Chemscore.Hbond>
2.1557

> <Gold.Chemscore.Metal>
0.0000

> <Gold.Chemscore.Lipo>
80.4906

> <Gold.Chemscore.Internal_Hbond>
0.0000

> <Gold.Chemscore.DEClash>
0.1657

> <Gold.Chemscore.DEInternal>
2.0357

> <Gold.Chemscore.Rot>
2.0764

> <Gold.Chemscore.Internal.Correction>
   9.000000E+99

> <Gold.Chemscore.Hbonds>
donor molecule, donor type, donor heavy atom, donor atom, acceptor molecule, acceptor atom, score
      P1  H  6931  6943       L1    21  0.49
      P1  H  6934  6947       L1     4  0.37
      P1  H  7997  8010       L1    10  0.49

> <Gold.Chemscore.Hbond.Weighted>
-7.2000

> <Gold.Chemscore.Metal.Weighted>
-0.0000

> <Gold.Chemscore.Lipo.Weighted>
-9.4174

> <Gold.Chemscore.Internal_Hbond.Weighted>
0.0000

> <Gold.Chemscore.DEClash.Weighted>
0.1657

> <Gold.Chemscore.DEInternal.Weighted>
2.0357

> <Gold.Chemscore.Rot.Weighted>
5.3155

> <Gold.Chemscore.Internal.Correction.Weighted>
   9.000000E+99

> <Gold.Protein.RotatedTorsions>
[ 6907 6896 6895 6894 ] final  139.31 input  -60.11 | X-H torsion
[ 7974 7965 7964 7962 ] final   80.50 input  175.53 | X-H torsion
[ 8008 7997 7996 7995 ] final   74.57 input   59.86 | X-H torsion
[ 10167 10162 10161 10158 ] final  134.45 input  -65.29 | X-H torsion
[ 10718 10713 10712 10709 ] final  -65.34 input   66.30 | X-H torsion
[ 10763 10752 10751 10750 ] final -134.07 input  -60.55 | X-H torsion
[ 11005 11000 10999 10996 ] final  -66.30 input  -57.11 | X-H torsion

> <Gold.Protein.ActiveResidues>
 VAL166  LYS551  ARG553  GLY616  TRP617  ASP618  TYR619  PRO620  LYS621  CYS622 
 ASP623  PHE694  ASN695  SER759  ASP760  ASP761  ALA762  ILE779  LEU786  VAL792 
 PHE793  MET794  SER795  GLU796  ALA797  LYS798  CYS799  TRP800  GLU811  SER814 

> <Gold.Protein.RotatedAtoms>
  152.2564  133.5259  159.5355 H   0  0  0  0  0  0  0  0  0  0  0  0  # atno 6907 bound_to 6896
  150.7110  134.0889  159.3933 H   0  0  0  0  0  0  0  0  0  0  0  0  # atno 6908 bound_to 6896
  151.8808  135.0454  160.0539 H   0  0  0  0  0  0  0  0  0  0  0  0  # atno 6909 bound_to 6896
  145.6504  139.2446  143.1980 H   0  0  0  0  0  0  0  0  0  0  0  0  # atno 7974 bound_to 7965
  155.8003  140.3476  155.5399 H   0  0  0  0  0  0  0  0  0  0  0  0  # atno 8008 bound_to 7997
  155.8545  140.0961  157.1674 H   0  0  0  0  0  0  0  0  0  0  0  0  # atno 8009 bound_to 7997
  154.4009  140.1370  156.3872 H   0  0  0  0  0  0  0  0  0  0  0  0  # atno 8010 bound_to 7997
  139.5255  144.6566  151.5142 H   0  0  0  0  0  0  0  0  0  0  0  0  # atno 10167 bound_to 10162
  156.0675  130.4246  150.1550 H   0  0  0  0  0  0  0  0  0  0  0  0  # atno 10718 bound_to 10713
  154.8724  135.3746  154.4675 H   0  0  0  0  0  0  0  0  0  0  0  0  # atno 10763 bound_to 10752
  153.5338  135.7027  153.5675 H   0  0  0  0  0  0  0  0  0  0  0  0  # atno 10764 bound_to 10752
  153.3867  135.3982  155.1860 H   0  0  0  0  0  0  0  0  0  0  0  0  # atno 10765 bound_to 10752
  141.1478  133.6697  156.6118 H   0  0  0  0  0  0  0  0  0  0  0  0  # atno 11005 bound_to 11000
  146.1208  140.7311  142.9458 LP  0  0  0  0  0  0  0  0  0  0  0  0  # atno 17320 bound_to 7965
  144.7124  140.4089  143.7070 LP  0  0  0  0  0  0  0  0  0  0  0  0  # atno 17321 bound_to 7965
  140.6395  143.8917  150.6678 LP  0  0  0  0  0  0  0  0  0  0  0  0  # atno 17342 bound_to 10162
  140.2247  143.3781  152.1614 LP  0  0  0  0  0  0  0  0  0  0  0  0  # atno 17343 bound_to 10162
  156.9607  130.9804  151.3479 LP  0  0  0  0  0  0  0  0  0  0  0  0  # atno 17370 bound_to 10713
  157.5726  130.8321  149.8412 LP  0  0  0  0  0  0  0  0  0  0  0  0  # atno 17371 bound_to 10713
  140.3608  134.7689  157.4532 LP  0  0  0  0  0  0  0  0  0  0  0  0  # atno 17394 bound_to 11000
  140.0786  134.5762  155.8564 LP  0  0  0  0  0  0  0  0  0  0  0  0  # atno 17395 bound_to 11000

$$$$
