AV-unprocessed.smi:255|AV-procd|sdf|1950|dock7
  -GOLD-   2262021 83D 1   1.00000     0.00000
 Structure written by MMmdl.
 44 47  0  0  0  0  0  0  0  0  1 V2000
  151.6885  144.6525  158.7661 O   0  0  0  0  0  0  0  0  0  0  0  0
  151.2220  143.3226  158.8394 C   0  0  0  0  0  0  0  0  0  0  0  0
  152.4058  142.3527  159.0096 C   0  0  1  0  0  0  0  0  0  0  0  0
  153.1232  142.4644  160.3554 C   0  0  0  0  0  0  0  0  0  0  0  0
  153.8779  141.1382  160.4332 C   0  0  2  0  0  0  0  0  0  0  0  0
  155.0540  141.2586  159.8158 F   0  0  0  0  0  0  0  0  0  0  0  0
  152.9976  140.1541  159.6493 C   0  0  0  0  0  0  0  0  0  0  0  0
  151.9949  140.9549  158.9529 N   0  0  0  0  0  0  0  0  0  0  0  0
  151.6367  140.4889  157.7366 C   0  0  0  0  0  0  0  0  0  0  0  0
  152.5400  139.8378  156.9575 N   0  0  0  0  0  0  0  0  0  0  0  0
  152.1735  139.3782  155.7572 C   0  0  0  0  0  0  0  0  0  0  0  0
  150.9835  139.4636  155.1575 N   0  0  0  0  0  0  0  0  0  0  0  0
  150.0800  140.1271  155.9358 C   0  0  0  0  0  0  0  0  0  0  0  0
  150.3225  140.6611  157.2317 C   0  0  0  0  0  0  0  0  0  0  0  0
  149.1698  141.2515  157.7308 N   0  0  0  0  0  0  0  0  0  0  0  0
  148.2906  141.0714  156.7835 C   0  0  0  0  0  0  0  0  0  0  0  0
  148.7560  140.4251  155.6588 N   0  0  0  0  0  0  0  0  0  0  0  0
  147.9911  140.0907  154.4655 C   0  0  0  0  0  0  0  0  0  0  0  0
  147.8809  138.5749  154.1544 C   0  0  1  0  0  0  0  0  0  0  0  0
  149.1550  138.1665  153.6904 O   0  0  0  0  0  0  0  0  0  0  0  0
  147.5103  137.6877  155.3434 C   0  0  0  0  0  0  0  0  0  0  0  0
  146.7746  136.5273  154.6874 C   0  0  0  0  0  0  0  0  0  0  0  0
  146.0174  137.1778  153.6827 O   0  0  0  0  0  0  0  0  0  0  0  0
  146.8341  138.1807  153.0885 C   0  0  0  0  0  0  0  0  0  0  0  0
  153.1313  142.5377  158.2151 H   0  0  0  0  0  0  0  0  0  0  0  0
  154.0762  140.8162  161.4558 H   0  0  0  0  0  0  0  0  0  0  0  0
  152.6327  144.6410  158.7933 H   0  0  0  0  0  0  0  0  0  0  0  0
  150.5169  143.2286  159.6659 H   0  0  0  0  0  0  0  0  0  0  0  0
  150.6738  143.1059  157.9220 H   0  0  0  0  0  0  0  0  0  0  0  0
  153.7772  143.3343  160.4234 H   0  0  0  0  0  0  0  0  0  0  0  0
  152.3964  142.5225  161.1672 H   0  0  0  0  0  0  0  0  0  0  0  0
  153.5930  139.5345  158.9765 H   0  0  0  0  0  0  0  0  0  0  0  0
  152.4786  139.4844  160.3356 H   0  0  0  0  0  0  0  0  0  0  0  0
  152.9438  138.8695  155.1967 H   0  0  0  0  0  0  0  0  0  0  0  0
  147.2695  141.4111  156.8803 H   0  0  0  0  0  0  0  0  0  0  0  0
  146.9935  140.5185  154.5761 H   0  0  0  0  0  0  0  0  0  0  0  0
  148.4481  140.6092  153.6215 H   0  0  0  0  0  0  0  0  0  0  0  0
  149.1919  138.3037  152.7562 H   0  0  0  0  0  0  0  0  0  0  0  0
  148.3669  137.3701  155.9394 H   0  0  0  0  0  0  0  0  0  0  0  0
  146.8145  138.1889  156.0127 H   0  0  0  0  0  0  0  0  0  0  0  0
  147.4723  135.8238  154.2302 H   0  0  0  0  0  0  0  0  0  0  0  0
  146.1367  135.9827  155.3836 H   0  0  0  0  0  0  0  0  0  0  0  0
  146.2048  139.0084  152.7707 H   0  0  0  0  0  0  0  0  0  0  0  0
  147.3015  137.7747  152.1897 H   0  0  0  0  0  0  0  0  0  0  0  0
  1  2  1  0  0  0  0
  1 27  1  0  0  0  0
  2  3  1  0  0  0  0
  2 28  1  0  0  0  0
  2 29  1  0  0  0  0
  3 25  1  0  0  0  0
  3  8  1  0  0  0  0
  3  4  1  0  0  0  0
  4  5  1  0  0  0  0
  4 30  1  0  0  0  0
  4 31  1  0  0  0  0
  5 26  1  0  0  0  0
  5  6  1  0  0  0  0
  5  7  1  0  0  0  0
  7  8  1  0  0  0  0
  7 32  1  0  0  0  0
  7 33  1  0  0  0  0
  8  9  1  0  0  0  0
  9 14  1  0  0  0  0
  9 10  2  0  0  0  0
 10 11  1  0  0  0  0
 11 12  2  0  0  0  0
 11 34  1  0  0  0  0
 12 13  1  0  0  0  0
 13 17  1  0  0  0  0
 13 14  2  0  0  0  0
 14 15  1  0  0  0  0
 15 16  2  0  0  0  0
 16 17  1  0  0  0  0
 16 35  1  0  0  0  0
 17 18  1  0  0  0  0
 18 19  1  0  0  0  0
 18 36  1  0  0  0  0
 18 37  1  0  0  0  0
 19 24  1  0  0  0  0
 19 20  1  0  0  0  0
 19 21  1  0  0  0  0
 20 38  1  0  0  0  0
 21 22  1  0  0  0  0
 21 39  1  0  0  0  0
 21 40  1  0  0  0  0
 22 23  1  0  0  0  0
 22 41  1  0  0  0  0
 22 42  1  0  0  0  0
 23 24  1  0  0  0  0
 24 43  1  0  0  0  0
 24 44  1  0  0  0  0
M  END
> <s_m_source_file>
AV-unprocessed.smi

> <i_m_source_file_index>
255

> <i_lp_mmshare_version>
43012

> <i_f3d_flags>
0

> <s_epik_input>
W09IXVtDSDJdW0NAQEhdMVtDSDJdW0NASF0oRilbQ0gyXU4xYyhuW2NIXW4yKWMoYzIzKW5bY0hdbjNbQ0gyXVtDQEBdNChbT0hdKVtDSDJdW0NIMl1PW0NIMl00

> <s_epik_cmdline>
J2VwaWtfcHl0aG9uJywgJy1waCcsICc3LjAnLCAnLXRuJywgJzgnLCAnLW1hJywgJzIwMCcsICctbWV0YWxfYmluZGluZycsICctaW1hZScsICc8aW5maWxlLm1hZT4nLCAnLW9tYWUnLCAnPG91dGZpbGUubWFlPic=

> <r_lp_tautomer_probability>
1

> <r_epik_Ionization_Penalty>
0.0058098

> <r_epik_Ionization_Penalty_Charging>
0

> <r_epik_Ionization_Penalty_Neutral>
0.0058098

> <r_epik_State_Penalty>
0.00411166

> <r_epik_Charging_Adjusted_Penalty>
0.00411166

> <i_epik_Tot_Q>
0

> <i_epik_Tot_abs_Q>
0

> <r_epik_Metal_State_Penalty>
-0

> <b_epik_Metal_Only>
0

> <s_lp_Force_Field>
OPLS_2005

> <r_lp_Energy>
51.0345

> <b_lp_Chiralities_Consistent>
1

> <s_lp_Variant>
AV-unprocessed.smi:255-2

> <Gold.Version>
5.8.1

> <Gold.Id.Protein>
6NUR|6NUR_protein|mol2

> <Gold.PLP.Fitness>
50.2529

> <Gold.PLP.PLP>
-42.9117

> <Gold.PLP.part.hbond>
-3.8536

> <Gold.PLP.part.metal>
0.0000

> <Gold.PLP.part.buried>
-5.8658

> <Gold.PLP.part.nonpolar>
-34.3270

> <Gold.PLP.part.repulsive>
0.3986

> <Gold.PLP.ligand.clash>
0.0000

> <Gold.PLP.ligand.torsion>
0.8648

> <Gold.PLP.Chemscore.Hbond>
3.0000

> <Gold.PLP.Chemscore.CHOScore>
0.0000

> <Gold.PLP.Chemscore.Metal>
0.0000

> <Gold.Chemscore.Hbonds>
donor molecule, donor type, donor heavy atom, donor atom, acceptor molecule, acceptor atom, score
      L1  H    20    38       P1  7957  0.12
      P1  H  7989  7998       L1    12  0.33
      P1  H  7997  8009       L1    10  0.90

> <Gold.PLP.Chemscore.Internal.Correction>
0.0709

> <Gold.Rescore>
     Score         DG    S(hbond)    S(metal)    S(lipo)     H(rot)  DE(clash)    DE(int)     intcor
     11.38     -12.26       1.84        0.00      78.16       3.33       0.02       0.87       ----

> <Gold.Chemscore.Fitness>
11.3779

> <Gold.Chemscore.DG>
-12.2630

> <Gold.Chemscore.ZeroCoef>
-5.4800

> <Gold.Chemscore.Hbond>
1.8430

> <Gold.Chemscore.Metal>
0.0000

> <Gold.Chemscore.Lipo>
78.1638

> <Gold.Chemscore.Internal_Hbond>
0.0000

> <Gold.Chemscore.DEClash>
0.0154

> <Gold.Chemscore.DEInternal>
0.8697

> <Gold.Chemscore.Rot>
3.3273

> <Gold.Chemscore.Internal.Correction>
   9.000000E+99

> <Gold.Chemscore.Hbonds>
donor molecule, donor type, donor heavy atom, donor atom, acceptor molecule, acceptor atom, score
      L1  H    20    38       P1  7957  0.10
      P1  H  7989  7998       L1    12  0.03
      P1  H  7997  8009       L1    10  0.18

> <Gold.Chemscore.Hbond.Weighted>
-6.1557

> <Gold.Chemscore.Metal.Weighted>
-0.0000

> <Gold.Chemscore.Lipo.Weighted>
-9.1452

> <Gold.Chemscore.Internal_Hbond.Weighted>
0.0000

> <Gold.Chemscore.DEClash.Weighted>
0.0154

> <Gold.Chemscore.DEInternal.Weighted>
0.8697

> <Gold.Chemscore.Rot.Weighted>
8.5179

> <Gold.Chemscore.Internal.Correction.Weighted>
   9.000000E+99

> <Gold.Protein.RotatedTorsions>
[ 6907 6896 6895 6894 ] final -110.76 input  -60.11 | X-H torsion
[ 7974 7965 7964 7962 ] final  112.86 input  175.53 | X-H torsion
[ 8008 7997 7996 7995 ] final -176.03 input   59.86 | X-H torsion
[ 10167 10162 10161 10158 ] final  123.96 input  -65.29 | X-H torsion
[ 10718 10713 10712 10709 ] final  -77.91 input   66.30 | X-H torsion
[ 10763 10752 10751 10750 ] final -117.77 input  -60.55 | X-H torsion
[ 11005 11000 10999 10996 ] final   43.13 input  -57.11 | X-H torsion

> <Gold.Protein.ActiveResidues>
 VAL166  LYS551  ARG553  GLY616  TRP617  ASP618  TYR619  PRO620  LYS621  CYS622 
 ASP623  PHE694  ASN695  SER759  ASP760  ASP761  ALA762  ILE779  LEU786  VAL792 
 PHE793  MET794  SER795  GLU796  ALA797  LYS798  CYS799  TRP800  GLU811  SER814 

> <Gold.Protein.RotatedAtoms>
  150.7645  133.9335  159.3433 H   0  0  0  0  0  0  0  0  0  0  0  0  # atno 6907 bound_to 6896
  151.7236  135.0887  160.0297 H   0  0  0  0  0  0  0  0  0  0  0  0  # atno 6908 bound_to 6896
  152.3634  133.6288  159.6068 H   0  0  0  0  0  0  0  0  0  0  0  0  # atno 6909 bound_to 6896
  145.2242  139.2848  143.4202 H   0  0  0  0  0  0  0  0  0  0  0  0  # atno 7974 bound_to 7965
  155.9899  140.1199  157.0648 H   0  0  0  0  0  0  0  0  0  0  0  0  # atno 8008 bound_to 7997
  154.4208  140.1128  156.5619 H   0  0  0  0  0  0  0  0  0  0  0  0  # atno 8009 bound_to 7997
  155.6357  140.3473  155.4700 H   0  0  0  0  0  0  0  0  0  0  0  0  # atno 8010 bound_to 7997
  139.5769  144.6967  151.3630 H   0  0  0  0  0  0  0  0  0  0  0  0  # atno 10167 bound_to 10162
  156.0132  130.4504  150.3416 H   0  0  0  0  0  0  0  0  0  0  0  0  # atno 10718 bound_to 10713
  154.8566  135.4298  154.2032 H   0  0  0  0  0  0  0  0  0  0  0  0  # atno 10763 bound_to 10752
  153.3074  135.6973  153.7153 H   0  0  0  0  0  0  0  0  0  0  0  0  # atno 10764 bound_to 10752
  153.6259  135.3493  155.3000 H   0  0  0  0  0  0  0  0  0  0  0  0  # atno 10765 bound_to 10752
  140.1673  134.4265  155.8279 H   0  0  0  0  0  0  0  0  0  0  0  0  # atno 11005 bound_to 11000
  146.3369  140.2557  142.8600 LP  0  0  0  0  0  0  0  0  0  0  0  0  # atno 17320 bound_to 7965
  144.9737  140.8393  143.5439 LP  0  0  0  0  0  0  0  0  0  0  0  0  # atno 17321 bound_to 7965
  140.7051  143.7535  150.7468 LP  0  0  0  0  0  0  0  0  0  0  0  0  # atno 17342 bound_to 10162
  140.1057  143.4746  152.2399 LP  0  0  0  0  0  0  0  0  0  0  0  0  # atno 17343 bound_to 10162
  157.1511  131.0321  151.2884 LP  0  0  0  0  0  0  0  0  0  0  0  0  # atno 17370 bound_to 10713
  157.4391  130.7534  149.7054 LP  0  0  0  0  0  0  0  0  0  0  0  0  # atno 17371 bound_to 10713
  141.2214  133.6940  156.7702 LP  0  0  0  0  0  0  0  0  0  0  0  0  # atno 17394 bound_to 11000
  140.2418  134.8607  157.3581 LP  0  0  0  0  0  0  0  0  0  0  0  0  # atno 17395 bound_to 11000

$$$$
