AV-unprocessed.smi:1633|AV-procd|sdf|6532|dock9
  -GOLD-   22720 7213D 1   1.00000     0.00000
 Structure written by MMmdl.
 51 53  0  0  0  0  0  0  0  0  2 V2000
  143.9337  145.4722  157.0291 C   0  0  0  0  0  0  0  0  0  0  0  0
  143.9378  143.9544  157.2237 C   0  0  0  0  0  0  0  0  0  0  0  0
  143.9074  143.5188  158.3742 O   0  0  0  0  0  0  0  0  0  0  0  0
  143.9741  143.1460  156.1373 N   0  0  0  0  0  0  0  0  0  0  0  0
  144.0239  141.6846  156.2366 C   0  0  0  0  0  0  0  0  0  0  0  0
  145.3842  141.1899  155.7132 C   0  0  0  0  0  0  0  0  0  0  0  0
  145.6394  141.6685  154.3283 N   0  3  0  0  0  0  0  0  0  0  0  0
  146.9325  141.1735  153.7902 C   0  0  0  0  0  0  0  0  0  0  0  0
  148.1092  141.4114  154.7570 C   0  0  2  0  0  0  0  0  0  0  0  0
  148.6684  142.6816  154.4815 O   0  0  0  0  0  0  0  0  0  0  0  0
  149.1980  140.3308  154.6116 C   0  0  0  0  0  0  0  0  0  0  0  0
  149.8430  140.0249  155.8761 N   0  0  0  0  0  0  0  0  0  0  0  0
  149.9864  138.8094  156.4384 C   0  0  0  0  0  0  0  0  0  0  0  0
  150.6021  138.7520  157.6154 N   0  0  0  0  0  0  0  0  0  0  0  0
  150.8965  140.0855  157.8424 C   0  0  0  0  0  0  0  0  0  0  0  0
  151.5467  140.7091  158.9295 C   0  0  0  0  0  0  0  0  0  0  0  0
  151.7376  142.1091  158.9537 C   0  0  0  0  0  0  0  0  0  0  0  0
  152.4381  142.7384  160.1449 C   0  0  0  0  0  0  0  0  0  0  0  0
  151.2773  142.9078  157.8759 C   0  0  0  0  0  0  0  0  0  0  0  0
  151.4738  144.4137  157.8789 C   0  0  0  0  0  0  0  0  0  0  0  0
  150.6251  142.3011  156.7823 C   0  0  0  0  0  0  0  0  0  0  0  0
  150.4382  140.9075  156.7715 C   0  0  0  0  0  0  0  0  0  0  0  0
  145.4565  143.1398  154.1872 C   0  0  0  0  0  0  0  0  0  0  0  0
  144.0953  143.5930  154.7461 C   0  0  0  0  0  0  0  0  0  0  0  0
  144.8369  145.8001  156.5135 H   0  0  0  0  0  0  0  0  0  0  0  0
  143.8964  145.9823  157.9922 H   0  0  0  0  0  0  0  0  0  0  0  0
  143.0620  145.7859  156.4540 H   0  0  0  0  0  0  0  0  0  0  0  0
  143.8666  141.3211  157.2530 H   0  0  0  0  0  0  0  0  0  0  0  0
  143.2150  141.2585  155.6411 H   0  0  0  0  0  0  0  0  0  0  0  0
  146.1834  141.5390  156.3693 H   0  0  0  0  0  0  0  0  0  0  0  0
  145.4064  140.0995  155.7356 H   0  0  0  0  0  0  0  0  0  0  0  0
  146.8412  140.1133  153.5494 H   0  0  0  0  0  0  0  0  0  0  0  0
  147.1536  141.6808  152.8493 H   0  0  0  0  0  0  0  0  0  0  0  0
  147.7602  141.4088  155.7892 H   0  0  0  0  0  0  0  0  0  0  0  0
  148.4512  143.2665  155.1922 H   0  0  0  0  0  0  0  0  0  0  0  0
  148.7645  139.4098  154.2191 H   0  0  0  0  0  0  0  0  0  0  0  0
  149.9601  140.6441  153.8967 H   0  0  0  0  0  0  0  0  0  0  0  0
  149.6124  137.9165  155.9591 H   0  0  0  0  0  0  0  0  0  0  0  0
  151.8977  140.1001  159.7497 H   0  0  0  0  0  0  0  0  0  0  0  0
  153.3577  143.2313  159.8296 H   0  0  0  0  0  0  0  0  0  0  0  0
  152.6988  141.9908  160.8945 H   0  0  0  0  0  0  0  0  0  0  0  0
  151.7939  143.4776  160.6212 H   0  0  0  0  0  0  0  0  0  0  0  0
  151.0858  144.8675  156.9664 H   0  0  0  0  0  0  0  0  0  0  0  0
  152.5331  144.6615  157.9504 H   0  0  0  0  0  0  0  0  0  0  0  0
  150.9543  144.8646  158.7245 H   0  0  0  0  0  0  0  0  0  0  0  0
  150.2669  142.8986  155.9570 H   0  0  0  0  0  0  0  0  0  0  0  0
  146.2604  143.6571  154.7137 H   0  0  0  0  0  0  0  0  0  0  0  0
  145.5240  143.4327  153.1405 H   0  0  0  0  0  0  0  0  0  0  0  0
  143.2876  143.1505  154.1610 H   0  0  0  0  0  0  0  0  0  0  0  0
  143.9890  144.6694  154.6200 H   0  0  0  0  0  0  0  0  0  0  0  0
  144.9237  141.2376  153.7597 H   0  0  0  0  0  0  0  0  0  0  0  0
  1  2  1  0  0  0  0
  1 25  1  0  0  0  0
  1 26  1  0  0  0  0
  1 27  1  0  0  0  0
  2  3  2  0  0  0  0
  2  4  1  0  0  0  0
  4 24  1  0  0  0  0
  4  5  1  0  0  0  0
  5  6  1  0  0  0  0
  5 28  1  0  0  0  0
  5 29  1  0  0  0  0
  6  7  1  0  0  0  0
  6 30  1  0  0  0  0
  6 31  1  0  0  0  0
  7  8  1  0  0  0  0
  7 23  1  0  0  0  0
  7 51  1  0  0  0  0
  8  9  1  0  0  0  0
  8 32  1  0  0  0  0
  8 33  1  0  0  0  0
  9 10  1  0  0  0  0
  9 11  1  0  0  0  0
  9 34  1  0  0  0  0
 10 35  1  0  0  0  0
 11 12  1  0  0  0  0
 11 36  1  0  0  0  0
 11 37  1  0  0  0  0
 12 22  1  0  0  0  0
 12 13  1  0  0  0  0
 13 14  2  0  0  0  0
 13 38  1  0  0  0  0
 14 15  1  0  0  0  0
 15 22  2  0  0  0  0
 15 16  1  0  0  0  0
 16 17  2  0  0  0  0
 16 39  1  0  0  0  0
 17 18  1  0  0  0  0
 17 19  1  0  0  0  0
 18 40  1  0  0  0  0
 18 41  1  0  0  0  0
 18 42  1  0  0  0  0
 19 20  1  0  0  0  0
 19 21  2  0  0  0  0
 20 43  1  0  0  0  0
 20 44  1  0  0  0  0
 20 45  1  0  0  0  0
 21 22  1  0  0  0  0
 21 46  1  0  0  0  0
 23 24  1  0  0  0  0
 23 47  1  0  0  0  0
 23 48  1  0  0  0  0
 24 49  1  0  0  0  0
 24 50  1  0  0  0  0
M  CHG  1   7   1
M  END
> <s_m_source_file>
AV-unprocessed.smi

> <i_m_source_file_index>
1633

> <i_lp_mmshare_version>
43012

> <i_f3d_flags>
0

> <s_epik_input>
W0NIM11DKD1PKU4xW0NIMl1bQ0gyXU4oW0NIMl1bQ0gyXTEpW0NIMl1bQ0BIXShbT0hdKVtDSDJdbihbY0hdbjIpYyhjMjMpW2NIXWMoW0NIM10pYyhbY0hdMylbQ0gzXQ==

> <s_epik_cmdline>
J2VwaWtfcHl0aG9uJywgJy1waCcsICc3LjAnLCAnLXRuJywgJzgnLCAnLW1hJywgJzIwMCcsICctbWV0YWxfYmluZGluZycsICctaW1hZScsICc8aW5maWxlLm1hZT4nLCAnLW9tYWUnLCAnPG91dGZpbGUubWFlPic=

> <r_epik_Ionization_Penalty>
0.0939669

> <r_epik_Ionization_Penalty_Charging>
0.00645254

> <r_epik_Ionization_Penalty_Neutral>
0.0875144

> <r_epik_State_Penalty>
0.0777239

> <r_epik_Charging_Adjusted_Penalty>
0.0841764

> <i_epik_Tot_Q>
1

> <i_epik_Tot_abs_Q>
1

> <r_epik_Metal_State_Penalty>
7.71307e-05

> <b_epik_Metal_Only>
0

> <s_lp_Force_Field>
OPLS_2005

> <r_lp_Energy>
43.6945

> <b_lp_Chiralities_Consistent>
1

> <s_lp_Variant>
AV-unprocessed.smi:1633-1

> <Gold.Version>
5.8.1

> <Gold.Id.Protein>
6NUR|6NUR_protein|mol2

> <Gold.PLP.Fitness>
51.5968

> <Gold.PLP.PLP>
-44.3925

> <Gold.PLP.part.hbond>
-3.1351

> <Gold.PLP.part.metal>
0.0000

> <Gold.PLP.part.buried>
-6.1353

> <Gold.PLP.part.nonpolar>
-36.6539

> <Gold.PLP.part.repulsive>
0.0547

> <Gold.PLP.ligand.clash>
0.0000

> <Gold.PLP.ligand.torsion>
0.9872

> <Gold.PLP.Chemscore.Hbond>
3.0351

> <Gold.PLP.Chemscore.CHOScore>
0.0000

> <Gold.PLP.Chemscore.Metal>
0.0000

> <Gold.Chemscore.Hbonds>
donor molecule, donor type, donor heavy atom, donor atom, acceptor molecule, acceptor atom, score
      L1  H     7    51       P1 10175  2.00
      L1  H    10    35       P1  8028  0.72

> <Gold.PLP.Chemscore.Internal.Correction>
0.0733

> <Gold.Rescore>
     Score         DG    S(hbond)    S(metal)    S(lipo)     H(rot)  DE(clash)    DE(int)     intcor
     17.95     -19.23       1.96        0.00     108.96       2.16       0.15       1.13       ----

> <Gold.Chemscore.Fitness>
17.9504

> <Gold.Chemscore.DG>
-19.2332

> <Gold.Chemscore.ZeroCoef>
-5.4800

> <Gold.Chemscore.Hbond>
1.9571

> <Gold.Chemscore.Metal>
0.0000

> <Gold.Chemscore.Lipo>
108.9585

> <Gold.Chemscore.Internal_Hbond>
0.0000

> <Gold.Chemscore.DEClash>
0.1483

> <Gold.Chemscore.DEInternal>
1.1345

> <Gold.Chemscore.Rot>
2.1608

> <Gold.Chemscore.Internal.Correction>
   9.000000E+99

> <Gold.Chemscore.Hbonds>
donor molecule, donor type, donor heavy atom, donor atom, acceptor molecule, acceptor atom, score
      L1  H     7    51       P1 10175  0.50
      L1  H    10    35       P1  8028  0.69

> <Gold.Chemscore.Hbond.Weighted>
-6.5367

> <Gold.Chemscore.Metal.Weighted>
-0.0000

> <Gold.Chemscore.Lipo.Weighted>
-12.7481

> <Gold.Chemscore.Internal_Hbond.Weighted>
0.0000

> <Gold.Chemscore.DEClash.Weighted>
0.1483

> <Gold.Chemscore.DEInternal.Weighted>
1.1345

> <Gold.Chemscore.Rot.Weighted>
5.5317

> <Gold.Chemscore.Internal.Correction.Weighted>
   9.000000E+99

> <Gold.Protein.RotatedTorsions>
[ 6907 6896 6895 6894 ] final   10.74 input  -60.11 | X-H torsion
[ 7974 7965 7964 7962 ] final   19.61 input  175.53 | X-H torsion
[ 8008 7997 7996 7995 ] final  121.05 input   59.86 | X-H torsion
[ 10167 10162 10161 10158 ] final   -2.92 input  -65.29 | X-H torsion
[ 10718 10713 10712 10709 ] final  139.03 input   66.30 | X-H torsion
[ 10763 10752 10751 10750 ] final -103.42 input  -60.55 | X-H torsion
[ 11005 11000 10999 10996 ] final  177.77 input  -57.11 | X-H torsion

> <Gold.Protein.ActiveResidues>
 VAL166  LYS551  ARG553  GLY616  TRP617  ASP618  TYR619  PRO620  LYS621  CYS622 
 ASP623  PHE694  ASN695  SER759  ASP760  ASP761  ALA762  ILE779  LEU786  VAL792 
 PHE793  MET794  SER795  GLU796  ALA797  LYS798  CYS799  TRP800  GLU811  SER814 

> <Gold.Protein.RotatedAtoms>
  151.7431  135.0850  160.0318 H   0  0  0  0  0  0  0  0  0  0  0  0  # atno 6907 bound_to 6896
  152.3466  133.6125  159.5923 H   0  0  0  0  0  0  0  0  0  0  0  0  # atno 6908 bound_to 6896
  150.7513  133.9555  159.3541 H   0  0  0  0  0  0  0  0  0  0  0  0  # atno 6909 bound_to 6896
  146.2143  139.8289  142.8664 H   0  0  0  0  0  0  0  0  0  0  0  0  # atno 7974 bound_to 7965
  156.2670  140.2817  156.1247 H   0  0  0  0  0  0  0  0  0  0  0  0  # atno 8008 bound_to 7997
  155.1118  140.0391  157.2743 H   0  0  0  0  0  0  0  0  0  0  0  0  # atno 8009 bound_to 7997
  154.6737  140.2593  155.6986 H   0  0  0  0  0  0  0  0  0  0  0  0  # atno 8010 bound_to 7997
  140.6870  143.6600  150.8275 H   0  0  0  0  0  0  0  0  0  0  0  0  # atno 10167 bound_to 10162
  157.4188  131.1036  151.0376 H   0  0  0  0  0  0  0  0  0  0  0  0  # atno 10718 bound_to 10713
  154.7806  135.4824  153.9836 H   0  0  0  0  0  0  0  0  0  0  0  0  # atno 10763 bound_to 10752
  153.1488  135.6787  153.8921 H   0  0  0  0  0  0  0  0  0  0  0  0  # atno 10764 bound_to 10752
  153.8572  135.3160  155.3414 H   0  0  0  0  0  0  0  0  0  0  0  0  # atno 10765 bound_to 10752
  140.3878  134.6889  157.4489 H   0  0  0  0  0  0  0  0  0  0  0  0  # atno 11005 bound_to 11000
  145.3018  141.0196  143.3604 LP  0  0  0  0  0  0  0  0  0  0  0  0  # atno 17320 bound_to 7965
  144.9000  139.4662  143.6637 LP  0  0  0  0  0  0  0  0  0  0  0  0  # atno 17321 bound_to 7965
  140.0308  143.5445  152.2761 LP  0  0  0  0  0  0  0  0  0  0  0  0  # atno 17342 bound_to 10162
  139.6237  144.7633  151.2684 LP  0  0  0  0  0  0  0  0  0  0  0  0  # atno 17343 bound_to 10162
  157.1314  130.6103  149.5530 LP  0  0  0  0  0  0  0  0  0  0  0  0  # atno 17370 bound_to 10713
  155.9874  130.4913  150.7122 LP  0  0  0  0  0  0  0  0  0  0  0  0  # atno 17371 bound_to 10713
  140.0429  134.6241  155.8957 LP  0  0  0  0  0  0  0  0  0  0  0  0  # atno 17394 bound_to 11000
  141.1901  133.6567  156.5398 LP  0  0  0  0  0  0  0  0  0  0  0  0  # atno 17395 bound_to 11000

$$$$
