AV-unprocessed.smi:109|AV-procd|sdf|1050|dock8
  -GOLD-   2262018103D 1   1.00000     0.00000
 Structure written by MMmdl.
 58 61  0  0  0  0  0  0  0  0  1 V2000
  149.5309  141.1133  153.5965 O   0  0  0  0  0  0  0  0  0  0  0  0
  149.5532  140.6954  154.9443 C   0  0  0  0  0  0  0  0  0  0  0  0
  150.9764  140.8335  155.5122 C   0  0  0  0  0  0  0  0  0  0  0  0
  151.0883  140.5306  157.0271 C   0  0  1  0  0  0  0  0  0  0  0  0
  151.7300  139.2276  157.2195 N   0  0  0  0  0  0  0  0  0  0  0  0
  151.0320  138.1229  157.5670 C   0  0  0  0  0  0  0  0  0  0  0  0
  150.5367  137.9622  158.8205 N   0  0  0  0  0  0  0  0  0  0  0  0
  149.8457  136.8632  159.1296 C   0  0  0  0  0  0  0  0  0  0  0  0
  149.5414  135.8254  158.3494 N   0  0  0  0  0  0  0  0  0  0  0  0
  150.0356  135.9723  157.0851 C   0  0  0  0  0  0  0  0  0  0  0  0
  150.7891  137.0900  156.6246 C   0  0  0  0  0  0  0  0  0  0  0  0
  151.1360  136.9102  155.2943 N   0  0  0  0  0  0  0  0  0  0  0  0
  150.6213  135.7505  154.9905 C   0  0  0  0  0  0  0  0  0  0  0  0
  149.9259  135.1179  155.9986 N   0  0  0  0  0  0  0  0  0  0  0  0
  149.2656  133.7681  155.8950 C   0  0  1  0  0  0  0  0  0  0  0  0
  147.9058  133.9201  156.1470 O   0  0  0  0  0  0  0  0  0  0  0  0
  147.2041  134.0814  154.9230 C   0  0  2  0  0  0  0  0  0  0  0  0
  145.7358  133.6687  155.1076 C   0  0  0  0  0  0  0  0  0  0  0  0
  145.6427  132.2741  155.3060 O   0  0  0  0  0  0  0  0  0  0  0  0
  147.9738  133.1689  153.9536 C   0  0  1  0  0  0  0  0  0  0  0  0
  147.9622  133.7233  152.6536 O   0  0  0  0  0  0  0  0  0  0  0  0
  149.4013  133.1147  154.5095 C   0  0  2  0  0  0  0  0  0  0  0  0
  149.8312  131.7728  154.6213 O   0  0  0  0  0  0  0  0  0  0  0  0
  151.8701  141.6152  157.8230 C   0  0  0  0  0  0  0  0  0  0  0  0
  151.9414  141.2595  159.3311 C   0  0  0  0  0  0  0  0  0  0  0  0
  152.7006  142.3138  160.1514 C   0  0  0  0  0  0  0  0  0  0  0  0
  152.0744  143.7026  159.9812 C   0  0  0  0  0  0  0  0  0  0  0  0
  152.0185  144.0889  158.4985 C   0  0  0  0  0  0  0  0  0  0  0  0
  151.2678  143.0347  157.6680 C   0  0  0  0  0  0  0  0  0  0  0  0
  149.7347  133.1897  156.6922 H   0  0  0  0  0  0  0  0  0  0  0  0
  147.2685  135.1227  154.6065 H   0  0  0  0  0  0  0  0  0  0  0  0
  147.5254  132.1740  153.9333 H   0  0  0  0  0  0  0  0  0  0  0  0
  150.1292  133.6489  153.8996 H   0  0  0  0  0  0  0  0  0  0  0  0
  149.4682  140.3483  153.0453 H   0  0  0  0  0  0  0  0  0  0  0  0
  148.8511  141.3046  155.5143 H   0  0  0  0  0  0  0  0  0  0  0  0
  149.2060  139.6633  154.9915 H   0  0  0  0  0  0  0  0  0  0  0  0
  151.6589  140.1885  154.9569 H   0  0  0  0  0  0  0  0  0  0  0  0
  151.2922  141.8564  155.3149 H   0  0  0  0  0  0  0  0  0  0  0  0
  150.0779  140.5226  157.4357 H   0  0  0  0  0  0  0  0  0  0  0  0
  152.7350  139.2225  157.1207 H   0  0  0  0  0  0  0  0  0  0  0  0
  149.4836  136.8084  160.1456 H   0  0  0  0  0  0  0  0  0  0  0  0
  150.7349  135.3193  154.0065 H   0  0  0  0  0  0  0  0  0  0  0  0
  145.3210  134.1519  155.9930 H   0  0  0  0  0  0  0  0  0  0  0  0
  145.1264  133.9737  154.2565 H   0  0  0  0  0  0  0  0  0  0  0  0
  144.7874  131.9868  155.0249 H   0  0  0  0  0  0  0  0  0  0  0  0
  148.2699  134.6159  152.7084 H   0  0  0  0  0  0  0  0  0  0  0  0
  150.5052  131.7277  155.2819 H   0  0  0  0  0  0  0  0  0  0  0  0
  152.8909  141.6456  157.4380 H   0  0  0  0  0  0  0  0  0  0  0  0
  150.9313  141.1509  159.7287 H   0  0  0  0  0  0  0  0  0  0  0  0
  152.4308  140.2968  159.4796 H   0  0  0  0  0  0  0  0  0  0  0  0
  152.7016  142.0341  161.2053 H   0  0  0  0  0  0  0  0  0  0  0  0
  153.7448  142.3405  159.8372 H   0  0  0  0  0  0  0  0  0  0  0  0
  151.0682  143.7073  160.4021 H   0  0  0  0  0  0  0  0  0  0  0  0
  152.6490  144.4426  160.5388 H   0  0  0  0  0  0  0  0  0  0  0  0
  151.5366  145.0605  158.3866 H   0  0  0  0  0  0  0  0  0  0  0  0
  153.0323  144.2017  158.1124 H   0  0  0  0  0  0  0  0  0  0  0  0
  151.2987  143.3586  156.6290 H   0  0  0  0  0  0  0  0  0  0  0  0
  150.2165  143.0218  157.9588 H   0  0  0  0  0  0  0  0  0  0  0  0
  1  2  1  0  0  0  0
  1 34  1  0  0  0  0
  2  3  1  0  0  0  0
  2 35  1  0  0  0  0
  2 36  1  0  0  0  0
  3  4  1  0  0  0  0
  3 37  1  0  0  0  0
  3 38  1  0  0  0  0
  4  5  1  0  0  0  0
  4 24  1  0  0  0  0
  4 39  1  0  0  0  0
  5  6  1  0  0  0  0
  5 40  1  0  0  0  0
  6 11  1  0  0  0  0
  6  7  2  0  0  0  0
  7  8  1  0  0  0  0
  8  9  2  0  0  0  0
  8 41  1  0  0  0  0
  9 10  1  0  0  0  0
 10 14  1  0  0  0  0
 10 11  2  0  0  0  0
 11 12  1  0  0  0  0
 12 13  2  0  0  0  0
 13 14  1  0  0  0  0
 13 42  1  0  0  0  0
 14 15  1  0  0  0  0
 15 30  1  0  0  0  0
 15 22  1  0  0  0  0
 15 16  1  0  0  0  0
 16 17  1  0  0  0  0
 17 31  1  0  0  0  0
 17 18  1  0  0  0  0
 17 20  1  0  0  0  0
 18 19  1  0  0  0  0
 18 43  1  0  0  0  0
 18 44  1  0  0  0  0
 19 45  1  0  0  0  0
 20 32  1  0  0  0  0
 20 21  1  0  0  0  0
 20 22  1  0  0  0  0
 21 46  1  0  0  0  0
 22 33  1  0  0  0  0
 22 23  1  0  0  0  0
 23 47  1  0  0  0  0
 24 29  1  0  0  0  0
 24 25  1  0  0  0  0
 24 48  1  0  0  0  0
 25 26  1  0  0  0  0
 25 49  1  0  0  0  0
 25 50  1  0  0  0  0
 26 27  1  0  0  0  0
 26 51  1  0  0  0  0
 26 52  1  0  0  0  0
 27 28  1  0  0  0  0
 27 53  1  0  0  0  0
 27 54  1  0  0  0  0
 28 29  1  0  0  0  0
 28 55  1  0  0  0  0
 28 56  1  0  0  0  0
 29 57  1  0  0  0  0
 29 58  1  0  0  0  0
M  END
> <s_m_source_file>
AV-unprocessed.smi

> <i_m_source_file_index>
109

> <i_lp_mmshare_version>
43012

> <i_f3d_flags>
0

> <s_epik_input>
W0NIMl0xW0NIMl1bQ0gyXVtDSDJdW0NIMl1bQ0hdMVtDQEhdKFtDSDJdW0NIMl1bT0hdKVtOSF1jKG5bY0hdbjIpYyhjMjMpbltjSF1uM1tDQEBIXTRPW0NASF0oW0NIMl1bT0hdKVtDQEBIXShbT0hdKVtDQEhdNFtPSF0=

> <s_epik_cmdline>
J2VwaWtfcHl0aG9uJywgJy1waCcsICc3LjAnLCAnLXRuJywgJzgnLCAnLW1hJywgJzIwMCcsICctbWV0YWxfYmluZGluZycsICctaW1hZScsICc8aW5maWxlLm1hZT4nLCAnLW9tYWUnLCAnPG91dGZpbGUubWFlPic=

> <r_lp_tautomer_probability>
1

> <r_epik_Ionization_Penalty>
0.000793976

> <r_epik_Ionization_Penalty_Charging>
0

> <r_epik_Ionization_Penalty_Neutral>
0.000793976

> <r_epik_State_Penalty>
-0

> <r_epik_Charging_Adjusted_Penalty>
0

> <i_epik_Tot_Q>
0

> <i_epik_Tot_abs_Q>
0

> <r_epik_Metal_State_Penalty>
-0

> <b_epik_Metal_Only>
0

> <s_epik_Chemistry_Notes>
This compound contains an acetal/aminal-like group ( X-CH(R)-Y where X, Y are N, S, or O) that may be acid/base labile, releasing an aldehyde.

> <s_lp_Force_Field>
OPLS_2005

> <r_lp_Energy>
47.2869

> <b_lp_Chiralities_Consistent>
1

> <s_lp_Variant>
AV-unprocessed.smi:109-20

> <Gold.Version>
5.8.1

> <Gold.Id.Protein>
6NUR|6NUR_protein|mol2

> <Gold.PLP.Fitness>
55.3593

> <Gold.PLP.PLP>
-44.6179

> <Gold.PLP.part.hbond>
-6.0000

> <Gold.PLP.part.metal>
0.0000

> <Gold.PLP.part.buried>
-4.3813

> <Gold.PLP.part.nonpolar>
-33.5005

> <Gold.PLP.part.repulsive>
0.1646

> <Gold.PLP.ligand.clash>
0.0000

> <Gold.PLP.ligand.torsion>
1.5986

> <Gold.PLP.Chemscore.Hbond>
4.1951

> <Gold.PLP.Chemscore.CHOScore>
0.3815

> <Gold.PLP.Chemscore.Metal>
0.0000

> <Gold.Chemscore.Hbonds>
donor molecule, donor type, donor heavy atom, donor atom, acceptor molecule, acceptor atom, score
      L1  H     1    34       P1  7957  0.69
      L1  H    19    45       P1 10957  0.80
      L1  H    21    46       P1  7948  0.98
      P1  H  6896  6907       L1     9  0.61
      P1  H  7989  7998       L1     1  0.04
      P1  H  8011  8017       L1     1  0.99
      L1  C    13    42       P1  7949  0.42

> <Gold.PLP.Chemscore.Internal.Correction>
0.2088

> <Gold.Rescore>
     Score         DG    S(hbond)    S(metal)    S(lipo)     H(rot)  DE(clash)    DE(int)     intcor
     10.11     -12.23       2.84        0.00      96.35       5.47       0.62       1.51       ----

> <Gold.Chemscore.Fitness>
10.1123

> <Gold.Chemscore.DG>
-12.2338

> <Gold.Chemscore.ZeroCoef>
-5.4800

> <Gold.Chemscore.Hbond>
2.8367

> <Gold.Chemscore.Metal>
0.0000

> <Gold.Chemscore.Lipo>
96.3493

> <Gold.Chemscore.Internal_Hbond>
0.0000

> <Gold.Chemscore.DEClash>
0.6160

> <Gold.Chemscore.DEInternal>
1.5055

> <Gold.Chemscore.Rot>
5.4662

> <Gold.Chemscore.Internal.Correction>
   9.000000E+99

> <Gold.Chemscore.Hbonds>
donor molecule, donor type, donor heavy atom, donor atom, acceptor molecule, acceptor atom, score
      L1  H     1    34       P1  7957  0.68
      L1  H    19    45       P1 10957  0.31
      L1  H    21    46       P1  7948  0.37
      P1  H  6896  6907       L1     9  0.06
      P1  H  8011  8017       L1     1  0.24

> <Gold.Chemscore.Hbond.Weighted>
-9.4744

> <Gold.Chemscore.Metal.Weighted>
-0.0000

> <Gold.Chemscore.Lipo.Weighted>
-11.2729

> <Gold.Chemscore.Internal_Hbond.Weighted>
0.0000

> <Gold.Chemscore.DEClash.Weighted>
0.6160

> <Gold.Chemscore.DEInternal.Weighted>
1.5055

> <Gold.Chemscore.Rot.Weighted>
13.9935

> <Gold.Chemscore.Internal.Correction.Weighted>
   9.000000E+99

> <Gold.Protein.RotatedTorsions>
[ 6907 6896 6895 6894 ] final  -80.65 input  -60.11 | X-H torsion
[ 7974 7965 7964 7962 ] final  179.80 input  175.53 | X-H torsion
[ 8008 7997 7996 7995 ] final  117.80 input   59.86 | X-H torsion
[ 10167 10162 10161 10158 ] final -159.60 input  -65.29 | X-H torsion
[ 10718 10713 10712 10709 ] final -158.66 input   66.30 | X-H torsion
[ 10763 10752 10751 10750 ] final  -60.68 input  -60.55 | X-H torsion
[ 11005 11000 10999 10996 ] final  117.10 input  -57.11 | X-H torsion

> <Gold.Protein.ActiveResidues>
 VAL166  LYS551  ARG553  GLY616  TRP617  ASP618  TYR619  PRO620  LYS621  CYS622 
 ASP623  PHE694  ASN695  SER759  ASP760  ASP761  ALA762  ILE779  LEU786  VAL792 
 PHE793  MET794  SER795  GLU796  ALA797  LYS798  CYS799  TRP800  GLU811  SER814 

> <Gold.Protein.RotatedAtoms>
  150.6925  134.3936  159.5087 H   0  0  0  0  0  0  0  0  0  0  0  0  # atno 6907 bound_to 6896
  152.1721  134.8823  160.0542 H   0  0  0  0  0  0  0  0  0  0  0  0  # atno 6908 bound_to 6896
  151.9845  133.3734  159.4157 H   0  0  0  0  0  0  0  0  0  0  0  0  # atno 6909 bound_to 6896
  144.7142  140.0603  143.6433 H   0  0  0  0  0  0  0  0  0  0  0  0  # atno 7974 bound_to 7965
  156.2513  140.2888  156.0735 H   0  0  0  0  0  0  0  0  0  0  0  0  # atno 8008 bound_to 7997
  155.1645  140.0400  157.2867 H   0  0  0  0  0  0  0  0  0  0  0  0  # atno 8009 bound_to 7997
  154.6369  140.2513  155.7374 H   0  0  0  0  0  0  0  0  0  0  0  0  # atno 8010 bound_to 7997
  139.6602  143.9926  152.2220 H   0  0  0  0  0  0  0  0  0  0  0  0  # atno 10167 bound_to 10162
  156.5573  130.8631  151.2798 H   0  0  0  0  0  0  0  0  0  0  0  0  # atno 10718 bound_to 10713
  154.2729  135.6286  153.5317 H   0  0  0  0  0  0  0  0  0  0  0  0  # atno 10763 bound_to 10752
  152.9877  135.5614  154.5580 H   0  0  0  0  0  0  0  0  0  0  0  0  # atno 10764 bound_to 10752
  154.5154  135.2879  155.1283 H   0  0  0  0  0  0  0  0  0  0  0  0  # atno 10765 bound_to 10752
  139.9063  134.9606  156.7300 H   0  0  0  0  0  0  0  0  0  0  0  0  # atno 11005 bound_to 11000
  145.9869  139.2985  143.1008 LP  0  0  0  0  0  0  0  0  0  0  0  0  # atno 17320 bound_to 7965
  145.8947  140.9281  143.0534 LP  0  0  0  0  0  0  0  0  0  0  0  0  # atno 17321 bound_to 7965
  139.9663  144.6524  150.8031 LP  0  0  0  0  0  0  0  0  0  0  0  0  # atno 17342 bound_to 10162
  140.7577  143.3091  151.2889 LP  0  0  0  0  0  0  0  0  0  0  0  0  # atno 17343 bound_to 10162
  157.7375  130.9798  150.2200 LP  0  0  0  0  0  0  0  0  0  0  0  0  # atno 17370 bound_to 10713
  156.2831  130.3736  149.7916 LP  0  0  0  0  0  0  0  0  0  0  0  0  # atno 17371 bound_to 10713
  140.6933  133.9371  155.7979 LP  0  0  0  0  0  0  0  0  0  0  0  0  # atno 17394 bound_to 11000
  141.0426  134.0600  157.3884 LP  0  0  0  0  0  0  0  0  0  0  0  0  # atno 17395 bound_to 11000

$$$$
