AV-unprocessed.smi:290|AV-procd|sdf|2222|dock1
  -GOLD-   2262022 73D 1   1.00000     0.00000
 Structure written by MMmdl.
 59 62  0  0  0  0  0  0  0  0  2 V2000
  153.1328  140.5721  159.3929 C   0  0  0  0  0  0  0  0  0  0  0  0
  152.0488  141.5212  159.9278 C   0  0  1  0  0  0  0  0  0  0  0  0
  152.6320  142.1379  161.0776 O   0  0  0  0  0  0  0  0  0  0  0  0
  152.3800  143.5333  161.0762 C   0  0  0  0  0  0  0  0  0  0  0  0
  152.3373  143.8811  159.5959 C   0  0  0  0  0  0  0  0  0  0  0  0
  151.6116  142.6860  158.9938 C   0  0  2  0  0  0  0  0  0  0  0  0
  150.2239  142.9017  159.1871 O   0  0  0  0  0  0  0  0  0  0  0  0
  151.8708  142.5521  157.4671 C   0  0  0  0  0  0  0  0  0  0  0  0
  150.9629  141.6700  156.7396 N   0  0  0  0  0  0  0  0  0  0  0  0
  149.6415  141.8949  156.4115 C   0  0  0  0  0  0  0  0  0  0  0  0
  149.0639  140.9463  155.7257 N   0  0  0  0  0  0  0  0  0  0  0  0
  150.0691  140.0088  155.5401 C   0  0  0  0  0  0  0  0  0  0  0  0
  150.1364  138.7569  154.8764 C   0  0  0  0  0  0  0  0  0  0  0  0
  149.0631  138.2326  154.2426 N   0  0  0  0  0  0  0  0  0  0  0  0
  148.1273  139.2187  153.7378 C   0  0  0  0  0  0  0  0  0  0  0  0
  146.8361  138.4512  153.4539 C   0  0  0  0  0  0  0  0  0  0  0  0
  146.9783  137.0920  154.1722 C   0  0  2  0  0  0  0  0  0  0  0  0
  145.7426  136.7545  154.9475 N   0  3  1  0  0  0  0  0  0  0  0  0
  144.5193  137.0502  154.1567 C   0  0  0  0  0  0  0  0  0  0  0  0
  145.7164  135.3877  155.5432 C   0  0  0  0  0  0  0  0  0  0  0  0
  144.3120  134.9103  155.9585 C   0  0  0  0  0  0  0  0  0  0  0  0
  144.3261  133.5261  156.2384 O   0  0  0  0  0  0  0  0  0  0  0  0
  148.2857  137.2491  154.9864 C   0  0  1  0  0  0  0  0  0  0  0  0
  149.0980  135.9442  155.1432 C   0  0  0  0  0  0  0  0  0  0  0  0
  151.3243  138.0962  154.8791 N   0  0  0  0  0  0  0  0  0  0  0  0
  152.3818  138.6315  155.4969 C   0  0  0  0  0  0  0  0  0  0  0  0
  152.4653  139.7896  156.1559 N   0  0  0  0  0  0  0  0  0  0  0  0
  151.2720  140.4520  156.1549 C   0  0  0  0  0  0  0  0  0  0  0  0
  147.1401  136.3186  153.4185 H   0  0  0  0  0  0  0  0  0  0  0  0
  148.0525  137.6640  155.9683 H   0  0  0  0  0  0  0  0  0  0  0  0
  152.7479  139.9184  158.6136 H   0  0  0  0  0  0  0  0  0  0  0  0
  153.4996  139.9232  160.1885 H   0  0  0  0  0  0  0  0  0  0  0  0
  153.9873  141.1202  158.9957 H   0  0  0  0  0  0  0  0  0  0  0  0
  151.1883  140.9280  160.2418 H   0  0  0  0  0  0  0  0  0  0  0  0
  151.4193  143.7301  161.5541 H   0  0  0  0  0  0  0  0  0  0  0  0
  153.1519  144.0809  161.6169 H   0  0  0  0  0  0  0  0  0  0  0  0
  151.8533  144.8378  159.3946 H   0  0  0  0  0  0  0  0  0  0  0  0
  153.3570  143.9370  159.2122 H   0  0  0  0  0  0  0  0  0  0  0  0
  149.9903  142.5963  160.0503 H   0  0  0  0  0  0  0  0  0  0  0  0
  151.8231  143.5348  156.9961 H   0  0  0  0  0  0  0  0  0  0  0  0
  152.8896  142.2004  157.3037 H   0  0  0  0  0  0  0  0  0  0  0  0
  149.1053  142.7894  156.6900 H   0  0  0  0  0  0  0  0  0  0  0  0
  147.9460  139.9987  154.4790 H   0  0  0  0  0  0  0  0  0  0  0  0
  148.5152  139.6951  152.8367 H   0  0  0  0  0  0  0  0  0  0  0  0
  145.9810  139.0289  153.8074 H   0  0  0  0  0  0  0  0  0  0  0  0
  146.7050  138.2982  152.3820 H   0  0  0  0  0  0  0  0  0  0  0  0
  144.3681  136.3008  153.3788 H   0  0  0  0  0  0  0  0  0  0  0  0
  144.5744  138.0243  153.6716 H   0  0  0  0  0  0  0  0  0  0  0  0
  143.6319  137.0777  154.7875 H   0  0  0  0  0  0  0  0  0  0  0  0
  146.1503  134.6808  154.8348 H   0  0  0  0  0  0  0  0  0  0  0  0
  146.3288  135.3567  156.4425 H   0  0  0  0  0  0  0  0  0  0  0  0
  143.9194  135.4614  156.8122 H   0  0  0  0  0  0  0  0  0  0  0  0
  143.6117  135.0819  155.1405 H   0  0  0  0  0  0  0  0  0  0  0  0
  143.8103  133.0787  155.5845 H   0  0  0  0  0  0  0  0  0  0  0  0
  148.5409  135.1528  155.6394 H   0  0  0  0  0  0  0  0  0  0  0  0
  150.0008  136.1108  155.7314 H   0  0  0  0  0  0  0  0  0  0  0  0
  149.4091  135.5591  154.1715 H   0  0  0  0  0  0  0  0  0  0  0  0
  153.2912  138.0501  155.4578 H   0  0  0  0  0  0  0  0  0  0  0  0
  145.7348  137.3886  155.7341 H   0  0  0  0  0  0  0  0  0  0  0  0
  1  2  1  0  0  0  0
  1 31  1  0  0  0  0
  1 32  1  0  0  0  0
  1 33  1  0  0  0  0
  2  6  1  0  0  0  0
  2  3  1  0  0  0  0
  2 34  1  0  0  0  0
  3  4  1  0  0  0  0
  4  5  1  0  0  0  0
  4 35  1  0  0  0  0
  4 36  1  0  0  0  0
  5  6  1  0  0  0  0
  5 37  1  0  0  0  0
  5 38  1  0  0  0  0
  6  7  1  0  0  0  0
  6  8  1  0  0  0  0
  7 39  1  0  0  0  0
  8  9  1  0  0  0  0
  8 40  1  0  0  0  0
  8 41  1  0  0  0  0
  9 28  1  0  0  0  0
  9 10  1  0  0  0  0
 10 11  2  0  0  0  0
 10 42  1  0  0  0  0
 11 12  1  0  0  0  0
 12 28  2  0  0  0  0
 12 13  1  0  0  0  0
 13 14  1  0  0  0  0
 13 25  2  0  0  0  0
 14 23  1  0  0  0  0
 14 15  1  0  0  0  0
 15 16  1  0  0  0  0
 15 43  1  0  0  0  0
 15 44  1  0  0  0  0
 16 17  1  0  0  0  0
 16 45  1  0  0  0  0
 16 46  1  0  0  0  0
 17 29  1  0  0  0  0
 17 18  1  0  0  0  0
 17 23  1  0  0  0  0
 18 19  1  0  0  0  0
 18 20  1  0  0  0  0
 18 59  1  0  0  0  0
 19 47  1  0  0  0  0
 19 48  1  0  0  0  0
 19 49  1  0  0  0  0
 20 21  1  0  0  0  0
 20 50  1  0  0  0  0
 20 51  1  0  0  0  0
 21 22  1  0  0  0  0
 21 52  1  0  0  0  0
 21 53  1  0  0  0  0
 22 54  1  0  0  0  0
 23 30  1  0  0  0  0
 23 24  1  0  0  0  0
 24 55  1  0  0  0  0
 24 56  1  0  0  0  0
 24 57  1  0  0  0  0
 25 26  1  0  0  0  0
 26 27  2  0  0  0  0
 26 58  1  0  0  0  0
 27 28  1  0  0  0  0
M  CHG  1  18   1
M  END
> <s_m_source_file>
AV-unprocessed.smi

> <i_m_source_file_index>
290

> <i_lp_mmshare_version>
43012

> <i_f3d_flags>
0

> <s_epik_input>
W0NIMl0xW0NIMl1PW0NAQEhdKFtDSDNdKVtDQEBdMShbT0hdKVtDSDJdbihbY0hdbjIpYyhjMjMpbltjSF1uYzNONFtDSDJdW0NIMl1bQ0BIXShbQ0BIXTRbQ0gzXSlOKFtDSDNdKVtDSDJdW0NIMl1bT0hd

> <s_epik_cmdline>
J2VwaWtfcHl0aG9uJywgJy1waCcsICc3LjAnLCAnLXRuJywgJzgnLCAnLW1hJywgJzIwMCcsICctbWV0YWxfYmluZGluZycsICctaW1hZScsICc8aW5maWxlLm1hZT4nLCAnLW9tYWUnLCAnPG91dGZpbGUubWFlPic=

> <r_lp_tautomer_probability>
1

> <r_epik_Ionization_Penalty>
0.0036983

> <r_epik_Ionization_Penalty_Charging>
0.0032725

> <r_epik_Ionization_Penalty_Neutral>
0.000425798

> <r_epik_State_Penalty>
-0

> <r_epik_Charging_Adjusted_Penalty>
0.0032725

> <i_epik_Tot_Q>
1

> <i_epik_Tot_abs_Q>
1

> <r_epik_Metal_State_Penalty>
-0

> <b_epik_Metal_Only>
0

> <s_lp_Force_Field>
OPLS_2005

> <r_lp_Energy>
67.3345

> <b_lp_Chiralities_Consistent>
1

> <s_lp_Variant>
AV-unprocessed.smi:290-8

> <Gold.Version>
5.8.1

> <Gold.Id.Protein>
6NUR|6NUR_protein|mol2

> <Gold.PLP.Fitness>
42.8202

> <Gold.PLP.PLP>
-36.4102

> <Gold.PLP.part.hbond>
-2.9274

> <Gold.PLP.part.metal>
0.0000

> <Gold.PLP.part.buried>
-3.9312

> <Gold.PLP.part.nonpolar>
-28.8954

> <Gold.PLP.part.repulsive>
0.6824

> <Gold.PLP.ligand.clash>
0.0000

> <Gold.PLP.ligand.torsion>
1.4059

> <Gold.PLP.Chemscore.Hbond>
2.0000

> <Gold.PLP.Chemscore.CHOScore>
0.9315

> <Gold.PLP.Chemscore.Metal>
0.0000

> <Gold.Chemscore.Hbonds>
donor molecule, donor type, donor heavy atom, donor atom, acceptor molecule, acceptor atom, score
      L1  H    22    54       P1 10957  1.00
      P1  H  7997  8010       L1    27  1.00
      L1  C    10    42       P1  8028  1.00

> <Gold.PLP.Chemscore.Internal.Correction>
0.4274

> <Gold.Rescore>
     Score         DG    S(hbond)    S(metal)    S(lipo)     H(rot)  DE(clash)    DE(int)     intcor
      7.24     -11.77       1.70        0.00      85.34       3.67       1.75       2.79       ----

> <Gold.Chemscore.Fitness>
7.2365

> <Gold.Chemscore.DG>
-11.7701

> <Gold.Chemscore.ZeroCoef>
-5.4800

> <Gold.Chemscore.Hbond>
1.7034

> <Gold.Chemscore.Metal>
0.0000

> <Gold.Chemscore.Lipo>
85.3439

> <Gold.Chemscore.Internal_Hbond>
0.0000

> <Gold.Chemscore.DEClash>
1.7473

> <Gold.Chemscore.DEInternal>
2.7863

> <Gold.Chemscore.Rot>
3.6658

> <Gold.Chemscore.Internal.Correction>
   9.000000E+99

> <Gold.Chemscore.Hbonds>
donor molecule, donor type, donor heavy atom, donor atom, acceptor molecule, acceptor atom, score
      L1  H    22    54       P1 10957  0.99
      P1  H  7997  8010       L1    27  0.34

> <Gold.Chemscore.Hbond.Weighted>
-5.6893

> <Gold.Chemscore.Metal.Weighted>
-0.0000

> <Gold.Chemscore.Lipo.Weighted>
-9.9852

> <Gold.Chemscore.Internal_Hbond.Weighted>
0.0000

> <Gold.Chemscore.DEClash.Weighted>
1.7473

> <Gold.Chemscore.DEInternal.Weighted>
2.7863

> <Gold.Chemscore.Rot.Weighted>
9.3844

> <Gold.Chemscore.Internal.Correction.Weighted>
   9.000000E+99

> <Gold.Protein.RotatedTorsions>
[ 6907 6896 6895 6894 ] final   -5.37 input  -60.11 | X-H torsion
[ 7974 7965 7964 7962 ] final   63.50 input  175.53 | X-H torsion
[ 8008 7997 7996 7995 ] final   92.85 input   59.86 | X-H torsion
[ 10167 10162 10161 10158 ] final  113.57 input  -65.29 | X-H torsion
[ 10718 10713 10712 10709 ] final  170.06 input   66.30 | X-H torsion
[ 10763 10752 10751 10750 ] final   45.30 input  -60.55 | X-H torsion
[ 11005 11000 10999 10996 ] final -133.93 input  -57.11 | X-H torsion

> <Gold.Protein.ActiveResidues>
 VAL166  LYS551  ARG553  GLY616  TRP617  ASP618  TYR619  PRO620  LYS621  CYS622 
 ASP623  PHE694  ASN695  SER759  ASP760  ASP761  ALA762  ILE779  LEU786  VAL792 
 PHE793  MET794  SER795  GLU796  ALA797  LYS798  CYS799  TRP800  GLU811  SER814 

> <Gold.Protein.RotatedAtoms>
  151.4826  135.1053  159.9781 H   0  0  0  0  0  0  0  0  0  0  0  0  # atno 6907 bound_to 6896
  152.4773  133.8165  159.7041 H   0  0  0  0  0  0  0  0  0  0  0  0  # atno 6908 bound_to 6896
  150.8820  133.7298  159.2956 H   0  0  0  0  0  0  0  0  0  0  0  0  # atno 6909 bound_to 6896
  145.8611  139.3316  143.0818 H   0  0  0  0  0  0  0  0  0  0  0  0  # atno 7974 bound_to 7965
  156.0400  140.3320  155.7234 H   0  0  0  0  0  0  0  0  0  0  0  0  # atno 8008 bound_to 7997
  155.5758  140.0632  157.2813 H   0  0  0  0  0  0  0  0  0  0  0  0  # atno 8009 bound_to 7997
  154.4389  140.1852  156.0914 H   0  0  0  0  0  0  0  0  0  0  0  0  # atno 8010 bound_to 7997
  139.6451  144.7126  151.2158 H   0  0  0  0  0  0  0  0  0  0  0  0  # atno 10167 bound_to 10162
  157.0135  131.0211  151.2796 H   0  0  0  0  0  0  0  0  0  0  0  0  # atno 10718 bound_to 10713
  152.9827  135.6044  154.3414 H   0  0  0  0  0  0  0  0  0  0  0  0  # atno 10763 bound_to 10752
  154.3110  135.2771  155.2568 H   0  0  0  0  0  0  0  0  0  0  0  0  # atno 10764 bound_to 10752
  154.4777  135.5925  153.6423 H   0  0  0  0  0  0  0  0  0  0  0  0  # atno 10765 bound_to 10752
  140.9036  134.1659  157.4442 H   0  0  0  0  0  0  0  0  0  0  0  0  # atno 11005 bound_to 11000
  145.9246  140.9091  143.0387 LP  0  0  0  0  0  0  0  0  0  0  0  0  # atno 17320 bound_to 7965
  144.6726  140.1336  143.7442 LP  0  0  0  0  0  0  0  0  0  0  0  0  # atno 17321 bound_to 7965
  140.7511  143.6244  150.8482 LP  0  0  0  0  0  0  0  0  0  0  0  0  # atno 17342 bound_to 10162
  139.9886  143.5872  152.2918 LP  0  0  0  0  0  0  0  0  0  0  0  0  # atno 17343 bound_to 10162
  157.5302  130.8054  149.7909 LP  0  0  0  0  0  0  0  0  0  0  0  0  # atno 17370 bound_to 10713
  156.0127  130.3826  150.2210 LP  0  0  0  0  0  0  0  0  0  0  0  0  # atno 17371 bound_to 10713
  139.8746  134.9908  156.5519 LP  0  0  0  0  0  0  0  0  0  0  0  0  # atno 17394 bound_to 11000
  140.8199  133.8362  155.8886 LP  0  0  0  0  0  0  0  0  0  0  0  0  # atno 17395 bound_to 11000

$$$$
