#       Name:                AV-unprocessed.smi:20
#       Creating user name   scv26
#       Creation time:       Thu Mar 26 15:29:13 2020


#       File generated by GOLD software.
#

@<TRIPOS>MOLECULE
AV-unprocessed.smi:20
    67    71     1
SMALL
NO_CHARGES


@<TRIPOS>ATOM
      1 ****         0.3433   7.1386   1.1025 O.2            1 S1                 0.0000
      2 ****        -0.4335   6.2989   1.5511 C.2            1 S1                 0.0000
      3 ****        -0.5566   4.8865   1.0063 C.3            1 S1                 0.0000
      4 ****        -1.8827   4.3783   1.6224 C.3            1 S1                 0.0000
      5 ****        -3.0830   4.5965   0.6621 C.3            1 S1                 0.0000
      6 ****        -3.0614   3.6195  -0.5270 C.3            1 S1                 0.0000
      7 ****        -2.9431   2.1665  -0.0468 C.3            1 S1                 0.0000
      8 ****        -1.8025   2.0128   0.8530 N.3            1 S1                 0.0000
      9 ****        -1.3800   0.7350   1.0220 C.ar           1 S1                 0.0000
     10 ****        -1.4468   0.1534   2.2497 N.ar           1 S1                 0.0000
     11 ****        -1.0342  -1.1056   2.4236 C.ar           1 S1                 0.0000
     12 ****        -0.5248  -1.9484   1.5234 N.ar           1 S1                 0.0000
     13 ****        -0.4516  -1.3694   0.2911 C.ar           1 S1                 0.0000
     14 ****        -0.8541  -0.0462  -0.0450 C.ar           1 S1                 0.0000
     15 ****        -0.6149   0.1925  -1.3935 N.2            1 S1                 0.0000
     16 ****        -0.1054  -0.9267  -1.8308 C.2            1 S1                 0.0000
     17 ****         0.0366  -1.9145  -0.8832 N.pl3          1 S1                 0.0000
     18 ****         0.5842  -3.2429  -1.0929 C.3            1 S1                 0.0000
     19 ****         2.1303  -3.2726  -1.2226 C.3            1 S1                 0.0000
     20 ****         2.8404  -2.6237  -0.0064 C.3            1 S1                 0.0000
     21 ****         2.8169  -1.2125  -0.0693 O.3            1 S1                 0.0000
     22 ****         2.6268  -4.7260  -1.4391 C.3            1 S1                 0.0000
     23 ****         2.0231  -5.4418  -2.6362 C.3            1 S1                 0.0000
     24 ****         3.0062  -6.5842  -2.8550 C.3            1 S1                 0.0000
     25 ****         4.2802  -6.0440  -2.5312 O.3            1 S1                 0.0000
     26 ****         4.1226  -4.8552  -1.7621 C.3            1 S1                 0.0000
     27 ****        -1.8161   2.8881   2.0261 C.3            1 S1                 0.0000
     28 ****        -2.0422   5.2822   2.8682 C.3            1 S1                 0.0000
     29 ****        -1.2781   6.4762   2.5639 N.am           1 S1                 0.0000
     30 ****        -0.5463   4.8801  -0.0830 H              1 S1                 0.0000
     31 ****         0.2988   4.3068   1.3553 H              1 S1                 0.0000
     32 ****        -4.0152   4.4475   1.2085 H              1 S1                 0.0000
     33 ****        -3.1070   5.6245   0.2980 H              1 S1                 0.0000
     34 ****        -3.9670   3.7389  -1.1223 H              1 S1                 0.0000
     35 ****        -2.2297   3.8505  -1.1924 H              1 S1                 0.0000
     36 ****        -3.8491   1.8781   0.4879 H              1 S1                 0.0000
     37 ****        -2.8670   1.5057  -0.9098 H              1 S1                 0.0000
     38 ****        -1.1243  -1.4925   3.4279 H              1 S1                 0.0000
     39 ****         0.1930  -1.0608  -2.8606 H              1 S1                 0.0000
     40 ****         0.2654  -3.8839  -0.2700 H              1 S1                 0.0000
     41 ****         0.1153  -3.6439  -1.9915 H              1 S1                 0.0000
     42 ****         2.4038  -2.7040  -2.1131 H              1 S1                 0.0000
     43 ****         2.3906  -2.9576   0.9292 H              1 S1                 0.0000
     44 ****         3.8911  -2.9061   0.0358 H              1 S1                 0.0000
     45 ****         1.9166  -0.9264  -0.0432 H              1 S1                 0.0000
     46 ****         2.4130  -5.3166  -0.5465 H              1 S1                 0.0000
     47 ****         1.0089  -5.8004  -2.4592 H              1 S1                 0.0000
     48 ****         2.0095  -4.7871  -3.5088 H              1 S1                 0.0000
     49 ****         2.7909  -7.4068  -2.1718 H              1 S1                 0.0000
     50 ****         2.9815  -6.9716  -3.8736 H              1 S1                 0.0000
     51 ****         4.4652  -4.0139  -2.3656 H              1 S1                 0.0000
     52 ****         4.7386  -4.8970  -0.8638 H              1 S1                 0.0000
     53 ****        -0.9286   2.7125   2.6363 H              1 S1                 0.0000
     54 ****        -2.6794   2.6327   2.6426 H              1 S1                 0.0000
     55 ****        -3.0818   5.5243   3.0918 H              1 S1                 0.0000
     56 ****        -1.6111   4.8186   3.7568 H              1 S1                 0.0000
     57 ****        -1.3742   7.3371   3.0831 H              1 S1                 0.0000
     58 ****         0.3778   8.0533   1.5050 LP             1 S1                 0.0000
     59 ****         0.9409   6.9073   0.3348 LP             1 S1                 0.0000
     60 ****        -1.0285   2.3991   0.3514 LP             1 S1                 0.0000
     61 ****        -1.8066   0.6707   3.0262 LP             1 S1                 0.0000
     62 ****        -0.2343  -2.8835   1.7262 LP             1 S1                 0.0000
     63 ****        -0.7926   1.0300  -1.9102 LP             1 S1                 0.0000
     64 ****         3.2439  -0.9055  -0.9199 LP             1 S1                 0.0000
     65 ****         3.3146  -0.8317   0.7099 LP             1 S1                 0.0000
     66 ****         4.7735  -5.8303  -3.3744 LP             1 S1                 0.0000
     67 ****         4.7997  -6.7147  -2.0019 LP             1 S1                 0.0000
@<TRIPOS>BOND
    1    1    2 2     
    2    2   29 am    
    3    2    3 1     
    4    3    4 1     
    5    3   30 1     
    6    3   31 1     
    7    4   27 1     
    8    4    5 1     
    9    4   28 1     
   10    5    6 1     
   11    5   32 1     
   12    5   33 1     
   13    6    7 1     
   14    6   34 1     
   15    6   35 1     
   16    7    8 1     
   17    7   36 1     
   18    7   37 1     
   19    8    9 1     
   20    8   27 1     
   21    9   14 ar    
   22    9   10 ar    
   23   10   11 ar    
   24   11   12 ar    
   25   11   38 1     
   26   12   13 ar    
   27   13   17 1     
   28   13   14 ar    
   29   14   15 1     
   30   15   16 2     
   31   16   17 1     
   32   16   39 1     
   33   17   18 1     
   34   18   19 1     
   35   18   40 1     
   36   18   41 1     
   37   19   20 1     
   38   19   22 1     
   39   19   42 1     
   40   20   21 1     
   41   20   43 1     
   42   20   44 1     
   43   21   45 1     
   44   22   26 1     
   45   22   23 1     
   46   22   46 1     
   47   23   24 1     
   48   23   47 1     
   49   23   48 1     
   50   24   25 1     
   51   24   49 1     
   52   24   50 1     
   53   25   26 1     
   54   26   51 1     
   55   26   52 1     
   56   27   53 1     
   57   27   54 1     
   58   28   29 1     
   59   28   55 1     
   60   28   56 1     
   61   29   57 1     
   62    1   58 1     
   63    1   59 1     
   64    8   60 1     
   65   10   61 1     
   66   12   62 1     
   67   15   63 1     
   68   21   64 1     
   69   21   65 1     
   70   25   66 1     
   71   25   67 1     
@<TRIPOS>SUBSTRUCTURE
      1 S1             1
@<TRIPOS>SET
LONE_PAIRS      STATIC     ATOMS    <user>   **** ""
10 58 59 60 61 62 63 64 65 66 67
DONOR_HYDROGENS      STATIC     ATOMS    <user>   **** ""
2 45 57
ATOM$BLUE        STATIC     ATOMS    COLORGROUP SYSTEM
10 58 59 60 61 62 63 64 65 66 67
ATOM$RED        STATIC     ATOMS    COLORGROUP SYSTEM
2 45 57
