AV-unprocessed.smi:2091|AV-procd|sdf|8538|dock7
  -GOLD-   2272011263D 1   1.00000     0.00000
 Structure written by MMmdl.
 36 37  0  0  0  0  0  0  0  0  1 V2000
  151.7616  140.3359  155.2178 O   0  0  0  0  0  0  0  0  0  0  0  0
  150.6813  140.0296  155.7241 C   0  0  0  0  0  0  0  0  0  0  0  0
  149.7414  139.0417  155.0204 C   0  0  0  0  0  0  0  0  0  0  0  0
  149.8403  137.6805  155.5655 N   0  0  0  0  0  0  0  0  0  0  0  0
  150.1886  136.6181  154.7436 C   0  0  0  0  0  0  0  0  0  0  0  0
  150.2912  135.3403  155.1803 C   0  0  0  0  0  0  0  0  0  0  0  0
  150.0317  135.0146  156.5785 C   0  0  0  0  0  0  0  0  0  0  0  0
  150.1016  133.8902  157.0691 O   0  0  0  0  0  0  0  0  0  0  0  0
  149.6809  136.1096  157.3723 N   0  0  0  0  0  0  0  0  0  0  0  0
  149.5713  137.4283  156.9284 C   0  0  0  0  0  0  0  0  0  0  0  0
  149.2514  138.3206  157.7132 O   0  0  0  0  0  0  0  0  0  0  0  0
  150.2620  140.5059  156.9073 N   0  0  0  0  0  0  0  0  0  0  0  0
  150.9848  141.4652  157.7453 C   0  0  2  0  0  0  0  0  0  0  0  0
  151.2719  142.7134  156.8792 C   0  0  0  0  0  0  0  0  0  0  0  0
  151.5273  143.9921  157.6953 C   0  0  0  0  0  0  0  0  0  0  0  0
  152.7937  143.9651  158.5640 C   0  0  0  0  0  0  0  0  0  0  0  0
  152.7697  142.8827  159.6565 C   0  0  0  0  0  0  0  0  0  0  0  0
  153.0586  141.5583  159.1225 N   0  0  0  0  0  0  0  0  0  0  0  0
  152.3238  140.8665  158.2382 C   0  0  0  0  0  0  0  0  0  0  0  0
  152.7153  139.7751  157.8251 O   0  0  0  0  0  0  0  0  0  0  0  0
  149.4897  135.9329  158.3477 H   0  0  0  0  0  0  0  0  0  0  0  0
  148.7223  139.4177  155.1197 H   0  0  0  0  0  0  0  0  0  0  0  0
  149.9404  139.0302  153.9467 H   0  0  0  0  0  0  0  0  0  0  0  0
  150.3863  136.8121  153.6988 H   0  0  0  0  0  0  0  0  0  0  0  0
  150.5664  134.5551  154.4913 H   0  0  0  0  0  0  0  0  0  0  0  0
  149.3597  140.2025  157.2433 H   0  0  0  0  0  0  0  0  0  0  0  0
  150.3583  141.7342  158.5976 H   0  0  0  0  0  0  0  0  0  0  0  0
  152.1014  142.5312  156.1936 H   0  0  0  0  0  0  0  0  0  0  0  0
  150.4076  142.9108  156.2432 H   0  0  0  0  0  0  0  0  0  0  0  0
  151.5995  144.8341  157.0062 H   0  0  0  0  0  0  0  0  0  0  0  0
  150.6606  144.1989  158.3242 H   0  0  0  0  0  0  0  0  0  0  0  0
  153.6797  143.8491  157.9378 H   0  0  0  0  0  0  0  0  0  0  0  0
  152.8941  144.9388  159.0446 H   0  0  0  0  0  0  0  0  0  0  0  0
  153.5393  143.1040  160.3965 H   0  0  0  0  0  0  0  0  0  0  0  0
  151.8199  142.8817  160.1930 H   0  0  0  0  0  0  0  0  0  0  0  0
  153.9214  141.1336  159.4307 H   0  0  0  0  0  0  0  0  0  0  0  0
  1  2  2  0  0  0  0
  2  3  1  0  0  0  0
  2 12  1  0  0  0  0
  3  4  1  0  0  0  0
  3 22  1  0  0  0  0
  3 23  1  0  0  0  0
  4 10  1  0  0  0  0
  4  5  1  0  0  0  0
  5  6  2  0  0  0  0
  5 24  1  0  0  0  0
  6  7  1  0  0  0  0
  6 25  1  0  0  0  0
  7  8  2  0  0  0  0
  7  9  1  0  0  0  0
  9 21  1  0  0  0  0
  9 10  1  0  0  0  0
 10 11  2  0  0  0  0
 12 13  1  0  0  0  0
 12 26  1  0  0  0  0
 13 19  1  0  0  0  0
 13 14  1  0  0  0  0
 13 27  1  0  0  0  0
 14 15  1  0  0  0  0
 14 28  1  0  0  0  0
 14 29  1  0  0  0  0
 15 16  1  0  0  0  0
 15 30  1  0  0  0  0
 15 31  1  0  0  0  0
 16 17  1  0  0  0  0
 16 32  1  0  0  0  0
 16 33  1  0  0  0  0
 17 18  1  0  0  0  0
 17 34  1  0  0  0  0
 17 35  1  0  0  0  0
 18 19  1  0  0  0  0
 18 36  1  0  0  0  0
 19 20  2  0  0  0  0
M  END
> <s_m_source_file>
AV-unprocessed.smi

> <i_m_source_file_index>
2091

> <i_lp_mmshare_version>
43012

> <i_f3d_flags>
0

> <s_epik_input>
Tz1jMVtuSF1jKD1PKVtjSF1bY0hdbjFbQ0gyXUMoPU8pW05IXVtDQEBIXTJbQ0gyXVtDSDJdW0NIMl1bQ0gyXVtOSF1DMj1P

> <s_epik_cmdline>
J2VwaWtfcHl0aG9uJywgJy1waCcsICc3LjAnLCAnLXRuJywgJzgnLCAnLW1hJywgJzIwMCcsICctbWV0YWxfYmluZGluZycsICctaW1hZScsICc8aW5maWxlLm1hZT4nLCAnLW9tYWUnLCAnPG91dGZpbGUubWFlPic=

> <r_lp_tautomer_probability>
0.999537

> <r_epik_Ionization_Penalty>
0.00356328

> <r_epik_Ionization_Penalty_Charging>
0.00356323

> <r_epik_Ionization_Penalty_Neutral>
5.33217e-08

> <r_epik_State_Penalty>
0.00253125

> <r_epik_Charging_Adjusted_Penalty>
0.00609448

> <i_epik_Tot_Q>
0

> <i_epik_Tot_abs_Q>
0

> <r_epik_Metal_State_Penalty>
0.368636

> <b_epik_Metal_Only>
0

> <s_lp_Force_Field>
OPLS_2005

> <r_lp_Energy>
10.0871

> <b_lp_Chiralities_Consistent>
1

> <s_lp_Variant>
AV-unprocessed.smi:2091-1

> <Gold.Version>
5.8.1

> <Gold.Id.Protein>
6NUR|6NUR_protein|mol2

> <Gold.PLP.Fitness>
41.1974

> <Gold.PLP.PLP>
-30.8642

> <Gold.PLP.part.hbond>
-3.0000

> <Gold.PLP.part.metal>
0.0000

> <Gold.PLP.part.buried>
-4.9403

> <Gold.PLP.part.nonpolar>
-23.8707

> <Gold.PLP.part.repulsive>
0.1994

> <Gold.PLP.ligand.clash>
0.0000

> <Gold.PLP.ligand.torsion>
0.3071

> <Gold.PLP.Chemscore.Hbond>
2.6320

> <Gold.PLP.Chemscore.CHOScore>
1.0167

> <Gold.PLP.Chemscore.Metal>
0.0000

> <Gold.Chemscore.Hbonds>
donor molecule, donor type, donor heavy atom, donor atom, acceptor molecule, acceptor atom, score
      P1  H  6896  6908       L1     8  0.33
      P1  H  7989  7998       L1     1  0.83
      P1  H  7997  8010       L1    20  1.00
      L1  C     5    24       P1  7948  0.61
      L1  C     5    24       P1  7949  0.35

> <Gold.PLP.Chemscore.Internal.Correction>
0.0015

> <Gold.Rescore>
     Score         DG    S(hbond)    S(metal)    S(lipo)     H(rot)  DE(clash)    DE(int)     intcor
     13.47     -17.33       2.65        0.00      66.75       1.88       0.01       3.85       ----

> <Gold.Chemscore.Fitness>
13.4698

> <Gold.Chemscore.DG>
-17.3324

> <Gold.Chemscore.ZeroCoef>
-5.4800

> <Gold.Chemscore.Hbond>
2.6548

> <Gold.Chemscore.Metal>
0.0000

> <Gold.Chemscore.Lipo>
66.7478

> <Gold.Chemscore.Internal_Hbond>
0.0000

> <Gold.Chemscore.DEClash>
0.0128

> <Gold.Chemscore.DEInternal>
3.8499

> <Gold.Chemscore.Rot>
1.8844

> <Gold.Chemscore.Internal.Correction>
   9.000000E+99

> <Gold.Chemscore.Hbonds>
donor molecule, donor type, donor heavy atom, donor atom, acceptor molecule, acceptor atom, score
      P1  H  6896  6908       L1     8  0.29
      P1  H  7989  7998       L1     1  0.74
      P1  H  7997  8010       L1    20  0.61

> <Gold.Chemscore.Hbond.Weighted>
-8.8671

> <Gold.Chemscore.Metal.Weighted>
-0.0000

> <Gold.Chemscore.Lipo.Weighted>
-7.8095

> <Gold.Chemscore.Internal_Hbond.Weighted>
0.0000

> <Gold.Chemscore.DEClash.Weighted>
0.0128

> <Gold.Chemscore.DEInternal.Weighted>
3.8499

> <Gold.Chemscore.Rot.Weighted>
4.8242

> <Gold.Chemscore.Internal.Correction.Weighted>
   9.000000E+99

> <Gold.Protein.RotatedTorsions>
[ 6907 6896 6895 6894 ] final  118.22 input  -60.11 | X-H torsion
[ 7974 7965 7964 7962 ] final  -47.53 input  175.53 | X-H torsion
[ 8008 7997 7996 7995 ] final   50.34 input   59.86 | X-H torsion
[ 10167 10162 10161 10158 ] final -128.80 input  -65.29 | X-H torsion
[ 10718 10713 10712 10709 ] final -179.10 input   66.30 | X-H torsion
[ 10763 10752 10751 10750 ] final   82.24 input  -60.55 | X-H torsion
[ 11005 11000 10999 10996 ] final  -97.72 input  -57.11 | X-H torsion

> <Gold.Protein.ActiveResidues>
 VAL166  LYS551  ARG553  GLY616  TRP617  ASP618  TYR619  PRO620  LYS621  CYS622 
 ASP623  PHE694  ASN695  SER759  ASP760  ASP761  ALA762  ILE779  LEU786  VAL792 
 PHE793  MET794  SER795  GLU796  ALA797  LYS798  CYS799  TRP800  GLU811  SER814 

> <Gold.Protein.RotatedAtoms>
  152.4558  133.7721  159.6804 H   0  0  0  0  0  0  0  0  0  0  0  0  # atno 6907 bound_to 6896
  150.8484  133.7815  159.3040 H   0  0  0  0  0  0  0  0  0  0  0  0  # atno 6908 bound_to 6896
  151.5417  135.1071  159.9980 H   0  0  0  0  0  0  0  0  0  0  0  0  # atno 6909 bound_to 6896
  145.9606  140.7483  142.9459 H   0  0  0  0  0  0  0  0  0  0  0  0  # atno 7974 bound_to 7965
  155.4172  140.3445  155.4268 H   0  0  0  0  0  0  0  0  0  0  0  0  # atno 8008 bound_to 7997
  156.1414  140.1543  156.8946 H   0  0  0  0  0  0  0  0  0  0  0  0  # atno 8009 bound_to 7997
  154.4974  140.0824  156.7707 H   0  0  0  0  0  0  0  0  0  0  0  0  # atno 8010 bound_to 7997
  139.9465  143.6104  152.2488 H   0  0  0  0  0  0  0  0  0  0  0  0  # atno 10167 bound_to 10162
  156.8540  130.9729  151.3089 H   0  0  0  0  0  0  0  0  0  0  0  0  # atno 10718 bound_to 10713
  153.1186  135.4735  154.9157 H   0  0  0  0  0  0  0  0  0  0  0  0  # atno 10763 bound_to 10752
  154.7553  135.3117  154.8484 H   0  0  0  0  0  0  0  0  0  0  0  0  # atno 10764 bound_to 10752
  153.9054  135.6870  153.4807 H   0  0  0  0  0  0  0  0  0  0  0  0  # atno 10765 bound_to 10752
  141.1369  133.8192  157.0744 H   0  0  0  0  0  0  0  0  0  0  0  0  # atno 11005 bound_to 11000
  144.6814  140.2584  143.7322 LP  0  0  0  0  0  0  0  0  0  0  0  0  # atno 17320 bound_to 7965
  145.8045  139.1978  143.2029 LP  0  0  0  0  0  0  0  0  0  0  0  0  # atno 17321 bound_to 7965
  139.6663  144.7662  151.1868 LP  0  0  0  0  0  0  0  0  0  0  0  0  # atno 17342 bound_to 10162
  140.7596  143.5933  150.8774 LP  0  0  0  0  0  0  0  0  0  0  0  0  # atno 17343 bound_to 10162
  157.6287  130.8712  149.9235 LP  0  0  0  0  0  0  0  0  0  0  0  0  # atno 17370 bound_to 10713
  156.0812  130.3673  150.0576 LP  0  0  0  0  0  0  0  0  0  0  0  0  # atno 17371 bound_to 10713
  140.0491  134.9815  157.1103 LP  0  0  0  0  0  0  0  0  0  0  0  0  # atno 17394 bound_to 11000
  140.4017  134.2075  155.7163 LP  0  0  0  0  0  0  0  0  0  0  0  0  # atno 17395 bound_to 11000

$$$$
