AV-unprocessed.smi:2090|AV-procd|sdf|8537|dock10
  -GOLD-   2272011263D 1   1.00000     0.00000
 Structure written by MMmdl.
 41 42  0  0  0  0  0  0  0  0  3 V2000
  150.3518  133.3975  155.4730 C   0  0  0  0  0  0  0  0  0  0  0  0
  150.4378  134.8848  155.5121 C   0  0  0  0  0  0  0  0  0  0  0  0
  149.5353  135.8746  155.2433 C   0  0  0  0  0  0  0  0  0  0  0  0
  150.2798  137.0612  155.4788 C   0  0  0  0  0  0  0  0  0  0  0  0
  149.6813  138.3373  155.3062 N   0  0  0  0  0  0  0  0  0  0  0  0
  150.2755  139.5233  155.0807 C   0  0  0  0  0  0  0  0  0  0  0  0
  151.5071  139.5998  154.9957 O   0  0  0  0  0  0  0  0  0  0  0  0
  149.3748  140.5399  154.9755 N   0  5  0  0  0  0  0  0  0  0  0  0
  149.5989  141.9043  155.4506 C   0  0  0  0  0  0  0  0  0  0  0  0
  149.4381  141.9711  156.9833 C   0  0  0  0  0  0  0  0  0  0  0  0
  150.1039  143.1704  157.5571 N   0  3  2  0  0  0  0  0  0  0  0  0
  151.5912  143.0977  157.5206 C   0  0  0  0  0  0  0  0  0  0  0  0
  152.2231  144.4240  157.9789 C   0  0  0  0  0  0  0  0  0  0  0  0
  151.7377  144.8470  159.3776 C   0  0  2  0  0  0  0  0  0  0  0  0
  152.3595  144.0032  160.5041 C   0  0  0  0  0  0  0  0  0  0  0  0
  150.1984  144.8410  159.4099 C   0  0  0  0  0  0  0  0  0  0  0  0
  149.6088  143.5071  158.9172 C   0  0  0  0  0  0  0  0  0  0  0  0
  151.5252  136.8160  155.8590 N   0  0  0  0  0  0  0  0  0  0  0  0
  151.6329  135.4205  155.8810 O   0  0  0  0  0  0  0  0  0  0  0  0
  149.3297  133.0634  155.6525 H   0  0  0  0  0  0  0  0  0  0  0  0
  150.9910  132.9496  156.2340 H   0  0  0  0  0  0  0  0  0  0  0  0
  150.6661  133.0188  154.5003 H   0  0  0  0  0  0  0  0  0  0  0  0
  148.5084  135.7657  154.9278 H   0  0  0  0  0  0  0  0  0  0  0  0
  148.6736  138.3559  155.3573 H   0  0  0  0  0  0  0  0  0  0  0  0
  150.5864  142.2768  155.1753 H   0  0  0  0  0  0  0  0  0  0  0  0
  148.8926  142.5987  154.9949 H   0  0  0  0  0  0  0  0  0  0  0  0
  148.3706  141.9944  157.2089 H   0  0  0  0  0  0  0  0  0  0  0  0
  149.8240  141.0693  157.4616 H   0  0  0  0  0  0  0  0  0  0  0  0
  151.9338  142.2747  158.1491 H   0  0  0  0  0  0  0  0  0  0  0  0
  151.9305  142.8747  156.5087 H   0  0  0  0  0  0  0  0  0  0  0  0
  153.3108  144.3456  157.9625 H   0  0  0  0  0  0  0  0  0  0  0  0
  151.9660  145.2038  157.2605 H   0  0  0  0  0  0  0  0  0  0  0  0
  152.0668  145.8734  159.5444 H   0  0  0  0  0  0  0  0  0  0  0  0
  152.0886  142.9503  160.4287 H   0  0  0  0  0  0  0  0  0  0  0  0
  152.0330  144.3575  161.4822 H   0  0  0  0  0  0  0  0  0  0  0  0
  153.4479  144.0654  160.4820 H   0  0  0  0  0  0  0  0  0  0  0  0
  149.8402  145.0600  160.4164 H   0  0  0  0  0  0  0  0  0  0  0  0
  149.8253  145.6463  158.7753 H   0  0  0  0  0  0  0  0  0  0  0  0
  148.5214  143.5884  158.9002 H   0  0  0  0  0  0  0  0  0  0  0  0
  149.8529  142.6983  159.6073 H   0  0  0  0  0  0  0  0  0  0  0  0
  149.8328  143.9412  156.9633 H   0  0  0  0  0  0  0  0  0  0  0  0
  1  2  1  0  0  0  0
  1 20  1  0  0  0  0
  1 21  1  0  0  0  0
  1 22  1  0  0  0  0
  2 19  1  0  0  0  0
  2  3  2  0  0  0  0
  3  4  1  0  0  0  0
  3 23  1  0  0  0  0
  4  5  1  0  0  0  0
  4 18  2  0  0  0  0
  5  6  1  0  0  0  0
  5 24  1  0  0  0  0
  6  7  2  0  0  0  0
  6  8  1  0  0  0  0
  8  9  1  0  0  0  0
  9 10  1  0  0  0  0
  9 25  1  0  0  0  0
  9 26  1  0  0  0  0
 10 11  1  0  0  0  0
 10 27  1  0  0  0  0
 10 28  1  0  0  0  0
 11 17  1  0  0  0  0
 11 12  1  0  0  0  0
 11 41  1  0  0  0  0
 12 13  1  0  0  0  0
 12 29  1  0  0  0  0
 12 30  1  0  0  0  0
 13 14  1  0  0  0  0
 13 31  1  0  0  0  0
 13 32  1  0  0  0  0
 14 15  1  0  0  0  0
 14 16  1  0  0  0  0
 14 33  1  0  0  0  0
 15 34  1  0  0  0  0
 15 35  1  0  0  0  0
 15 36  1  0  0  0  0
 16 17  1  0  0  0  0
 16 37  1  0  0  0  0
 16 38  1  0  0  0  0
 17 39  1  0  0  0  0
 17 40  1  0  0  0  0
 18 19  1  0  0  0  0
M  CHG  1   8  -1
M  CHG  1  11   1
M  END
> <s_m_source_file>
AV-unprocessed.smi

> <i_m_source_file_index>
2090

> <i_lp_mmshare_version>
43012

> <i_f3d_flags>
0

> <s_epik_input>
W0NIM11jMVtjSF1jKG5vMSlbTkhdQyg9TylbTkhdW0NIMl1bQ0gyXU4yW0NIMl1bQ0gyXVtDSF0oW0NIM10pW0NIMl1bQ0gyXTI=

> <s_epik_cmdline>
J2VwaWtfcHl0aG9uJywgJy1waCcsICc3LjAnLCAnLXRuJywgJzgnLCAnLW1hJywgJzIwMCcsICctbWV0YWxfYmluZGluZycsICctaW1hZScsICc8aW5maWxlLm1hZT4nLCAnLW9tYWUnLCAnPG91dGZpbGUubWFlPic=

> <r_epik_Ionization_Penalty>
6.7721

> <r_epik_Ionization_Penalty_Charging>
6.7721

> <r_epik_Ionization_Penalty_Neutral>
5.78572e-06

> <r_epik_State_Penalty>
6.79704

> <r_epik_Charging_Adjusted_Penalty>
13.5691

> <i_epik_Tot_Q>
0

> <i_epik_Tot_abs_Q>
2

> <r_epik_Metal_State_Penalty>
2.73105

> <b_epik_Metal_Only>
1

> <s_lp_Force_Field>
OPLS_2005

> <r_lp_Energy>
13.6419

> <b_lp_Chiralities_Consistent>
1

> <s_lp_Variant>
AV-unprocessed.smi:2090-6

> <Gold.Version>
5.8.1

> <Gold.Id.Protein>
6NUR|6NUR_protein|mol2

> <Gold.PLP.Fitness>
43.2646

> <Gold.PLP.PLP>
-33.3358

> <Gold.PLP.part.hbond>
-3.6037

> <Gold.PLP.part.metal>
0.0000

> <Gold.PLP.part.buried>
-2.5495

> <Gold.PLP.part.nonpolar>
-27.9991

> <Gold.PLP.part.repulsive>
0.2678

> <Gold.PLP.ligand.clash>
0.0000

> <Gold.PLP.ligand.torsion>
0.6807

> <Gold.PLP.Chemscore.Hbond>
3.7440

> <Gold.PLP.Chemscore.CHOScore>
0.0000

> <Gold.PLP.Chemscore.Metal>
0.0000

> <Gold.Chemscore.Hbonds>
donor molecule, donor type, donor heavy atom, donor atom, acceptor molecule, acceptor atom, score
      L1  H    11    41       P1  8028  2.00
      P1  H  7989  7998       L1     7  1.00
      P1  H 10752 10764       L1    19  0.65

> <Gold.PLP.Chemscore.Internal.Correction>
0.0581

> <Gold.Rescore>
     Score         DG    S(hbond)    S(metal)    S(lipo)     H(rot)  DE(clash)    DE(int)     intcor
     15.56     -18.65       2.01        0.00      88.85       1.54       1.10       1.99       ----

> <Gold.Chemscore.Fitness>
15.5595

> <Gold.Chemscore.DG>
-18.6494

> <Gold.Chemscore.ZeroCoef>
-5.4800

> <Gold.Chemscore.Hbond>
2.0114

> <Gold.Chemscore.Metal>
0.0000

> <Gold.Chemscore.Lipo>
88.8529

> <Gold.Chemscore.Internal_Hbond>
0.0000

> <Gold.Chemscore.DEClash>
1.0992

> <Gold.Chemscore.DEInternal>
1.9907

> <Gold.Chemscore.Rot>
1.5409

> <Gold.Chemscore.Internal.Correction>
   9.000000E+99

> <Gold.Chemscore.Hbonds>
donor molecule, donor type, donor heavy atom, donor atom, acceptor molecule, acceptor atom, score
      L1  H    11    41       P1  8028  0.91
      P1  H  7989  7998       L1     7  0.25
      P1  H 10752 10764       L1    19  0.05

> <Gold.Chemscore.Hbond.Weighted>
-6.7182

> <Gold.Chemscore.Metal.Weighted>
-0.0000

> <Gold.Chemscore.Lipo.Weighted>
-10.3958

> <Gold.Chemscore.Internal_Hbond.Weighted>
0.0000

> <Gold.Chemscore.DEClash.Weighted>
1.0992

> <Gold.Chemscore.DEInternal.Weighted>
1.9907

> <Gold.Chemscore.Rot.Weighted>
3.9446

> <Gold.Chemscore.Internal.Correction.Weighted>
   9.000000E+99

> <Gold.Protein.RotatedTorsions>
[ 6907 6896 6895 6894 ] final -166.47 input  -60.11 | X-H torsion
[ 7974 7965 7964 7962 ] final   58.05 input  175.53 | X-H torsion
[ 8008 7997 7996 7995 ] final -171.04 input   59.86 | X-H torsion
[ 10167 10162 10161 10158 ] final   21.42 input  -65.29 | X-H torsion
[ 10718 10713 10712 10709 ] final -163.03 input   66.30 | X-H torsion
[ 10763 10752 10751 10750 ] final  -22.81 input  -60.55 | X-H torsion
[ 11005 11000 10999 10996 ] final  -62.63 input  -57.11 | X-H torsion

> <Gold.Protein.ActiveResidues>
 VAL166  LYS551  ARG553  GLY616  TRP617  ASP618  TYR619  PRO620  LYS621  CYS622 
 ASP623  PHE694  ASN695  SER759  ASP760  ASP761  ALA762  ILE779  LEU786  VAL792 
 PHE793  MET794  SER795  GLU796  ALA797  LYS798  CYS799  TRP800  GLU811  SER814 

> <Gold.Protein.RotatedAtoms>
  151.4440  133.3635  159.2785 H   0  0  0  0  0  0  0  0  0  0  0  0  # atno 6907 bound_to 6896
  150.9137  134.8556  159.7453 H   0  0  0  0  0  0  0  0  0  0  0  0  # atno 6908 bound_to 6896
  152.4946  134.4372  159.9583 H   0  0  0  0  0  0  0  0  0  0  0  0  # atno 6909 bound_to 6896
  145.9224  139.3740  143.0470 H   0  0  0  0  0  0  0  0  0  0  0  0  # atno 7974 bound_to 7965
  155.9263  140.1083  157.1167 H   0  0  0  0  0  0  0  0  0  0  0  0  # atno 8008 bound_to 7997
  154.4063  140.1246  156.4810 H   0  0  0  0  0  0  0  0  0  0  0  0  # atno 8009 bound_to 7997
  155.7135  140.3470  155.4986 H   0  0  0  0  0  0  0  0  0  0  0  0  # atno 8010 bound_to 7997
  140.5428  143.9647  150.6529 H   0  0  0  0  0  0  0  0  0  0  0  0  # atno 10167 bound_to 10162
  156.6189  130.8882  151.2953 H   0  0  0  0  0  0  0  0  0  0  0  0  # atno 10718 bound_to 10713
  153.6579  135.6978  153.5187 H   0  0  0  0  0  0  0  0  0  0  0  0  # atno 10763 bound_to 10752
  153.2655  135.4231  155.0936 H   0  0  0  0  0  0  0  0  0  0  0  0  # atno 10764 bound_to 10752
  154.8459  135.3565  154.6123 H   0  0  0  0  0  0  0  0  0  0  0  0  # atno 10765 bound_to 10752
  141.1366  133.6642  156.5556 H   0  0  0  0  0  0  0  0  0  0  0  0  # atno 11005 bound_to 11000
  145.8532  140.9517  143.0738 LP  0  0  0  0  0  0  0  0  0  0  0  0  # atno 17320 bound_to 7965
  144.6754  140.0434  143.7480 LP  0  0  0  0  0  0  0  0  0  0  0  0  # atno 17321 bound_to 7965
  140.3052  143.3234  152.0933 LP  0  0  0  0  0  0  0  0  0  0  0  0  # atno 17342 bound_to 10162
  139.4995  144.6671  151.6330 LP  0  0  0  0  0  0  0  0  0  0  0  0  # atno 17343 bound_to 10162
  157.7233  130.9588  150.1529 LP  0  0  0  0  0  0  0  0  0  0  0  0  # atno 17370 bound_to 10713
  156.2328  130.3683  149.8425 LP  0  0  0  0  0  0  0  0  0  0  0  0  # atno 17371 bound_to 10713
  140.4029  134.7341  157.4790 LP  0  0  0  0  0  0  0  0  0  0  0  0  # atno 17394 bound_to 11000
  140.0483  134.6167  155.8893 LP  0  0  0  0  0  0  0  0  0  0  0  0  # atno 17395 bound_to 11000

$$$$
