#       Name:                AV-unprocessed.smi:1795
#       Creating user name   scv26
#       Creation time:       Fri Mar 27 08:48:47 2020


#       File generated by GOLD software.
#

@<TRIPOS>MOLECULE
AV-unprocessed.smi:1795
    54    55     1
SMALL
NO_CHARGES


@<TRIPOS>ATOM
      1 ****        -1.2087  -2.8742   3.7797 C.3            1 S1                 0.0000
      2 ****        -1.8506  -3.2689   2.4383 C.3            1 S1                 0.0000
      3 ****        -1.3092  -2.4614   1.2414 C.3            1 S1                 0.0000
      4 ****        -1.8038  -1.0801   1.1891 N.3            1 S1                 0.0000
      5 ****        -1.2907  -0.3329   0.0164 C.3            1 S1                 0.0000
      6 ****        -1.8613   1.1061  -0.0760 C.3            1 S1                 0.0000
      7 ****         0.2604  -0.2563  -0.0292 C.3            1 S1                 0.0000
      8 ****         0.7482   0.4108  -1.2321 N.am           1 S1                 0.0000
      9 ****         1.9304   1.0338  -1.3412 C.2            1 S1                 0.0000
     10 ****         2.7430   1.1030  -0.4179 O.2            1 S1                 0.0000
     11 ****         2.2203   1.6765  -2.7058 C.3            1 S1                 0.0000
     12 ****         3.5442   2.3160  -2.7898 N.am           1 S1                 0.0000
     13 ****         3.6050   3.6964  -2.5131 C.2            1 S1                 0.0000
     14 ****         4.7596   4.3796  -2.5574 C.2            1 S1                 0.0000
     15 ****         5.9641   3.6619  -2.9011 C.2            1 S1                 0.0000
     16 ****         5.9183   2.3405  -3.1629 C.2            1 S1                 0.0000
     17 ****         4.6585   1.5892  -3.1131 C.2            1 S1                 0.0000
     18 ****         4.6083   0.3814  -3.3476 O.2            1 S1                 0.0000
     19 ****        -3.2682  -1.1247   1.2362 C.3            1 S1                 0.0000
     20 ****        -3.8024  -1.8749   2.4691 C.3            1 S1                 0.0000
     21 ****        -5.3316  -1.9751   2.4645 C.3            1 S1                 0.0000
     22 ****        -3.2735  -3.1962   2.4865 O.3            1 S1                 0.0000
     23 ****        -0.1344  -3.0587   3.7638 H              1 S1                 0.0000
     24 ****        -1.6305  -3.4560   4.5994 H              1 S1                 0.0000
     25 ****        -1.3527  -1.8187   4.0087 H              1 S1                 0.0000
     26 ****        -1.6066  -4.3180   2.2694 H              1 S1                 0.0000
     27 ****        -0.2236  -2.4872   1.3047 H              1 S1                 0.0000
     28 ****        -1.5798  -2.9762   0.3181 H              1 S1                 0.0000
     29 ****        -1.6116  -0.8601  -0.8836 H              1 S1                 0.0000
     30 ****        -1.4280   1.6778  -0.8960 H              1 S1                 0.0000
     31 ****        -1.6750   1.6632   0.8430 H              1 S1                 0.0000
     32 ****        -2.9339   1.1127  -0.2643 H              1 S1                 0.0000
     33 ****         0.6267   0.2487   0.8665 H              1 S1                 0.0000
     34 ****         0.7154  -1.2449  -0.0458 H              1 S1                 0.0000
     35 ****         0.1393   0.4006  -2.0375 H              1 S1                 0.0000
     36 ****         2.1147   0.9166  -3.4824 H              1 S1                 0.0000
     37 ****         1.4369   2.4065  -2.9155 H              1 S1                 0.0000
     38 ****         2.6613   4.1562  -2.2579 H              1 S1                 0.0000
     39 ****         4.7877   5.4369  -2.3379 H              1 S1                 0.0000
     40 ****         6.9069   4.1870  -2.9470 H              1 S1                 0.0000
     41 ****         6.8302   1.8198  -3.4163 H              1 S1                 0.0000
     42 ****        -3.6809  -0.1185   1.2776 H              1 S1                 0.0000
     43 ****        -3.6530  -1.5887   0.3266 H              1 S1                 0.0000
     44 ****        -3.4984  -1.3489   3.3745 H              1 S1                 0.0000
     45 ****        -5.7895  -0.9857   2.4689 H              1 S1                 0.0000
     46 ****        -5.6895  -2.5097   3.3446 H              1 S1                 0.0000
     47 ****        -5.6902  -2.5068   1.5826 H              1 S1                 0.0000
     48 ****        -1.4594  -0.5708   1.9778 LP             1 S1                 0.0000
     49 ****         2.5338   0.6823   0.4649 LP             1 S1                 0.0000
     50 ****         3.6117   1.5800  -0.5511 LP             1 S1                 0.0000
     51 ****         3.7329  -0.1002  -3.3049 LP             1 S1                 0.0000
     52 ****         5.4428  -0.1178  -3.5806 LP             1 S1                 0.0000
     53 ****        -3.5800  -3.6433   3.3269 LP             1 S1                 0.0000
     54 ****        -3.6375  -3.6878   1.6955 LP             1 S1                 0.0000
@<TRIPOS>BOND
    1    1    2 1     
    2    1   23 1     
    3    1   24 1     
    4    1   25 1     
    5    2   22 1     
    6    2    3 1     
    7    2   26 1     
    8    3    4 1     
    9    3   27 1     
   10    3   28 1     
   11    4    5 1     
   12    4   19 1     
   13    5    6 1     
   14    5    7 1     
   15    5   29 1     
   16    6   30 1     
   17    6   31 1     
   18    6   32 1     
   19    7    8 1     
   20    7   33 1     
   21    7   34 1     
   22    8    9 am    
   23    8   35 1     
   24    9   10 2     
   25    9   11 1     
   26   11   12 1     
   27   11   36 1     
   28   11   37 1     
   29   12   17 am    
   30   12   13 1     
   31   13   14 2     
   32   13   38 1     
   33   14   15 1     
   34   14   39 1     
   35   15   16 2     
   36   15   40 1     
   37   16   17 1     
   38   16   41 1     
   39   17   18 2     
   40   19   20 1     
   41   19   42 1     
   42   19   43 1     
   43   20   21 1     
   44   20   22 1     
   45   20   44 1     
   46   21   45 1     
   47   21   46 1     
   48   21   47 1     
   49    4   48 1     
   50   10   49 1     
   51   10   50 1     
   52   18   51 1     
   53   18   52 1     
   54   22   53 1     
   55   22   54 1     
@<TRIPOS>SUBSTRUCTURE
      1 S1             1
@<TRIPOS>SET
LONE_PAIRS      STATIC     ATOMS    <user>   **** ""
7 48 49 50 51 52 53 54
DONOR_HYDROGENS      STATIC     ATOMS    <user>   **** ""
1 35
ATOM$BLUE        STATIC     ATOMS    COLORGROUP SYSTEM
7 48 49 50 51 52 53 54
ATOM$RED        STATIC     ATOMS    COLORGROUP SYSTEM
1 35
