AV-unprocessed.smi:1687|AV-procd|sdf|6769|dock5
  -GOLD-   22720 7533D 1   1.00000     0.00000
 Structure written by MMmdl.
 45 46  0  0  0  0  0  0  0  0  2 V2000
  144.3613  142.7275  155.6523 C   0  0  0  0  0  0  0  0  0  0  0  0
  145.8760  142.9968  155.6124 C   0  0  2  0  0  0  0  0  0  0  0  0
  146.4377  143.0358  154.1788 C   0  0  0  0  0  0  0  0  0  0  0  0
  146.5277  141.6331  153.5523 C   0  0  0  0  0  0  0  0  0  0  0  0
  147.3385  140.7215  154.4056 N   0  3  2  0  0  0  0  0  0  0  0  0
  147.6760  139.4036  153.7911 C   0  0  1  0  0  0  0  0  0  0  0  0
  148.7046  138.5978  154.6148 C   0  0  0  0  0  0  0  0  0  0  0  0
  146.3902  138.6000  153.4828 C   0  0  0  0  0  0  0  0  0  0  0  0
  146.6593  137.3446  152.7881 N   0  0  0  0  0  0  0  0  0  0  0  0
  145.7219  136.4762  152.3815 C   0  0  0  0  0  0  0  0  0  0  0  0
  144.5157  136.6558  152.5530 O   0  0  0  0  0  0  0  0  0  0  0  0
  146.2738  135.4115  151.7731 N   0  0  0  0  0  0  0  0  0  0  0  0
  145.6166  134.2931  151.1941 C   0  0  0  0  0  0  0  0  0  0  0  0
  146.4691  133.3600  150.5618 C   0  0  0  0  0  0  0  0  0  0  0  0
  145.9154  132.2163  149.9545 C   0  0  0  0  0  0  0  0  0  0  0  0
  144.5214  132.0352  149.9950 C   0  0  0  0  0  0  0  0  0  0  0  0
  143.7444  133.0119  150.6447 C   0  0  0  0  0  0  0  0  0  0  0  0
  144.2730  134.1091  151.2272 N   0  0  0  0  0  0  0  0  0  0  0  0
  146.7780  140.6076  155.7780 C   0  0  0  0  0  0  0  0  0  0  0  0
  146.6816  141.9884  156.4527 C   0  0  0  0  0  0  0  0  0  0  0  0
  144.1045  141.7507  155.2436 H   0  0  0  0  0  0  0  0  0  0  0  0
  143.8164  143.4779  155.0790 H   0  0  0  0  0  0  0  0  0  0  0  0
  143.9863  142.7643  156.6753 H   0  0  0  0  0  0  0  0  0  0  0  0
  146.0244  143.9844  156.0509 H   0  0  0  0  0  0  0  0  0  0  0  0
  145.8288  143.6884  153.5519 H   0  0  0  0  0  0  0  0  0  0  0  0
  147.4342  143.4796  154.1971 H   0  0  0  0  0  0  0  0  0  0  0  0
  145.5257  141.2267  153.4125 H   0  0  0  0  0  0  0  0  0  0  0  0
  146.9713  141.7194  152.5612 H   0  0  0  0  0  0  0  0  0  0  0  0
  148.1401  139.6201  152.8278 H   0  0  0  0  0  0  0  0  0  0  0  0
  149.0413  137.7165  154.0687 H   0  0  0  0  0  0  0  0  0  0  0  0
  148.2866  138.2501  155.5596 H   0  0  0  0  0  0  0  0  0  0  0  0
  149.5930  139.1883  154.8377 H   0  0  0  0  0  0  0  0  0  0  0  0
  145.8628  138.3481  154.4021 H   0  0  0  0  0  0  0  0  0  0  0  0
  145.7004  139.2022  152.8888 H   0  0  0  0  0  0  0  0  0  0  0  0
  147.6273  137.1197  152.6094 H   0  0  0  0  0  0  0  0  0  0  0  0
  147.2812  135.3998  151.7137 H   0  0  0  0  0  0  0  0  0  0  0  0
  147.5382  133.5141  150.5400 H   0  0  0  0  0  0  0  0  0  0  0  0
  146.5499  131.4912  149.4665 H   0  0  0  0  0  0  0  0  0  0  0  0
  144.0597  131.1712  149.5405 H   0  0  0  0  0  0  0  0  0  0  0  0
  142.6706  132.9098  150.6983 H   0  0  0  0  0  0  0  0  0  0  0  0
  145.7975  140.1322  155.7432 H   0  0  0  0  0  0  0  0  0  0  0  0
  147.4160  139.9654  156.3863 H   0  0  0  0  0  0  0  0  0  0  0  0
  147.6894  142.3770  156.6051 H   0  0  0  0  0  0  0  0  0  0  0  0
  146.2440  141.8895  157.4467 H   0  0  0  0  0  0  0  0  0  0  0  0
  148.2290  141.1821  154.5294 H   0  0  0  0  0  0  0  0  0  0  0  0
  1  2  1  0  0  0  0
  1 21  1  0  0  0  0
  1 22  1  0  0  0  0
  1 23  1  0  0  0  0
  2 20  1  0  0  0  0
  2  3  1  0  0  0  0
  2 24  1  0  0  0  0
  3  4  1  0  0  0  0
  3 25  1  0  0  0  0
  3 26  1  0  0  0  0
  4  5  1  0  0  0  0
  4 27  1  0  0  0  0
  4 28  1  0  0  0  0
  5  6  1  0  0  0  0
  5 19  1  0  0  0  0
  5 45  1  0  0  0  0
  6  7  1  0  0  0  0
  6  8  1  0  0  0  0
  6 29  1  0  0  0  0
  7 30  1  0  0  0  0
  7 31  1  0  0  0  0
  7 32  1  0  0  0  0
  8  9  1  0  0  0  0
  8 33  1  0  0  0  0
  8 34  1  0  0  0  0
  9 10  1  0  0  0  0
  9 35  1  0  0  0  0
 10 11  2  0  0  0  0
 10 12  1  0  0  0  0
 12 13  1  0  0  0  0
 12 36  1  0  0  0  0
 13 18  1  0  0  0  0
 13 14  2  0  0  0  0
 14 15  1  0  0  0  0
 14 37  1  0  0  0  0
 15 16  2  0  0  0  0
 15 38  1  0  0  0  0
 16 17  1  0  0  0  0
 16 39  1  0  0  0  0
 17 18  2  0  0  0  0
 17 40  1  0  0  0  0
 19 20  1  0  0  0  0
 19 41  1  0  0  0  0
 19 42  1  0  0  0  0
 20 43  1  0  0  0  0
 20 44  1  0  0  0  0
M  CHG  1   5   1
M  END
> <s_m_source_file>
AV-unprocessed.smi

> <i_m_source_file_index>
1687

> <i_lp_mmshare_version>
43012

> <i_f3d_flags>
0

> <s_epik_input>
W0NIM11bQ0hdMVtDSDJdW0NIMl1OKFtDSDJdW0NIMl0xKVtDQEhdKFtDSDNdKVtDSDJdW05IXUMoPU8pW05IXWMyW2NIXVtjSF1bY0hdW2NIXW4y

> <s_epik_cmdline>
J2VwaWtfcHl0aG9uJywgJy1waCcsICc3LjAnLCAnLXRuJywgJzgnLCAnLW1hJywgJzIwMCcsICctbWV0YWxfYmluZGluZycsICctaW1hZScsICc8aW5maWxlLm1hZT4nLCAnLW9tYWUnLCAnPG91dGZpbGUubWFlPic=

> <r_epik_Ionization_Penalty>
0.00142891

> <r_epik_Ionization_Penalty_Charging>
0.00139388

> <r_epik_Ionization_Penalty_Neutral>
3.50347e-05

> <r_epik_State_Penalty>
0.000929204

> <r_epik_Charging_Adjusted_Penalty>
0.00232308

> <i_epik_Tot_Q>
1

> <i_epik_Tot_abs_Q>
1

> <r_epik_Metal_State_Penalty>
-0

> <b_epik_Metal_Only>
0

> <s_lp_Force_Field>
OPLS_2005

> <r_lp_Energy>
23.2941

> <b_lp_Chiralities_Consistent>
1

> <s_lp_Variant>
AV-unprocessed.smi:1687-4

> <Gold.Version>
5.8.1

> <Gold.Id.Protein>
6NUR|6NUR_protein|mol2

> <Gold.PLP.Fitness>
40.7861

> <Gold.PLP.PLP>
-31.7931

> <Gold.PLP.part.hbond>
-2.0000

> <Gold.PLP.part.metal>
0.0000

> <Gold.PLP.part.buried>
-5.1782

> <Gold.PLP.part.nonpolar>
-25.4846

> <Gold.PLP.part.repulsive>
0.4573

> <Gold.PLP.ligand.clash>
0.0000

> <Gold.PLP.ligand.torsion>
0.0551

> <Gold.PLP.Chemscore.Hbond>
2.0000

> <Gold.PLP.Chemscore.CHOScore>
0.9994

> <Gold.PLP.Chemscore.Metal>
0.0000

> <Gold.Chemscore.Hbonds>
donor molecule, donor type, donor heavy atom, donor atom, acceptor molecule, acceptor atom, score
      L1  H     9    35       P1  7948  1.00
      L1  H    12    36       P1  7948  1.00
      L1  C    17    40       P1 10186  0.91

> <Gold.PLP.Chemscore.Internal.Correction>
0.1048

> <Gold.Rescore>
     Score         DG    S(hbond)    S(metal)    S(lipo)     H(rot)  DE(clash)    DE(int)     intcor
     16.16     -17.58       1.95        0.00      80.54       1.50       0.08       1.34       ----

> <Gold.Chemscore.Fitness>
16.1607

> <Gold.Chemscore.DG>
-17.5766

> <Gold.Chemscore.ZeroCoef>
-5.4800

> <Gold.Chemscore.Hbond>
1.9469

> <Gold.Chemscore.Metal>
0.0000

> <Gold.Chemscore.Lipo>
80.5380

> <Gold.Chemscore.Internal_Hbond>
0.0000

> <Gold.Chemscore.DEClash>
0.0778

> <Gold.Chemscore.DEInternal>
1.3382

> <Gold.Chemscore.Rot>
1.4956

> <Gold.Chemscore.Internal.Correction>
   9.000000E+99

> <Gold.Chemscore.Hbonds>
donor molecule, donor type, donor heavy atom, donor atom, acceptor molecule, acceptor atom, score
      L1  H     9    35       P1  7948  0.98
      L1  H    12    36       P1  7948  0.95

> <Gold.Chemscore.Hbond.Weighted>
-6.5026

> <Gold.Chemscore.Metal.Weighted>
-0.0000

> <Gold.Chemscore.Lipo.Weighted>
-9.4229

> <Gold.Chemscore.Internal_Hbond.Weighted>
0.0000

> <Gold.Chemscore.DEClash.Weighted>
0.0778

> <Gold.Chemscore.DEInternal.Weighted>
1.3382

> <Gold.Chemscore.Rot.Weighted>
3.8289

> <Gold.Chemscore.Internal.Correction.Weighted>
   9.000000E+99

> <Gold.Protein.RotatedTorsions>
[ 6907 6896 6895 6894 ] final  -58.49 input  -60.11 | X-H torsion
[ 7974 7965 7964 7962 ] final   43.62 input  175.53 | X-H torsion
[ 8008 7997 7996 7995 ] final  176.99 input   59.86 | X-H torsion
[ 10167 10162 10161 10158 ] final   79.75 input  -65.29 | X-H torsion
[ 10718 10713 10712 10709 ] final   64.09 input   66.30 | X-H torsion
[ 10763 10752 10751 10750 ] final  -89.48 input  -60.55 | X-H torsion
[ 11005 11000 10999 10996 ] final   54.92 input  -57.11 | X-H torsion

> <Gold.Protein.ActiveResidues>
 VAL166  LYS551  ARG553  GLY616  TRP617  ASP618  TYR619  PRO620  LYS621  CYS622 
 ASP623  PHE694  ASN695  SER759  ASP760  ASP761  ALA762  ILE779  LEU786  VAL792 
 PHE793  MET794  SER795  GLU796  ALA797  LYS798  CYS799  TRP800  GLU811  SER814 

> <Gold.Protein.RotatedAtoms>
  150.8003  134.7092  159.6593 H   0  0  0  0  0  0  0  0  0  0  0  0  # atno 6907 bound_to 6896
  152.4119  134.6105  160.0034 H   0  0  0  0  0  0  0  0  0  0  0  0  # atno 6908 bound_to 6896
  151.6346  133.3293  159.3152 H   0  0  0  0  0  0  0  0  0  0  0  0  # atno 6909 bound_to 6896
  146.0639  139.5166  142.9640 H   0  0  0  0  0  0  0  0  0  0  0  0  # atno 7974 bound_to 7965
  156.0705  140.1369  156.9835 H   0  0  0  0  0  0  0  0  0  0  0  0  # atno 8008 bound_to 7997
  154.4529  140.0973  156.6723 H   0  0  0  0  0  0  0  0  0  0  0  0  # atno 8009 bound_to 7997
  155.5236  140.3457  155.4414 H   0  0  0  0  0  0  0  0  0  0  0  0  # atno 8010 bound_to 7997
  139.9570  144.5987  150.8108 H   0  0  0  0  0  0  0  0  0  0  0  0  # atno 10167 bound_to 10162
  157.6016  130.9141  149.9800 H   0  0  0  0  0  0  0  0  0  0  0  0  # atno 10718 bound_to 10713
  154.6557  135.5339  153.7956 H   0  0  0  0  0  0  0  0  0  0  0  0  # atno 10763 bound_to 10752
  153.0412  135.6493  154.0949 H   0  0  0  0  0  0  0  0  0  0  0  0  # atno 10764 bound_to 10752
  154.0862  135.2943  155.3260 H   0  0  0  0  0  0  0  0  0  0  0  0  # atno 10765 bound_to 10752
  140.0648  134.5552  155.9112 H   0  0  0  0  0  0  0  0  0  0  0  0  # atno 11005 bound_to 11000
  145.6511  141.0263  143.1760 LP  0  0  0  0  0  0  0  0  0  0  0  0  # atno 17320 bound_to 7965
  144.7191  139.8092  143.7388 LP  0  0  0  0  0  0  0  0  0  0  0  0  # atno 17321 bound_to 7965
  140.7565  143.3068  151.2943 LP  0  0  0  0  0  0  0  0  0  0  0  0  # atno 17342 bound_to 10162
  139.6584  144.0234  152.2675 LP  0  0  0  0  0  0  0  0  0  0  0  0  # atno 17343 bound_to 10162
  156.1090  130.3651  150.0082 LP  0  0  0  0  0  0  0  0  0  0  0  0  # atno 17370 bound_to 10713
  156.8183  130.9349  151.3642 LP  0  0  0  0  0  0  0  0  0  0  0  0  # atno 17371 bound_to 10713
  141.1988  133.6603  156.5810 LP  0  0  0  0  0  0  0  0  0  0  0  0  # atno 17394 bound_to 11000
  140.3716  134.7601  157.4602 LP  0  0  0  0  0  0  0  0  0  0  0  0  # atno 17395 bound_to 11000

$$$$
