#       Name:                AV-unprocessed.smi:2979
#       Creating user name   scv26
#       Creation time:       Fri Mar 27 16:29:03 2020


#       File generated by GOLD software.
#

@<TRIPOS>MOLECULE
AV-unprocessed.smi:2979
    40    41     1
SMALL
NO_CHARGES


@<TRIPOS>ATOM
      1 ****        -3.6199   2.0134  -1.4682 C.3            1 S1                 0.0000
      2 ****        -3.1296   0.7207  -1.1584 O.3            1 S1                 0.0000
      3 ****        -1.7262   0.7047  -0.9660 C.3            1 S1                 0.0000
      4 ****        -1.2900  -0.7315  -0.6440 C.3            1 S1                 0.0000
      5 ****         0.1565  -0.8356  -0.4037 N.pl3          1 S1                 0.0000
      6 ****         0.8632  -0.9296   0.7610 C.2            1 S1                 0.0000
      7 ****         0.3192  -0.9355   2.1535 C.3            1 S1                 0.0000
      8 ****         0.0872   0.4897   2.6743 C.3            1 S1                 0.0000
      9 ****        -0.4636   0.5091   4.1054 C.3            1 S1                 0.0000
     10 ****        -0.6470   1.8436   4.5247 O.3            1 S1                 0.0000
     11 ****         2.1833  -0.9922   0.4266 N.pl3          1 S1                 1.0000
     12 ****         2.3233  -0.9462  -0.9609 C.ar           1 S1                 0.0000
     13 ****         3.4588  -0.9789  -1.7645 C.ar           1 S1                 0.0000
     14 ****         3.2501  -0.9101  -3.1579 C.ar           1 S1                 0.0000
     15 ****         1.9526  -0.8162  -3.7023 C.ar           1 S1                 0.0000
     16 ****         0.8092  -0.7856  -2.8772 C.ar           1 S1                 0.0000
     17 ****         1.0250  -0.8499  -1.5009 C.ar           1 S1                 0.0000
     18 ****        -4.7012   1.9733  -1.5986 H              1 S1                 0.0000
     19 ****        -3.1831   2.3887  -2.3945 H              1 S1                 0.0000
     20 ****        -3.4036   2.7208  -0.6666 H              1 S1                 0.0000
     21 ****        -1.2249   1.0637  -1.8658 H              1 S1                 0.0000
     22 ****        -1.4547   1.3758  -0.1505 H              1 S1                 0.0000
     23 ****        -1.8096  -1.0890   0.2447 H              1 S1                 0.0000
     24 ****        -1.5570  -1.4119  -1.4534 H              1 S1                 0.0000
     25 ****        -0.6092  -1.5064   2.1774 H              1 S1                 0.0000
     26 ****         1.0207  -1.4600   2.8032 H              1 S1                 0.0000
     27 ****         1.0249   1.0461   2.6379 H              1 S1                 0.0000
     28 ****        -0.6080   1.0104   2.0157 H              1 S1                 0.0000
     29 ****        -1.4187  -0.0145   4.1586 H              1 S1                 0.0000
     30 ****         0.2228   0.0118   4.7914 H              1 S1                 0.0000
     31 ****        -0.9919   1.8389   5.4046 H              1 S1                 0.0000
     32 ****         4.4534  -1.0509  -1.3493 H              1 S1                 0.0000
     33 ****         4.1021  -0.9294  -3.8222 H              1 S1                 0.0000
     34 ****         1.8313  -0.7655  -4.7747 H              1 S1                 0.0000
     35 ****        -0.1805  -0.7118  -3.3030 H              1 S1                 0.0000
     36 ****         2.9335  -1.0608   1.1023 H              1 S1                 0.0000
     37 ****        -3.3572   0.1025  -1.9107 LP             1 S1                 0.0000
     38 ****        -3.5719   0.4024  -0.3199 LP             1 S1                 0.0000
     39 ****        -1.2908   2.3034   3.9131 LP             1 S1                 0.0000
     40 ****         0.2294   2.3250   4.5091 LP             1 S1                 0.0000
@<TRIPOS>BOND
    1    1    2 1     
    2    1   18 1     
    3    1   19 1     
    4    1   20 1     
    5    2    3 1     
    6    3    4 1     
    7    3   21 1     
    8    3   22 1     
    9    4    5 1     
   10    4   23 1     
   11    4   24 1     
   12    5   17 1     
   13    5    6 1     
   14    6    7 1     
   15    6   11 2     
   16    7    8 1     
   17    7   25 1     
   18    7   26 1     
   19    8    9 1     
   20    8   27 1     
   21    8   28 1     
   22    9   10 1     
   23    9   29 1     
   24    9   30 1     
   25   10   31 1     
   26   11   12 1     
   27   11   36 1     
   28   12   17 ar    
   29   12   13 ar    
   30   13   14 ar    
   31   13   32 1     
   32   14   15 ar    
   33   14   33 1     
   34   15   16 ar    
   35   15   34 1     
   36   16   17 ar    
   37   16   35 1     
   38    2   37 1     
   39    2   38 1     
   40   10   39 1     
   41   10   40 1     
@<TRIPOS>SUBSTRUCTURE
      1 S1             1
@<TRIPOS>SET
LONE_PAIRS      STATIC     ATOMS    <user>   **** ""
4 37 38 39 40
DONOR_HYDROGENS      STATIC     ATOMS    <user>   **** ""
2 31 36
ATOM$BLUE        STATIC     ATOMS    COLORGROUP SYSTEM
4 37 38 39 40
ATOM$RED        STATIC     ATOMS    COLORGROUP SYSTEM
2 31 36
