#       Name:                AV-unprocessed.smi:40
#       Creating user name   scv26
#       Creation time:       Thu Mar 26 16:24:03 2020


#       File generated by GOLD software.
#

@<TRIPOS>MOLECULE
AV-unprocessed.smi:40
    58    59     1
SMALL
NO_CHARGES


@<TRIPOS>ATOM
      1 ****        -5.7902   0.7468   1.4913 C.3            1 S1                 0.0000
      2 ****        -4.2649   0.6543   1.3531 C.3            1 S1                 0.0000
      3 ****        -3.7353  -0.7866   1.2718 C.3            1 S1                 0.0000
      4 ****        -4.0980  -1.5071  -0.0394 C.3            1 S1                 0.0000
      5 ****        -3.4951  -2.9149  -0.1380 C.3            1 S1                 0.0000
      6 ****        -2.0825  -2.8145  -0.1963 O.3            1 S1                 0.0000
      7 ****        -1.3229  -3.9149  -0.3473 C.2            1 S1                 0.0000
      8 ****        -1.7745  -5.0501  -0.4962 O.2            1 S1                 0.0000
      9 ****         0.0916  -3.5825  -0.3543 N.am           1 S1                 0.0000
     10 ****         1.1506  -4.4177  -0.4844 C.2            1 S1                 0.0000
     11 ****         1.1031  -5.5022  -1.2426 N.2            1 S1                 0.0000
     12 ****         2.1527  -6.3638  -1.4120 C.2            1 S1                 0.0000
     13 ****         2.0321  -7.3749  -2.1024 O.2            1 S1                 0.0000
     14 ****         3.3642  -6.0474  -0.7547 N.am           1 S1                 0.0000
     15 ****         4.5423  -6.9807  -0.9049 C.3            1 S1                 0.0000
     16 ****         5.7229  -6.2411  -0.7817 O.3            1 S1                 0.0000
     17 ****         6.5813  -6.8479   0.1780 C.3            1 S1                 0.0000
     18 ****         7.4705  -5.7867   0.8368 C.3            1 S1                 0.0000
     19 ****         5.6185  -7.5435   1.1387 C.3            1 S1                 0.0000
     20 ****         6.2327  -8.5753   1.8873 O.3            1 S1                 0.0000
     21 ****         4.5225  -8.0448   0.2052 C.3            1 S1                 0.0000
     22 ****         4.7971  -9.3306  -0.3204 O.3            1 S1                 0.0000
     23 ****         3.4376  -4.9133   0.0410 C.2            1 S1                 0.0000
     24 ****         2.3835  -4.0835   0.1954 C.2            1 S1                 0.0000
     25 ****         2.4798  -2.9860   0.9659 F              1 S1                 0.0000
     26 ****         4.4841  -7.3901  -1.9150 H              1 S1                 0.0000
     27 ****         7.1946  -7.5878  -0.3391 H              1 S1                 0.0000
     28 ****         5.1924  -6.8113   1.8262 H              1 S1                 0.0000
     29 ****         3.5514  -8.0796   0.7011 H              1 S1                 0.0000
     30 ****        -6.1046   1.7848   1.6009 H              1 S1                 0.0000
     31 ****        -6.1399   0.2006   2.3676 H              1 S1                 0.0000
     32 ****        -6.2988   0.3420   0.6166 H              1 S1                 0.0000
     33 ****        -3.9380   1.2188   0.4792 H              1 S1                 0.0000
     34 ****        -3.8097   1.1440   2.2145 H              1 S1                 0.0000
     35 ****        -2.6500  -0.7532   1.3717 H              1 S1                 0.0000
     36 ****        -4.0979  -1.3620   2.1242 H              1 S1                 0.0000
     37 ****        -5.1815  -1.5899  -0.1220 H              1 S1                 0.0000
     38 ****        -3.7696  -0.9124  -0.8927 H              1 S1                 0.0000
     39 ****        -3.7935  -3.5198   0.7193 H              1 S1                 0.0000
     40 ****        -3.8631  -3.4126  -1.0362 H              1 S1                 0.0000
     41 ****         0.2894  -2.6019  -0.2182 H              1 S1                 0.0000
     42 ****         8.1246  -6.2351   1.5847 H              1 S1                 0.0000
     43 ****         6.8727  -5.0205   1.3309 H              1 S1                 0.0000
     44 ****         8.0998  -5.2924   0.0967 H              1 S1                 0.0000
     45 ****         5.5671  -9.0124   2.3961 H              1 S1                 0.0000
     46 ****         5.6553  -9.3151  -0.7156 H              1 S1                 0.0000
     47 ****         4.3529  -4.6709   0.5605 H              1 S1                 0.0000
     48 ****        -2.7636  -5.1969  -0.5103 LP             1 S1                 0.0000
     49 ****        -1.1524  -5.8257  -0.6031 LP             1 S1                 0.0000
     50 ****         0.2482  -5.7039  -1.7205 LP             1 S1                 0.0000
     51 ****         1.1593  -7.5751  -2.5476 LP             1 S1                 0.0000
     52 ****         2.8068  -7.9965  -2.2183 LP             1 S1                 0.0000
     53 ****         5.5018  -5.3115  -0.4869 LP             1 S1                 0.0000
     54 ****         6.1870  -6.2086  -1.6669 LP             1 S1                 0.0000
     55 ****         6.9221  -8.1851   2.4976 LP             1 S1                 0.0000
     56 ****         6.6675  -9.2289   1.2678 LP             1 S1                 0.0000
     57 ****         4.1123  -9.5667  -1.0098 LP             1 S1                 0.0000
     58 ****         4.7765 -10.0074   0.4154 LP             1 S1                 0.0000
@<TRIPOS>BOND
    1    1    2 1     
    2    1   30 1     
    3    1   31 1     
    4    1   32 1     
    5    2    3 1     
    6    2   33 1     
    7    2   34 1     
    8    3    4 1     
    9    3   35 1     
   10    3   36 1     
   11    4    5 1     
   12    4   37 1     
   13    4   38 1     
   14    5    6 1     
   15    5   39 1     
   16    5   40 1     
   17    6    7 1     
   18    7    8 2     
   19    7    9 am    
   20    9   10 1     
   21    9   41 1     
   22   10   24 1     
   23   10   11 2     
   24   11   12 1     
   25   12   13 2     
   26   12   14 am    
   27   14   15 1     
   28   14   23 1     
   29   15   26 1     
   30   15   21 1     
   31   15   16 1     
   32   16   17 1     
   33   17   27 1     
   34   17   18 1     
   35   17   19 1     
   36   18   42 1     
   37   18   43 1     
   38   18   44 1     
   39   19   28 1     
   40   19   20 1     
   41   19   21 1     
   42   20   45 1     
   43   21   29 1     
   44   21   22 1     
   45   22   46 1     
   46   23   24 2     
   47   23   47 1     
   48   24   25 1     
   49    8   48 1     
   50    8   49 1     
   51   11   50 1     
   52   13   51 1     
   53   13   52 1     
   54   16   53 1     
   55   16   54 1     
   56   20   55 1     
   57   20   56 1     
   58   22   57 1     
   59   22   58 1     
@<TRIPOS>SUBSTRUCTURE
      1 S1             1
@<TRIPOS>SET
LONE_PAIRS      STATIC     ATOMS    <user>   **** ""
11 48 49 50 51 52 53 54 55 56 57 58
DONOR_HYDROGENS      STATIC     ATOMS    <user>   **** ""
3 41 45 46
ATOM$BLUE        STATIC     ATOMS    COLORGROUP SYSTEM
11 48 49 50 51 52 53 54 55 56 57 58
ATOM$RED        STATIC     ATOMS    COLORGROUP SYSTEM
3 41 45 46
