#       Name:                AV-unprocessed.smi:2789
#       Creating user name   scv26
#       Creation time:       Fri Mar 27 15:19:48 2020


#       File generated by GOLD software.
#

@<TRIPOS>MOLECULE
AV-unprocessed.smi:2789
    40    41     1
SMALL
NO_CHARGES


@<TRIPOS>ATOM
      1 ****        -1.6304  -0.8900  -2.9367 C.3            1 S1                 0.0000
      2 ****        -1.6995  -1.6917  -1.7675 O.3            1 S1                 0.0000
      3 ****        -2.5634  -1.1632  -0.7682 C.3            1 S1                 0.0000
      4 ****        -2.8664  -2.2122   0.2998 C.3            1 S1                 0.0000
      5 ****        -3.3885  -1.3895   1.4753 C.3            1 S1                 0.0000
      6 ****        -2.5839  -0.0843   1.4406 C.3            1 S1                 0.0000
      7 ****        -1.9884   0.0318   0.0201 C.3            1 S1                 0.0000
      8 ****        -0.5274  -0.0157   0.0556 N.am           1 S1                 0.0000
      9 ****         0.2721   1.0248   0.3270 C.2            1 S1                 0.0000
     10 ****        -0.1489   2.1480   0.6040 O.2            1 S1                 0.0000
     11 ****         1.5670   0.6723   0.2506 N.am           1 S1                 0.0000
     12 ****         2.6701   1.4397   0.4570 C.2            1 S1                 0.0000
     13 ****         2.7470   2.7460   0.8568 C.2            1 S1                 0.0000
     14 ****         4.1524   2.9738   0.8956 C.2            1 S1                 0.0000
     15 ****         4.8622   1.9057   0.5537 N.2            1 S1                 0.0000
     16 ****         3.9462   0.9508   0.2808 N.pl3          1 S1                 0.0000
     17 ****         4.3763  -0.3711  -0.1318 C.3            1 S1                 0.0000
     18 ****        -0.9499  -1.3492  -3.6534 H              1 S1                 0.0000
     19 ****        -1.2583   0.1112  -2.7173 H              1 S1                 0.0000
     20 ****        -2.6080  -0.8021  -3.4119 H              1 S1                 0.0000
     21 ****        -3.5140  -0.8711  -1.2196 H              1 S1                 0.0000
     22 ****        -3.5802  -2.9638  -0.0383 H              1 S1                 0.0000
     23 ****        -1.9487  -2.7262   0.5896 H              1 S1                 0.0000
     24 ****        -4.4463  -1.1706   1.3241 H              1 S1                 0.0000
     25 ****        -3.2939  -1.9144   2.4262 H              1 S1                 0.0000
     26 ****        -3.2217   0.7689   1.6741 H              1 S1                 0.0000
     27 ****        -1.8004  -0.1095   2.1997 H              1 S1                 0.0000
     28 ****        -2.3027   0.9621  -0.4567 H              1 S1                 0.0000
     29 ****        -0.0997  -0.9033  -0.1651 H              1 S1                 0.0000
     30 ****         1.7516  -0.2873  -0.0022 H              1 S1                 0.0000
     31 ****         1.9501   3.4365   1.0882 H              1 S1                 0.0000
     32 ****         4.6766   3.8794   1.1626 H              1 S1                 0.0000
     33 ****         4.0657  -1.1053   0.6117 H              1 S1                 0.0000
     34 ****         5.4617  -0.4081  -0.2343 H              1 S1                 0.0000
     35 ****         3.9230  -0.6211  -1.0913 H              1 S1                 0.0000
     36 ****        -0.7800  -1.7697  -1.3822 LP             1 S1                 0.0000
     37 ****        -2.0311  -2.5993  -2.0250 LP             1 S1                 0.0000
     38 ****        -1.1337   2.3193   0.6348 LP             1 S1                 0.0000
     39 ****         0.4938   2.8890   0.7982 LP             1 S1                 0.0000
     40 ****         5.8579   1.8252   0.5081 LP             1 S1                 0.0000
@<TRIPOS>BOND
    1    1    2 1     
    2    1   18 1     
    3    1   19 1     
    4    1   20 1     
    5    2    3 1     
    6    3    7 1     
    7    3    4 1     
    8    3   21 1     
    9    4    5 1     
   10    4   22 1     
   11    4   23 1     
   12    5    6 1     
   13    5   24 1     
   14    5   25 1     
   15    6    7 1     
   16    6   26 1     
   17    6   27 1     
   18    7    8 1     
   19    7   28 1     
   20    8    9 am    
   21    8   29 1     
   22    9   10 2     
   23    9   11 am    
   24   11   12 1     
   25   11   30 1     
   26   12   16 1     
   27   12   13 2     
   28   13   14 1     
   29   13   31 1     
   30   14   15 2     
   31   14   32 1     
   32   15   16 1     
   33   16   17 1     
   34   17   33 1     
   35   17   34 1     
   36   17   35 1     
   37    2   36 1     
   38    2   37 1     
   39   10   38 1     
   40   10   39 1     
   41   15   40 1     
@<TRIPOS>SUBSTRUCTURE
      1 S1             1
@<TRIPOS>SET
LONE_PAIRS      STATIC     ATOMS    <user>   **** ""
5 36 37 38 39 40
DONOR_HYDROGENS      STATIC     ATOMS    <user>   **** ""
2 29 30
ATOM$BLUE        STATIC     ATOMS    COLORGROUP SYSTEM
5 36 37 38 39 40
ATOM$RED        STATIC     ATOMS    COLORGROUP SYSTEM
2 29 30
