AV-unprocessed.smi:60|AV-procd|sdf|594|dock2
  -GOLD-   2262016493D 1   1.00000     0.00000
 Structure written by MMmdl.
 35 36  0  0  0  0  0  0  0  0  2 V2000
  153.6940  139.2509  157.9494 O   0  0  0  0  0  0  0  0  0  0  0  0
  152.6287  139.6144  157.4518 C   0  0  0  0  0  0  0  0  0  0  0  0
  152.2677  139.2707  156.1807 N   0  5  0  0  0  0  0  0  0  0  0  0
  151.0853  139.6421  155.6018 C   0  0  0  0  0  0  0  0  0  0  0  0
  150.7890  139.3243  154.4492 O   0  0  0  0  0  0  0  0  0  0  0  0
  150.2078  140.3882  156.3353 N   0  0  0  0  0  0  0  0  0  0  0  0
  148.9446  140.8354  155.7606 C   0  0  0  0  0  0  0  0  0  0  0  0
  149.1137  141.3196  154.4615 O   0  0  0  0  0  0  0  0  0  0  0  0
  147.9129  141.6252  153.7630 C   0  0  0  0  0  0  0  0  0  0  0  0
  147.1483  140.3236  153.4948 C   0  0  0  0  0  0  0  0  0  0  0  0
  146.8084  140.2289  152.1277 O   0  0  0  0  0  0  0  0  0  0  0  0
  150.5386  140.7909  157.6396 C   0  0  0  0  0  0  0  0  0  0  0  0
  151.6995  140.4410  158.2311 C   0  0  0  0  0  0  0  0  0  0  0  0
  152.0533  140.8949  159.6404 C   0  0  0  0  0  0  0  0  0  0  0  0
  152.0813  142.4048  159.7928 C   0  0  0  0  0  0  0  0  0  0  0  0
  152.2356  142.9893  161.0679 C   0  0  0  0  0  0  0  0  0  0  0  0
  152.2630  144.3910  161.2051 C   0  0  0  0  0  0  0  0  0  0  0  0
  152.1380  145.2132  160.0686 C   0  0  0  0  0  0  0  0  0  0  0  0
  151.9852  144.6332  158.7942 C   0  0  0  0  0  0  0  0  0  0  0  0
  151.9557  143.2319  158.6567 C   0  0  0  0  0  0  0  0  0  0  0  0
  148.2554  139.9895  155.7375 H   0  0  0  0  0  0  0  0  0  0  0  0
  148.4974  141.6045  156.3922 H   0  0  0  0  0  0  0  0  0  0  0  0
  147.2968  142.3371  154.3149 H   0  0  0  0  0  0  0  0  0  0  0  0
  148.1618  142.0855  152.8061 H   0  0  0  0  0  0  0  0  0  0  0  0
  147.7801  139.4686  153.7363 H   0  0  0  0  0  0  0  0  0  0  0  0
  146.2561  140.2525  154.1175 H   0  0  0  0  0  0  0  0  0  0  0  0
  147.5663  139.9286  151.6500 H   0  0  0  0  0  0  0  0  0  0  0  0
  149.7975  141.4054  158.1293 H   0  0  0  0  0  0  0  0  0  0  0  0
  151.3700  140.4705  160.3769 H   0  0  0  0  0  0  0  0  0  0  0  0
  153.0356  140.4927  159.8915 H   0  0  0  0  0  0  0  0  0  0  0  0
  152.3346  142.3654  161.9440 H   0  0  0  0  0  0  0  0  0  0  0  0
  152.3804  144.8351  162.1825 H   0  0  0  0  0  0  0  0  0  0  0  0
  152.1593  146.2879  160.1742 H   0  0  0  0  0  0  0  0  0  0  0  0
  151.8906  145.2625  157.9217 H   0  0  0  0  0  0  0  0  0  0  0  0
  151.8390  142.7920  157.6767 H   0  0  0  0  0  0  0  0  0  0  0  0
  1  2  2  0  0  0  0
  2 13  1  0  0  0  0
  2  3  1  0  0  0  0
  3  4  1  0  0  0  0
  4  5  2  0  0  0  0
  4  6  1  0  0  0  0
  6  7  1  0  0  0  0
  6 12  1  0  0  0  0
  7  8  1  0  0  0  0
  7 21  1  0  0  0  0
  7 22  1  0  0  0  0
  8  9  1  0  0  0  0
  9 10  1  0  0  0  0
  9 23  1  0  0  0  0
  9 24  1  0  0  0  0
 10 11  1  0  0  0  0
 10 25  1  0  0  0  0
 10 26  1  0  0  0  0
 11 27  1  0  0  0  0
 12 13  2  0  0  0  0
 12 28  1  0  0  0  0
 13 14  1  0  0  0  0
 14 15  1  0  0  0  0
 14 29  1  0  0  0  0
 14 30  1  0  0  0  0
 15 20  1  0  0  0  0
 15 16  2  0  0  0  0
 16 17  1  0  0  0  0
 16 31  1  0  0  0  0
 17 18  2  0  0  0  0
 17 32  1  0  0  0  0
 18 19  1  0  0  0  0
 18 33  1  0  0  0  0
 19 20  2  0  0  0  0
 19 34  1  0  0  0  0
 20 35  1  0  0  0  0
M  CHG  1   3  -1
M  END
> <s_m_source_file>
AV-unprocessed.smi

> <i_m_source_file_index>
60

> <i_lp_mmshare_version>
43012

> <i_f3d_flags>
0

> <s_epik_input>
W09IXVtDSDJdW0NIMl1PW0NIMl1uKGMoPU8pW25IXWMxPU8pW2NIXWMxW0NIMl1jMltjSF1bY0hdW2NIXVtjSF1bY0hdMg==

> <s_epik_cmdline>
J2VwaWtfcHl0aG9uJywgJy1waCcsICc3LjAnLCAnLXRuJywgJzgnLCAnLW1hJywgJzIwMCcsICctbWV0YWxfYmluZGluZycsICctaW1hZScsICc8aW5maWxlLm1hZT4nLCAnLW9tYWUnLCAnPG91dGZpbGUubWFlPic=

> <r_lp_tautomer_probability>
0.999537

> <r_epik_Ionization_Penalty>
3.13547

> <r_epik_Ionization_Penalty_Charging>
5.3765e-08

> <r_epik_Ionization_Penalty_Neutral>
3.13547

> <r_epik_State_Penalty>
3.13458

> <r_epik_Charging_Adjusted_Penalty>
3.13458

> <i_epik_Tot_Q>
-1

> <i_epik_Tot_abs_Q>
1

> <r_epik_Metal_State_Penalty>
0.106912

> <b_epik_Metal_Only>
1

> <s_epik_Chemistry_Notes>
This compound contains an acetal/aminal-like group ( X-CH(R)-Y where X, Y are N, S, or O) that may be acid/base labile, releasing an aldehyde.

> <s_lp_Force_Field>
OPLS_2005

> <r_lp_Energy>
15.9602

> <b_lp_Chiralities_Consistent>
1

> <s_lp_Variant>
AV-unprocessed.smi:60-2

> <Gold.Version>
5.8.1

> <Gold.Id.Protein>
6NUR|6NUR_protein|mol2

> <Gold.PLP.Fitness>
50.2673

> <Gold.PLP.PLP>
-42.3950

> <Gold.PLP.part.hbond>
-3.9442

> <Gold.PLP.part.metal>
0.0000

> <Gold.PLP.part.buried>
-5.1829

> <Gold.PLP.part.nonpolar>
-34.3083

> <Gold.PLP.part.repulsive>
0.2839

> <Gold.PLP.ligand.clash>
0.0000

> <Gold.PLP.ligand.torsion>
0.6223

> <Gold.PLP.Chemscore.Hbond>
3.0000

> <Gold.PLP.Chemscore.CHOScore>
0.0000

> <Gold.PLP.Chemscore.Metal>
0.0000

> <Gold.Chemscore.Hbonds>
donor molecule, donor type, donor heavy atom, donor atom, acceptor molecule, acceptor atom, score
      L1  H    11    27       P1  7957  0.91
      P1  H  7989  7998       L1     5  0.95
      P1  H  7997  8008       L1     1  0.99

> <Gold.PLP.Chemscore.Internal.Correction>
0.1169

> <Gold.Rescore>
     Score         DG    S(hbond)    S(metal)    S(lipo)     H(rot)  DE(clash)    DE(int)     intcor
     13.54     -16.38       2.17        0.00     101.52       3.22       0.47       2.37       ----

> <Gold.Chemscore.Fitness>
13.5421

> <Gold.Chemscore.DG>
-16.3831

> <Gold.Chemscore.ZeroCoef>
-5.4800

> <Gold.Chemscore.Hbond>
2.1725

> <Gold.Chemscore.Metal>
0.0000

> <Gold.Chemscore.Lipo>
101.5179

> <Gold.Chemscore.Internal_Hbond>
0.0000

> <Gold.Chemscore.DEClash>
0.4660

> <Gold.Chemscore.DEInternal>
2.3750

> <Gold.Chemscore.Rot>
3.2151

> <Gold.Chemscore.Internal.Correction>
   9.000000E+99

> <Gold.Chemscore.Hbonds>
donor molecule, donor type, donor heavy atom, donor atom, acceptor molecule, acceptor atom, score
      L1  H    11    27       P1  7957  0.86
      P1  H  7989  7998       L1     5  0.21
      P1  H  7997  8008       L1     1  0.69

> <Gold.Chemscore.Hbond.Weighted>
-7.2561

> <Gold.Chemscore.Metal.Weighted>
-0.0000

> <Gold.Chemscore.Lipo.Weighted>
-11.8776

> <Gold.Chemscore.Internal_Hbond.Weighted>
0.0000

> <Gold.Chemscore.DEClash.Weighted>
0.4660

> <Gold.Chemscore.DEInternal.Weighted>
2.3750

> <Gold.Chemscore.Rot.Weighted>
8.2306

> <Gold.Chemscore.Internal.Correction.Weighted>
   9.000000E+99

> <Gold.Protein.RotatedTorsions>
[ 6907 6896 6895 6894 ] final  156.61 input  -60.11 | X-H torsion
[ 7974 7965 7964 7962 ] final   -1.27 input  175.53 | X-H torsion
[ 8008 7997 7996 7995 ] final -109.11 input   59.86 | X-H torsion
[ 10167 10162 10161 10158 ] final  174.39 input  -65.29 | X-H torsion
[ 10718 10713 10712 10709 ] final  110.32 input   66.30 | X-H torsion
[ 10763 10752 10751 10750 ] final  -51.98 input  -60.55 | X-H torsion
[ 11005 11000 10999 10996 ] final  -24.67 input  -57.11 | X-H torsion

> <Gold.Protein.ActiveResidues>
 VAL166  LYS551  ARG553  GLY616  TRP617  ASP618  TYR619  PRO620  LYS621  CYS622 
 ASP623  PHE694  ASN695  SER759  ASP760  ASP761  ALA762  ILE779  LEU786  VAL792 
 PHE793  MET794  SER795  GLU796  ALA797  LYS798  CYS799  TRP800  GLU811  SER814 

> <Gold.Protein.RotatedAtoms>
  152.0272  133.3922  159.4282 H   0  0  0  0  0  0  0  0  0  0  0  0  # atno 6907 bound_to 6896
  150.6885  134.3560  159.4939 H   0  0  0  0  0  0  0  0  0  0  0  0  # atno 6908 bound_to 6896
  152.1342  134.9111  160.0608 H   0  0  0  0  0  0  0  0  0  0  0  0  # atno 6909 bound_to 6896
  146.2419  140.1395  142.8336 H   0  0  0  0  0  0  0  0  0  0  0  0  # atno 7974 bound_to 7965
  154.9544  140.0400  157.2160 H   0  0  0  0  0  0  0  0  0  0  0  0  # atno 8008 bound_to 7997
  154.7948  140.2841  155.5943 H   0  0  0  0  0  0  0  0  0  0  0  0  # atno 8009 bound_to 7997
  156.2954  140.2566  156.2803 H   0  0  0  0  0  0  0  0  0  0  0  0  # atno 8010 bound_to 7997
  139.5140  144.3152  152.0254 H   0  0  0  0  0  0  0  0  0  0  0  0  # atno 10167 bound_to 10162
  157.6499  131.0930  150.6585 H   0  0  0  0  0  0  0  0  0  0  0  0  # atno 10718 bound_to 10713
  154.1354  135.6513  153.4931 H   0  0  0  0  0  0  0  0  0  0  0  0  # atno 10763 bound_to 10752
  153.0182  135.5303  154.6959 H   0  0  0  0  0  0  0  0  0  0  0  0  # atno 10764 bound_to 10752
  154.6205  135.2964  155.0302 H   0  0  0  0  0  0  0  0  0  0  0  0  # atno 10765 bound_to 10752
  140.8866  133.7617  156.0369 H   0  0  0  0  0  0  0  0  0  0  0  0  # atno 11005 bound_to 11000
  145.0259  140.8831  143.5139 LP  0  0  0  0  0  0  0  0  0  0  0  0  # atno 17320 bound_to 7965
  145.1451  139.2548  143.5470 LP  0  0  0  0  0  0  0  0  0  0  0  0  # atno 17321 bound_to 7965
  140.2595  144.4082  150.6191 LP  0  0  0  0  0  0  0  0  0  0  0  0  # atno 17342 bound_to 10162
  140.6167  143.2173  151.6777 LP  0  0  0  0  0  0  0  0  0  0  0  0  # atno 17343 bound_to 10162
  156.6897  130.4591  149.5603 LP  0  0  0  0  0  0  0  0  0  0  0  0  # atno 17370 bound_to 10713
  156.1870  130.6535  151.1018 LP  0  0  0  0  0  0  0  0  0  0  0  0  # atno 17371 bound_to 10713
  140.8397  134.3081  157.5318 LP  0  0  0  0  0  0  0  0  0  0  0  0  # atno 17394 bound_to 11000
  139.8725  134.9409  156.3782 LP  0  0  0  0  0  0  0  0  0  0  0  0  # atno 17395 bound_to 11000

$$$$
