AV-unprocessed.smi:1287|AV-procd|sdf|5379|dock7
  -GOLD-   22720 4523D 1   1.00000     0.00000
 Structure written by MMmdl.
 44 45  0  0  0  0  0  0  0  0  1 V2000
  148.2876  133.0700  152.1138 C   0  0  0  0  0  0  0  0  0  0  0  0
  148.8467  133.2367  153.5225 C   0  0  0  0  0  0  0  0  0  0  0  0
  149.0824  132.2473  154.2156 O   0  0  0  0  0  0  0  0  0  0  0  0
  149.0565  134.4977  153.9330 N   0  0  0  0  0  0  0  0  0  0  0  0
  149.6071  134.8813  155.2320 C   0  0  2  0  0  0  0  0  0  0  0  0
  148.4836  135.5334  156.0549 C   0  0  0  0  0  0  0  0  0  0  0  0
  150.7355  135.9088  155.0499 C   0  0  0  0  0  0  0  0  0  0  0  0
  151.7617  135.8393  155.7285 O   0  0  0  0  0  0  0  0  0  0  0  0
  150.5277  136.8606  154.1275 N   0  0  0  0  0  0  0  0  0  0  0  0
  151.4454  137.9587  153.8420 C   0  0  0  0  0  0  0  0  0  0  0  0
  151.5340  139.0028  154.9471 C   0  0  0  0  0  0  0  0  0  0  0  0
  150.5219  139.9635  155.1565 C   0  0  0  0  0  0  0  0  0  0  0  0
  150.6723  140.8997  156.1970 C   0  0  0  0  0  0  0  0  0  0  0  0
  151.8333  140.8554  157.0051 C   0  0  0  0  0  0  0  0  0  0  0  0
  152.0024  141.7802  158.0590 N   0  0  0  0  0  0  0  0  0  0  0  0
  152.3555  141.2580  159.3783 C   0  0  0  0  0  0  0  0  0  0  0  0
  152.7739  142.4033  160.3155 C   0  0  0  0  0  0  0  0  0  0  0  0
  151.7396  143.3798  160.3706 O   0  0  0  0  0  0  0  0  0  0  0  0
  151.4895  143.9571  159.0935 C   0  0  0  0  0  0  0  0  0  0  0  0
  151.0286  142.8683  158.1090 C   0  0  0  0  0  0  0  0  0  0  0  0
  152.8107  139.9400  156.7898 N   0  0  0  0  0  0  0  0  0  0  0  0
  152.6609  139.0439  155.7919 C   0  0  0  0  0  0  0  0  0  0  0  0
  148.9075  133.6020  151.3912 H   0  0  0  0  0  0  0  0  0  0  0  0
  147.2731  133.4657  152.0584 H   0  0  0  0  0  0  0  0  0  0  0  0
  148.2607  132.0174  151.8296 H   0  0  0  0  0  0  0  0  0  0  0  0
  148.8413  135.2473  153.2918 H   0  0  0  0  0  0  0  0  0  0  0  0
  149.9773  133.9970  155.7552 H   0  0  0  0  0  0  0  0  0  0  0  0
  148.8418  135.8446  157.0371 H   0  0  0  0  0  0  0  0  0  0  0  0
  147.6643  134.8325  156.2169 H   0  0  0  0  0  0  0  0  0  0  0  0
  148.0711  136.4123  155.5569 H   0  0  0  0  0  0  0  0  0  0  0  0
  149.6601  136.8422  153.6112 H   0  0  0  0  0  0  0  0  0  0  0  0
  152.4389  137.5606  153.6288 H   0  0  0  0  0  0  0  0  0  0  0  0
  151.1101  138.4543  152.9308 H   0  0  0  0  0  0  0  0  0  0  0  0
  149.6410  139.9927  154.5322 H   0  0  0  0  0  0  0  0  0  0  0  0
  149.9055  141.6438  156.3518 H   0  0  0  0  0  0  0  0  0  0  0  0
  151.4995  140.7267  159.7971 H   0  0  0  0  0  0  0  0  0  0  0  0
  153.1756  140.5435  159.2950 H   0  0  0  0  0  0  0  0  0  0  0  0
  152.9538  142.0193  161.3196 H   0  0  0  0  0  0  0  0  0  0  0  0
  153.7050  142.8618  159.9784 H   0  0  0  0  0  0  0  0  0  0  0  0
  150.7184  144.7208  159.1946 H   0  0  0  0  0  0  0  0  0  0  0  0
  152.3870  144.4578  158.7266 H   0  0  0  0  0  0  0  0  0  0  0  0
  150.8757  143.3206  157.1303 H   0  0  0  0  0  0  0  0  0  0  0  0
  150.0660  142.4641  158.4247 H   0  0  0  0  0  0  0  0  0  0  0  0
  153.4668  138.3357  155.6670 H   0  0  0  0  0  0  0  0  0  0  0  0
  1  2  1  0  0  0  0
  1 23  1  0  0  0  0
  1 24  1  0  0  0  0
  1 25  1  0  0  0  0
  2  3  2  0  0  0  0
  2  4  1  0  0  0  0
  4  5  1  0  0  0  0
  4 26  1  0  0  0  0
  5  6  1  0  0  0  0
  5  7  1  0  0  0  0
  5 27  1  0  0  0  0
  6 28  1  0  0  0  0
  6 29  1  0  0  0  0
  6 30  1  0  0  0  0
  7  8  2  0  0  0  0
  7  9  1  0  0  0  0
  9 10  1  0  0  0  0
  9 31  1  0  0  0  0
 10 11  1  0  0  0  0
 10 32  1  0  0  0  0
 10 33  1  0  0  0  0
 11 22  1  0  0  0  0
 11 12  2  0  0  0  0
 12 13  1  0  0  0  0
 12 34  1  0  0  0  0
 13 14  2  0  0  0  0
 13 35  1  0  0  0  0
 14 15  1  0  0  0  0
 14 21  1  0  0  0  0
 15 20  1  0  0  0  0
 15 16  1  0  0  0  0
 16 17  1  0  0  0  0
 16 36  1  0  0  0  0
 16 37  1  0  0  0  0
 17 18  1  0  0  0  0
 17 38  1  0  0  0  0
 17 39  1  0  0  0  0
 18 19  1  0  0  0  0
 19 20  1  0  0  0  0
 19 40  1  0  0  0  0
 19 41  1  0  0  0  0
 20 42  1  0  0  0  0
 20 43  1  0  0  0  0
 21 22  2  0  0  0  0
 22 44  1  0  0  0  0
M  END
> <s_m_source_file>
AV-unprocessed.smi

> <i_m_source_file_index>
1287

> <i_lp_mmshare_version>
43012

> <i_f3d_flags>
0

> <s_epik_input>
W0NIM11DKD1PKVtOSF1bQ0BIXShbQ0gzXSlDKD1PKVtOSF1bQ0gyXWMxW2NIXVtjSF1jKG5bY0hdMSlOMltDSDJdW0NIMl1PW0NIMl1bQ0gyXTI=

> <s_epik_cmdline>
J2VwaWtfcHl0aG9uJywgJy1waCcsICc3LjAnLCAnLXRuJywgJzgnLCAnLW1hJywgJzIwMCcsICctbWV0YWxfYmluZGluZycsICctaW1hZScsICc8aW5maWxlLm1hZT4nLCAnLW9tYWUnLCAnPG91dGZpbGUubWFlPic=

> <r_lp_tautomer_probability>
1

> <r_epik_Ionization_Penalty>
0.00481935

> <r_epik_Ionization_Penalty_Charging>
0

> <r_epik_Ionization_Penalty_Neutral>
0.00481935

> <r_epik_State_Penalty>
0.00349439

> <r_epik_Charging_Adjusted_Penalty>
0.00349439

> <i_epik_Tot_Q>
0

> <i_epik_Tot_abs_Q>
0

> <r_epik_Metal_State_Penalty>
-0

> <b_epik_Metal_Only>
0

> <s_lp_Force_Field>
OPLS_2005

> <r_lp_Energy>
14.7746

> <b_lp_Chiralities_Consistent>
1

> <s_lp_Variant>
AV-unprocessed.smi:1287-1

> <Gold.Version>
5.8.1

> <Gold.Id.Protein>
6NUR|6NUR_protein|mol2

> <Gold.PLP.Fitness>
49.6793

> <Gold.PLP.PLP>
-40.1314

> <Gold.PLP.part.hbond>
-5.0000

> <Gold.PLP.part.metal>
0.0000

> <Gold.PLP.part.buried>
-0.9974

> <Gold.PLP.part.nonpolar>
-32.7740

> <Gold.PLP.part.repulsive>
0.1943

> <Gold.PLP.ligand.clash>
0.0000

> <Gold.PLP.ligand.torsion>
1.0151

> <Gold.PLP.Chemscore.Hbond>
3.7296

> <Gold.PLP.Chemscore.CHOScore>
0.0000

> <Gold.PLP.Chemscore.Metal>
0.0000

> <Gold.Chemscore.Hbonds>
donor molecule, donor type, donor heavy atom, donor atom, acceptor molecule, acceptor atom, score
      L1  H     4    26       P1  7948  1.00
      L1  H     9    31       P1  7948  0.77
      P1  H  7997  8010       L1    21  0.91
      P1  H 10752 10765       L1     8  1.00

> <Gold.PLP.Chemscore.Internal.Correction>
0.3895

> <Gold.Rescore>
     Score         DG    S(hbond)    S(metal)    S(lipo)     H(rot)  DE(clash)    DE(int)     intcor
     19.05     -20.36       3.02        0.00      88.19       2.16       0.24       1.07       ----

> <Gold.Chemscore.Fitness>
19.0539

> <Gold.Chemscore.DG>
-20.3617

> <Gold.Chemscore.ZeroCoef>
-5.4800

> <Gold.Chemscore.Hbond>
3.0230

> <Gold.Chemscore.Metal>
0.0000

> <Gold.Chemscore.Lipo>
88.1918

> <Gold.Chemscore.Internal_Hbond>
0.0000

> <Gold.Chemscore.DEClash>
0.2363

> <Gold.Chemscore.DEInternal>
1.0714

> <Gold.Chemscore.Rot>
2.1616

> <Gold.Chemscore.Internal.Correction>
   9.000000E+99

> <Gold.Chemscore.Hbonds>
donor molecule, donor type, donor heavy atom, donor atom, acceptor molecule, acceptor atom, score
      L1  H     4    26       P1  7948  0.64
      L1  H     9    31       P1  7948  0.52
      P1  H  7997  8010       L1    21  0.23
      P1  H 10752 10765       L1     8  0.97

> <Gold.Chemscore.Hbond.Weighted>
-10.0969

> <Gold.Chemscore.Metal.Weighted>
-0.0000

> <Gold.Chemscore.Lipo.Weighted>
-10.3184

> <Gold.Chemscore.Internal_Hbond.Weighted>
0.0000

> <Gold.Chemscore.DEClash.Weighted>
0.2363

> <Gold.Chemscore.DEInternal.Weighted>
1.0714

> <Gold.Chemscore.Rot.Weighted>
5.5336

> <Gold.Chemscore.Internal.Correction.Weighted>
   9.000000E+99

> <Gold.Protein.RotatedTorsions>
[ 6907 6896 6895 6894 ] final  108.61 input  -60.11 | X-H torsion
[ 7974 7965 7964 7962 ] final  -31.45 input  175.53 | X-H torsion
[ 8008 7997 7996 7995 ] final   47.17 input   59.86 | X-H torsion
[ 10167 10162 10161 10158 ] final  -47.97 input  -65.29 | X-H torsion
[ 10718 10713 10712 10709 ] final   72.23 input   66.30 | X-H torsion
[ 10763 10752 10751 10750 ] final -144.74 input  -60.55 | X-H torsion
[ 11005 11000 10999 10996 ] final    9.62 input  -57.11 | X-H torsion

> <Gold.Protein.ActiveResidues>
 VAL166  LYS551  ARG553  GLY616  TRP617  ASP618  TYR619  PRO620  LYS621  CYS622 
 ASP623  PHE694  ASN695  SER759  ASP760  ASP761  ALA762  ILE779  LEU786  VAL792 
 PHE793  MET794  SER795  GLU796  ALA797  LYS798  CYS799  TRP800  GLU811  SER814 

> <Gold.Protein.RotatedAtoms>
  152.5104  133.9063  159.7465 H   0  0  0  0  0  0  0  0  0  0  0  0  # atno 6907 bound_to 6896
  150.9467  133.6587  159.2787 H   0  0  0  0  0  0  0  0  0  0  0  0  # atno 6908 bound_to 6896
  151.3879  135.0956  159.9569 H   0  0  0  0  0  0  0  0  0  0  0  0  # atno 6909 bound_to 6896
  146.1066  140.5668  142.8796 H   0  0  0  0  0  0  0  0  0  0  0  0  # atno 7974 bound_to 7965
  155.3646  140.3420  155.4241 H   0  0  0  0  0  0  0  0  0  0  0  0  # atno 8008 bound_to 7997
  156.1695  140.1627  156.8506 H   0  0  0  0  0  0  0  0  0  0  0  0  # atno 8009 bound_to 7997
  154.5219  140.0765  156.8170 H   0  0  0  0  0  0  0  0  0  0  0  0  # atno 8010 bound_to 7997
  140.6752  143.2760  151.4003 H   0  0  0  0  0  0  0  0  0  0  0  0  # atno 10167 bound_to 10162
  157.6491  130.9568  150.0900 H   0  0  0  0  0  0  0  0  0  0  0  0  # atno 10718 bound_to 10713
  154.8415  135.3432  154.6394 H   0  0  0  0  0  0  0  0  0  0  0  0  # atno 10763 bound_to 10752
  153.7005  135.6970  153.5069 H   0  0  0  0  0  0  0  0  0  0  0  0  # atno 10764 bound_to 10752
  153.2526  135.4348  155.0768 H   0  0  0  0  0  0  0  0  0  0  0  0  # atno 10765 bound_to 10752
  140.5237  134.0534  155.7852 H   0  0  0  0  0  0  0  0  0  0  0  0  # atno 11005 bound_to 11000
  144.7476  140.5109  143.6824 LP  0  0  0  0  0  0  0  0  0  0  0  0  # atno 17320 bound_to 7965
  145.5747  139.1485  143.3268 LP  0  0  0  0  0  0  0  0  0  0  0  0  # atno 17321 bound_to 7965
  139.6040  144.1236  152.2229 LP  0  0  0  0  0  0  0  0  0  0  0  0  # atno 17342 bound_to 10162
  140.0629  144.5842  150.7249 LP  0  0  0  0  0  0  0  0  0  0  0  0  # atno 17343 bound_to 10162
  156.1851  130.3652  149.8983 LP  0  0  0  0  0  0  0  0  0  0  0  0  # atno 17370 bound_to 10713
  156.6925  130.8901  151.3590 LP  0  0  0  0  0  0  0  0  0  0  0  0  # atno 17371 bound_to 10713
  141.1320  133.9286  157.2515 LP  0  0  0  0  0  0  0  0  0  0  0  0  # atno 17394 bound_to 11000
  139.9592  135.0158  156.9213 LP  0  0  0  0  0  0  0  0  0  0  0  0  # atno 17395 bound_to 11000

$$$$
