AV-unprocessed.smi:823|AV-procd|sdf|3847|dock2
  -GOLD-   22720 1293D 1   1.00000     0.00000
 Structure written by MMmdl.
 46 47  0  0  0  0  0  0  0  0  1 V2000
  153.0269  142.0402  161.7754 C   0  0  0  0  0  0  0  0  0  0  0  0
  152.7856  142.4597  160.3215 C   0  0  1  0  0  0  0  0  0  0  0  0
  152.3709  141.2681  159.4377 C   0  0  0  0  0  0  0  0  0  0  0  0
  152.0421  141.7209  158.0873 N   0  0  0  0  0  0  0  0  0  0  0  0
  151.8969  140.7440  157.0780 C   0  0  0  0  0  0  0  0  0  0  0  0
  150.8524  140.8492  156.1285 C   0  0  0  0  0  0  0  0  0  0  0  0
  150.7298  139.8648  155.1296 C   0  0  0  0  0  0  0  0  0  0  0  0
  151.6535  138.8020  155.0959 C   0  0  0  0  0  0  0  0  0  0  0  0
  151.5389  137.7255  154.0243 C   0  0  0  0  0  0  0  0  0  0  0  0
  150.5860  136.6642  154.3328 N   0  0  0  0  0  0  0  0  0  0  0  0
  150.7008  135.8027  155.3548 C   0  0  0  0  0  0  0  0  0  0  0  0
  151.6591  135.7977  156.1292 O   0  0  0  0  0  0  0  0  0  0  0  0
  149.5527  134.7963  155.5264 C   0  0  1  0  0  0  0  0  0  0  0  0
  148.3408  135.5345  156.1193 C   0  0  0  0  0  0  0  0  0  0  0  0
  149.1629  134.2499  154.2278 N   0  0  0  0  0  0  0  0  0  0  0  0
  148.9850  132.9466  153.9647 C   0  0  0  0  0  0  0  0  0  0  0  0
  148.6498  132.7269  152.6931 N   0  0  0  0  0  0  0  0  0  0  0  0
  149.1135  132.0446  154.7906 O   0  0  0  0  0  0  0  0  0  0  0  0
  152.6607  138.7767  156.0853 C   0  0  0  0  0  0  0  0  0  0  0  0
  152.7829  139.7181  157.0443 N   0  0  0  0  0  0  0  0  0  0  0  0
  151.0680  142.8089  158.0642 C   0  0  0  0  0  0  0  0  0  0  0  0
  151.5177  143.9481  158.9943 C   0  0  0  0  0  0  0  0  0  0  0  0
  151.7507  143.4389  160.3033 O   0  0  0  0  0  0  0  0  0  0  0  0
  153.8199  141.2947  161.8418 H   0  0  0  0  0  0  0  0  0  0  0  0
  152.1267  141.6118  162.2169 H   0  0  0  0  0  0  0  0  0  0  0  0
  153.3223  142.8950  162.3840 H   0  0  0  0  0  0  0  0  0  0  0  0
  153.7040  142.9031  159.9316 H   0  0  0  0  0  0  0  0  0  0  0  0
  153.1865  140.5444  159.4028 H   0  0  0  0  0  0  0  0  0  0  0  0
  151.5045  140.7632  159.8679 H   0  0  0  0  0  0  0  0  0  0  0  0
  150.1585  141.6763  156.1434 H   0  0  0  0  0  0  0  0  0  0  0  0
  149.9401  139.9319  154.3958 H   0  0  0  0  0  0  0  0  0  0  0  0
  151.2267  138.2020  153.0948 H   0  0  0  0  0  0  0  0  0  0  0  0
  152.5209  137.2892  153.8332 H   0  0  0  0  0  0  0  0  0  0  0  0
  149.7677  136.5978  153.7448 H   0  0  0  0  0  0  0  0  0  0  0  0
  149.8506  133.9868  156.1960 H   0  0  0  0  0  0  0  0  0  0  0  0
  148.5769  135.9631  157.0942 H   0  0  0  0  0  0  0  0  0  0  0  0
  147.5017  134.8523  156.2606 H   0  0  0  0  0  0  0  0  0  0  0  0
  147.9999  136.3450  155.4729 H   0  0  0  0  0  0  0  0  0  0  0  0
  149.0410  134.9108  153.4749 H   0  0  0  0  0  0  0  0  0  0  0  0
  148.4826  131.7869  152.3665 H   0  0  0  0  0  0  0  0  0  0  0  0
  148.5599  133.5088  152.0605 H   0  0  0  0  0  0  0  0  0  0  0  0
  153.3921  137.9825  156.1163 H   0  0  0  0  0  0  0  0  0  0  0  0
  150.9269  143.2069  157.0604 H   0  0  0  0  0  0  0  0  0  0  0  0
  150.1018  142.4213  158.3899 H   0  0  0  0  0  0  0  0  0  0  0  0
  152.4204  144.4280  158.6126 H   0  0  0  0  0  0  0  0  0  0  0  0
  150.7467  144.7169  159.0455 H   0  0  0  0  0  0  0  0  0  0  0  0
  1  2  1  0  0  0  0
  1 24  1  0  0  0  0
  1 25  1  0  0  0  0
  1 26  1  0  0  0  0
  2 23  1  0  0  0  0
  2  3  1  0  0  0  0
  2 27  1  0  0  0  0
  3  4  1  0  0  0  0
  3 28  1  0  0  0  0
  3 29  1  0  0  0  0
  4  5  1  0  0  0  0
  4 21  1  0  0  0  0
  5 20  1  0  0  0  0
  5  6  2  0  0  0  0
  6  7  1  0  0  0  0
  6 30  1  0  0  0  0
  7  8  2  0  0  0  0
  7 31  1  0  0  0  0
  8  9  1  0  0  0  0
  8 19  1  0  0  0  0
  9 10  1  0  0  0  0
  9 32  1  0  0  0  0
  9 33  1  0  0  0  0
 10 11  1  0  0  0  0
 10 34  1  0  0  0  0
 11 12  2  0  0  0  0
 11 13  1  0  0  0  0
 13 14  1  0  0  0  0
 13 15  1  0  0  0  0
 13 35  1  0  0  0  0
 14 36  1  0  0  0  0
 14 37  1  0  0  0  0
 14 38  1  0  0  0  0
 15 16  1  0  0  0  0
 15 39  1  0  0  0  0
 16 17  1  0  0  0  0
 16 18  2  0  0  0  0
 17 40  1  0  0  0  0
 17 41  1  0  0  0  0
 19 20  2  0  0  0  0
 19 42  1  0  0  0  0
 21 22  1  0  0  0  0
 21 43  1  0  0  0  0
 21 44  1  0  0  0  0
 22 23  1  0  0  0  0
 22 45  1  0  0  0  0
 22 46  1  0  0  0  0
M  END
> <s_m_source_file>
AV-unprocessed.smi

> <i_m_source_file_index>
823

> <i_lp_mmshare_version>
43012

> <i_f3d_flags>
0

> <s_epik_input>
W0NIM11bQ0BASF0xW0NIMl1OKFtDSDJdW0NIMl1PMSljMltjSF1bY0hdYyhbY0hdbjIpW0NIMl1bTkhdQyg9TylbQ0BIXShbQ0gzXSlbTkhdQyg9TylbTkgyXQ==

> <s_epik_cmdline>
J2VwaWtfcHl0aG9uJywgJy1waCcsICc3LjAnLCAnLXRuJywgJzgnLCAnLW1hJywgJzIwMCcsICctbWV0YWxfYmluZGluZycsICctaW1hZScsICc8aW5maWxlLm1hZT4nLCAnLW9tYWUnLCAnPG91dGZpbGUubWFlPic=

> <r_lp_tautomer_probability>
1

> <r_epik_Ionization_Penalty>
0.00555043

> <r_epik_Ionization_Penalty_Charging>
0

> <r_epik_Ionization_Penalty_Neutral>
0.00555043

> <r_epik_State_Penalty>
0.00402575

> <r_epik_Charging_Adjusted_Penalty>
0.00402575

> <i_epik_Tot_Q>
0

> <i_epik_Tot_abs_Q>
0

> <r_epik_Metal_State_Penalty>
-0

> <b_epik_Metal_Only>
0

> <s_lp_Force_Field>
OPLS_2005

> <r_lp_Energy>
10.1678

> <b_lp_Chiralities_Consistent>
1

> <s_lp_Variant>
AV-unprocessed.smi:823-4

> <Gold.Version>
5.8.1

> <Gold.Id.Protein>
6NUR|6NUR_protein|mol2

> <Gold.PLP.Fitness>
53.9803

> <Gold.PLP.PLP>
-43.2100

> <Gold.PLP.part.hbond>
-6.0000

> <Gold.PLP.part.metal>
0.0000

> <Gold.PLP.part.buried>
-2.1840

> <Gold.PLP.part.nonpolar>
-33.9849

> <Gold.PLP.part.repulsive>
0.1914

> <Gold.PLP.ligand.clash>
0.0000

> <Gold.PLP.ligand.torsion>
1.1244

> <Gold.PLP.Chemscore.Hbond>
4.2158

> <Gold.PLP.Chemscore.CHOScore>
0.0000

> <Gold.PLP.Chemscore.Metal>
0.0000

> <Gold.Chemscore.Hbonds>
donor molecule, donor type, donor heavy atom, donor atom, acceptor molecule, acceptor atom, score
      L1  H    10    34       P1  7948  0.91
      L1  H    15    39       P1  7948  0.96
      L1  H    17    40       P1 10747  0.15
      P1  H  7997  8008       L1    20  0.95
      P1  H 10752 10764       L1    12  1.00

> <Gold.PLP.Chemscore.Internal.Correction>
0.3717

> <Gold.Rescore>
     Score         DG    S(hbond)    S(metal)    S(lipo)     H(rot)  DE(clash)    DE(int)     intcor
     14.84     -16.13       1.96        0.00      92.19       2.62       0.23       1.06       ----

> <Gold.Chemscore.Fitness>
14.8431

> <Gold.Chemscore.DG>
-16.1311

> <Gold.Chemscore.ZeroCoef>
-5.4800

> <Gold.Chemscore.Hbond>
1.9649

> <Gold.Chemscore.Metal>
0.0000

> <Gold.Chemscore.Lipo>
92.1888

> <Gold.Chemscore.Internal_Hbond>
0.0000

> <Gold.Chemscore.DEClash>
0.2327

> <Gold.Chemscore.DEInternal>
1.0553

> <Gold.Chemscore.Rot>
2.6163

> <Gold.Chemscore.Internal.Correction>
   9.000000E+99

> <Gold.Chemscore.Hbonds>
donor molecule, donor type, donor heavy atom, donor atom, acceptor molecule, acceptor atom, score
      L1  H    10    34       P1  7948  0.41
      L1  H    15    39       P1  7948  0.23
      L1  H    17    40       P1 10747  0.15
      P1  H  7997  8008       L1    20  0.20
      P1  H 10752 10764       L1    12  0.45

> <Gold.Chemscore.Hbond.Weighted>
-6.5628

> <Gold.Chemscore.Metal.Weighted>
-0.0000

> <Gold.Chemscore.Lipo.Weighted>
-10.7861

> <Gold.Chemscore.Internal_Hbond.Weighted>
0.0000

> <Gold.Chemscore.DEClash.Weighted>
0.2327

> <Gold.Chemscore.DEInternal.Weighted>
1.0553

> <Gold.Chemscore.Rot.Weighted>
6.6978

> <Gold.Chemscore.Internal.Correction.Weighted>
   9.000000E+99

> <Gold.Protein.RotatedTorsions>
[ 6907 6896 6895 6894 ] final   -9.99 input  -60.11 | X-H torsion
[ 7974 7965 7964 7962 ] final   -8.43 input  175.53 | X-H torsion
[ 8008 7997 7996 7995 ] final  -75.66 input   59.86 | X-H torsion
[ 10167 10162 10161 10158 ] final -163.63 input  -65.29 | X-H torsion
[ 10718 10713 10712 10709 ] final  137.77 input   66.30 | X-H torsion
[ 10763 10752 10751 10750 ] final  -30.60 input  -60.55 | X-H torsion
[ 11005 11000 10999 10996 ] final  -88.52 input  -57.11 | X-H torsion

> <Gold.Protein.ActiveResidues>
 VAL166  LYS551  ARG553  GLY616  TRP617  ASP618  TYR619  PRO620  LYS621  CYS622 
 ASP623  PHE694  ASN695  SER759  ASP760  ASP761  ALA762  ILE779  LEU786  VAL792 
 PHE793  MET794  SER795  GLU796  ALA797  LYS798  CYS799  TRP800  GLU811  SER814 

> <Gold.Protein.RotatedAtoms>
  151.4090  135.0982  159.9579 H   0  0  0  0  0  0  0  0  0  0  0  0  # atno 6907 bound_to 6896
  152.5026  133.8815  159.7359 H   0  0  0  0  0  0  0  0  0  0  0  0  # atno 6908 bound_to 6896
  150.9306  133.6715  159.2840 H   0  0  0  0  0  0  0  0  0  0  0  0  # atno 6909 bound_to 6896
  146.2280  140.2467  142.8345 H   0  0  0  0  0  0  0  0  0  0  0  0  # atno 7974 bound_to 7965
  154.5437  140.0740  156.8552 H   0  0  0  0  0  0  0  0  0  0  0  0  # atno 8008 bound_to 7997
  155.3130  140.3391  155.4225 H   0  0  0  0  0  0  0  0  0  0  0  0  # atno 8009 bound_to 7997
  156.1898  140.1682  156.8101 H   0  0  0  0  0  0  0  0  0  0  0  0  # atno 8010 bound_to 7997
  139.6307  144.0445  152.2013 H   0  0  0  0  0  0  0  0  0  0  0  0  # atno 10167 bound_to 10162
  157.4325  131.1050  151.0234 H   0  0  0  0  0  0  0  0  0  0  0  0  # atno 10718 bound_to 10713
  153.7837  135.6903  153.4884 H   0  0  0  0  0  0  0  0  0  0  0  0  # atno 10763 bound_to 10752
  153.1795  135.4512  155.0007 H   0  0  0  0  0  0  0  0  0  0  0  0  # atno 10764 bound_to 10752
  154.8072  135.3362  154.7338 H   0  0  0  0  0  0  0  0  0  0  0  0  # atno 10765 bound_to 10752
  141.1600  133.7575  156.9464 H   0  0  0  0  0  0  0  0  0  0  0  0  # atno 11005 bound_to 11000
  144.9443  140.8112  143.5611 LP  0  0  0  0  0  0  0  0  0  0  0  0  # atno 17320 bound_to 7965
  145.2421  139.2068  143.4987 LP  0  0  0  0  0  0  0  0  0  0  0  0  # atno 17321 bound_to 7965
  140.0109  144.6224  150.7648 LP  0  0  0  0  0  0  0  0  0  0  0  0  # atno 17342 bound_to 10162
  140.7437  143.2850  151.3488 LP  0  0  0  0  0  0  0  0  0  0  0  0  # atno 17343 bound_to 10162
  157.1126  130.6028  149.5485 LP  0  0  0  0  0  0  0  0  0  0  0  0  # atno 17370 bound_to 10713
  155.9918  130.4974  150.7315 LP  0  0  0  0  0  0  0  0  0  0  0  0  # atno 17371 bound_to 10713
  140.1287  134.9370  157.2306 LP  0  0  0  0  0  0  0  0  0  0  0  0  # atno 17394 bound_to 11000
  140.2980  134.3164  155.7297 LP  0  0  0  0  0  0  0  0  0  0  0  0  # atno 17395 bound_to 11000

$$$$
