#       Name:                AV-unprocessed.smi:786
#       Creating user name   scv26
#       Creation time:       Fri Mar 27 01:15:14 2020


#       File generated by GOLD software.
#

@<TRIPOS>MOLECULE
AV-unprocessed.smi:786
    42    43     1
SMALL
NO_CHARGES


@<TRIPOS>ATOM
      1 ****        -2.4882  -1.2301  -0.3413 O.2            1 S1                 0.0000
      2 ****        -1.2313  -0.6316  -0.8178 S.o2           1 S1                 0.0000
      3 ****        -0.8665  -0.8904  -2.2200 O.2            1 S1                 0.0000
      4 ****        -1.4311   1.2063  -0.6929 C.3            1 S1                 0.0000
      5 ****        -1.5992   1.7627   0.7423 C.3            1 S1                 0.0000
      6 ****        -2.8184   1.2162   1.5090 C.3            1 S1                 0.0000
      7 ****        -2.9774   1.9140   2.8703 C.3            1 S1                 0.0000
      8 ****        -3.0656   3.3233   2.6981 O.3            1 S1                 0.0000
      9 ****        -1.8916   3.8772   2.1168 C.3            1 S1                 0.0000
     10 ****        -1.6865   3.2985   0.7081 C.3            1 S1                 0.0000
     11 ****         0.0152  -0.8851   0.1910 N.pl3          1 S1                -1.0000
     12 ****         0.3853  -2.2376   0.5882 C.3            1 S1                 0.0000
     13 ****         0.9542  -3.0603  -0.5934 C.3            1 S1                 0.0000
     14 ****         2.2315  -2.5038  -1.2145 C.ar           1 S1                 0.0000
     15 ****         3.5159  -2.9190  -0.7946 C.ar           1 S1                 0.0000
     16 ****         4.6574  -2.3676  -1.4129 C.ar           1 S1                 0.0000
     17 ****         4.4951  -1.4164  -2.4413 C.ar           1 S1                 0.0000
     18 ****         3.1925  -1.0405  -2.8270 C.ar           1 S1                 0.0000
     19 ****         2.1247  -1.5915  -2.2108 N.pl3          1 S1                 1.0000
     20 ****        -0.5522   1.6528  -1.1578 H              1 S1                 0.0000
     21 ****        -2.2874   1.4803  -1.3091 H              1 S1                 0.0000
     22 ****        -0.7069   1.5040   1.3134 H              1 S1                 0.0000
     23 ****        -3.7236   1.3551   0.9168 H              1 S1                 0.0000
     24 ****        -2.7154   0.1475   1.6884 H              1 S1                 0.0000
     25 ****        -3.8829   1.5632   3.3654 H              1 S1                 0.0000
     26 ****        -2.1423   1.6707   3.5291 H              1 S1                 0.0000
     27 ****        -2.0025   4.9603   2.0636 H              1 S1                 0.0000
     28 ****        -1.0266   3.6764   2.7510 H              1 S1                 0.0000
     29 ****        -0.7815   3.7175   0.2671 H              1 S1                 0.0000
     30 ****        -2.5155   3.6071   0.0697 H              1 S1                 0.0000
     31 ****         1.1330  -2.2162   1.3816 H              1 S1                 0.0000
     32 ****        -0.4649  -2.7733   1.0108 H              1 S1                 0.0000
     33 ****         1.1645  -4.0714  -0.2435 H              1 S1                 0.0000
     34 ****         0.2004  -3.1790  -1.3722 H              1 S1                 0.0000
     35 ****         3.6249  -3.6473  -0.0044 H              1 S1                 0.0000
     36 ****         5.6461  -2.6708  -1.1012 H              1 S1                 0.0000
     37 ****         5.3566  -0.9813  -2.9260 H              1 S1                 0.0000
     38 ****         2.9725  -0.3204  -3.6013 H              1 S1                 0.0000
     39 ****         1.1889  -1.2997  -2.4989 H              1 S1                 0.0000
     40 ****        -3.2109   3.7469   3.5922 LP             1 S1                 0.0000
     41 ****        -3.8437   3.5253   2.1032 LP             1 S1                 0.0000
     42 ****         0.5338  -0.1060   0.5431 LP             1 S1                 0.0000
@<TRIPOS>BOND
    1    1    2 2     
    2    2    3 2     
    3    2    4 1     
    4    2   11 1     
    5    4    5 1     
    6    4   20 1     
    7    4   21 1     
    8    5   10 1     
    9    5    6 1     
   10    5   22 1     
   11    6    7 1     
   12    6   23 1     
   13    6   24 1     
   14    7    8 1     
   15    7   25 1     
   16    7   26 1     
   17    8    9 1     
   18    9   10 1     
   19    9   27 1     
   20    9   28 1     
   21   10   29 1     
   22   10   30 1     
   23   11   12 1     
   24   12   13 1     
   25   12   31 1     
   26   12   32 1     
   27   13   14 1     
   28   13   33 1     
   29   13   34 1     
   30   14   19 ar    
   31   14   15 ar    
   32   15   16 ar    
   33   15   35 1     
   34   16   17 ar    
   35   16   36 1     
   36   17   18 ar    
   37   17   37 1     
   38   18   19 ar    
   39   18   38 1     
   40   19   39 1     
   41    8   40 1     
   42    8   41 1     
   43   11   42 1     
@<TRIPOS>SUBSTRUCTURE
      1 S1             1
@<TRIPOS>SET
LONE_PAIRS      STATIC     ATOMS    <user>   **** ""
5 1 3 40 41 42
DONOR_HYDROGENS      STATIC     ATOMS    <user>   **** ""
1 39
ATOM$BLUE        STATIC     ATOMS    COLORGROUP SYSTEM
5 1 3 40 41 42
ATOM$RED        STATIC     ATOMS    COLORGROUP SYSTEM
1 39
