AV-unprocessed.smi:1808|AV-procd|sdf|7306|dock4
  -GOLD-   22720 8563D 1   1.00000     0.00000
 Structure written by MMmdl.
 28 29  0  0  0  0  0  0  0  0  1 V2000
  150.8325  141.1777  156.1012 O   0  0  0  0  0  0  0  0  0  0  0  0
  150.2278  142.2160  155.8318 C   0  0  0  0  0  0  0  0  0  0  0  0
  150.5738  143.4184  156.3127 N   0  0  0  0  0  0  0  0  0  0  0  0
  151.6918  143.6687  157.2154 C   0  0  0  0  0  0  0  0  0  0  0  0
  151.2187  144.2553  158.5561 C   0  0  1  0  0  0  0  0  0  0  0  0
  152.1717  143.9828  159.7219 C   0  0  0  0  0  0  0  0  0  0  0  0
  152.0111  145.1978  160.6264 C   0  0  0  0  0  0  0  0  0  0  0  0
  151.0873  146.1305  159.8418 C   0  0  0  0  0  0  0  0  0  0  0  0
  151.1833  145.6731  158.5024 O   0  0  0  0  0  0  0  0  0  0  0  0
  149.1509  142.3041  155.0317 N   0  0  0  0  0  0  0  0  0  0  0  0
  148.4834  141.2597  154.3397 C   0  0  0  0  0  0  0  0  0  0  0  0
  147.4220  141.4383  153.5444 N   0  0  0  0  0  0  0  0  0  0  0  0
  146.9712  140.2362  152.9933 C   0  0  0  0  0  0  0  0  0  0  0  0
  147.7058  139.1441  153.3833 C   0  0  0  0  0  0  0  0  0  0  0  0
  149.0021  139.5849  154.4625 S   0  0  0  0  0  0  0  0  0  0  0  0
  150.0201  144.2186  156.0441 H   0  0  0  0  0  0  0  0  0  0  0  0
  152.2452  142.7430  157.3824 H   0  0  0  0  0  0  0  0  0  0  0  0
  152.3810  144.3576  156.7264 H   0  0  0  0  0  0  0  0  0  0  0  0
  150.2223  143.8871  158.8089 H   0  0  0  0  0  0  0  0  0  0  0  0
  151.9383  143.0465  160.2295 H   0  0  0  0  0  0  0  0  0  0  0  0
  153.2028  143.9238  159.3715 H   0  0  0  0  0  0  0  0  0  0  0  0
  151.5852  144.9399  161.5965 H   0  0  0  0  0  0  0  0  0  0  0  0
  152.9800  145.6676  160.7995 H   0  0  0  0  0  0  0  0  0  0  0  0
  150.0559  146.0280  160.1830 H   0  0  0  0  0  0  0  0  0  0  0  0
  151.3732  147.1789  159.9290 H   0  0  0  0  0  0  0  0  0  0  0  0
  148.7638  143.2270  154.9013 H   0  0  0  0  0  0  0  0  0  0  0  0
  146.1177  140.2495  152.3317 H   0  0  0  0  0  0  0  0  0  0  0  0
  147.5635  138.1115  153.1013 H   0  0  0  0  0  0  0  0  0  0  0  0
  1  2  2  0  0  0  0
  2  3  1  0  0  0  0
  2 10  1  0  0  0  0
  3  4  1  0  0  0  0
  3 16  1  0  0  0  0
  4  5  1  0  0  0  0
  4 17  1  0  0  0  0
  4 18  1  0  0  0  0
  5  9  1  0  0  0  0
  5  6  1  0  0  0  0
  5 19  1  0  0  0  0
  6  7  1  0  0  0  0
  6 20  1  0  0  0  0
  6 21  1  0  0  0  0
  7  8  1  0  0  0  0
  7 22  1  0  0  0  0
  7 23  1  0  0  0  0
  8  9  1  0  0  0  0
  8 24  1  0  0  0  0
  8 25  1  0  0  0  0
 10 11  1  0  0  0  0
 10 26  1  0  0  0  0
 11 15  1  0  0  0  0
 11 12  2  0  0  0  0
 12 13  1  0  0  0  0
 13 14  2  0  0  0  0
 13 27  1  0  0  0  0
 14 15  1  0  0  0  0
 14 28  1  0  0  0  0
M  END
> <s_m_source_file>
AV-unprocessed.smi

> <i_m_source_file_index>
1808

> <i_lp_mmshare_version>
43012

> <i_f3d_flags>
0

> <s_epik_input>
czFbY0hdW2NIXW5jMVtOSF1DKD1PKVtOSF1bQ0gyXVtDQEBIXTJbQ0gyXVtDSDJdW0NIMl1PMg==

> <s_epik_cmdline>
J2VwaWtfcHl0aG9uJywgJy1waCcsICc3LjAnLCAnLXRuJywgJzgnLCAnLW1hJywgJzIwMCcsICctbWV0YWxfYmluZGluZycsICctaW1hZScsICc8aW5maWxlLm1hZT4nLCAnLW9tYWUnLCAnPG91dGZpbGUubWFlPic=

> <r_lp_tautomer_probability>
0.999

> <r_epik_Ionization_Penalty>
0.000333847

> <r_epik_Ionization_Penalty_Charging>
0

> <r_epik_Ionization_Penalty_Neutral>
0.000333847

> <r_epik_State_Penalty>
0.000177984

> <r_epik_Charging_Adjusted_Penalty>
0.000177984

> <i_epik_Tot_Q>
0

> <i_epik_Tot_abs_Q>
0

> <r_epik_Metal_State_Penalty>
0.00767616

> <b_epik_Metal_Only>
0

> <s_lp_Force_Field>
OPLS_2005

> <r_lp_Energy>
15.1674

> <b_lp_Chiralities_Consistent>
1

> <s_lp_Variant>
AV-unprocessed.smi:1808-2

> <Gold.Version>
5.8.1

> <Gold.Id.Protein>
6NUR|6NUR_protein|mol2

> <Gold.PLP.Fitness>
40.8892

> <Gold.PLP.PLP>
-29.5396

> <Gold.PLP.part.hbond>
-2.0000

> <Gold.PLP.part.metal>
0.0000

> <Gold.PLP.part.buried>
-4.3434

> <Gold.PLP.part.nonpolar>
-24.2997

> <Gold.PLP.part.repulsive>
0.5298

> <Gold.PLP.ligand.clash>
0.0000

> <Gold.PLP.ligand.torsion>
0.3283

> <Gold.PLP.Chemscore.Hbond>
2.0000

> <Gold.PLP.Chemscore.CHOScore>
2.0000

> <Gold.PLP.Chemscore.Metal>
0.0000

> <Gold.Chemscore.Hbonds>
donor molecule, donor type, donor heavy atom, donor atom, acceptor molecule, acceptor atom, score
      L1  H     3    16       P1  8028  0.37
      L1  H    10    26       P1  8028  0.77
      L1  C    13    27       P1 10175  1.00
      L1  C    14    28       P1  7948  0.74

> <Gold.PLP.Chemscore.Internal.Correction>
0.0062

> <Gold.Rescore>
     Score         DG    S(hbond)    S(metal)    S(lipo)     H(rot)  DE(clash)    DE(int)     intcor
     15.30     -17.48       1.97        0.00      75.12       1.32       0.96       1.23       ----

> <Gold.Chemscore.Fitness>
15.2962

> <Gold.Chemscore.DG>
-17.4835

> <Gold.Chemscore.ZeroCoef>
-5.4800

> <Gold.Chemscore.Hbond>
1.9713

> <Gold.Chemscore.Metal>
0.0000

> <Gold.Chemscore.Lipo>
75.1213

> <Gold.Chemscore.Internal_Hbond>
0.0000

> <Gold.Chemscore.DEClash>
0.9617

> <Gold.Chemscore.DEInternal>
1.2256

> <Gold.Chemscore.Rot>
1.3163

> <Gold.Chemscore.Internal.Correction>
   9.000000E+99

> <Gold.Chemscore.Hbonds>
donor molecule, donor type, donor heavy atom, donor atom, acceptor molecule, acceptor atom, score
      L1  H     3    16       P1  8028  0.36
      L1  H    10    26       P1  8028  0.76

> <Gold.Chemscore.Hbond.Weighted>
-6.5842

> <Gold.Chemscore.Metal.Weighted>
-0.0000

> <Gold.Chemscore.Lipo.Weighted>
-8.7892

> <Gold.Chemscore.Internal_Hbond.Weighted>
0.0000

> <Gold.Chemscore.DEClash.Weighted>
0.9617

> <Gold.Chemscore.DEInternal.Weighted>
1.2256

> <Gold.Chemscore.Rot.Weighted>
3.3698

> <Gold.Chemscore.Internal.Correction.Weighted>
   9.000000E+99

> <Gold.Protein.RotatedTorsions>
[ 6907 6896 6895 6894 ] final -171.59 input  -60.11 | X-H torsion
[ 7974 7965 7964 7962 ] final -142.31 input  175.53 | X-H torsion
[ 8008 7997 7996 7995 ] final   10.31 input   59.86 | X-H torsion
[ 10167 10162 10161 10158 ] final -152.80 input  -65.29 | X-H torsion
[ 10718 10713 10712 10709 ] final   -4.43 input   66.30 | X-H torsion
[ 10763 10752 10751 10750 ] final   88.30 input  -60.55 | X-H torsion
[ 11005 11000 10999 10996 ] final -175.34 input  -57.11 | X-H torsion

> <Gold.Protein.ActiveResidues>
 VAL166  LYS551  ARG553  GLY616  TRP617  ASP618  TYR619  PRO620  LYS621  CYS622 
 ASP623  PHE694  ASN695  SER759  ASP760  ASP761  ALA762  ILE779  LEU786  VAL792 
 PHE793  MET794  SER795  GLU796  ALA797  LYS798  CYS799  TRP800  GLU811  SER814 

> <Gold.Protein.RotatedAtoms>
  151.5263  133.3457  159.2909 H   0  0  0  0  0  0  0  0  0  0  0  0  # atno 6907 bound_to 6896
  150.8621  134.7978  159.7102 H   0  0  0  0  0  0  0  0  0  0  0  0  # atno 6908 bound_to 6896
  152.4637  134.5133  159.9812 H   0  0  0  0  0  0  0  0  0  0  0  0  # atno 6909 bound_to 6896
  144.8453  140.5973  143.5426 H   0  0  0  0  0  0  0  0  0  0  0  0  # atno 7974 bound_to 7965
  154.7916  140.2836  155.5987 H   0  0  0  0  0  0  0  0  0  0  0  0  # atno 8008 bound_to 7997
  156.2965  140.2603  156.2694 H   0  0  0  0  0  0  0  0  0  0  0  0  # atno 8009 bound_to 7997
  154.9663  140.0377  157.2203 H   0  0  0  0  0  0  0  0  0  0  0  0  # atno 8010 bound_to 7997
  139.7150  143.9047  152.2482 H   0  0  0  0  0  0  0  0  0  0  0  0  # atno 10167 bound_to 10162
  156.7615  130.5271  149.5784 H   0  0  0  0  0  0  0  0  0  0  0  0  # atno 10718 bound_to 10713
  153.1754  135.4512  154.9958 H   0  0  0  0  0  0  0  0  0  0  0  0  # atno 10763 bound_to 10752
  154.7994  135.3250  154.7589 H   0  0  0  0  0  0  0  0  0  0  0  0  # atno 10764 bound_to 10752
  153.8059  135.6959  153.4903 H   0  0  0  0  0  0  0  0  0  0  0  0  # atno 10765 bound_to 10752
  140.4644  134.6224  157.4856 H   0  0  0  0  0  0  0  0  0  0  0  0  # atno 11005 bound_to 11000
  145.4610  139.1513  143.3866 LP  0  0  0  0  0  0  0  0  0  0  0  0  # atno 17320 bound_to 7965
  146.2738  140.4740  142.8803 LP  0  0  0  0  0  0  0  0  0  0  0  0  # atno 17321 bound_to 7965
  139.8927  144.6956  150.8752 LP  0  0  0  0  0  0  0  0  0  0  0  0  # atno 17342 bound_to 10162
  140.7742  143.3574  151.1895 LP  0  0  0  0  0  0  0  0  0  0  0  0  # atno 17343 bound_to 10162
  156.1336  130.6195  151.0369 LP  0  0  0  0  0  0  0  0  0  0  0  0  # atno 17370 bound_to 10713
  157.6732  131.0856  150.7559 LP  0  0  0  0  0  0  0  0  0  0  0  0  # atno 17371 bound_to 10713
  139.9925  134.6963  155.9666 LP  0  0  0  0  0  0  0  0  0  0  0  0  # atno 17394 bound_to 11000
  141.1606  133.6539  156.4307 LP  0  0  0  0  0  0  0  0  0  0  0  0  # atno 17395 bound_to 11000

$$$$
