AV-unprocessed.smi:430|AV-procd|sdf|2546|dock5
  -GOLD-   2262022513D 1   1.00000     0.00000
 Structure written by MMmdl.
 37 38  0  0  0  0  0  0  0  0  1 V2000
  146.8059  138.9165  151.4705 C   0  0  0  0  0  0  0  0  0  0  0  0
  146.9972  139.8150  152.7025 C   0  0  0  0  0  0  0  0  0  0  0  0
  148.0582  139.3027  153.6819 C   0  0  0  0  0  0  0  0  0  0  0  0
  147.7621  138.9947  154.8370 O   0  0  0  0  0  0  0  0  0  0  0  0
  149.3066  139.2182  153.1977 N   0  0  0  0  0  0  0  0  0  0  0  0
  150.4673  138.7467  153.9474 C   0  0  0  0  0  0  0  0  0  0  0  0
  150.8912  139.6366  155.1089 C   0  0  0  0  0  0  0  0  0  0  0  0
  149.9696  140.5418  155.6690 C   0  0  0  0  0  0  0  0  0  0  0  0
  150.3681  141.3506  156.7502 C   0  0  0  0  0  0  0  0  0  0  0  0
  151.6898  141.2352  157.2504 C   0  0  0  0  0  0  0  0  0  0  0  0
  152.1537  142.0098  158.3380 N   0  0  0  0  0  0  0  0  0  0  0  0
  152.3160  141.3654  159.6386 C   0  0  0  0  0  0  0  0  0  0  0  0
  153.1309  142.2606  160.5875 C   0  0  0  0  0  0  0  0  0  0  0  0
  152.5247  143.5450  160.6756 O   0  0  0  0  0  0  0  0  0  0  0  0
  152.5031  144.2030  159.4138 C   0  0  0  0  0  0  0  0  0  0  0  0
  151.6667  143.3871  158.4133 C   0  0  0  0  0  0  0  0  0  0  0  0
  152.5708  140.3582  156.7110 N   0  0  0  0  0  0  0  0  0  0  0  0
  152.1825  139.5840  155.6763 C   0  0  0  0  0  0  0  0  0  0  0  0
  146.0540  139.3357  150.8021 H   0  0  0  0  0  0  0  0  0  0  0  0
  146.4734  137.9173  151.7540 H   0  0  0  0  0  0  0  0  0  0  0  0
  147.7311  138.8167  150.9018 H   0  0  0  0  0  0  0  0  0  0  0  0
  147.2790  140.8179  152.3801 H   0  0  0  0  0  0  0  0  0  0  0  0
  146.0492  139.9112  153.2332 H   0  0  0  0  0  0  0  0  0  0  0  0
  149.4635  139.4918  152.2383 H   0  0  0  0  0  0  0  0  0  0  0  0
  150.2802  137.7356  154.3133 H   0  0  0  0  0  0  0  0  0  0  0  0
  151.3062  138.6716  153.2555 H   0  0  0  0  0  0  0  0  0  0  0  0
  148.9665  140.6185  155.2755 H   0  0  0  0  0  0  0  0  0  0  0  0
  149.6545  142.0469  157.1635 H   0  0  0  0  0  0  0  0  0  0  0  0
  151.3331  141.1630  160.0659 H   0  0  0  0  0  0  0  0  0  0  0  0
  152.8322  140.4112  159.5275 H   0  0  0  0  0  0  0  0  0  0  0  0
  153.1683  141.8160  161.5819 H   0  0  0  0  0  0  0  0  0  0  0  0
  154.1619  142.3558  160.2431 H   0  0  0  0  0  0  0  0  0  0  0  0
  152.0720  145.1962  159.5394 H   0  0  0  0  0  0  0  0  0  0  0  0
  153.5210  144.3429  159.0461 H   0  0  0  0  0  0  0  0  0  0  0  0
  151.7040  143.8817  157.4427 H   0  0  0  0  0  0  0  0  0  0  0  0
  150.6214  143.3729  158.7239 H   0  0  0  0  0  0  0  0  0  0  0  0
  152.9312  138.9027  155.3004 H   0  0  0  0  0  0  0  0  0  0  0  0
  1  2  1  0  0  0  0
  1 19  1  0  0  0  0
  1 20  1  0  0  0  0
  1 21  1  0  0  0  0
  2  3  1  0  0  0  0
  2 22  1  0  0  0  0
  2 23  1  0  0  0  0
  3  4  2  0  0  0  0
  3  5  1  0  0  0  0
  5  6  1  0  0  0  0
  5 24  1  0  0  0  0
  6  7  1  0  0  0  0
  6 25  1  0  0  0  0
  6 26  1  0  0  0  0
  7 18  1  0  0  0  0
  7  8  2  0  0  0  0
  8  9  1  0  0  0  0
  8 27  1  0  0  0  0
  9 10  2  0  0  0  0
  9 28  1  0  0  0  0
 10 11  1  0  0  0  0
 10 17  1  0  0  0  0
 11 16  1  0  0  0  0
 11 12  1  0  0  0  0
 12 13  1  0  0  0  0
 12 29  1  0  0  0  0
 12 30  1  0  0  0  0
 13 14  1  0  0  0  0
 13 31  1  0  0  0  0
 13 32  1  0  0  0  0
 14 15  1  0  0  0  0
 15 16  1  0  0  0  0
 15 33  1  0  0  0  0
 15 34  1  0  0  0  0
 16 35  1  0  0  0  0
 16 36  1  0  0  0  0
 17 18  2  0  0  0  0
 18 37  1  0  0  0  0
M  END
> <s_m_source_file>
AV-unprocessed.smi

> <i_m_source_file_index>
430

> <i_lp_mmshare_version>
43012

> <i_f3d_flags>
0

> <s_epik_input>
W0NIM11bQ0gyXUMoPU8pW05IXVtDSDJdYzFbY0hdW2NIXWMobltjSF0xKU4yW0NIMl1bQ0gyXU9bQ0gyXVtDSDJdMg==

> <s_epik_cmdline>
J2VwaWtfcHl0aG9uJywgJy1waCcsICc3LjAnLCAnLXRuJywgJzgnLCAnLW1hJywgJzIwMCcsICctbWV0YWxfYmluZGluZycsICctaW1hZScsICc8aW5maWxlLm1hZT4nLCAnLW9tYWUnLCAnPG91dGZpbGUubWFlPic=

> <r_lp_tautomer_probability>
1

> <r_epik_Ionization_Penalty>
0.00505548

> <r_epik_Ionization_Penalty_Charging>
0

> <r_epik_Ionization_Penalty_Neutral>
0.00505548

> <r_epik_State_Penalty>
0.00367784

> <r_epik_Charging_Adjusted_Penalty>
0.00367784

> <i_epik_Tot_Q>
0

> <i_epik_Tot_abs_Q>
0

> <r_epik_Metal_State_Penalty>
-0

> <b_epik_Metal_Only>
0

> <s_lp_Force_Field>
OPLS_2005

> <r_lp_Energy>
16.0515

> <b_lp_Chiralities_Consistent>
1

> <s_lp_Variant>
AV-unprocessed.smi:430-1

> <Gold.Version>
5.8.1

> <Gold.Id.Protein>
6NUR|6NUR_protein|mol2

> <Gold.PLP.Fitness>
42.7027

> <Gold.PLP.PLP>
-37.8785

> <Gold.PLP.part.hbond>
-2.9089

> <Gold.PLP.part.metal>
0.0000

> <Gold.PLP.part.buried>
-2.9471

> <Gold.PLP.part.nonpolar>
-33.4028

> <Gold.PLP.part.repulsive>
0.2039

> <Gold.PLP.ligand.clash>
0.0000

> <Gold.PLP.ligand.torsion>
0.8196

> <Gold.PLP.Chemscore.Hbond>
2.0000

> <Gold.PLP.Chemscore.CHOScore>
0.0000

> <Gold.PLP.Chemscore.Metal>
0.0000

> <Gold.Chemscore.Hbonds>
donor molecule, donor type, donor heavy atom, donor atom, acceptor molecule, acceptor atom, score
      L1  H     5    24       P1  7957  0.19
      P1  H  7997  8008       L1    17  0.78

> <Gold.PLP.Chemscore.Internal.Correction>
0.4635

> <Gold.Rescore>
     Score         DG    S(hbond)    S(metal)    S(lipo)     H(rot)  DE(clash)    DE(int)     intcor
     17.52     -18.66       1.85        0.00      95.16       1.62       0.06       1.08       ----

> <Gold.Chemscore.Fitness>
17.5171

> <Gold.Chemscore.DG>
-18.6566

> <Gold.Chemscore.ZeroCoef>
-5.4800

> <Gold.Chemscore.Hbond>
1.8518

> <Gold.Chemscore.Metal>
0.0000

> <Gold.Chemscore.Lipo>
95.1565

> <Gold.Chemscore.Internal_Hbond>
0.0000

> <Gold.Chemscore.DEClash>
0.0563

> <Gold.Chemscore.DEInternal>
1.0832

> <Gold.Chemscore.Rot>
1.6178

> <Gold.Chemscore.Internal.Correction>
   9.000000E+99

> <Gold.Chemscore.Hbonds>
donor molecule, donor type, donor heavy atom, donor atom, acceptor molecule, acceptor atom, score
      L1  H     5    24       P1  7957  0.21
      P1  H  7997  8008       L1    17  0.11

> <Gold.Chemscore.Hbond.Weighted>
-6.1849

> <Gold.Chemscore.Metal.Weighted>
-0.0000

> <Gold.Chemscore.Lipo.Weighted>
-11.1333

> <Gold.Chemscore.Internal_Hbond.Weighted>
0.0000

> <Gold.Chemscore.DEClash.Weighted>
0.0563

> <Gold.Chemscore.DEInternal.Weighted>
1.0832

> <Gold.Chemscore.Rot.Weighted>
4.1416

> <Gold.Chemscore.Internal.Correction.Weighted>
   9.000000E+99

> <Gold.Protein.RotatedTorsions>
[ 6907 6896 6895 6894 ] final  -79.45 input  -60.11 | X-H torsion
[ 7974 7965 7964 7962 ] final   -7.43 input  175.53 | X-H torsion
[ 8008 7997 7996 7995 ] final  -48.45 input   59.86 | X-H torsion
[ 10167 10162 10161 10158 ] final  -84.94 input  -65.29 | X-H torsion
[ 10718 10713 10712 10709 ] final -157.95 input   66.30 | X-H torsion
[ 10763 10752 10751 10750 ] final  113.75 input  -60.55 | X-H torsion
[ 11005 11000 10999 10996 ] final  128.26 input  -57.11 | X-H torsion

> <Gold.Protein.ActiveResidues>
 VAL166  LYS551  ARG553  GLY616  TRP617  ASP618  TYR619  PRO620  LYS621  CYS622 
 ASP623  PHE694  ASN695  SER759  ASP760  ASP761  ALA762  ILE779  LEU786  VAL792 
 PHE793  MET794  SER795  GLU796  ALA797  LYS798  CYS799  TRP800  GLU811  SER814 

> <Gold.Protein.RotatedAtoms>
  150.6949  134.4119  159.5165 H   0  0  0  0  0  0  0  0  0  0  0  0  # atno 6907 bound_to 6896
  152.1876  134.8697  160.0529 H   0  0  0  0  0  0  0  0  0  0  0  0  # atno 6908 bound_to 6896
  151.9664  133.3677  159.4091 H   0  0  0  0  0  0  0  0  0  0  0  0  # atno 6909 bound_to 6896
  146.2307  140.2318  142.8340 H   0  0  0  0  0  0  0  0  0  0  0  0  # atno 7974 bound_to 7965
  154.4029  140.1321  156.4341 H   0  0  0  0  0  0  0  0  0  0  0  0  # atno 8008 bound_to 7997
  155.7522  140.3488  155.5136 H   0  0  0  0  0  0  0  0  0  0  0  0  # atno 8009 bound_to 7997
  155.8938  140.1008  157.1389 H   0  0  0  0  0  0  0  0  0  0  0  0  # atno 8010 bound_to 7997
  140.4085  143.2633  151.9049 H   0  0  0  0  0  0  0  0  0  0  0  0  # atno 10167 bound_to 10162
  156.5474  130.8590  151.2769 H   0  0  0  0  0  0  0  0  0  0  0  0  # atno 10718 bound_to 10713
  153.4971  135.3646  155.2521 H   0  0  0  0  0  0  0  0  0  0  0  0  # atno 10763 bound_to 10752
  154.8749  135.3991  154.3521 H   0  0  0  0  0  0  0  0  0  0  0  0  # atno 10764 bound_to 10752
  153.4151  135.7079  153.6398 H   0  0  0  0  0  0  0  0  0  0  0  0  # atno 10765 bound_to 10752
  139.9551  134.9614  156.8976 H   0  0  0  0  0  0  0  0  0  0  0  0  # atno 11005 bound_to 11000
  144.9552  140.8219  143.5547 LP  0  0  0  0  0  0  0  0  0  0  0  0  # atno 17320 bound_to 7965
  145.2283  139.2127  143.5056 LP  0  0  0  0  0  0  0  0  0  0  0  0  # atno 17321 bound_to 7965
  139.4783  144.5562  151.8311 LP  0  0  0  0  0  0  0  0  0  0  0  0  # atno 17342 bound_to 10162
  140.4664  144.1649  150.5912 LP  0  0  0  0  0  0  0  0  0  0  0  0  # atno 17343 bound_to 10162
  157.7394  130.9831  150.2311 LP  0  0  0  0  0  0  0  0  0  0  0  0  # atno 17370 bound_to 10713
  156.2915  130.3746  149.7837 LP  0  0  0  0  0  0  0  0  0  0  0  0  # atno 17371 bound_to 10713
  140.5628  134.0518  155.7404 LP  0  0  0  0  0  0  0  0  0  0  0  0  # atno 17394 bound_to 11000
  141.1221  133.9444  157.2709 LP  0  0  0  0  0  0  0  0  0  0  0  0  # atno 17395 bound_to 11000

$$$$
