AV-unprocessed.smi:374|AV-procd|sdf|2452|dock10
  -GOLD-   2262022393D 1   1.00000     0.00000
 Structure written by MMmdl.
 37 38  0  0  0  0  0  0  0  0  1 V2000
  151.3077  138.0440  154.7010 C   0  0  0  0  0  0  0  0  0  0  0  0
  150.7941  139.0119  155.7866 C   0  0  1  0  0  0  0  0  0  0  0  0
  151.9363  139.6208  156.6135 C   0  0  0  0  0  0  0  0  0  0  0  0
  153.1071  139.3176  156.3811 O   0  0  0  0  0  0  0  0  0  0  0  0
  151.5779  140.4821  157.5797 N   0  0  0  0  0  0  0  0  0  0  0  0
  152.4950  141.1903  158.4683 C   0  0  0  0  0  0  0  0  0  0  0  0
  151.8422  142.4165  159.1412 C   0  0  0  0  0  0  0  0  0  0  0  0
  151.6469  143.5525  158.1155 C   0  0  0  0  0  0  0  0  0  0  0  0
  150.9912  144.7917  158.7457 C   0  0  0  0  0  0  0  0  0  0  0  0
  151.7967  145.2929  159.9530 C   0  0  0  0  0  0  0  0  0  0  0  0
  151.9864  144.1751  160.9884 C   0  0  0  0  0  0  0  0  0  0  0  0
  152.6407  142.9343  160.3593 C   0  0  0  0  0  0  0  0  0  0  0  0
  149.9551  140.0702  155.2376 N   0  0  0  0  0  0  0  0  0  0  0  0
  149.5366  140.2673  153.9855 C   0  0  0  0  0  0  0  0  0  0  0  0
  148.7345  141.3130  153.8428 N   0  0  0  0  0  0  0  0  0  0  0  0
  148.6830  141.7388  155.1398 C   0  0  0  0  0  0  0  0  0  0  0  0
  149.3869  141.0241  156.0173 N   0  0  0  0  0  0  0  0  0  0  0  0
  151.8814  137.2288  155.1432 H   0  0  0  0  0  0  0  0  0  0  0  0
  151.9516  138.5431  153.9756 H   0  0  0  0  0  0  0  0  0  0  0  0
  150.4770  137.5980  154.1532 H   0  0  0  0  0  0  0  0  0  0  0  0
  150.1674  138.4292  156.4644 H   0  0  0  0  0  0  0  0  0  0  0  0
  150.5936  140.6693  157.7036 H   0  0  0  0  0  0  0  0  0  0  0  0
  152.9078  140.5179  159.2225 H   0  0  0  0  0  0  0  0  0  0  0  0
  153.3414  141.5152  157.8625 H   0  0  0  0  0  0  0  0  0  0  0  0
  150.8541  142.1151  159.4930 H   0  0  0  0  0  0  0  0  0  0  0  0
  152.6113  143.8320  157.6894 H   0  0  0  0  0  0  0  0  0  0  0  0
  151.0338  143.2026  157.2841 H   0  0  0  0  0  0  0  0  0  0  0  0
  150.9058  145.5848  158.0022 H   0  0  0  0  0  0  0  0  0  0  0  0
  149.9746  144.5496  159.0581 H   0  0  0  0  0  0  0  0  0  0  0  0
  152.7710  145.6530  159.6203 H   0  0  0  0  0  0  0  0  0  0  0  0
  151.2916  146.1438  160.4111 H   0  0  0  0  0  0  0  0  0  0  0  0
  152.5961  144.5359  161.8174 H   0  0  0  0  0  0  0  0  0  0  0  0
  151.0191  143.9019  161.4120 H   0  0  0  0  0  0  0  0  0  0  0  0
  152.7215  142.1586  161.1206 H   0  0  0  0  0  0  0  0  0  0  0  0
  153.6603  143.1744  160.0546 H   0  0  0  0  0  0  0  0  0  0  0  0
  149.8208  139.6294  153.1615 H   0  0  0  0  0  0  0  0  0  0  0  0
  148.1041  142.5974  155.4473 H   0  0  0  0  0  0  0  0  0  0  0  0
  1  2  1  0  0  0  0
  1 18  1  0  0  0  0
  1 19  1  0  0  0  0
  1 20  1  0  0  0  0
  2  3  1  0  0  0  0
  2 13  1  0  0  0  0
  2 21  1  0  0  0  0
  3  4  2  0  0  0  0
  3  5  1  0  0  0  0
  5  6  1  0  0  0  0
  5 22  1  0  0  0  0
  6  7  1  0  0  0  0
  6 23  1  0  0  0  0
  6 24  1  0  0  0  0
  7 12  1  0  0  0  0
  7  8  1  0  0  0  0
  7 25  1  0  0  0  0
  8  9  1  0  0  0  0
  8 26  1  0  0  0  0
  8 27  1  0  0  0  0
  9 10  1  0  0  0  0
  9 28  1  0  0  0  0
  9 29  1  0  0  0  0
 10 11  1  0  0  0  0
 10 30  1  0  0  0  0
 10 31  1  0  0  0  0
 11 12  1  0  0  0  0
 11 32  1  0  0  0  0
 11 33  1  0  0  0  0
 12 34  1  0  0  0  0
 12 35  1  0  0  0  0
 13 17  1  0  0  0  0
 13 14  1  0  0  0  0
 14 15  2  0  0  0  0
 14 36  1  0  0  0  0
 15 16  1  0  0  0  0
 16 17  2  0  0  0  0
 16 37  1  0  0  0  0
M  END
> <s_m_source_file>
AV-unprocessed.smi

> <i_m_source_file_index>
374

> <i_lp_mmshare_version>
43012

> <i_f3d_flags>
0

> <s_epik_input>
bjFbY0hdbltjSF1uMVtDQEhdKFtDSDNdKUMoPU8pW05IXVtDSDJdW0NIXTJbQ0gyXVtDSDJdW0NIMl1bQ0gyXVtDSDJdMg==

> <s_epik_cmdline>
J2VwaWtfcHl0aG9uJywgJy1waCcsICc3LjAnLCAnLXRuJywgJzgnLCAnLW1hJywgJzIwMCcsICctbWV0YWxfYmluZGluZycsICctaW1hZScsICc8aW5maWxlLm1hZT4nLCAnLW9tYWUnLCAnPG91dGZpbGUubWFlPic=

> <r_lp_tautomer_probability>
1

> <r_epik_Ionization_Penalty>
1.24899e-05

> <r_epik_Ionization_Penalty_Charging>
0

> <r_epik_Ionization_Penalty_Neutral>
1.24899e-05

> <r_epik_State_Penalty>
-0

> <r_epik_Charging_Adjusted_Penalty>
0

> <i_epik_Tot_Q>
0

> <i_epik_Tot_abs_Q>
0

> <r_epik_Metal_State_Penalty>
-0

> <b_epik_Metal_Only>
0

> <s_lp_Force_Field>
OPLS_2005

> <r_lp_Energy>
16.3067

> <b_lp_Chiralities_Consistent>
1

> <s_lp_Variant>
AV-unprocessed.smi:374-2

> <Gold.Version>
5.8.1

> <Gold.Id.Protein>
6NUR|6NUR_protein|mol2

> <Gold.PLP.Fitness>
45.9654

> <Gold.PLP.PLP>
-35.3887

> <Gold.PLP.part.hbond>
-1.9664

> <Gold.PLP.part.metal>
0.0000

> <Gold.PLP.part.buried>
0.4502

> <Gold.PLP.part.nonpolar>
-34.5639

> <Gold.PLP.part.repulsive>
0.6718

> <Gold.PLP.ligand.clash>
0.0000

> <Gold.PLP.ligand.torsion>
0.3337

> <Gold.PLP.Chemscore.Hbond>
1.7680

> <Gold.PLP.Chemscore.CHOScore>
1.9472

> <Gold.PLP.Chemscore.Metal>
0.0000

> <Gold.Chemscore.Hbonds>
donor molecule, donor type, donor heavy atom, donor atom, acceptor molecule, acceptor atom, score
      P1  H  7997  8008       L1     4  0.86
      P1  H  8011  8017       L1    15  0.56
      L1  C    14    36       P1  7957  0.95
      L1  C    16    37       P1  8028  0.93

> <Gold.PLP.Chemscore.Internal.Correction>
0.0986

> <Gold.Rescore>
     Score         DG    S(hbond)    S(metal)    S(lipo)     H(rot)  DE(clash)    DE(int)     intcor
     11.97     -14.26       1.12        0.00      89.74       2.14       0.64       1.65       ----

> <Gold.Chemscore.Fitness>
11.9729

> <Gold.Chemscore.DG>
-14.2623

> <Gold.Chemscore.ZeroCoef>
-5.4800

> <Gold.Chemscore.Hbond>
1.1249

> <Gold.Chemscore.Metal>
0.0000

> <Gold.Chemscore.Lipo>
89.7367

> <Gold.Chemscore.Internal_Hbond>
0.0000

> <Gold.Chemscore.DEClash>
0.6439

> <Gold.Chemscore.DEInternal>
1.6455

> <Gold.Chemscore.Rot>
2.1383

> <Gold.Chemscore.Internal.Correction>
   9.000000E+99

> <Gold.Chemscore.Hbonds>
donor molecule, donor type, donor heavy atom, donor atom, acceptor molecule, acceptor atom, score
      P1  H  7997  8008       L1     4  0.84
      P1  H  8011  8017       L1    15  0.16

> <Gold.Chemscore.Hbond.Weighted>
-3.7572

> <Gold.Chemscore.Metal.Weighted>
-0.0000

> <Gold.Chemscore.Lipo.Weighted>
-10.4992

> <Gold.Chemscore.Internal_Hbond.Weighted>
0.0000

> <Gold.Chemscore.DEClash.Weighted>
0.6439

> <Gold.Chemscore.DEInternal.Weighted>
1.6455

> <Gold.Chemscore.Rot.Weighted>
5.4741

> <Gold.Chemscore.Internal.Correction.Weighted>
   9.000000E+99

> <Gold.Protein.RotatedTorsions>
[ 6907 6896 6895 6894 ] final  158.10 input  -60.11 | X-H torsion
[ 7974 7965 7964 7962 ] final -121.57 input  175.53 | X-H torsion
[ 8008 7997 7996 7995 ] final  -56.11 input   59.86 | X-H torsion
[ 10167 10162 10161 10158 ] final   55.79 input  -65.29 | X-H torsion
[ 10718 10713 10712 10709 ] final   78.96 input   66.30 | X-H torsion
[ 10763 10752 10751 10750 ] final   83.17 input  -60.55 | X-H torsion
[ 11005 11000 10999 10996 ] final   60.47 input  -57.11 | X-H torsion

> <Gold.Protein.ActiveResidues>
 VAL166  LYS551  ARG553  GLY616  TRP617  ASP618  TYR619  PRO620  LYS621  CYS622 
 ASP623  PHE694  ASN695  SER759  ASP760  ASP761  ALA762  ILE779  LEU786  VAL792 
 PHE793  MET794  SER795  GLU796  ALA797  LYS798  CYS799  TRP800  GLU811  SER814 

> <Gold.Protein.RotatedAtoms>
  152.0053  133.3841  159.4197 H   0  0  0  0  0  0  0  0  0  0  0  0  # atno 6907 bound_to 6896
  150.6905  134.3789  159.5034 H   0  0  0  0  0  0  0  0  0  0  0  0  # atno 6908 bound_to 6896
  152.1542  134.8963  160.0596 H   0  0  0  0  0  0  0  0  0  0  0  0  # atno 6909 bound_to 6896
  145.0389  140.8128  143.4278 H   0  0  0  0  0  0  0  0  0  0  0  0  # atno 7974 bound_to 7965
  154.4218  140.1137  156.5585 H   0  0  0  0  0  0  0  0  0  0  0  0  # atno 8008 bound_to 7997
  155.6335  140.3496  155.4672 H   0  0  0  0  0  0  0  0  0  0  0  0  # atno 8009 bound_to 7997
  155.9928  140.1183  157.0611 H   0  0  0  0  0  0  0  0  0  0  0  0  # atno 8010 bound_to 7997
  140.2157  144.3842  150.6470 H   0  0  0  0  0  0  0  0  0  0  0  0  # atno 10167 bound_to 10162
  157.6761  130.9892  150.1862 H   0  0  0  0  0  0  0  0  0  0  0  0  # atno 10718 bound_to 10713
  153.1267  135.4701  154.9283 H   0  0  0  0  0  0  0  0  0  0  0  0  # atno 10763 bound_to 10752
  154.7626  135.3136  154.8350 H   0  0  0  0  0  0  0  0  0  0  0  0  # atno 10764 bound_to 10752
  153.8902  135.6885  153.4815 H   0  0  0  0  0  0  0  0  0  0  0  0  # atno 10765 bound_to 10752
  140.0230  134.6125  155.9613 H   0  0  0  0  0  0  0  0  0  0  0  0  # atno 11005 bound_to 11000
  145.1673  139.2424  143.5360 LP  0  0  0  0  0  0  0  0  0  0  0  0  # atno 17320 bound_to 7965
  146.3507  140.1416  142.8594 LP  0  0  0  0  0  0  0  0  0  0  0  0  # atno 17321 bound_to 7965
  140.6291  143.2185  151.6533 LP  0  0  0  0  0  0  0  0  0  0  0  0  # atno 17342 bound_to 10162
  139.5163  144.3352  152.0791 LP  0  0  0  0  0  0  0  0  0  0  0  0  # atno 17343 bound_to 10162
  156.2583  130.3708  149.8157 LP  0  0  0  0  0  0  0  0  0  0  0  0  # atno 17370 bound_to 10713
  156.5910  130.8506  151.3408 LP  0  0  0  0  0  0  0  0  0  0  0  0  # atno 17371 bound_to 10713
  141.1785  133.6543  156.4925 LP  0  0  0  0  0  0  0  0  0  0  0  0  # atno 17394 bound_to 11000
  140.4355  134.7063  157.4964 LP  0  0  0  0  0  0  0  0  0  0  0  0  # atno 17395 bound_to 11000

$$$$
