#       Name:                AV-unprocessed.smi:33
#       Creating user name   scv26
#       Creation time:       Thu Mar 26 15:49:03 2020


#       File generated by GOLD software.
#

@<TRIPOS>MOLECULE
AV-unprocessed.smi:33
    80    85     1
SMALL
NO_CHARGES


@<TRIPOS>ATOM
      1 ****        -5.1843   3.3261  -1.4134 O.2            1 S1                 0.0000
      2 ****        -6.0576   2.5278  -1.0679 C.2            1 S1                 0.0000
      3 ****        -5.7964   1.3444  -0.4803 O.3            1 S1                 0.0000
      4 ****        -4.4564   0.9536  -0.2276 C.3            1 S1                 0.0000
      5 ****        -4.4353  -0.4989   0.2735 C.3            1 S1                 0.0000
      6 ****        -3.1471  -0.7474   0.8360 O.3            1 S1                 0.0000
      7 ****        -2.5352  -1.8396   0.2166 C.3            1 S1                 0.0000
      8 ****        -1.0486  -1.6345   0.1727 N.pl3          1 S1                 0.0000
      9 ****        -0.1344  -2.2237  -0.6767 C.2            1 S1                 0.0000
     10 ****         1.1156  -1.9132  -0.4638 N.2            1 S1                 0.0000
     11 ****         1.0669  -1.0721   0.6389 C.ar           1 S1                 0.0000
     12 ****         2.0518  -0.3943   1.4072 C.ar           1 S1                 0.0000
     13 ****         3.3769  -0.4721   1.1404 N.am           1 S1                 0.0000
     14 ****         4.2146  -1.2044   2.1022 C.2            1 S1                 0.0000
     15 ****         3.7067  -2.0790   2.8068 O.2            1 S1                 0.0000
     16 ****         5.6902  -0.9354   2.1913 C.ar           1 S1                 0.0000
     17 ****         6.6025  -2.0127   2.2297 C.ar           1 S1                 0.0000
     18 ****         7.9859  -1.7687   2.3291 C.ar           1 S1                 0.0000
     19 ****         8.4649  -0.4472   2.4091 C.ar           1 S1                 0.0000
     20 ****         7.5592   0.6306   2.3994 C.ar           1 S1                 0.0000
     21 ****         6.1757   0.3875   2.3003 C.ar           1 S1                 0.0000
     22 ****         3.8557   0.1888  -0.0824 C.2            1 S1                 0.0000
     23 ****         3.2136   1.1263  -0.5593 O.2            1 S1                 0.0000
     24 ****         5.1436  -0.2420  -0.7250 C.ar           1 S1                 0.0000
     25 ****         6.0986   0.7232  -1.1130 C.ar           1 S1                 0.0000
     26 ****         7.3034   0.3239  -1.7237 C.ar           1 S1                 0.0000
     27 ****         7.5512  -1.0401  -1.9694 C.ar           1 S1                 0.0000
     28 ****         6.5898  -2.0048  -1.6127 C.ar           1 S1                 0.0000
     29 ****         5.3864  -1.6069  -0.9993 C.ar           1 S1                 0.0000
     30 ****         1.6360   0.3505   2.4639 N.ar           1 S1                 0.0000
     31 ****         0.3338   0.4227   2.7524 C.ar           1 S1                 0.0000
     32 ****        -0.6931  -0.1562   2.1263 N.ar           1 S1                 0.0000
     33 ****        -0.2819  -0.8999   1.0572 C.ar           1 S1                 0.0000
     34 ****        -3.1822  -1.9557  -1.1700 C.3            1 S1                 0.0000
     35 ****        -2.6084  -1.0813  -2.1273 O.3            1 S1                 0.0000
     36 ****        -4.6044  -1.5623  -0.8203 C.3            1 S1                 0.0000
     37 ****        -5.3299  -1.1880  -1.8759 F              1 S1                 0.0000
     38 ****        -7.5169   2.7703  -1.2582 C.ar           1 S1                 0.0000
     39 ****        -7.9455   3.9625  -1.8871 C.ar           1 S1                 0.0000
     40 ****        -9.3170   4.2186  -2.0802 C.ar           1 S1                 0.0000
     41 ****       -10.2768   3.2861  -1.6459 C.ar           1 S1                 0.0000
     42 ****        -9.8634   2.0965  -1.0184 C.ar           1 S1                 0.0000
     43 ****        -8.4923   1.8382  -0.8252 C.ar           1 S1                 0.0000
     44 ****        -3.8410   1.0655  -1.1208 H              1 S1                 0.0000
     45 ****        -4.0434   1.6138   0.5361 H              1 S1                 0.0000
     46 ****        -5.1881  -0.6289   1.0519 H              1 S1                 0.0000
     47 ****        -2.6745  -2.7345   0.8249 H              1 S1                 0.0000
     48 ****        -0.4250  -2.8968  -1.4703 H              1 S1                 0.0000
     49 ****         6.2461  -3.0310   2.1693 H              1 S1                 0.0000
     50 ****         8.6795  -2.5964   2.3451 H              1 S1                 0.0000
     51 ****         9.5260  -0.2609   2.4852 H              1 S1                 0.0000
     52 ****         7.9253   1.6444   2.4692 H              1 S1                 0.0000
     53 ****         5.4902   1.2228   2.2990 H              1 S1                 0.0000
     54 ****         5.9192   1.7726  -0.9280 H              1 S1                 0.0000
     55 ****         8.0378   1.0645  -2.0042 H              1 S1                 0.0000
     56 ****         8.4753  -1.3456  -2.4375 H              1 S1                 0.0000
     57 ****         6.7744  -3.0504  -1.8104 H              1 S1                 0.0000
     58 ****         4.6536  -2.3554  -0.7334 H              1 S1                 0.0000
     59 ****         0.0775   1.0289   3.6085 H              1 S1                 0.0000
     60 ****        -3.1132  -2.9808  -1.5351 H              1 S1                 0.0000
     61 ****        -2.6222  -0.2033  -1.7778 H              1 S1                 0.0000
     62 ****        -5.1140  -2.4272  -0.3934 H              1 S1                 0.0000
     63 ****        -7.2271   4.6937  -2.2293 H              1 S1                 0.0000
     64 ****        -9.6320   5.1322  -2.5624 H              1 S1                 0.0000
     65 ****       -11.3284   3.4828  -1.7937 H              1 S1                 0.0000
     66 ****       -10.5992   1.3800  -0.6842 H              1 S1                 0.0000
     67 ****        -8.2097   0.9155  -0.3400 H              1 S1                 0.0000
     68 ****        -4.2201   3.1091  -1.2612 LP             1 S1                 0.0000
     69 ****        -5.4401   4.1907  -1.8458 LP             1 S1                 0.0000
     70 ****        -3.2475  -0.9387   1.8124 LP             1 S1                 0.0000
     71 ****        -2.5740   0.0626   0.7122 LP             1 S1                 0.0000
     72 ****         1.9207  -2.2120  -0.9761 LP             1 S1                 0.0000
     73 ****         2.7320  -2.2860   2.7220 LP             1 S1                 0.0000
     74 ****         4.2693  -2.5816   3.4633 LP             1 S1                 0.0000
     75 ****         2.3721   1.4333  -0.1147 LP             1 S1                 0.0000
     76 ****         3.5340   1.5800  -1.3908 LP             1 S1                 0.0000
     77 ****         2.3021   0.8430   3.0239 LP             1 S1                 0.0000
     78 ****        -1.6481  -0.0574   2.4062 LP             1 S1                 0.0000
     79 ****        -3.1377  -1.1153  -2.9751 LP             1 S1                 0.0000
     80 ****        -1.6648  -1.3560  -2.3122 LP             1 S1                 0.0000
@<TRIPOS>BOND
    1    1    2 2     
    2    2    3 1     
    3    2   38 1     
    4    3    4 1     
    5    4    5 1     
    6    4   44 1     
    7    4   45 1     
    8    5   36 1     
    9    5    6 1     
   10    5   46 1     
   11    6    7 1     
   12    7    8 1     
   13    7   34 1     
   14    7   47 1     
   15    8   33 1     
   16    8    9 1     
   17    9   10 2     
   18    9   48 1     
   19   10   11 1     
   20   11   33 ar    
   21   11   12 ar    
   22   12   13 1     
   23   12   30 ar    
   24   13   14 am    
   25   13   22 am    
   26   14   15 2     
   27   14   16 1     
   28   16   21 ar    
   29   16   17 ar    
   30   17   18 ar    
   31   17   49 1     
   32   18   19 ar    
   33   18   50 1     
   34   19   20 ar    
   35   19   51 1     
   36   20   21 ar    
   37   20   52 1     
   38   21   53 1     
   39   22   23 2     
   40   22   24 1     
   41   24   29 ar    
   42   24   25 ar    
   43   25   26 ar    
   44   25   54 1     
   45   26   27 ar    
   46   26   55 1     
   47   27   28 ar    
   48   27   56 1     
   49   28   29 ar    
   50   28   57 1     
   51   29   58 1     
   52   30   31 ar    
   53   31   32 ar    
   54   31   59 1     
   55   32   33 ar    
   56   34   35 1     
   57   34   36 1     
   58   34   60 1     
   59   35   61 1     
   60   36   37 1     
   61   36   62 1     
   62   38   43 ar    
   63   38   39 ar    
   64   39   40 ar    
   65   39   63 1     
   66   40   41 ar    
   67   40   64 1     
   68   41   42 ar    
   69   41   65 1     
   70   42   43 ar    
   71   42   66 1     
   72   43   67 1     
   73    1   68 1     
   74    1   69 1     
   75    6   70 1     
   76    6   71 1     
   77   10   72 1     
   78   15   73 1     
   79   15   74 1     
   80   23   75 1     
   81   23   76 1     
   82   30   77 1     
   83   32   78 1     
   84   35   79 1     
   85   35   80 1     
@<TRIPOS>SUBSTRUCTURE
      1 S1             1
@<TRIPOS>SET
LONE_PAIRS      STATIC     ATOMS    <user>   **** ""
13 68 69 70 71 72 73 74 75 76 77 78 79 80
DONOR_HYDROGENS      STATIC     ATOMS    <user>   **** ""
1 61
ATOM$BLUE        STATIC     ATOMS    COLORGROUP SYSTEM
13 68 69 70 71 72 73 74 75 76 77 78 79 80
ATOM$RED        STATIC     ATOMS    COLORGROUP SYSTEM
1 61
