AV-unprocessed.smi:1636|AV-procd|sdf|6542|dock9
  -GOLD-   22720 7223D 1   1.00000     0.00000
 Structure written by MMmdl.
 43 44  0  0  0  0  0  0  0  0  1 V2000
  152.2798  144.6992  158.6667 C   0  0  0  0  0  0  0  0  0  0  0  0
  152.2154  143.2204  158.2706 C   0  0  2  0  0  0  0  0  0  0  0  0
  150.9626  142.8989  157.4334 C   0  0  0  0  0  0  0  0  0  0  0  0
  150.8829  141.4648  157.1635 N   0  0  0  0  0  0  0  0  0  0  0  0
  149.9459  141.0239  156.2042 C   0  0  0  0  0  0  0  0  0  0  0  0
  148.5619  141.0625  156.4947 C   0  0  0  0  0  0  0  0  0  0  0  0
  147.6441  140.6201  155.5233 C   0  0  0  0  0  0  0  0  0  0  0  0
  148.1251  140.1472  154.2868 C   0  0  0  0  0  0  0  0  0  0  0  0
  147.1390  139.6783  153.2235 C   0  0  0  0  0  0  0  0  0  0  0  0
  147.2098  138.2583  152.8911 N   0  0  0  0  0  0  0  0  0  0  0  0
  146.1564  137.4322  152.8258 C   0  0  0  0  0  0  0  0  0  0  0  0
  144.9960  137.7750  153.0536 O   0  0  0  0  0  0  0  0  0  0  0  0
  146.5205  136.1866  152.4910 N   0  0  0  0  0  0  0  0  0  0  0  0
  145.6116  135.0529  152.3597 C   0  0  0  0  0  0  0  0  0  0  0  0
  144.7107  135.1850  151.1195 C   0  0  0  0  0  0  0  0  0  0  0  0
  145.3475  135.9744  150.1375 O   0  0  0  0  0  0  0  0  0  0  0  0
  149.5230  140.1462  154.0855 C   0  0  0  0  0  0  0  0  0  0  0  0
  150.4079  140.5664  155.0142 N   0  0  0  0  0  0  0  0  0  0  0  0
  150.9837  140.6432  158.3667 C   0  0  0  0  0  0  0  0  0  0  0  0
  152.2244  141.0409  159.1843 C   0  0  0  0  0  0  0  0  0  0  0  0
  152.1938  142.4374  159.4607 O   0  0  0  0  0  0  0  0  0  0  0  0
  152.3147  145.3399  157.7852 H   0  0  0  0  0  0  0  0  0  0  0  0
  153.1699  144.9043  159.2618 H   0  0  0  0  0  0  0  0  0  0  0  0
  151.4098  144.9883  159.2571 H   0  0  0  0  0  0  0  0  0  0  0  0
  153.1122  142.9761  157.6981 H   0  0  0  0  0  0  0  0  0  0  0  0
  150.0634  143.2157  157.9639 H   0  0  0  0  0  0  0  0  0  0  0  0
  151.0015  143.4541  156.4952 H   0  0  0  0  0  0  0  0  0  0  0  0
  148.1975  141.4110  157.4495 H   0  0  0  0  0  0  0  0  0  0  0  0
  146.5839  140.6426  155.7287 H   0  0  0  0  0  0  0  0  0  0  0  0
  146.1237  139.9298  153.5357 H   0  0  0  0  0  0  0  0  0  0  0  0
  147.3284  140.2460  152.3124 H   0  0  0  0  0  0  0  0  0  0  0  0
  148.1245  137.8820  152.6885 H   0  0  0  0  0  0  0  0  0  0  0  0
  147.4997  136.0031  152.3280 H   0  0  0  0  0  0  0  0  0  0  0  0
  146.2033  134.1391  152.2810 H   0  0  0  0  0  0  0  0  0  0  0  0
  145.0200  134.9468  153.2697 H   0  0  0  0  0  0  0  0  0  0  0  0
  144.4304  134.2154  150.7057 H   0  0  0  0  0  0  0  0  0  0  0  0
  143.7850  135.6917  151.3931 H   0  0  0  0  0  0  0  0  0  0  0  0
  145.3488  135.4958  149.3227 H   0  0  0  0  0  0  0  0  0  0  0  0
  149.9545  139.8048  153.1564 H   0  0  0  0  0  0  0  0  0  0  0  0
  150.0825  140.7846  158.9648 H   0  0  0  0  0  0  0  0  0  0  0  0
  151.0418  139.5822  158.1273 H   0  0  0  0  0  0  0  0  0  0  0  0
  152.2428  140.4940  160.1271 H   0  0  0  0  0  0  0  0  0  0  0  0
  153.1411  140.7848  158.6504 H   0  0  0  0  0  0  0  0  0  0  0  0
  1  2  1  0  0  0  0
  1 22  1  0  0  0  0
  1 23  1  0  0  0  0
  1 24  1  0  0  0  0
  2 21  1  0  0  0  0
  2  3  1  0  0  0  0
  2 25  1  0  0  0  0
  3  4  1  0  0  0  0
  3 26  1  0  0  0  0
  3 27  1  0  0  0  0
  4  5  1  0  0  0  0
  4 19  1  0  0  0  0
  5 18  1  0  0  0  0
  5  6  2  0  0  0  0
  6  7  1  0  0  0  0
  6 28  1  0  0  0  0
  7  8  2  0  0  0  0
  7 29  1  0  0  0  0
  8  9  1  0  0  0  0
  8 17  1  0  0  0  0
  9 10  1  0  0  0  0
  9 30  1  0  0  0  0
  9 31  1  0  0  0  0
 10 11  1  0  0  0  0
 10 32  1  0  0  0  0
 11 12  2  0  0  0  0
 11 13  1  0  0  0  0
 13 14  1  0  0  0  0
 13 33  1  0  0  0  0
 14 15  1  0  0  0  0
 14 34  1  0  0  0  0
 14 35  1  0  0  0  0
 15 16  1  0  0  0  0
 15 36  1  0  0  0  0
 15 37  1  0  0  0  0
 16 38  1  0  0  0  0
 17 18  2  0  0  0  0
 17 39  1  0  0  0  0
 19 20  1  0  0  0  0
 19 40  1  0  0  0  0
 19 41  1  0  0  0  0
 20 21  1  0  0  0  0
 20 42  1  0  0  0  0
 20 43  1  0  0  0  0
M  END
> <s_m_source_file>
AV-unprocessed.smi

> <i_m_source_file_index>
1636

> <i_lp_mmshare_version>
43012

> <i_f3d_flags>
0

> <s_epik_input>
W0NIM11bQ0BASF0xW0NIMl1OKFtDSDJdW0NIMl1PMSljMltjSF1bY0hdYyhbY0hdbjIpW0NIMl1bTkhdQyg9TylbTkhdW0NIMl1bQ0gyXVtPSF0=

> <s_epik_cmdline>
J2VwaWtfcHl0aG9uJywgJy1waCcsICc3LjAnLCAnLXRuJywgJzgnLCAnLW1hJywgJzIwMCcsICctbWV0YWxfYmluZGluZycsICctaW1hZScsICc8aW5maWxlLm1hZT4nLCAnLW9tYWUnLCAnPG91dGZpbGUubWFlPic=

> <r_lp_tautomer_probability>
1

> <r_epik_Ionization_Penalty>
0.00695222

> <r_epik_Ionization_Penalty_Charging>
0

> <r_epik_Ionization_Penalty_Neutral>
0.00695222

> <r_epik_State_Penalty>
0.00513345

> <r_epik_Charging_Adjusted_Penalty>
0.00513345

> <i_epik_Tot_Q>
0

> <i_epik_Tot_abs_Q>
0

> <r_epik_Metal_State_Penalty>
-0

> <b_epik_Metal_Only>
0

> <s_lp_Force_Field>
OPLS_2005

> <r_lp_Energy>
15.2616

> <b_lp_Chiralities_Consistent>
1

> <s_lp_Variant>
AV-unprocessed.smi:1636-1

> <Gold.Version>
5.8.1

> <Gold.Id.Protein>
6NUR|6NUR_protein|mol2

> <Gold.PLP.Fitness>
46.3036

> <Gold.PLP.PLP>
-34.7048

> <Gold.PLP.part.hbond>
-4.9909

> <Gold.PLP.part.metal>
0.0000

> <Gold.PLP.part.buried>
-3.7870

> <Gold.PLP.part.nonpolar>
-27.1110

> <Gold.PLP.part.repulsive>
1.1711

> <Gold.PLP.ligand.clash>
0.0000

> <Gold.PLP.ligand.torsion>
0.5262

> <Gold.PLP.Chemscore.Hbond>
3.1040

> <Gold.PLP.Chemscore.CHOScore>
1.0000

> <Gold.PLP.Chemscore.Metal>
0.0000

> <Gold.Chemscore.Hbonds>
donor molecule, donor type, donor heavy atom, donor atom, acceptor molecule, acceptor atom, score
      L1  H    10    32       P1  7948  0.80
      L1  H    13    33       P1  7948  0.99
      L1  H    16    38       P1  7921  1.00
      P1  H  7989  7998       L1    18  0.29
      L1  C    17    39       P1  7957  1.00

> <Gold.PLP.Chemscore.Internal.Correction>
0.3391

> <Gold.Rescore>
     Score         DG    S(hbond)    S(metal)    S(lipo)     H(rot)  DE(clash)    DE(int)     intcor
     15.88     -17.15       2.71        0.00      83.30       2.78       0.65       0.62       ----

> <Gold.Chemscore.Fitness>
15.8830

> <Gold.Chemscore.DG>
-17.1520

> <Gold.Chemscore.ZeroCoef>
-5.4800

> <Gold.Chemscore.Hbond>
2.7095

> <Gold.Chemscore.Metal>
0.0000

> <Gold.Chemscore.Lipo>
83.3023

> <Gold.Chemscore.Internal_Hbond>
0.0000

> <Gold.Chemscore.DEClash>
0.6479

> <Gold.Chemscore.DEInternal>
0.6211

> <Gold.Chemscore.Rot>
2.7828

> <Gold.Chemscore.Internal.Correction>
   9.000000E+99

> <Gold.Chemscore.Hbonds>
donor molecule, donor type, donor heavy atom, donor atom, acceptor molecule, acceptor atom, score
      L1  H    10    32       P1  7948  0.76
      L1  H    13    33       P1  7948  0.92
      L1  H    16    38       P1  7921  0.96

> <Gold.Chemscore.Hbond.Weighted>
-9.0497

> <Gold.Chemscore.Metal.Weighted>
-0.0000

> <Gold.Chemscore.Lipo.Weighted>
-9.7464

> <Gold.Chemscore.Internal_Hbond.Weighted>
0.0000

> <Gold.Chemscore.DEClash.Weighted>
0.6479

> <Gold.Chemscore.DEInternal.Weighted>
0.6211

> <Gold.Chemscore.Rot.Weighted>
7.1241

> <Gold.Chemscore.Internal.Correction.Weighted>
   9.000000E+99

> <Gold.Protein.RotatedTorsions>
[ 6907 6896 6895 6894 ] final  163.97 input  -60.11 | X-H torsion
[ 7974 7965 7964 7962 ] final   20.98 input  175.53 | X-H torsion
[ 8008 7997 7996 7995 ] final  -20.79 input   59.86 | X-H torsion
[ 10167 10162 10161 10158 ] final   65.09 input  -65.29 | X-H torsion
[ 10718 10713 10712 10709 ] final  171.39 input   66.30 | X-H torsion
[ 10763 10752 10751 10750 ] final   -4.67 input  -60.55 | X-H torsion
[ 11005 11000 10999 10996 ] final  -18.45 input  -57.11 | X-H torsion

> <Gold.Protein.ActiveResidues>
 VAL166  LYS551  ARG553  GLY616  TRP617  ASP618  TYR619  PRO620  LYS621  CYS622 
 ASP623  PHE694  ASN695  SER759  ASP760  ASP761  ALA762  ILE779  LEU786  VAL792 
 PHE793  MET794  SER795  GLU796  ALA797  LYS798  CYS799  TRP800  GLU811  SER814 

> <Gold.Protein.RotatedAtoms>
  151.9171  133.3576  159.3883 H   0  0  0  0  0  0  0  0  0  0  0  0  # atno 6907 bound_to 6896
  150.7045  134.4673  159.5418 H   0  0  0  0  0  0  0  0  0  0  0  0  # atno 6908 bound_to 6896
  152.2290  134.8340  160.0527 H   0  0  0  0  0  0  0  0  0  0  0  0  # atno 6909 bound_to 6896
  146.2090  139.8092  142.8704 H   0  0  0  0  0  0  0  0  0  0  0  0  # atno 7974 bound_to 7965
  154.4747  140.2052  155.9907 H   0  0  0  0  0  0  0  0  0  0  0  0  # atno 8008 bound_to 7997
  156.1069  140.3235  155.7989 H   0  0  0  0  0  0  0  0  0  0  0  0  # atno 8009 bound_to 7997
  155.4701  140.0530  157.2971 H   0  0  0  0  0  0  0  0  0  0  0  0  # atno 8010 bound_to 7997
  140.1151  144.4782  150.6954 H   0  0  0  0  0  0  0  0  0  0  0  0  # atno 10167 bound_to 10162
  156.9942  131.0156  151.2848 H   0  0  0  0  0  0  0  0  0  0  0  0  # atno 10718 bound_to 10713
  153.3881  135.7001  153.6515 H   0  0  0  0  0  0  0  0  0  0  0  0  # atno 10763 bound_to 10752
  153.5099  135.3634  155.2582 H   0  0  0  0  0  0  0  0  0  0  0  0  # atno 10764 bound_to 10752
  154.8699  135.4132  154.3192 H   0  0  0  0  0  0  0  0  0  0  0  0  # atno 10765 bound_to 10752
  140.8269  133.8026  155.9718 H   0  0  0  0  0  0  0  0  0  0  0  0  # atno 11005 bound_to 11000
  145.3214  141.0244  143.3498 LP  0  0  0  0  0  0  0  0  0  0  0  0  # atno 17320 bound_to 7965
  144.8864  139.4833  143.6698 LP  0  0  0  0  0  0  0  0  0  0  0  0  # atno 17321 bound_to 7965
  140.6904  143.2372  151.5147 LP  0  0  0  0  0  0  0  0  0  0  0  0  # atno 17342 bound_to 10162
  139.5598  144.2184  152.1673 LP  0  0  0  0  0  0  0  0  0  0  0  0  # atno 17343 bound_to 10162
  157.5437  130.8136  149.8060 LP  0  0  0  0  0  0  0  0  0  0  0  0  # atno 17370 bound_to 10713
  156.0196  130.3800  150.2004 LP  0  0  0  0  0  0  0  0  0  0  0  0  # atno 17371 bound_to 10713
  140.9039  134.2344  157.5025 LP  0  0  0  0  0  0  0  0  0  0  0  0  # atno 17394 bound_to 11000
  139.8706  134.9719  156.4754 LP  0  0  0  0  0  0  0  0  0  0  0  0  # atno 17395 bound_to 11000

$$$$
