AV-unprocessed.smi:2384|AV-procd|sdf|9462|dock9
  -GOLD-   2272013 93D 1   1.00000     0.00000
 Structure written by MMmdl.
 43 44  0  0  0  0  0  0  0  0  1 V2000
  143.8478  132.8307  150.1883 C   0  0  0  0  0  0  0  0  0  0  0  0
  145.0065  132.2710  150.9868 C   0  0  0  0  0  0  0  0  0  0  0  0
  145.1025  130.8911  151.2503 C   0  0  0  0  0  0  0  0  0  0  0  0
  146.2022  130.4329  152.0022 C   0  0  0  0  0  0  0  0  0  0  0  0
  146.3710  128.9623  152.3206 C   0  0  0  0  0  0  0  0  0  0  0  0
  147.1611  131.2540  152.4803 N   0  0  0  0  0  0  0  0  0  0  0  0
  147.0794  132.5848  152.2329 C   0  0  0  0  0  0  0  0  0  0  0  0
  148.0386  133.5289  152.6866 N   0  0  0  0  0  0  0  0  0  0  0  0
  148.9103  133.4031  153.7030 C   0  0  0  0  0  0  0  0  0  0  0  0
  148.9995  132.4281  154.4499 O   0  0  0  0  0  0  0  0  0  0  0  0
  149.6810  134.4940  153.8184 N   0  0  0  0  0  0  0  0  0  0  0  0
  150.7077  134.6911  154.8365 C   0  0  0  0  0  0  0  0  0  0  0  0
  150.7016  136.1205  155.4073 C   0  0  0  0  0  0  0  0  0  0  0  0
  151.2436  137.1760  154.4251 C   0  0  0  0  0  0  0  0  0  0  0  0
  151.1511  138.5249  154.9770 N   0  0  0  0  0  0  0  0  0  0  0  0
  149.8987  139.2612  154.9329 C   0  0  0  0  0  0  0  0  0  0  0  0
  150.2451  140.6764  155.4195 C   0  0  0  0  0  0  0  0  0  0  0  0
  151.6691  140.5943  155.9802 C   0  0  0  0  0  0  0  0  0  0  0  0
  152.1450  139.2201  155.5418 C   0  0  0  0  0  0  0  0  0  0  0  0
  153.3018  138.8329  155.7011 O   0  0  0  0  0  0  0  0  0  0  0  0
  146.0108  133.1267  151.4833 C   0  0  0  0  0  0  0  0  0  0  0  0
  143.1860  132.0371  149.8398 H   0  0  0  0  0  0  0  0  0  0  0  0
  144.2148  133.3747  149.3178 H   0  0  0  0  0  0  0  0  0  0  0  0
  143.2635  133.5165  150.8022 H   0  0  0  0  0  0  0  0  0  0  0  0
  144.3542  130.2025  150.8860 H   0  0  0  0  0  0  0  0  0  0  0  0
  145.5687  128.3673  151.8837 H   0  0  0  0  0  0  0  0  0  0  0  0
  146.3625  128.8052  153.3994 H   0  0  0  0  0  0  0  0  0  0  0  0
  147.3191  128.5955  151.9264 H   0  0  0  0  0  0  0  0  0  0  0  0
  148.0636  134.4006  152.1790 H   0  0  0  0  0  0  0  0  0  0  0  0
  149.5424  135.2475  153.1611 H   0  0  0  0  0  0  0  0  0  0  0  0
  150.5777  133.9653  155.6409 H   0  0  0  0  0  0  0  0  0  0  0  0
  151.6774  134.4771  154.3866 H   0  0  0  0  0  0  0  0  0  0  0  0
  149.6889  136.3900  155.7104 H   0  0  0  0  0  0  0  0  0  0  0  0
  151.3000  136.1297  156.3190 H   0  0  0  0  0  0  0  0  0  0  0  0
  152.2835  136.9587  154.1765 H   0  0  0  0  0  0  0  0  0  0  0  0
  150.6899  137.1379  153.4863 H   0  0  0  0  0  0  0  0  0  0  0  0
  149.4822  139.2754  153.9250 H   0  0  0  0  0  0  0  0  0  0  0  0
  149.1753  138.7835  155.5952 H   0  0  0  0  0  0  0  0  0  0  0  0
  150.2132  141.3798  154.5864 H   0  0  0  0  0  0  0  0  0  0  0  0
  149.5355  141.0260  156.1700 H   0  0  0  0  0  0  0  0  0  0  0  0
  152.3131  141.3800  155.5841 H   0  0  0  0  0  0  0  0  0  0  0  0
  151.6739  140.6518  157.0691 H   0  0  0  0  0  0  0  0  0  0  0  0
  145.9572  134.1889  151.2920 H   0  0  0  0  0  0  0  0  0  0  0  0
  1  2  1  0  0  0  0
  1 22  1  0  0  0  0
  1 23  1  0  0  0  0
  1 24  1  0  0  0  0
  2 21  1  0  0  0  0
  2  3  2  0  0  0  0
  3  4  1  0  0  0  0
  3 25  1  0  0  0  0
  4  5  1  0  0  0  0
  4  6  2  0  0  0  0
  5 26  1  0  0  0  0
  5 27  1  0  0  0  0
  5 28  1  0  0  0  0
  6  7  1  0  0  0  0
  7  8  1  0  0  0  0
  7 21  2  0  0  0  0
  8  9  1  0  0  0  0
  8 29  1  0  0  0  0
  9 10  2  0  0  0  0
  9 11  1  0  0  0  0
 11 12  1  0  0  0  0
 11 30  1  0  0  0  0
 12 13  1  0  0  0  0
 12 31  1  0  0  0  0
 12 32  1  0  0  0  0
 13 14  1  0  0  0  0
 13 33  1  0  0  0  0
 13 34  1  0  0  0  0
 14 15  1  0  0  0  0
 14 35  1  0  0  0  0
 14 36  1  0  0  0  0
 15 19  1  0  0  0  0
 15 16  1  0  0  0  0
 16 17  1  0  0  0  0
 16 37  1  0  0  0  0
 16 38  1  0  0  0  0
 17 18  1  0  0  0  0
 17 39  1  0  0  0  0
 17 40  1  0  0  0  0
 18 19  1  0  0  0  0
 18 41  1  0  0  0  0
 18 42  1  0  0  0  0
 19 20  2  0  0  0  0
 21 43  1  0  0  0  0
M  END
> <s_m_source_file>
AV-unprocessed.smi

> <i_m_source_file_index>
2384

> <i_lp_mmshare_version>
43012

> <i_f3d_flags>
0

> <s_epik_input>
W0NIM11jMVtjSF1jKFtDSDNdKW5jKFtjSF0xKVtOSF1DKD1PKVtOSF1bQ0gyXVtDSDJdW0NIMl1OMltDSDJdW0NIMl1bQ0gyXUMyPU8=

> <s_epik_cmdline>
J2VwaWtfcHl0aG9uJywgJy1waCcsICc3LjAnLCAnLXRuJywgJzgnLCAnLW1hJywgJzIwMCcsICctbWV0YWxfYmluZGluZycsICctaW1hZScsICc8aW5maWxlLm1hZT4nLCAnLW9tYWUnLCAnPG91dGZpbGUubWFlPic=

> <r_lp_tautomer_probability>
1

> <r_epik_Ionization_Penalty>
0.000241796

> <r_epik_Ionization_Penalty_Charging>
0

> <r_epik_Ionization_Penalty_Neutral>
0.000241796

> <r_epik_State_Penalty>
-0

> <r_epik_Charging_Adjusted_Penalty>
0

> <i_epik_Tot_Q>
0

> <i_epik_Tot_abs_Q>
0

> <r_epik_Metal_State_Penalty>
-0

> <b_epik_Metal_Only>
0

> <s_lp_Force_Field>
OPLS_2005

> <r_lp_Energy>
18.86

> <b_lp_Chiralities_Consistent>
1

> <s_lp_Variant>
AV-unprocessed.smi:2384-1

> <Gold.Version>
5.8.1

> <Gold.Id.Protein>
6NUR|6NUR_protein|mol2

> <Gold.PLP.Fitness>
51.1995

> <Gold.PLP.PLP>
-44.0395

> <Gold.PLP.part.hbond>
-3.0000

> <Gold.PLP.part.metal>
0.0000

> <Gold.PLP.part.buried>
-5.6008

> <Gold.PLP.part.nonpolar>
-35.7239

> <Gold.PLP.part.repulsive>
0.1741

> <Gold.PLP.ligand.clash>
0.0000

> <Gold.PLP.ligand.torsion>
0.5565

> <Gold.PLP.Chemscore.Hbond>
2.7500

> <Gold.PLP.Chemscore.CHOScore>
0.0000

> <Gold.PLP.Chemscore.Metal>
0.0000

> <Gold.Chemscore.Hbonds>
donor molecule, donor type, donor heavy atom, donor atom, acceptor molecule, acceptor atom, score
      L1  H     8    29       P1  7948  0.83
      L1  H    11    30       P1  7948  0.40
      P1  H  7997  8009       L1    20  0.91

> <Gold.PLP.Chemscore.Internal.Correction>
0.0230

> <Gold.Rescore>
     Score         DG    S(hbond)    S(metal)    S(lipo)     H(rot)  DE(clash)    DE(int)     intcor
     17.04     -18.63       2.49        0.00      79.60       1.75       0.00       1.59       ----

> <Gold.Chemscore.Fitness>
17.0367

> <Gold.Chemscore.DG>
-18.6279

> <Gold.Chemscore.ZeroCoef>
-5.4800

> <Gold.Chemscore.Hbond>
2.4856

> <Gold.Chemscore.Metal>
0.0000

> <Gold.Chemscore.Lipo>
79.6022

> <Gold.Chemscore.Internal_Hbond>
0.0000

> <Gold.Chemscore.DEClash>
0.0000

> <Gold.Chemscore.DEInternal>
1.5912

> <Gold.Chemscore.Rot>
1.7451

> <Gold.Chemscore.Internal.Correction>
   9.000000E+99

> <Gold.Chemscore.Hbonds>
donor molecule, donor type, donor heavy atom, donor atom, acceptor molecule, acceptor atom, score
      L1  H     8    29       P1  7948  0.13
      L1  H    11    30       P1  7948  0.01
      P1  H  7997  8009       L1    20  0.76

> <Gold.Chemscore.Hbond.Weighted>
-8.3019

> <Gold.Chemscore.Metal.Weighted>
-0.0000

> <Gold.Chemscore.Lipo.Weighted>
-9.3135

> <Gold.Chemscore.Internal_Hbond.Weighted>
0.0000

> <Gold.Chemscore.DEClash.Weighted>
0.0000

> <Gold.Chemscore.DEInternal.Weighted>
1.5912

> <Gold.Chemscore.Rot.Weighted>
4.4675

> <Gold.Chemscore.Internal.Correction.Weighted>
   9.000000E+99

> <Gold.Protein.RotatedTorsions>
[ 6907 6896 6895 6894 ] final  -50.75 input  -60.11 | X-H torsion
[ 7974 7965 7964 7962 ] final   16.23 input  175.53 | X-H torsion
[ 8008 7997 7996 7995 ] final -166.57 input   59.86 | X-H torsion
[ 10167 10162 10161 10158 ] final  -47.25 input  -65.29 | X-H torsion
[ 10718 10713 10712 10709 ] final   60.28 input   66.30 | X-H torsion
[ 10763 10752 10751 10750 ] final   79.79 input  -60.55 | X-H torsion
[ 11005 11000 10999 10996 ] final    4.02 input  -57.11 | X-H torsion

> <Gold.Protein.ActiveResidues>
 VAL166  LYS551  ARG553  GLY616  TRP617  ASP618  TYR619  PRO620  LYS621  CYS622 
 ASP623  PHE694  ASN695  SER759  ASP760  ASP761  ALA762  ILE779  LEU786  VAL792 
 PHE793  MET794  SER795  GLU796  ALA797  LYS798  CYS799  TRP800  GLU811  SER814 

> <Gold.Protein.RotatedAtoms>
  150.8677  134.8044  159.7130 H   0  0  0  0  0  0  0  0  0  0  0  0  # atno 6907 bound_to 6896
  152.4693  134.4997  159.9731 H   0  0  0  0  0  0  0  0  0  0  0  0  # atno 6908 bound_to 6896
  151.5091  133.3450  159.2917 H   0  0  0  0  0  0  0  0  0  0  0  0  # atno 6909 bound_to 6896
  146.2256  139.8779  142.8576 H   0  0  0  0  0  0  0  0  0  0  0  0  # atno 7974 bound_to 7965
  155.8657  140.0985  157.1584 H   0  0  0  0  0  0  0  0  0  0  0  0  # atno 8008 bound_to 7997
  154.3993  140.1356  156.4078 H   0  0  0  0  0  0  0  0  0  0  0  0  # atno 8009 bound_to 7997
  155.7807  140.3458  155.5298 H   0  0  0  0  0  0  0  0  0  0  0  0  # atno 8010 bound_to 7997
  140.6783  143.2793  151.3899 H   0  0  0  0  0  0  0  0  0  0  0  0  # atno 10167 bound_to 10162
  157.5741  130.8930  149.9317 H   0  0  0  0  0  0  0  0  0  0  0  0  # atno 10718 bound_to 10713
  153.0981  135.4827  154.8815 H   0  0  0  0  0  0  0  0  0  0  0  0  # atno 10763 bound_to 10752
  154.7347  135.3068  154.8834 H   0  0  0  0  0  0  0  0  0  0  0  0  # atno 10764 bound_to 10752
  153.9459  135.6829  153.4797 H   0  0  0  0  0  0  0  0  0  0  0  0  # atno 10765 bound_to 10752
  140.5866  133.9963  155.8070 H   0  0  0  0  0  0  0  0  0  0  0  0  # atno 11005 bound_to 11000
  145.2542  141.0055  143.3863 LP  0  0  0  0  0  0  0  0  0  0  0  0  # atno 17320 bound_to 7965
  144.9350  139.4255  143.6477 LP  0  0  0  0  0  0  0  0  0  0  0  0  # atno 17321 bound_to 7965
  139.6089  144.1140  152.2278 LP  0  0  0  0  0  0  0  0  0  0  0  0  # atno 17342 bound_to 10162
  140.0547  144.5904  150.7309 LP  0  0  0  0  0  0  0  0  0  0  0  0  # atno 17343 bound_to 10162
  156.0786  130.3676  150.0627 LP  0  0  0  0  0  0  0  0  0  0  0  0  # atno 17370 bound_to 10713
  156.8776  130.9545  151.3603 LP  0  0  0  0  0  0  0  0  0  0  0  0  # atno 17371 bound_to 10713
  141.0962  133.9840  157.3156 LP  0  0  0  0  0  0  0  0  0  0  0  0  # atno 17394 bound_to 11000
  139.9293  135.0200  156.8344 LP  0  0  0  0  0  0  0  0  0  0  0  0  # atno 17395 bound_to 11000

$$$$
