AV-unprocessed.smi:1230|AV-procd|sdf|5153|dock8
  -GOLD-   22720 4223D 1   1.00000     0.00000
 Structure written by MMmdl.
 38 39  0  0  0  0  0  0  0  0  2 V2000
  150.7004  145.0792  160.1662 C   0  0  0  0  0  0  0  0  0  0  0  0
  151.9503  144.2453  160.4876 C   0  0  1  0  0  0  0  0  0  0  0  0
  151.7342  143.3387  161.7158 C   0  0  0  0  0  0  0  0  0  0  0  0
  153.0043  142.5438  162.0592 C   0  0  0  0  0  0  0  0  0  0  0  0
  153.4927  141.7246  160.8550 C   0  0  0  0  0  0  0  0  0  0  0  0
  153.7080  142.6188  159.6222 C   0  0  0  0  0  0  0  0  0  0  0  0
  152.4462  143.4286  159.2715 C   0  0  1  0  0  0  0  0  0  0  0  0
  151.4395  142.5114  158.8569 O   0  0  0  0  0  0  0  0  0  0  0  0
  151.4526  142.2220  157.4684 C   0  0  0  0  0  0  0  0  0  0  0  0
  150.3640  141.1815  157.1731 C   0  0  0  0  0  0  0  0  0  0  0  0
  150.9499  139.8747  156.8490 N   0  0  0  0  0  0  0  0  0  0  0  0
  151.4557  139.1084  157.9126 C   0  0  0  0  0  0  0  0  0  0  0  0
  152.0185  137.9023  157.7087 C   0  0  0  0  0  0  0  0  0  0  0  0
  152.5429  137.1062  158.7691 C   0  0  0  0  0  0  0  0  0  0  0  0
  152.9800  136.4864  159.6440 N   0  0  0  0  0  0  0  0  0  0  0  0
  152.1004  137.3900  156.3428 C   0  0  0  0  0  0  0  0  0  0  0  0
  152.6046  136.2885  156.1276 O   0  0  0  0  0  0  0  0  0  0  0  0
  151.6015  138.1808  155.3474 N   0  5  0  0  0  0  0  0  0  0  0  0
  151.0358  139.4088  155.5668 C   0  0  0  0  0  0  0  0  0  0  0  0
  150.6049  140.1080  154.6495 O   0  0  0  0  0  0  0  0  0  0  0  0
  149.8441  144.4437  159.9383 H   0  0  0  0  0  0  0  0  0  0  0  0
  150.8714  145.7290  159.3076 H   0  0  0  0  0  0  0  0  0  0  0  0
  150.4249  145.7138  161.0087 H   0  0  0  0  0  0  0  0  0  0  0  0
  152.7407  144.9528  160.7427 H   0  0  0  0  0  0  0  0  0  0  0  0
  151.4390  143.9409  162.5757 H   0  0  0  0  0  0  0  0  0  0  0  0
  150.9109  142.6483  161.5275 H   0  0  0  0  0  0  0  0  0  0  0  0
  153.7899  143.2304  162.3770 H   0  0  0  0  0  0  0  0  0  0  0  0
  152.8113  141.8827  162.9045 H   0  0  0  0  0  0  0  0  0  0  0  0
  154.4206  141.2106  161.1069 H   0  0  0  0  0  0  0  0  0  0  0  0
  152.7640  140.9471  160.6231 H   0  0  0  0  0  0  0  0  0  0  0  0
  154.5334  143.3047  159.8160 H   0  0  0  0  0  0  0  0  0  0  0  0
  154.0091  142.0108  158.7685 H   0  0  0  0  0  0  0  0  0  0  0  0
  152.7034  144.1166  158.4632 H   0  0  0  0  0  0  0  0  0  0  0  0
  151.2733  143.1314  156.8934 H   0  0  0  0  0  0  0  0  0  0  0  0
  152.4320  141.8363  157.1807 H   0  0  0  0  0  0  0  0  0  0  0  0
  149.7011  141.0924  158.0348 H   0  0  0  0  0  0  0  0  0  0  0  0
  149.7267  141.5301  156.3586 H   0  0  0  0  0  0  0  0  0  0  0  0
  151.3637  139.5599  158.8898 H   0  0  0  0  0  0  0  0  0  0  0  0
  1  2  1  0  0  0  0
  1 21  1  0  0  0  0
  1 22  1  0  0  0  0
  1 23  1  0  0  0  0
  2  7  1  0  0  0  0
  2  3  1  0  0  0  0
  2 24  1  0  0  0  0
  3  4  1  0  0  0  0
  3 25  1  0  0  0  0
  3 26  1  0  0  0  0
  4  5  1  0  0  0  0
  4 27  1  0  0  0  0
  4 28  1  0  0  0  0
  5  6  1  0  0  0  0
  5 29  1  0  0  0  0
  5 30  1  0  0  0  0
  6  7  1  0  0  0  0
  6 31  1  0  0  0  0
  6 32  1  0  0  0  0
  7  8  1  0  0  0  0
  7 33  1  0  0  0  0
  8  9  1  0  0  0  0
  9 10  1  0  0  0  0
  9 34  1  0  0  0  0
  9 35  1  0  0  0  0
 10 11  1  0  0  0  0
 10 36  1  0  0  0  0
 10 37  1  0  0  0  0
 11 19  1  0  0  0  0
 11 12  1  0  0  0  0
 12 13  2  0  0  0  0
 12 38  1  0  0  0  0
 13 14  1  0  0  0  0
 13 16  1  0  0  0  0
 14 15  3  0  0  0  0
 16 17  2  0  0  0  0
 16 18  1  0  0  0  0
 18 19  1  0  0  0  0
 19 20  2  0  0  0  0
M  CHG  1  18  -1
M  END
> <s_m_source_file>
AV-unprocessed.smi

> <i_m_source_file_index>
1230

> <i_lp_mmshare_version>
43012

> <i_f3d_flags>
0

> <s_epik_input>
W0NIM11bQ0BASF0xW0NIMl1bQ0gyXVtDSDJdW0NIMl1bQ0BIXTFPW0NIMl1bQ0gyXW4yW2NIXWMoQyNOKWMoPU8pW25IXWMyPU8=

> <s_epik_cmdline>
J2VwaWtfcHl0aG9uJywgJy1waCcsICc3LjAnLCAnLXRuJywgJzgnLCAnLW1hJywgJzIwMCcsICctbWV0YWxfYmluZGluZycsICctaW1hZScsICc8aW5maWxlLm1hZT4nLCAnLW9tYWUnLCAnPG91dGZpbGUubWFlPic=

> <r_epik_Ionization_Penalty>
0.400014

> <r_epik_Ionization_Penalty_Charging>
4.81474e-10

> <r_epik_Ionization_Penalty_Neutral>
0.400014

> <r_epik_State_Penalty>
0.399305

> <r_epik_Charging_Adjusted_Penalty>
0.399305

> <i_epik_Tot_Q>
-1

> <i_epik_Tot_abs_Q>
1

> <r_epik_Metal_State_Penalty>
0.00056968

> <b_epik_Metal_Only>
0

> <s_lp_Force_Field>
OPLS_2005

> <r_lp_Energy>
24.4713

> <b_lp_Chiralities_Consistent>
1

> <s_lp_Variant>
AV-unprocessed.smi:1230-2

> <Gold.Version>
5.8.1

> <Gold.Id.Protein>
6NUR|6NUR_protein|mol2

> <Gold.PLP.Fitness>
46.4874

> <Gold.PLP.PLP>
-39.3719

> <Gold.PLP.part.hbond>
-3.0000

> <Gold.PLP.part.metal>
0.0000

> <Gold.PLP.part.buried>
-6.6905

> <Gold.PLP.part.nonpolar>
-30.9701

> <Gold.PLP.part.repulsive>
0.1167

> <Gold.PLP.ligand.clash>
0.0000

> <Gold.PLP.ligand.torsion>
0.9310

> <Gold.PLP.Chemscore.Hbond>
2.9913

> <Gold.PLP.Chemscore.CHOScore>
0.0000

> <Gold.PLP.Chemscore.Metal>
0.0000

> <Gold.Chemscore.Hbonds>
donor molecule, donor type, donor heavy atom, donor atom, acceptor molecule, acceptor atom, score
      P1  H  6896  6908       L1    15  1.00
      P1  H  7989  7998       L1    20  1.00
      P1  H 10752 10765       L1    17  0.83

> <Gold.PLP.Chemscore.Internal.Correction>
0.0038

> <Gold.Rescore>
     Score         DG    S(hbond)    S(metal)    S(lipo)     H(rot)  DE(clash)    DE(int)     intcor
     21.70     -22.62       2.95        0.00     103.81       1.90       0.11       0.81       ----

> <Gold.Chemscore.Fitness>
21.7020

> <Gold.Chemscore.DG>
-22.6203

> <Gold.Chemscore.ZeroCoef>
-5.4800

> <Gold.Chemscore.Hbond>
2.9504

> <Gold.Chemscore.Metal>
0.0000

> <Gold.Chemscore.Lipo>
103.8108

> <Gold.Chemscore.Internal_Hbond>
0.0000

> <Gold.Chemscore.DEClash>
0.1080

> <Gold.Chemscore.DEInternal>
0.8103

> <Gold.Chemscore.Rot>
1.8984

> <Gold.Chemscore.Internal.Correction>
   9.000000E+99

> <Gold.Chemscore.Hbonds>
donor molecule, donor type, donor heavy atom, donor atom, acceptor molecule, acceptor atom, score
      P1  H  6896  6908       L1    15  0.95
      P1  H  7989  7998       L1    20  0.99
      P1  H 10752 10765       L1    17  0.79

> <Gold.Chemscore.Hbond.Weighted>
-9.8542

> <Gold.Chemscore.Metal.Weighted>
-0.0000

> <Gold.Chemscore.Lipo.Weighted>
-12.1459

> <Gold.Chemscore.Internal_Hbond.Weighted>
0.0000

> <Gold.Chemscore.DEClash.Weighted>
0.1080

> <Gold.Chemscore.DEInternal.Weighted>
0.8103

> <Gold.Chemscore.Rot.Weighted>
4.8598

> <Gold.Chemscore.Internal.Correction.Weighted>
   9.000000E+99

> <Gold.Protein.RotatedTorsions>
[ 6907 6896 6895 6894 ] final  -81.18 input  -60.11 | X-H torsion
[ 7974 7965 7964 7962 ] final  -22.65 input  175.53 | X-H torsion
[ 8008 7997 7996 7995 ] final  138.97 input   59.86 | X-H torsion
[ 10167 10162 10161 10158 ] final  -21.57 input  -65.29 | X-H torsion
[ 10718 10713 10712 10709 ] final -124.00 input   66.30 | X-H torsion
[ 10763 10752 10751 10750 ] final -129.60 input  -60.55 | X-H torsion
[ 11005 11000 10999 10996 ] final  -56.40 input  -57.11 | X-H torsion

> <Gold.Protein.ActiveResidues>
 VAL166  LYS551  ARG553  GLY616  TRP617  ASP618  TYR619  PRO620  LYS621  CYS622 
 ASP623  PHE694  ASN695  SER759  ASP760  ASP761  ALA762  ILE779  LEU786  VAL792 
 PHE793  MET794  SER795  GLU796  ALA797  LYS798  CYS799  TRP800  GLU811  SER814 

> <Gold.Protein.RotatedAtoms>
  150.6916  134.3856  159.5053 H   0  0  0  0  0  0  0  0  0  0  0  0  # atno 6907 bound_to 6896
  152.1652  134.8877  160.0548 H   0  0  0  0  0  0  0  0  0  0  0  0  # atno 6908 bound_to 6896
  151.9924  133.3761  159.4186 H   0  0  0  0  0  0  0  0  0  0  0  0  # atno 6909 bound_to 6896
  146.1663  140.4508  142.8550 H   0  0  0  0  0  0  0  0  0  0  0  0  # atno 7974 bound_to 7965
  156.2993  140.2379  156.4161 H   0  0  0  0  0  0  0  0  0  0  0  0  # atno 8008 bound_to 7997
  154.8397  140.0429  157.1553 H   0  0  0  0  0  0  0  0  0  0  0  0  # atno 8009 bound_to 7997
  154.9116  140.2991  155.5267 H   0  0  0  0  0  0  0  0  0  0  0  0  # atno 8010 bound_to 7997
  140.7282  143.4616  151.0372 H   0  0  0  0  0  0  0  0  0  0  0  0  # atno 10167 bound_to 10162
  156.1550  130.6561  150.9969 H   0  0  0  0  0  0  0  0  0  0  0  0  # atno 10718 bound_to 10713
  154.8757  135.3890  154.3946 H   0  0  0  0  0  0  0  0  0  0  0  0  # atno 10763 bound_to 10752
  153.4678  135.7029  153.6017 H   0  0  0  0  0  0  0  0  0  0  0  0  # atno 10764 bound_to 10752
  153.4487  135.3839  155.2239 H   0  0  0  0  0  0  0  0  0  0  0  0  # atno 10765 bound_to 10752
  141.1118  133.6610  156.4614 H   0  0  0  0  0  0  0  0  0  0  0  0  # atno 11005 bound_to 11000
  144.8098  140.6364  143.6423 LP  0  0  0  0  0  0  0  0  0  0  0  0  # atno 17320 bound_to 7965
  145.4458  139.1530  143.3945 LP  0  0  0  0  0  0  0  0  0  0  0  0  # atno 17321 bound_to 7965
  139.8301  143.7703  152.3179 LP  0  0  0  0  0  0  0  0  0  0  0  0  # atno 17342 bound_to 10162
  139.7816  144.7442  151.0081 LP  0  0  0  0  0  0  0  0  0  0  0  0  # atno 17343 bound_to 10162
  157.6688  131.0866  150.7664 LP  0  0  0  0  0  0  0  0  0  0  0  0  # atno 17370 bound_to 10713
  156.7730  130.4835  149.5415 LP  0  0  0  0  0  0  0  0  0  0  0  0  # atno 17371 bound_to 10713
  140.4754  134.6715  157.5147 LP  0  0  0  0  0  0  0  0  0  0  0  0  # atno 17394 bound_to 11000
  140.0017  134.6826  155.9520 LP  0  0  0  0  0  0  0  0  0  0  0  0  # atno 17395 bound_to 11000

$$$$
