#       Name:                AV-unprocessed.smi:110
#       Creating user name   scv26
#       Creation time:       Thu Mar 26 18:15:09 2020


#       File generated by GOLD software.
#

@<TRIPOS>MOLECULE
AV-unprocessed.smi:110
    57    61     1
SMALL
NO_CHARGES


@<TRIPOS>ATOM
      1 ****        -5.4057  -0.4015  -0.6838 O.3            1 S1                 0.0000
      2 ****        -4.9835  -1.6214  -1.2552 C.3            1 S1                 0.0000
      3 ****        -3.4493  -1.7012  -1.2560 C.3            1 S1                 0.0000
      4 ****        -2.9928  -2.1362   0.0160 O.3            1 S1                 0.0000
      5 ****        -1.7288  -2.7033  -0.1071 C.3            1 S1                 0.0000
      6 ****        -0.7004  -1.6426   0.1838 N.pl3          1 S1                 0.0000
      7 ****        -0.0996  -1.4260   1.4039 C.2            1 S1                 0.0000
      8 ****         0.7484  -0.4373   1.4508 N.2            1 S1                 0.0000
      9 ****         0.7130   0.1029   0.1727 C.ar           1 S1                 0.0000
     10 ****         1.3783   1.1897  -0.4648 C.ar           1 S1                 0.0000
     11 ****         2.2850   1.9962   0.1343 N.pl3          1 S1                 0.0000
     12 ****         3.6181   2.1175  -0.4745 C.3            1 S1                 0.0000
     13 ****         4.5980   2.5661   0.6263 C.3            1 S1                 0.0000
     14 ****         3.6667   2.7451   1.7809 C.ar           1 S1                 0.0000
     15 ****         3.9858   3.2020   3.0715 C.ar           1 S1                 0.0000
     16 ****         2.9414   3.3141   4.0143 C.ar           1 S1                 0.0000
     17 ****         1.6149   2.9802   3.6547 C.ar           1 S1                 0.0000
     18 ****         1.3178   2.5246   2.3513 C.ar           1 S1                 0.0000
     19 ****         2.3692   2.3966   1.4205 C.ar           1 S1                 0.0000
     20 ****         1.1243   1.4005  -1.7802 N.ar           1 S1                 0.0000
     21 ****         0.2479   0.6273  -2.4240 C.ar           1 S1                 0.0000
     22 ****        -0.4555  -0.4030  -1.9533 N.ar           1 S1                 0.0000
     23 ****        -0.1893  -0.6480  -0.6368 C.ar           1 S1                 0.0000
     24 ****        -1.6297  -3.2959  -1.5231 C.3            1 S1                 0.0000
     25 ****        -1.6434  -4.7090  -1.4843 O.3            1 S1                 0.0000
     26 ****        -2.8950  -2.7716  -2.2108 C.3            1 S1                 0.0000
     27 ****        -2.5812  -2.1908  -3.4608 O.3            1 S1                 0.0000
     28 ****        -3.0178  -0.7250  -1.4784 H              1 S1                 0.0000
     29 ****        -1.5698  -3.4408   0.6808 H              1 S1                 0.0000
     30 ****        -0.7064  -2.9846  -2.0107 H              1 S1                 0.0000
     31 ****        -3.6242  -3.5724  -2.3465 H              1 S1                 0.0000
     32 ****        -6.3500  -0.3711  -0.7043 H              1 S1                 0.0000
     33 ****        -5.4252  -2.4642  -0.7227 H              1 S1                 0.0000
     34 ****        -5.3600  -1.6499  -2.2782 H              1 S1                 0.0000
     35 ****        -0.3091  -2.0361   2.2705 H              1 S1                 0.0000
     36 ****         3.9329   1.1686  -0.9114 H              1 S1                 0.0000
     37 ****         3.5799   2.8555  -1.2766 H              1 S1                 0.0000
     38 ****         5.3403   1.7995   0.8501 H              1 S1                 0.0000
     39 ****         5.1026   3.4997   0.3770 H              1 S1                 0.0000
     40 ****         5.0003   3.4629   3.3343 H              1 S1                 0.0000
     41 ****         3.1553   3.6623   5.0141 H              1 S1                 0.0000
     42 ****         0.8215   3.0771   4.3810 H              1 S1                 0.0000
     43 ****         0.3013   2.2822   2.0787 H              1 S1                 0.0000
     44 ****         0.0888   0.8666  -3.4650 H              1 S1                 0.0000
     45 ****        -0.8617  -5.0041  -1.0426 H              1 S1                 0.0000
     46 ****        -1.9514  -1.5002  -3.3178 H              1 S1                 0.0000
     47 ****        -5.0323   0.3636  -1.2083 LP             1 S1                 0.0000
     48 ****        -5.0870  -0.3442   0.2623 LP             1 S1                 0.0000
     49 ****        -3.6279  -2.8164   0.3821 LP             1 S1                 0.0000
     50 ****        -2.9470  -1.3543   0.6378 LP             1 S1                 0.0000
     51 ****         1.2988  -0.1366   2.2297 LP             1 S1                 0.0000
     52 ****         1.5942   2.1361  -2.2681 LP             1 S1                 0.0000
     53 ****        -1.1024  -0.9342  -2.5005 LP             1 S1                 0.0000
     54 ****        -1.6620  -5.0720  -2.4159 LP             1 S1                 0.0000
     55 ****        -2.4516  -5.0251  -0.9872 LP             1 S1                 0.0000
     56 ****        -3.4091  -1.8129  -3.8753 LP             1 S1                 0.0000
     57 ****        -2.1913  -2.8838  -4.0672 LP             1 S1                 0.0000
@<TRIPOS>BOND
    1    1    2 1     
    2    1   32 1     
    3    2    3 1     
    4    2   33 1     
    5    2   34 1     
    6    3   28 1     
    7    3   26 1     
    8    3    4 1     
    9    4    5 1     
   10    5   29 1     
   11    5    6 1     
   12    5   24 1     
   13    6   23 1     
   14    6    7 1     
   15    7    8 2     
   16    7   35 1     
   17    8    9 1     
   18    9   23 ar    
   19    9   10 ar    
   20   10   11 1     
   21   10   20 ar    
   22   11   19 1     
   23   11   12 1     
   24   12   13 1     
   25   12   36 1     
   26   12   37 1     
   27   13   14 1     
   28   13   38 1     
   29   13   39 1     
   30   14   19 ar    
   31   14   15 ar    
   32   15   16 ar    
   33   15   40 1     
   34   16   17 ar    
   35   16   41 1     
   36   17   18 ar    
   37   17   42 1     
   38   18   19 ar    
   39   18   43 1     
   40   20   21 ar    
   41   21   22 ar    
   42   21   44 1     
   43   22   23 ar    
   44   24   30 1     
   45   24   25 1     
   46   24   26 1     
   47   25   45 1     
   48   26   31 1     
   49   26   27 1     
   50   27   46 1     
   51    1   47 1     
   52    1   48 1     
   53    4   49 1     
   54    4   50 1     
   55    8   51 1     
   56   20   52 1     
   57   22   53 1     
   58   25   54 1     
   59   25   55 1     
   60   27   56 1     
   61   27   57 1     
@<TRIPOS>SUBSTRUCTURE
      1 S1             1
@<TRIPOS>SET
LONE_PAIRS      STATIC     ATOMS    <user>   **** ""
11 47 48 49 50 51 52 53 54 55 56 57
DONOR_HYDROGENS      STATIC     ATOMS    <user>   **** ""
3 32 45 46
ATOM$BLUE        STATIC     ATOMS    COLORGROUP SYSTEM
11 47 48 49 50 51 52 53 54 55 56 57
ATOM$RED        STATIC     ATOMS    COLORGROUP SYSTEM
3 32 45 46
