AV-unprocessed.smi:66|AV-procd|sdf|619|dock6
  -GOLD-   2262016513D 1   1.00000     0.00000
 Structure written by MMmdl.
 28 30  0  0  0  0  0  0  0  0  2 V2000
  153.1920  136.6239  159.1528 O   0  0  0  0  0  0  0  0  0  0  0  0
  153.2643  137.5854  158.3568 C   0  0  0  0  0  0  0  0  0  0  0  0
  154.2158  138.3948  158.2805 O   0  5  0  0  0  0  0  0  0  0  0  0
  152.0801  137.7822  157.4021 C   0  0  2  0  0  0  0  0  0  0  0  0
  151.7523  136.5145  156.5903 C   0  0  0  0  0  0  0  0  0  0  0  0
  151.2060  137.0718  155.2821 C   0  0  2  0  0  0  0  0  0  0  0  0
  151.2901  136.1487  154.2169 O   0  0  0  0  0  0  0  0  0  0  0  0
  152.0940  138.2935  155.0691 C   0  0  0  0  0  0  0  0  0  0  0  0
  152.3446  138.8280  156.4061 N   0  0  0  0  0  0  0  0  0  0  0  0
  151.7974  140.0263  156.7239 C   0  0  0  0  0  0  0  0  0  0  0  0
  152.1926  140.6838  157.8480 N   0  0  0  0  0  0  0  0  0  0  0  0
  151.6730  141.8797  158.1438 C   0  0  0  0  0  0  0  0  0  0  0  0
  150.7675  142.5897  157.4658 N   0  0  0  0  0  0  0  0  0  0  0  0
  150.3772  141.9332  156.3374 C   0  0  0  0  0  0  0  0  0  0  0  0
  149.4688  142.3411  155.3838 N   0  0  0  0  0  0  0  0  0  0  0  0
  149.4234  141.3350  154.4492 C   0  0  0  0  0  0  0  0  0  0  0  0
  150.2039  140.3192  154.7016 N   0  0  0  0  0  0  0  0  0  0  0  0
  150.8350  140.6613  155.8932 C   0  0  0  0  0  0  0  0  0  0  0  0
  148.9694  143.2177  155.4191 H   0  0  0  0  0  0  0  0  0  0  0  0
  151.1992  138.0552  157.9874 H   0  0  0  0  0  0  0  0  0  0  0  0
  152.6524  135.9278  156.3960 H   0  0  0  0  0  0  0  0  0  0  0  0
  151.0375  135.8669  157.0987 H   0  0  0  0  0  0  0  0  0  0  0  0
  150.1690  137.3836  155.4157 H   0  0  0  0  0  0  0  0  0  0  0  0
  151.2283  136.6254  153.4036 H   0  0  0  0  0  0  0  0  0  0  0  0
  153.0581  137.9983  154.6522 H   0  0  0  0  0  0  0  0  0  0  0  0
  151.6530  139.0068  154.3714 H   0  0  0  0  0  0  0  0  0  0  0  0
  152.0376  142.3343  159.0529 H   0  0  0  0  0  0  0  0  0  0  0  0
  148.7915  141.3778  153.5743 H   0  0  0  0  0  0  0  0  0  0  0  0
  1  2  2  0  0  0  0
  2  3  1  0  0  0  0
  2  4  1  0  0  0  0
  4  5  1  0  0  0  0
  4 20  1  0  0  0  0
  4  9  1  0  0  0  0
  5  6  1  0  0  0  0
  5 21  1  0  0  0  0
  5 22  1  0  0  0  0
  6  7  1  0  0  0  0
  6  8  1  0  0  0  0
  6 23  1  0  0  0  0
  7 24  1  0  0  0  0
  8 25  1  0  0  0  0
  8 26  1  0  0  0  0
  8  9  1  0  0  0  0
  9 10  1  0  0  0  0
 10 11  1  0  0  0  0
 10 18  2  0  0  0  0
 11 12  2  0  0  0  0
 12 27  1  0  0  0  0
 12 13  1  0  0  0  0
 13 14  2  0  0  0  0
 14 15  1  0  0  0  0
 14 18  1  0  0  0  0
 15 16  1  0  0  0  0
 15 19  1  0  0  0  0
 16 17  2  0  0  0  0
 16 28  1  0  0  0  0
 17 18  1  0  0  0  0
M  CHG  1   3  -1
M  END
> <s_m_source_file>
AV-unprocessed.smi

> <i_m_source_file_index>
66

> <i_lp_mmshare_version>
43012

> <i_f3d_flags>
0

> <s_epik_input>
Tz1DKFtPSF0pW0NAQEhdMVtDSDJdW0NAQEhdKFtPSF0pW0NIMl1OMWMobltjSF1uMiljKGMyMylbbkhdW2NIXW4z

> <s_epik_cmdline>
J2VwaWtfcHl0aG9uJywgJy1waCcsICc3LjAnLCAnLXRuJywgJzgnLCAnLW1hJywgJzIwMCcsICctbWV0YWxfYmluZGluZycsICctaW1hZScsICc8aW5maWxlLm1hZT4nLCAnLW9tYWUnLCAnPG91dGZpbGUubWFlPic=

> <r_lp_tautomer_probability>
0.955585

> <r_epik_Ionization_Penalty>
0.00455415

> <r_epik_Ionization_Penalty_Charging>
0.000248217

> <r_epik_Ionization_Penalty_Neutral>
0.00430593

> <r_epik_State_Penalty>
0.0207074

> <r_epik_Charging_Adjusted_Penalty>
0.0209557

> <i_epik_Tot_Q>
-1

> <i_epik_Tot_abs_Q>
1

> <r_epik_Metal_State_Penalty>
0.337372

> <b_epik_Metal_Only>
0

> <s_lp_Force_Field>
OPLS_2005

> <r_lp_Energy>
28.2566

> <b_lp_Chiralities_Consistent>
1

> <s_lp_Variant>
AV-unprocessed.smi:66-3

> <Gold.Version>
5.8.1

> <Gold.Id.Protein>
6NUR|6NUR_protein|mol2

> <Gold.PLP.Fitness>
44.5288

> <Gold.PLP.PLP>
-25.1168

> <Gold.PLP.part.hbond>
-6.0304

> <Gold.PLP.part.metal>
0.0000

> <Gold.PLP.part.buried>
-2.7591

> <Gold.PLP.part.nonpolar>
-17.5472

> <Gold.PLP.part.repulsive>
0.4098

> <Gold.PLP.ligand.clash>
0.0000

> <Gold.PLP.ligand.torsion>
0.2066

> <Gold.PLP.Chemscore.Hbond>
6.3786

> <Gold.PLP.Chemscore.CHOScore>
0.1976

> <Gold.PLP.Chemscore.Metal>
0.0000

> <Gold.Chemscore.Hbonds>
donor molecule, donor type, donor heavy atom, donor atom, acceptor molecule, acceptor atom, score
      L1  H     7    24       P1  7949  0.62
      L1  H    15    19       P1  8028  0.96
      P1  H  6896  6907       L1     1  1.19
      P1  H  7989  7998       L1    17  0.68
      P1  H  7997  8008       L1     3  1.89
      P1  H 10752 10764       L1     7  1.00
      L1  C    16    28       P1  7957  0.12

> <Gold.PLP.Chemscore.Internal.Correction>
0.0966

> <Gold.Rescore>
     Score         DG    S(hbond)    S(metal)    S(lipo)     H(rot)  DE(clash)    DE(int)     intcor
     11.82     -13.46       3.28        0.00      28.64       2.48       0.10       1.55       ----

> <Gold.Chemscore.Fitness>
11.8172

> <Gold.Chemscore.DG>
-13.4608

> <Gold.Chemscore.ZeroCoef>
-5.4800

> <Gold.Chemscore.Hbond>
3.2841

> <Gold.Chemscore.Metal>
0.0000

> <Gold.Chemscore.Lipo>
28.6405

> <Gold.Chemscore.Internal_Hbond>
0.0000

> <Gold.Chemscore.DEClash>
0.0967

> <Gold.Chemscore.DEInternal>
1.5469

> <Gold.Chemscore.Rot>
2.4762

> <Gold.Chemscore.Internal.Correction>
   9.000000E+99

> <Gold.Chemscore.Hbonds>
donor molecule, donor type, donor heavy atom, donor atom, acceptor molecule, acceptor atom, score
      L1  H     7    24       P1  7949  0.32
      L1  H    15    19       P1  8028  0.89
      P1  H  6896  6907       L1     1  0.57
      P1  H  7989  7998       L1    17  0.02
      P1  H  7997  8008       L1     3  0.85
      P1  H 10752 10764       L1     7  0.18

> <Gold.Chemscore.Hbond.Weighted>
-10.9689

> <Gold.Chemscore.Metal.Weighted>
-0.0000

> <Gold.Chemscore.Lipo.Weighted>
-3.3509

> <Gold.Chemscore.Internal_Hbond.Weighted>
0.0000

> <Gold.Chemscore.DEClash.Weighted>
0.0967

> <Gold.Chemscore.DEInternal.Weighted>
1.5469

> <Gold.Chemscore.Rot.Weighted>
6.3391

> <Gold.Chemscore.Internal.Correction.Weighted>
   9.000000E+99

> <Gold.Protein.RotatedTorsions>
[ 6907 6896 6895 6894 ] final   49.35 input  -60.11 | X-H torsion
[ 7974 7965 7964 7962 ] final  126.94 input  175.53 | X-H torsion
[ 8008 7997 7996 7995 ] final  -90.41 input   59.86 | X-H torsion
[ 10167 10162 10161 10158 ] final   35.19 input  -65.29 | X-H torsion
[ 10718 10713 10712 10709 ] final  -36.46 input   66.30 | X-H torsion
[ 10763 10752 10751 10750 ] final  -79.51 input  -60.55 | X-H torsion
[ 11005 11000 10999 10996 ] final  157.95 input  -57.11 | X-H torsion

> <Gold.Protein.ActiveResidues>
 VAL166  LYS551  ARG553  GLY616  TRP617  ASP618  TYR619  PRO620  LYS621  CYS622 
 ASP623  PHE694  ASN695  SER759  ASP760  ASP761  ALA762  ILE779  LEU786  VAL792 
 PHE793  MET794  SER795  GLU796  ALA797  LYS798  CYS799  TRP800  GLU811  SER814 

> <Gold.Protein.RotatedAtoms>
  152.2898  134.7734  160.0379 H   0  0  0  0  0  0  0  0  0  0  0  0  # atno 6907 bound_to 6896
  151.8284  133.3399  159.3614 H   0  0  0  0  0  0  0  0  0  0  0  0  # atno 6908 bound_to 6896
  150.7225  134.5435  159.5803 H   0  0  0  0  0  0  0  0  0  0  0  0  # atno 6909 bound_to 6896
  145.0562  139.3842  143.5029 H   0  0  0  0  0  0  0  0  0  0  0  0  # atno 7974 bound_to 7965
  154.6983  140.0530  157.0432 H   0  0  0  0  0  0  0  0  0  0  0  0  # atno 8008 bound_to 7997
  155.0720  140.3200  155.4608 H   0  0  0  0  0  0  0  0  0  0  0  0  # atno 8009 bound_to 7997
  156.2751  140.2080  156.5848 H   0  0  0  0  0  0  0  0  0  0  0  0  # atno 8010 bound_to 7997
  140.4245  144.1413  150.6151 H   0  0  0  0  0  0  0  0  0  0  0  0  # atno 10167 bound_to 10162
  156.3266  130.4273  149.7911 H   0  0  0  0  0  0  0  0  0  0  0  0  # atno 10718 bound_to 10713
  154.5396  135.5693  153.6828 H   0  0  0  0  0  0  0  0  0  0  0  0  # atno 10763 bound_to 10752
  152.9960  135.6224  154.2520 H   0  0  0  0  0  0  0  0  0  0  0  0  # atno 10764 bound_to 10752
  154.2450  135.2861  155.2819 H   0  0  0  0  0  0  0  0  0  0  0  0  # atno 10765 bound_to 10752
  140.1818  134.8470  157.2812 H   0  0  0  0  0  0  0  0  0  0  0  0  # atno 11005 bound_to 11000
  146.3521  140.0236  142.8656 LP  0  0  0  0  0  0  0  0  0  0  0  0  # atno 17320 bound_to 7965
  145.1466  140.9600  143.4457 LP  0  0  0  0  0  0  0  0  0  0  0  0  # atno 17321 bound_to 7965
  140.4497  143.2492  151.9365 LP  0  0  0  0  0  0  0  0  0  0  0  0  # atno 17342 bound_to 10162
  139.4783  144.5575  151.8291 LP  0  0  0  0  0  0  0  0  0  0  0  0  # atno 17343 bound_to 10162
  156.5199  130.8210  151.3200 LP  0  0  0  0  0  0  0  0  0  0  0  0  # atno 17370 bound_to 10713
  157.7422  130.9886  150.2502 LP  0  0  0  0  0  0  0  0  0  0  0  0  # atno 17371 bound_to 10713
  140.2259  134.3968  155.7544 LP  0  0  0  0  0  0  0  0  0  0  0  0  # atno 17394 bound_to 11000
  141.2223  133.7189  156.8563 LP  0  0  0  0  0  0  0  0  0  0  0  0  # atno 17395 bound_to 11000

$$$$
