AV-unprocessed.smi:3027|AV-procd|sdf|11515|dock3
  -GOLD-   2272016453D 1   1.00000     0.00000
 Structure written by MMmdl.
 37 38  0  0  0  0  0  0  0  0  2 V2000
  150.5046  135.6949  155.4358 C   0  0  0  0  0  0  0  0  0  0  0  0
  150.7828  137.1683  155.3567 C   0  0  0  0  0  0  0  0  0  0  0  0
  150.7475  138.0042  154.2045 C   0  0  0  0  0  0  0  0  0  0  0  0
  151.0489  139.2642  154.4738 N   0  0  0  0  0  0  0  0  0  0  0  0
  151.2836  139.2778  155.8030 N   0  0  0  0  0  0  0  0  0  0  0  0
  151.6523  140.5174  156.4619 C   0  0  0  0  0  0  0  0  0  0  0  0
  150.4842  141.5255  156.5400 C   0  0  2  0  0  0  0  0  0  0  0  0
  149.6339  141.5410  155.2588 C   0  0  0  0  0  0  0  0  0  0  0  0
  150.9937  142.8909  156.8038 N   0  3  0  0  0  0  0  0  0  0  0  0
  151.1342  143.2651  158.2296 C   0  0  0  0  0  0  0  0  0  0  0  0
  151.6176  144.7056  158.4000 C   0  0  0  0  0  0  0  0  0  0  0  0
  152.1723  144.7640  159.8276 C   0  0  0  0  0  0  0  0  0  0  0  0
  152.5439  143.3204  160.2030 C   0  0  0  0  0  0  0  0  0  0  0  0
  152.1900  142.4564  158.9875 C   0  0  0  0  0  0  0  0  0  0  0  0
  151.1326  138.0261  156.3607 C   0  0  0  0  0  0  0  0  0  0  0  0
  149.8936  135.3526  154.6003 H   0  0  0  0  0  0  0  0  0  0  0  0
  149.9723  135.4331  156.3504 H   0  0  0  0  0  0  0  0  0  0  0  0
  151.4254  135.1117  155.4206 H   0  0  0  0  0  0  0  0  0  0  0  0
  150.5137  137.7330  153.1855 H   0  0  0  0  0  0  0  0  0  0  0  0
  152.0144  140.2625  157.4569 H   0  0  0  0  0  0  0  0  0  0  0  0
  152.4983  140.9603  155.9333 H   0  0  0  0  0  0  0  0  0  0  0  0
  149.8234  141.2345  157.3582 H   0  0  0  0  0  0  0  0  0  0  0  0
  149.1607  140.5754  155.0790 H   0  0  0  0  0  0  0  0  0  0  0  0
  150.2383  141.7830  154.3841 H   0  0  0  0  0  0  0  0  0  0  0  0
  148.8359  142.2810  155.3265 H   0  0  0  0  0  0  0  0  0  0  0  0
  151.8761  143.0164  156.3289 H   0  0  0  0  0  0  0  0  0  0  0  0
  150.1687  143.1630  158.7284 H   0  0  0  0  0  0  0  0  0  0  0  0
  152.4218  144.9159  157.6929 H   0  0  0  0  0  0  0  0  0  0  0  0
  150.8277  145.4381  158.2293 H   0  0  0  0  0  0  0  0  0  0  0  0
  153.0281  145.4364  159.8948 H   0  0  0  0  0  0  0  0  0  0  0  0
  151.4100  145.1377  160.5126 H   0  0  0  0  0  0  0  0  0  0  0  0
  153.5983  143.2248  160.4646 H   0  0  0  0  0  0  0  0  0  0  0  0
  151.9637  143.0046  161.0708 H   0  0  0  0  0  0  0  0  0  0  0  0
  151.8357  141.4662  159.2760 H   0  0  0  0  0  0  0  0  0  0  0  0
  153.0789  142.3267  158.3680 H   0  0  0  0  0  0  0  0  0  0  0  0
  151.2850  137.8509  157.4156 H   0  0  0  0  0  0  0  0  0  0  0  0
  150.3261  143.5347  156.4032 H   0  0  0  0  0  0  0  0  0  0  0  0
  1  2  1  0  0  0  0
  1 16  1  0  0  0  0
  1 17  1  0  0  0  0
  1 18  1  0  0  0  0
  2 15  2  0  0  0  0
  2  3  1  0  0  0  0
  3  4  2  0  0  0  0
  3 19  1  0  0  0  0
  4  5  1  0  0  0  0
  5  6  1  0  0  0  0
  5 15  1  0  0  0  0
  6  7  1  0  0  0  0
  6 20  1  0  0  0  0
  6 21  1  0  0  0  0
  7  8  1  0  0  0  0
  7  9  1  0  0  0  0
  7 22  1  0  0  0  0
  8 23  1  0  0  0  0
  8 24  1  0  0  0  0
  8 25  1  0  0  0  0
  9 10  1  0  0  0  0
  9 26  1  0  0  0  0
  9 37  1  0  0  0  0
 10 14  1  0  0  0  0
 10 11  1  0  0  0  0
 10 27  1  0  0  0  0
 11 12  1  0  0  0  0
 11 28  1  0  0  0  0
 11 29  1  0  0  0  0
 12 13  1  0  0  0  0
 12 30  1  0  0  0  0
 12 31  1  0  0  0  0
 13 14  1  0  0  0  0
 13 32  1  0  0  0  0
 13 33  1  0  0  0  0
 14 34  1  0  0  0  0
 14 35  1  0  0  0  0
 15 36  1  0  0  0  0
M  CHG  1   9   1
M  END
> <s_m_source_file>
AV-unprocessed.smi

> <i_m_source_file_index>
3027

> <i_lp_mmshare_version>
43012

> <i_f3d_flags>
0

> <s_epik_input>
W0NIM11jMVtjSF1ubihbY0hdMSlbQ0gyXVtDQEhdKFtDSDNdKVtOSF1bQ0hdMltDSDJdW0NIMl1bQ0gyXVtDSDJdMg==

> <s_epik_cmdline>
J2VwaWtfcHl0aG9uJywgJy1waCcsICc3LjAnLCAnLXRuJywgJzgnLCAnLW1hJywgJzIwMCcsICctbWV0YWxfYmluZGluZycsICctaW1hZScsICc8aW5maWxlLm1hZT4nLCAnLW9tYWUnLCAnPG91dGZpbGUubWFlPic=

> <r_lp_tautomer_probability>
1

> <r_epik_Ionization_Penalty>
0.00150056

> <r_epik_Ionization_Penalty_Charging>
0.00149132

> <r_epik_Ionization_Penalty_Neutral>
9.24096e-06

> <r_epik_State_Penalty>
0.00099871

> <r_epik_Charging_Adjusted_Penalty>
0.00249003

> <i_epik_Tot_Q>
1

> <i_epik_Tot_abs_Q>
1

> <r_epik_Metal_State_Penalty>
-0

> <b_epik_Metal_Only>
0

> <s_lp_Force_Field>
OPLS_2005

> <r_lp_Energy>
26.7441

> <b_lp_Chiralities_Consistent>
1

> <s_lp_Variant>
AV-unprocessed.smi:3027-1

> <Gold.Version>
5.8.1

> <Gold.Id.Protein>
6NUR|6NUR_protein|mol2

> <Gold.PLP.Fitness>
47.6006

> <Gold.PLP.PLP>
-36.6135

> <Gold.PLP.part.hbond>
-2.0000

> <Gold.PLP.part.metal>
0.0000

> <Gold.PLP.part.buried>
-4.3441

> <Gold.PLP.part.nonpolar>
-30.4043

> <Gold.PLP.part.repulsive>
0.1834

> <Gold.PLP.ligand.clash>
0.0000

> <Gold.PLP.ligand.torsion>
0.6878

> <Gold.PLP.Chemscore.Hbond>
3.0000

> <Gold.PLP.Chemscore.CHOScore>
1.1120

> <Gold.PLP.Chemscore.Metal>
0.0000

> <Gold.Chemscore.Hbonds>
donor molecule, donor type, donor heavy atom, donor atom, acceptor molecule, acceptor atom, score
      L1  H     9    37       P1  8028  2.00
      P1  H  7989  7998       L1     4  1.00
      L1  C     3    19       P1  7948  0.60
      L1  C     3    19       P1  7949  0.52

> <Gold.PLP.Chemscore.Internal.Correction>
0.0265

> <Gold.Rescore>
     Score         DG    S(hbond)    S(metal)    S(lipo)     H(rot)  DE(clash)    DE(int)     intcor
     18.44     -20.58       1.96        0.00     103.77       1.40       0.15       1.99       ----

> <Gold.Chemscore.Fitness>
18.4449

> <Gold.Chemscore.DG>
-20.5836

> <Gold.Chemscore.ZeroCoef>
-5.4800

> <Gold.Chemscore.Hbond>
1.9595

> <Gold.Chemscore.Metal>
0.0000

> <Gold.Chemscore.Lipo>
103.7651

> <Gold.Chemscore.Internal_Hbond>
0.0000

> <Gold.Chemscore.DEClash>
0.1451

> <Gold.Chemscore.DEInternal>
1.9935

> <Gold.Chemscore.Rot>
1.3991

> <Gold.Chemscore.Internal.Correction>
   9.000000E+99

> <Gold.Chemscore.Hbonds>
donor molecule, donor type, donor heavy atom, donor atom, acceptor molecule, acceptor atom, score
      L1  H     9    37       P1  8028  0.96
      P1  H  7989  7998       L1     4  0.91

> <Gold.Chemscore.Hbond.Weighted>
-6.5449

> <Gold.Chemscore.Metal.Weighted>
-0.0000

> <Gold.Chemscore.Lipo.Weighted>
-12.1405

> <Gold.Chemscore.Internal_Hbond.Weighted>
0.0000

> <Gold.Chemscore.DEClash.Weighted>
0.1451

> <Gold.Chemscore.DEInternal.Weighted>
1.9935

> <Gold.Chemscore.Rot.Weighted>
3.5818

> <Gold.Chemscore.Internal.Correction.Weighted>
   9.000000E+99

> <Gold.Protein.RotatedTorsions>
[ 6907 6896 6895 6894 ] final   88.38 input  -60.11 | X-H torsion
[ 7974 7965 7964 7962 ] final   46.03 input  175.53 | X-H torsion
[ 8008 7997 7996 7995 ] final   26.58 input   59.86 | X-H torsion
[ 10167 10162 10161 10158 ] final  -16.49 input  -65.29 | X-H torsion
[ 10718 10713 10712 10709 ] final  133.23 input   66.30 | X-H torsion
[ 10763 10752 10751 10750 ] final  -38.76 input  -60.55 | X-H torsion
[ 11005 11000 10999 10996 ] final   66.28 input  -57.11 | X-H torsion

> <Gold.Protein.ActiveResidues>
 VAL166  LYS551  ARG553  GLY616  TRP617  ASP618  TYR619  PRO620  LYS621  CYS622 
 ASP623  PHE694  ASN695  SER759  ASP760  ASP761  ALA762  ILE779  LEU786  VAL792 
 PHE793  MET794  SER795  GLU796  ALA797  LYS798  CYS799  TRP800  GLU811  SER814 

> <Gold.Protein.RotatedAtoms>
  152.5424  134.2130  159.8757 H   0  0  0  0  0  0  0  0  0  0  0  0  # atno 6907 bound_to 6896
  151.2111  133.4548  159.2606 H   0  0  0  0  0  0  0  0  0  0  0  0  # atno 6908 bound_to 6896
  151.0895  134.9920  159.8451 H   0  0  0  0  0  0  0  0  0  0  0  0  # atno 6909 bound_to 6896
  146.0427  139.4900  142.9768 H   0  0  0  0  0  0  0  0  0  0  0  0  # atno 7974 bound_to 7965
  155.0295  140.3157  155.4763 H   0  0  0  0  0  0  0  0  0  0  0  0  # atno 8008 bound_to 7997
  156.2877  140.2183  156.5358 H   0  0  0  0  0  0  0  0  0  0  0  0  # atno 8009 bound_to 7997
  154.7382  140.0476  157.0776 H   0  0  0  0  0  0  0  0  0  0  0  0  # atno 8010 bound_to 7997
  140.7234  143.5111  150.9749 H   0  0  0  0  0  0  0  0  0  0  0  0  # atno 10167 bound_to 10162
  157.4793  131.1085  150.9702 H   0  0  0  0  0  0  0  0  0  0  0  0  # atno 10718 bound_to 10713
  153.9182  135.6785  153.4748 H   0  0  0  0  0  0  0  0  0  0  0  0  # atno 10763 bound_to 10752
  153.1042  135.4813  154.8919 H   0  0  0  0  0  0  0  0  0  0  0  0  # atno 10764 bound_to 10752
  154.7492  135.3180  154.8545 H   0  0  0  0  0  0  0  0  0  0  0  0  # atno 10765 bound_to 10752
  139.9842  134.6695  156.0207 H   0  0  0  0  0  0  0  0  0  0  0  0  # atno 11005 bound_to 11000
  145.6858  141.0178  143.1582 LP  0  0  0  0  0  0  0  0  0  0  0  0  # atno 17320 bound_to 7965
  144.7082  139.8474  143.7423 LP  0  0  0  0  0  0  0  0  0  0  0  0  # atno 17321 bound_to 7965
  139.8825  143.7055  152.3155 LP  0  0  0  0  0  0  0  0  0  0  0  0  # atno 17342 bound_to 10162
  139.7342  144.7575  151.0754 LP  0  0  0  0  0  0  0  0  0  0  0  0  # atno 17343 bound_to 10162
  157.0440  130.5760  149.5360 LP  0  0  0  0  0  0  0  0  0  0  0  0  # atno 17370 bound_to 10713
  156.0113  130.5205  150.7998 LP  0  0  0  0  0  0  0  0  0  0  0  0  # atno 17371 bound_to 10713
  141.1509  133.6548  156.4012 LP  0  0  0  0  0  0  0  0  0  0  0  0  # atno 17394 bound_to 11000
  140.5036  134.6462  157.5258 LP  0  0  0  0  0  0  0  0  0  0  0  0  # atno 17395 bound_to 11000

$$$$
