AV-unprocessed.smi:3354|AV-procd|sdf|12959|dock1
  -GOLD-   2272019393D 1   1.00000     0.00000
 Structure written by MMmdl.
 38 40  0  0  0  0  0  0  0  0  1 V2000
  152.3960  138.7822  156.3336 C   0  0  0  0  0  0  0  0  0  0  0  0
  151.2967  139.4032  155.4997 C   0  0  2  0  0  0  0  0  0  0  0  0
  150.7231  140.7465  155.8888 C   0  0  0  0  0  0  0  0  0  0  0  0
  149.8776  139.5029  156.0297 C   0  0  1  0  0  0  0  0  0  0  0  0
  148.7505  139.3569  155.1590 N   0  0  0  0  0  0  0  0  0  0  0  0
  148.1122  138.0559  155.0505 C   0  0  0  0  0  0  0  0  0  0  0  0
  146.9776  138.2378  154.0278 C   0  0  2  0  0  0  0  0  0  0  0  0
  146.9384  137.1202  153.0887 N   0  0  0  0  0  0  0  0  0  0  0  0
  145.8646  136.3527  152.8570 C   0  0  0  0  0  0  0  0  0  0  0  0
  144.7799  136.5203  153.4142 O   0  0  0  0  0  0  0  0  0  0  0  0
  146.1305  135.4110  151.9354 N   0  0  0  0  0  0  0  0  0  0  0  0
  145.2735  134.3939  151.4345 C   0  0  0  0  0  0  0  0  0  0  0  0
  145.6424  133.4597  150.4362 C   0  0  0  0  0  0  0  0  0  0  0  0
  144.6932  132.5116  150.0086 C   0  0  0  0  0  0  0  0  0  0  0  0
  143.4102  132.5348  150.5890 C   0  0  0  0  0  0  0  0  0  0  0  0
  143.0409  133.4268  151.5321 N   0  0  0  0  0  0  0  0  0  0  0  0
  143.9559  134.3337  151.9360 C   0  0  0  0  0  0  0  0  0  0  0  0
  147.2658  139.5798  153.3361 C   0  0  0  0  0  0  0  0  0  0  0  0
  148.3905  140.1786  154.1633 C   0  0  0  0  0  0  0  0  0  0  0  0
  148.8899  141.2718  153.9012 O   0  0  0  0  0  0  0  0  0  0  0  0
  152.2316  138.9695  157.3951 H   0  0  0  0  0  0  0  0  0  0  0  0
  153.3617  139.2021  156.0518 H   0  0  0  0  0  0  0  0  0  0  0  0
  152.4235  137.7049  156.1708 H   0  0  0  0  0  0  0  0  0  0  0  0
  151.4236  139.2473  154.4302 H   0  0  0  0  0  0  0  0  0  0  0  0
  151.0865  141.2096  156.8040 H   0  0  0  0  0  0  0  0  0  0  0  0
  150.4821  141.4374  155.0830 H   0  0  0  0  0  0  0  0  0  0  0  0
  149.7244  139.1461  157.0465 H   0  0  0  0  0  0  0  0  0  0  0  0
  148.8518  137.3267  154.7149 H   0  0  0  0  0  0  0  0  0  0  0  0
  147.7300  137.7261  156.0175 H   0  0  0  0  0  0  0  0  0  0  0  0
  146.0277  138.3044  154.5621 H   0  0  0  0  0  0  0  0  0  0  0  0
  147.7882  136.9184  152.5823 H   0  0  0  0  0  0  0  0  0  0  0  0
  147.0436  135.4551  151.5071 H   0  0  0  0  0  0  0  0  0  0  0  0
  146.6203  133.4585  149.9809 H   0  0  0  0  0  0  0  0  0  0  0  0
  144.9419  131.7857  149.2487 H   0  0  0  0  0  0  0  0  0  0  0  0
  142.6591  131.8218  150.2824 H   0  0  0  0  0  0  0  0  0  0  0  0
  143.6237  135.0333  152.6890 H   0  0  0  0  0  0  0  0  0  0  0  0
  147.6053  139.4545  152.3070 H   0  0  0  0  0  0  0  0  0  0  0  0
  146.3919  140.2323  153.3349 H   0  0  0  0  0  0  0  0  0  0  0  0
  1  2  1  0  0  0  0
  1 21  1  0  0  0  0
  1 22  1  0  0  0  0
  1 23  1  0  0  0  0
  2  4  1  0  0  0  0
  2  3  1  0  0  0  0
  2 24  1  0  0  0  0
  3  4  1  0  0  0  0
  3 25  1  0  0  0  0
  3 26  1  0  0  0  0
  4  5  1  0  0  0  0
  4 27  1  0  0  0  0
  5 19  1  0  0  0  0
  5  6  1  0  0  0  0
  6  7  1  0  0  0  0
  6 28  1  0  0  0  0
  6 29  1  0  0  0  0
  7  8  1  0  0  0  0
  7 18  1  0  0  0  0
  7 30  1  0  0  0  0
  8  9  1  0  0  0  0
  8 31  1  0  0  0  0
  9 10  2  0  0  0  0
  9 11  1  0  0  0  0
 11 12  1  0  0  0  0
 11 32  1  0  0  0  0
 12 17  1  0  0  0  0
 12 13  2  0  0  0  0
 13 14  1  0  0  0  0
 13 33  1  0  0  0  0
 14 15  2  0  0  0  0
 14 34  1  0  0  0  0
 15 16  1  0  0  0  0
 15 35  1  0  0  0  0
 16 17  2  0  0  0  0
 17 36  1  0  0  0  0
 18 19  1  0  0  0  0
 18 37  1  0  0  0  0
 18 38  1  0  0  0  0
 19 20  2  0  0  0  0
M  END
> <s_m_source_file>
AV-unprocessed.smi

> <i_m_source_file_index>
3354

> <i_lp_mmshare_version>
43012

> <i_f3d_flags>
0

> <s_epik_input>
W0NIM11bQ0BASF0xW0NIMl1bQ0BIXTFOMltDSDJdW0NASF0oW0NIMl1DMj1PKVtOSF1DKD1PKVtOSF1jM1tjSF1bY0hdW2NIXW5bY0hdMw==

> <s_epik_cmdline>
J2VwaWtfcHl0aG9uJywgJy1waCcsICc3LjAnLCAnLXRuJywgJzgnLCAnLW1hJywgJzIwMCcsICctbWV0YWxfYmluZGluZycsICctaW1hZScsICc8aW5maWxlLm1hZT4nLCAnLW9tYWUnLCAnPG91dGZpbGUubWFlPic=

> <r_epik_Ionization_Penalty>
0.00456191

> <r_epik_Ionization_Penalty_Charging>
0

> <r_epik_Ionization_Penalty_Neutral>
0.00456191

> <r_epik_State_Penalty>
0.00327094

> <r_epik_Charging_Adjusted_Penalty>
0.00327094

> <i_epik_Tot_Q>
0

> <i_epik_Tot_abs_Q>
0

> <r_epik_Metal_State_Penalty>
-0

> <b_epik_Metal_Only>
0

> <s_lp_Force_Field>
OPLS_2005

> <r_lp_Energy>
40.1113

> <b_lp_Chiralities_Consistent>
1

> <s_lp_Variant>
AV-unprocessed.smi:3354-5

> <Gold.Version>
5.8.1

> <Gold.Id.Protein>
6NUR|6NUR_protein|mol2

> <Gold.PLP.Fitness>
42.5713

> <Gold.PLP.PLP>
-31.9556

> <Gold.PLP.part.hbond>
-2.9477

> <Gold.PLP.part.metal>
0.0000

> <Gold.PLP.part.buried>
-2.5336

> <Gold.PLP.part.nonpolar>
-25.7849

> <Gold.PLP.part.repulsive>
1.0881

> <Gold.PLP.ligand.clash>
0.0000

> <Gold.PLP.ligand.torsion>
0.2954

> <Gold.PLP.Chemscore.Hbond>
2.6091

> <Gold.PLP.Chemscore.CHOScore>
1.0000

> <Gold.PLP.Chemscore.Metal>
0.0000

> <Gold.Chemscore.Hbonds>
donor molecule, donor type, donor heavy atom, donor atom, acceptor molecule, acceptor atom, score
      L1  H     8    31       P1  7948  0.99
      L1  H    11    32       P1  7948  0.81
      P1  H  8011  8017       L1    20  0.59
      L1  C    15    35       P1 10952  1.00

> <Gold.PLP.Chemscore.Internal.Correction>
0.3791

> <Gold.Rescore>
     Score         DG    S(hbond)    S(metal)    S(lipo)     H(rot)  DE(clash)    DE(int)     intcor
     15.46     -19.09       2.58        0.00      69.85       1.24       0.23       3.40       ----

> <Gold.Chemscore.Fitness>
15.4644

> <Gold.Chemscore.DG>
-19.0896

> <Gold.Chemscore.ZeroCoef>
-5.4800

> <Gold.Chemscore.Hbond>
2.5752

> <Gold.Chemscore.Metal>
0.0000

> <Gold.Chemscore.Lipo>
69.8529

> <Gold.Chemscore.Internal_Hbond>
0.0000

> <Gold.Chemscore.DEClash>
0.2279

> <Gold.Chemscore.DEInternal>
3.3974

> <Gold.Chemscore.Rot>
1.2361

> <Gold.Chemscore.Internal.Correction>
   9.000000E+99

> <Gold.Chemscore.Hbonds>
donor molecule, donor type, donor heavy atom, donor atom, acceptor molecule, acceptor atom, score
      L1  H     8    31       P1  7948  0.92
      L1  H    11    32       P1  7948  0.75
      P1  H  8011  8017       L1    20  0.58

> <Gold.Chemscore.Hbond.Weighted>
-8.6011

> <Gold.Chemscore.Metal.Weighted>
-0.0000

> <Gold.Chemscore.Lipo.Weighted>
-8.1728

> <Gold.Chemscore.Internal_Hbond.Weighted>
0.0000

> <Gold.Chemscore.DEClash.Weighted>
0.2279

> <Gold.Chemscore.DEInternal.Weighted>
3.3974

> <Gold.Chemscore.Rot.Weighted>
3.1643

> <Gold.Chemscore.Internal.Correction.Weighted>
   9.000000E+99

> <Gold.Protein.RotatedTorsions>
[ 6907 6896 6895 6894 ] final  -82.34 input  -60.11 | X-H torsion
[ 7974 7965 7964 7962 ] final   10.29 input  175.53 | X-H torsion
[ 8008 7997 7996 7995 ] final  154.91 input   59.86 | X-H torsion
[ 10167 10162 10161 10158 ] final   82.52 input  -65.29 | X-H torsion
[ 10718 10713 10712 10709 ] final    9.57 input   66.30 | X-H torsion
[ 10763 10752 10751 10750 ] final   56.66 input  -60.55 | X-H torsion
[ 11005 11000 10999 10996 ] final   89.89 input  -57.11 | X-H torsion

> <Gold.Protein.ActiveResidues>
 VAL166  LYS551  ARG553  GLY616  TRP617  ASP618  TYR619  PRO620  LYS621  CYS622 
 ASP623  PHE694  ASN695  SER759  ASP760  ASP761  ALA762  ILE779  LEU786  VAL792 
 PHE793  MET794  SER795  GLU796  ALA797  LYS798  CYS799  TRP800  GLU811  SER814 

> <Gold.Protein.RotatedAtoms>
  150.6899  134.3680  159.4979 H   0  0  0  0  0  0  0  0  0  0  0  0  # atno 6907 bound_to 6896
  152.1499  134.8993  160.0558 H   0  0  0  0  0  0  0  0  0  0  0  0  # atno 6908 bound_to 6896
  152.0095  133.3821  159.4251 H   0  0  0  0  0  0  0  0  0  0  0  0  # atno 6909 bound_to 6896
  146.2391  139.9657  142.8453 H   0  0  0  0  0  0  0  0  0  0  0  0  # atno 7974 bound_to 7965
  156.2506  140.1953  156.6720 H   0  0  0  0  0  0  0  0  0  0  0  0  # atno 8008 bound_to 7997
  154.6386  140.0586  156.9844 H   0  0  0  0  0  0  0  0  0  0  0  0  # atno 8009 bound_to 7997
  155.1598  140.3259  155.4416 H   0  0  0  0  0  0  0  0  0  0  0  0  # atno 8010 bound_to 7997
  139.9279  144.6171  150.8374 H   0  0  0  0  0  0  0  0  0  0  0  0  # atno 10167 bound_to 10162
  156.9683  130.5959  149.5667 H   0  0  0  0  0  0  0  0  0  0  0  0  # atno 10718 bound_to 10713
  152.9836  135.5668  154.5265 H   0  0  0  0  0  0  0  0  0  0  0  0  # atno 10763 bound_to 10752
  154.4744  135.2786  155.1620 H   0  0  0  0  0  0  0  0  0  0  0  0  # atno 10764 bound_to 10752
  154.3155  135.6279  153.5538 H   0  0  0  0  0  0  0  0  0  0  0  0  # atno 10765 bound_to 10752
  139.8866  134.8579  156.3206 H   0  0  0  0  0  0  0  0  0  0  0  0  # atno 11005 bound_to 11000
  145.1729  140.9729  143.4311 LP  0  0  0  0  0  0  0  0  0  0  0  0  # atno 17320 bound_to 7965
  145.0012  139.3596  143.6166 LP  0  0  0  0  0  0  0  0  0  0  0  0  # atno 17321 bound_to 7965
  140.7645  143.3251  151.2535 LP  0  0  0  0  0  0  0  0  0  0  0  0  # atno 17342 bound_to 10162
  139.6807  143.9860  152.2806 LP  0  0  0  0  0  0  0  0  0  0  0  0  # atno 17343 bound_to 10162
  156.0293  130.5385  150.8492 LP  0  0  0  0  0  0  0  0  0  0  0  0  # atno 17370 bound_to 10713
  157.5610  131.0946  150.9558 LP  0  0  0  0  0  0  0  0  0  0  0  0  # atno 17371 bound_to 10713
  140.9789  133.7280  156.0643 LP  0  0  0  0  0  0  0  0  0  0  0  0  # atno 17394 bound_to 11000
  140.7775  134.3763  157.5495 LP  0  0  0  0  0  0  0  0  0  0  0  0  # atno 17395 bound_to 11000

$$$$
