AV-unprocessed.smi:1180|AV-procd|sdf|4960|dock3
  -GOLD-   22720 3553D 1   1.00000     0.00000
 Structure written by MMmdl.
 38 39  0  0  0  0  0  0  0  0  1 V2000
  148.0336  141.4464  153.6786 C   0  0  0  0  0  0  0  0  0  0  0  0
  148.8983  140.9055  154.7976 C   0  0  0  0  0  0  0  0  0  0  0  0
  150.1267  140.5345  154.6440 N   0  0  0  0  0  0  0  0  0  0  0  0
  150.8289  140.0509  155.7568 C   0  0  0  0  0  0  0  0  0  0  0  0
  152.2678  139.6405  155.4965 C   0  0  0  0  0  0  0  0  0  0  0  0
  150.2452  139.9612  156.9878 C   0  0  0  0  0  0  0  0  0  0  0  0
  150.9821  139.4437  158.2230 C   0  0  0  0  0  0  0  0  0  0  0  0
  152.2532  140.1988  158.6219 C   0  0  0  0  0  0  0  0  0  0  0  0
  153.3596  139.6678  158.5206 O   0  0  0  0  0  0  0  0  0  0  0  0
  152.0756  141.4487  159.0750 N   0  0  0  0  0  0  0  0  0  0  0  0
  153.1443  142.3464  159.4989 C   0  0  0  0  0  0  0  0  0  0  0  0
  152.7203  143.8263  159.4315 C   0  0  2  0  0  0  0  0  0  0  0  0
  151.9879  144.3178  160.6745 C   0  0  0  0  0  0  0  0  0  0  0  0
  150.9014  145.2532  160.1330 C   0  0  0  0  0  0  0  0  0  0  0  0
  151.1672  145.3803  158.7430 O   0  0  0  0  0  0  0  0  0  0  0  0
  151.7391  144.1589  158.3086 C   0  0  0  0  0  0  0  0  0  0  0  0
  148.8426  140.3892  157.1523 C   0  0  0  0  0  0  0  0  0  0  0  0
  148.2246  140.3591  158.2156 O   0  0  0  0  0  0  0  0  0  0  0  0
  148.2447  140.8415  156.0272 N   0  0  0  0  0  0  0  0  0  0  0  0
  147.2847  141.1479  156.0881 H   0  0  0  0  0  0  0  0  0  0  0  0
  148.4751  142.3560  153.2707 H   0  0  0  0  0  0  0  0  0  0  0  0
  147.0262  141.6810  154.0248 H   0  0  0  0  0  0  0  0  0  0  0  0
  147.9566  140.7127  152.8758 H   0  0  0  0  0  0  0  0  0  0  0  0
  152.3943  138.5697  155.6563 H   0  0  0  0  0  0  0  0  0  0  0  0
  152.9470  140.1744  156.1613 H   0  0  0  0  0  0  0  0  0  0  0  0
  152.5638  139.8625  154.4703 H   0  0  0  0  0  0  0  0  0  0  0  0
  150.3064  139.4225  159.0793 H   0  0  0  0  0  0  0  0  0  0  0  0
  151.2546  138.4010  158.0598 H   0  0  0  0  0  0  0  0  0  0  0  0
  151.1324  141.8059  159.1249 H   0  0  0  0  0  0  0  0  0  0  0  0
  153.4193  142.0820  160.5205 H   0  0  0  0  0  0  0  0  0  0  0  0
  154.0332  142.1799  158.8882 H   0  0  0  0  0  0  0  0  0  0  0  0
  153.6049  144.4514  159.2987 H   0  0  0  0  0  0  0  0  0  0  0  0
  151.5328  143.4973  161.2310 H   0  0  0  0  0  0  0  0  0  0  0  0
  152.6704  144.8372  161.3481 H   0  0  0  0  0  0  0  0  0  0  0  0
  149.9135  144.8113  160.2699 H   0  0  0  0  0  0  0  0  0  0  0  0
  150.9080  146.2281  160.6210 H   0  0  0  0  0  0  0  0  0  0  0  0
  152.2273  144.2684  157.3396 H   0  0  0  0  0  0  0  0  0  0  0  0
  150.9600  143.3997  158.2206 H   0  0  0  0  0  0  0  0  0  0  0  0
  1  2  1  0  0  0  0
  1 21  1  0  0  0  0
  1 22  1  0  0  0  0
  1 23  1  0  0  0  0
  2 19  1  0  0  0  0
  2  3  2  0  0  0  0
  3  4  1  0  0  0  0
  4  5  1  0  0  0  0
  4  6  2  0  0  0  0
  5 24  1  0  0  0  0
  5 25  1  0  0  0  0
  5 26  1  0  0  0  0
  6  7  1  0  0  0  0
  6 17  1  0  0  0  0
  7  8  1  0  0  0  0
  7 27  1  0  0  0  0
  7 28  1  0  0  0  0
  8  9  2  0  0  0  0
  8 10  1  0  0  0  0
 10 11  1  0  0  0  0
 10 29  1  0  0  0  0
 11 12  1  0  0  0  0
 11 30  1  0  0  0  0
 11 31  1  0  0  0  0
 12 16  1  0  0  0  0
 12 13  1  0  0  0  0
 12 32  1  0  0  0  0
 13 14  1  0  0  0  0
 13 33  1  0  0  0  0
 13 34  1  0  0  0  0
 14 15  1  0  0  0  0
 14 35  1  0  0  0  0
 14 36  1  0  0  0  0
 15 16  1  0  0  0  0
 16 37  1  0  0  0  0
 16 38  1  0  0  0  0
 17 18  2  0  0  0  0
 17 19  1  0  0  0  0
 19 20  1  0  0  0  0
M  END
> <s_m_source_file>
AV-unprocessed.smi

> <i_m_source_file_index>
1180

> <i_lp_mmshare_version>
43012

> <i_f3d_flags>
0

> <s_epik_input>
W0NIM11jMW5jKFtDSDNdKWMoYyg9TylbbkhdMSlbQ0gyXUMoPU8pW05IXVtDSDJdW0NAQEhdMltDSDJdW0NIMl1PW0NIMl0y

> <s_epik_cmdline>
J2VwaWtfcHl0aG9uJywgJy1waCcsICc3LjAnLCAnLXRuJywgJzgnLCAnLW1hJywgJzIwMCcsICctbWV0YWxfYmluZGluZycsICctaW1hZScsICc8aW5maWxlLm1hZT4nLCAnLW9tYWUnLCAnPG91dGZpbGUubWFlPic=

> <r_lp_tautomer_probability>
0.839158

> <r_epik_Ionization_Penalty>
0.000395459

> <r_epik_Ionization_Penalty_Charging>
0.000363703

> <r_epik_Ionization_Penalty_Neutral>
3.17556e-05

> <r_epik_State_Penalty>
0.0471244

> <r_epik_Charging_Adjusted_Penalty>
0.0474881

> <i_epik_Tot_Q>
0

> <i_epik_Tot_abs_Q>
0

> <r_epik_Metal_State_Penalty>
0.225307

> <b_epik_Metal_Only>
0

> <s_lp_Force_Field>
OPLS_2005

> <r_lp_Energy>
20.5307

> <b_lp_Chiralities_Consistent>
1

> <s_lp_Variant>
AV-unprocessed.smi:1180-1

> <Gold.Version>
5.8.1

> <Gold.Id.Protein>
6NUR|6NUR_protein|mol2

> <Gold.PLP.Fitness>
42.8249

> <Gold.PLP.PLP>
-38.2750

> <Gold.PLP.part.hbond>
-3.6468

> <Gold.PLP.part.metal>
0.0000

> <Gold.PLP.part.buried>
-3.9912

> <Gold.PLP.part.nonpolar>
-32.0298

> <Gold.PLP.part.repulsive>
0.3660

> <Gold.PLP.ligand.clash>
0.0000

> <Gold.PLP.ligand.torsion>
0.5280

> <Gold.PLP.Chemscore.Hbond>
1.8664

> <Gold.PLP.Chemscore.CHOScore>
0.0000

> <Gold.PLP.Chemscore.Metal>
0.0000

> <Gold.Chemscore.Hbonds>
donor molecule, donor type, donor heavy atom, donor atom, acceptor molecule, acceptor atom, score
      P1  H  7989  7998       L1     3  0.85
      P1  H  7997  8009       L1     9  1.00

> <Gold.PLP.Chemscore.Internal.Correction>
0.0066

> <Gold.Rescore>
     Score         DG    S(hbond)    S(metal)    S(lipo)     H(rot)  DE(clash)    DE(int)     intcor
     15.64     -16.39       1.53        0.00      89.17       1.81       0.10       0.64       ----

> <Gold.Chemscore.Fitness>
15.6432

> <Gold.Chemscore.DG>
-16.3866

> <Gold.Chemscore.ZeroCoef>
-5.4800

> <Gold.Chemscore.Hbond>
1.5263

> <Gold.Chemscore.Metal>
0.0000

> <Gold.Chemscore.Lipo>
89.1740

> <Gold.Chemscore.Internal_Hbond>
0.0000

> <Gold.Chemscore.DEClash>
0.1036

> <Gold.Chemscore.DEInternal>
0.6398

> <Gold.Chemscore.Rot>
1.8065

> <Gold.Chemscore.Internal.Correction>
   9.000000E+99

> <Gold.Chemscore.Hbonds>
donor molecule, donor type, donor heavy atom, donor atom, acceptor molecule, acceptor atom, score
      P1  H  7989  7998       L1     3  0.19
      P1  H  7997  8009       L1     9  0.96

> <Gold.Chemscore.Hbond.Weighted>
-5.0979

> <Gold.Chemscore.Metal.Weighted>
-0.0000

> <Gold.Chemscore.Lipo.Weighted>
-10.4334

> <Gold.Chemscore.Internal_Hbond.Weighted>
0.0000

> <Gold.Chemscore.DEClash.Weighted>
0.1036

> <Gold.Chemscore.DEInternal.Weighted>
0.6398

> <Gold.Chemscore.Rot.Weighted>
4.6246

> <Gold.Chemscore.Internal.Correction.Weighted>
   9.000000E+99

> <Gold.Protein.RotatedTorsions>
[ 6907 6896 6895 6894 ] final  170.50 input  -60.11 | X-H torsion
[ 7974 7965 7964 7962 ] final  107.67 input  175.53 | X-H torsion
[ 8008 7997 7996 7995 ] final  157.46 input   59.86 | X-H torsion
[ 10167 10162 10161 10158 ] final  -30.37 input  -65.29 | X-H torsion
[ 10718 10713 10712 10709 ] final  116.78 input   66.30 | X-H torsion
[ 10763 10752 10751 10750 ] final -112.23 input  -60.55 | X-H torsion
[ 11005 11000 10999 10996 ] final  -63.92 input  -57.11 | X-H torsion

> <Gold.Protein.ActiveResidues>
 VAL166  LYS551  ARG553  GLY616  TRP617  ASP618  TYR619  PRO620  LYS621  CYS622 
 ASP623  PHE694  ASN695  SER759  ASP760  ASP761  ALA762  ILE779  LEU786  VAL792 
 PHE793  MET794  SER795  GLU796  ALA797  LYS798  CYS799  TRP800  GLU811  SER814 

> <Gold.Protein.RotatedAtoms>
  151.8151  133.3387  159.3566 H   0  0  0  0  0  0  0  0  0  0  0  0  # atno 6907 bound_to 6896
  150.7313  134.5627  159.5859 H   0  0  0  0  0  0  0  0  0  0  0  0  # atno 6908 bound_to 6896
  152.3046  134.7571  160.0401 H   0  0  0  0  0  0  0  0  0  0  0  0  # atno 6909 bound_to 6896
  145.2906  139.2602  143.3867 H   0  0  0  0  0  0  0  0  0  0  0  0  # atno 7974 bound_to 7965
  156.2362  140.1885  156.7111 H   0  0  0  0  0  0  0  0  0  0  0  0  # atno 8008 bound_to 7997
  154.6112  140.0622  156.9523 H   0  0  0  0  0  0  0  0  0  0  0  0  # atno 8009 bound_to 7997
  155.2014  140.3292  155.4345 H   0  0  0  0  0  0  0  0  0  0  0  0  # atno 8010 bound_to 7997
  140.7250  143.3854  151.1524 H   0  0  0  0  0  0  0  0  0  0  0  0  # atno 10167 bound_to 10162
  157.6139  131.1029  150.7521 H   0  0  0  0  0  0  0  0  0  0  0  0  # atno 10718 bound_to 10713
  154.8340  135.4498  154.1162 H   0  0  0  0  0  0  0  0  0  0  0  0  # atno 10763 bound_to 10752
  153.2411  135.6916  153.7788 H   0  0  0  0  0  0  0  0  0  0  0  0  # atno 10764 bound_to 10752
  153.7136  135.3353  155.3227 H   0  0  0  0  0  0  0  0  0  0  0  0  # atno 10765 bound_to 10752
  141.1408  133.6658  156.5754 H   0  0  0  0  0  0  0  0  0  0  0  0  # atno 11005 bound_to 11000
  146.3186  140.3396  142.8647 LP  0  0  0  0  0  0  0  0  0  0  0  0  # atno 17320 bound_to 7965
  144.9176  140.7831  143.5768 LP  0  0  0  0  0  0  0  0  0  0  0  0  # atno 17321 bound_to 7965
  139.7450  143.8865  152.3061 LP  0  0  0  0  0  0  0  0  0  0  0  0  # atno 17342 bound_to 10162
  139.8699  144.7073  150.8999 LP  0  0  0  0  0  0  0  0  0  0  0  0  # atno 17343 bound_to 10162
  156.7893  130.4885  149.5387 LP  0  0  0  0  0  0  0  0  0  0  0  0  # atno 17370 bound_to 10713
  156.1252  130.6139  151.0253 LP  0  0  0  0  0  0  0  0  0  0  0  0  # atno 17371 bound_to 10713
  140.3880  134.7465  157.4703 LP  0  0  0  0  0  0  0  0  0  0  0  0  # atno 17394 bound_to 11000
  140.0587  134.6026  155.8774 LP  0  0  0  0  0  0  0  0  0  0  0  0  # atno 17395 bound_to 11000

$$$$
