AV-unprocessed.smi:2061|AV-procd|sdf|8378|dock5
  -GOLD-   2272011 53D 1   1.00000     0.00000
 Structure written by MMmdl.
 44 45  0  0  0  0  0  0  0  0  2 V2000
  144.2384  134.0682  162.9417 C   0  0  0  0  0  0  0  0  0  0  0  0
  145.0686  135.1602  162.3586 C   0  0  0  0  0  0  0  0  0  0  0  0
  146.3248  135.1858  161.8228 C   0  0  0  0  0  0  0  0  0  0  0  0
  146.4937  136.5489  161.4552 C   0  0  0  0  0  0  0  0  0  0  0  0
  147.5878  137.0861  160.8936 N   0  5  0  0  0  0  0  0  0  0  0  0
  148.0862  136.5754  159.7441 C   0  0  0  0  0  0  0  0  0  0  0  0
  148.9174  135.6697  159.6458 O   0  0  0  0  0  0  0  0  0  0  0  0
  147.5936  137.1539  158.6392 N   0  0  0  0  0  0  0  0  0  0  0  0
  147.9599  136.8251  157.2633 C   0  0  0  0  0  0  0  0  0  0  0  0
  147.8048  138.0205  156.2776 C   0  0  2  0  0  0  0  0  0  0  0  0
  147.3819  137.4715  154.8906 C   0  0  0  0  0  0  0  0  0  0  0  0
  149.0060  138.8866  156.2085 N   0  0  0  0  0  0  0  0  0  0  0  0
  150.1391  138.2207  155.5595 C   0  0  0  0  0  0  0  0  0  0  0  0
  151.3986  139.1032  155.4964 C   0  0  1  0  0  0  0  0  0  0  0  0
  152.5424  138.4194  154.7398 C   0  0  0  0  0  0  0  0  0  0  0  0
  151.0943  140.3213  154.8255 O   0  0  0  0  0  0  0  0  0  0  0  0
  150.0004  141.0488  155.3792 C   0  0  2  0  0  0  0  0  0  0  0  0
  150.3798  141.7391  156.7007 C   0  0  0  0  0  0  0  0  0  0  0  0
  148.7563  140.1455  155.4968 C   0  0  0  0  0  0  0  0  0  0  0  0
  145.4397  137.2881  161.7578 N   0  0  0  0  0  0  0  0  0  0  0  0
  144.5192  136.4040  162.3328 O   0  0  0  0  0  0  0  0  0  0  0  0
  144.5948  133.8042  163.9374 H   0  0  0  0  0  0  0  0  0  0  0  0
  144.2818  133.1750  162.3182 H   0  0  0  0  0  0  0  0  0  0  0  0
  143.1941  134.3703  163.0248 H   0  0  0  0  0  0  0  0  0  0  0  0
  147.0129  134.3619  161.7080 H   0  0  0  0  0  0  0  0  0  0  0  0
  146.9146  137.8898  158.7660 H   0  0  0  0  0  0  0  0  0  0  0  0
  148.9810  136.4482  157.2962 H   0  0  0  0  0  0  0  0  0  0  0  0
  147.3356  135.9928  156.9376 H   0  0  0  0  0  0  0  0  0  0  0  0
  146.9765  138.6304  156.6419 H   0  0  0  0  0  0  0  0  0  0  0  0
  146.5333  136.7911  154.9526 H   0  0  0  0  0  0  0  0  0  0  0  0
  148.2004  136.9304  154.4147 H   0  0  0  0  0  0  0  0  0  0  0  0
  147.0587  138.2604  154.2134 H   0  0  0  0  0  0  0  0  0  0  0  0
  150.4147  137.3183  156.1013 H   0  0  0  0  0  0  0  0  0  0  0  0
  149.8560  137.9111  154.5522 H   0  0  0  0  0  0  0  0  0  0  0  0
  151.7414  139.3206  156.5084 H   0  0  0  0  0  0  0  0  0  0  0  0
  152.8278  137.4834  155.2207 H   0  0  0  0  0  0  0  0  0  0  0  0
  153.4250  139.0588  154.7082 H   0  0  0  0  0  0  0  0  0  0  0  0
  152.2571  138.1945  153.7116 H   0  0  0  0  0  0  0  0  0  0  0  0
  149.7701  141.8400  154.6653 H   0  0  0  0  0  0  0  0  0  0  0  0
  149.5726  142.3857  157.0452 H   0  0  0  0  0  0  0  0  0  0  0  0
  151.2681  142.3586  156.5746 H   0  0  0  0  0  0  0  0  0  0  0  0
  150.5813  141.0216  157.4958 H   0  0  0  0  0  0  0  0  0  0  0  0
  148.3828  139.9255  154.4954 H   0  0  0  0  0  0  0  0  0  0  0  0
  147.9857  140.7297  155.9951 H   0  0  0  0  0  0  0  0  0  0  0  0
  1  2  1  0  0  0  0
  1 22  1  0  0  0  0
  1 23  1  0  0  0  0
  1 24  1  0  0  0  0
  2 21  1  0  0  0  0
  2  3  2  0  0  0  0
  3  4  1  0  0  0  0
  3 25  1  0  0  0  0
  4  5  1  0  0  0  0
  4 20  2  0  0  0  0
  5  6  1  0  0  0  0
  6  7  2  0  0  0  0
  6  8  1  0  0  0  0
  8  9  1  0  0  0  0
  8 26  1  0  0  0  0
  9 10  1  0  0  0  0
  9 27  1  0  0  0  0
  9 28  1  0  0  0  0
 10 11  1  0  0  0  0
 10 12  1  0  0  0  0
 10 29  1  0  0  0  0
 11 30  1  0  0  0  0
 11 31  1  0  0  0  0
 11 32  1  0  0  0  0
 12 19  1  0  0  0  0
 12 13  1  0  0  0  0
 13 14  1  0  0  0  0
 13 33  1  0  0  0  0
 13 34  1  0  0  0  0
 14 15  1  0  0  0  0
 14 16  1  0  0  0  0
 14 35  1  0  0  0  0
 15 36  1  0  0  0  0
 15 37  1  0  0  0  0
 15 38  1  0  0  0  0
 16 17  1  0  0  0  0
 17 18  1  0  0  0  0
 17 19  1  0  0  0  0
 17 39  1  0  0  0  0
 18 40  1  0  0  0  0
 18 41  1  0  0  0  0
 18 42  1  0  0  0  0
 19 43  1  0  0  0  0
 19 44  1  0  0  0  0
 20 21  1  0  0  0  0
M  CHG  1   5  -1
M  END
> <s_m_source_file>
AV-unprocessed.smi

> <i_m_source_file_index>
2061

> <i_lp_mmshare_version>
43012

> <i_f3d_flags>
0

> <s_epik_input>
W0NIM11jMVtjSF1jKG5vMSlbTkhdQyg9TylbTkhdW0NIMl1bQ0BIXShbQ0gzXSlOMltDSDJdW0NAQEhdKFtDSDNdKU9bQ0BASF0oW0NIM10pW0NIMl0y

> <s_epik_cmdline>
J2VwaWtfcHl0aG9uJywgJy1waCcsICc3LjAnLCAnLXRuJywgJzgnLCAnLW1hJywgJzIwMCcsICctbWV0YWxfYmluZGluZycsICctaW1hZScsICc8aW5maWxlLm1hZT4nLCAnLW9tYWUnLCAnPG91dGZpbGUubWFlPic=

> <r_epik_Ionization_Penalty>
6.88367

> <r_epik_Ionization_Penalty_Charging>
6.57198

> <r_epik_Ionization_Penalty_Neutral>
0.311681

> <r_epik_State_Penalty>
6.77619

> <r_epik_Charging_Adjusted_Penalty>
13.3482

> <i_epik_Tot_Q>
-1

> <i_epik_Tot_abs_Q>
1

> <r_epik_Metal_State_Penalty>
2.70524

> <b_epik_Metal_Only>
1

> <s_lp_Force_Field>
OPLS_2005

> <r_lp_Energy>
23.679

> <b_lp_Chiralities_Consistent>
1

> <s_lp_Variant>
AV-unprocessed.smi:2061-19

> <Gold.Version>
5.8.1

> <Gold.Id.Protein>
6NUR|6NUR_protein|mol2

> <Gold.PLP.Fitness>
42.4982

> <Gold.PLP.PLP>
-29.2072

> <Gold.PLP.part.hbond>
-3.8957

> <Gold.PLP.part.metal>
0.0000

> <Gold.PLP.part.buried>
-5.2388

> <Gold.PLP.part.nonpolar>
-21.3124

> <Gold.PLP.part.repulsive>
0.2052

> <Gold.PLP.ligand.clash>
0.0000

> <Gold.PLP.ligand.torsion>
1.8921

> <Gold.PLP.Chemscore.Hbond>
5.6800

> <Gold.PLP.Chemscore.CHOScore>
0.0000

> <Gold.PLP.Chemscore.Metal>
0.0000

> <Gold.Chemscore.Hbonds>
donor molecule, donor type, donor heavy atom, donor atom, acceptor molecule, acceptor atom, score
      P1  H  6896  6908       L1     7  0.91
      P1  H  6931  6943       L1     5  1.43
      P1  H  6934  6947       L1     5  1.95
      P1  H  7989  7998       L1    16  1.00

> <Gold.PLP.Chemscore.Internal.Correction>
0.0352

> <Gold.Rescore>
     Score         DG    S(hbond)    S(metal)    S(lipo)     H(rot)  DE(clash)    DE(int)     intcor
     17.47     -19.20       3.08        0.00      62.66       1.52       0.00       1.72       ----

> <Gold.Chemscore.Fitness>
17.4745

> <Gold.Chemscore.DG>
-19.2036

> <Gold.Chemscore.ZeroCoef>
-5.4800

> <Gold.Chemscore.Hbond>
3.0781

> <Gold.Chemscore.Metal>
0.0000

> <Gold.Chemscore.Lipo>
62.6612

> <Gold.Chemscore.Internal_Hbond>
0.0000

> <Gold.Chemscore.DEClash>
0.0044

> <Gold.Chemscore.DEInternal>
1.7247

> <Gold.Chemscore.Rot>
1.5190

> <Gold.Chemscore.Internal.Correction>
   9.000000E+99

> <Gold.Chemscore.Hbonds>
donor molecule, donor type, donor heavy atom, donor atom, acceptor molecule, acceptor atom, score
      P1  H  6896  6908       L1     7  0.85
      P1  H  6931  6943       L1     5  0.54
      P1  H  6934  6947       L1     5  0.34
      P1  H  7989  7998       L1    16  0.84

> <Gold.Chemscore.Hbond.Weighted>
-10.2809

> <Gold.Chemscore.Metal.Weighted>
-0.0000

> <Gold.Chemscore.Lipo.Weighted>
-7.3314

> <Gold.Chemscore.Internal_Hbond.Weighted>
0.0000

> <Gold.Chemscore.DEClash.Weighted>
0.0044

> <Gold.Chemscore.DEInternal.Weighted>
1.7247

> <Gold.Chemscore.Rot.Weighted>
3.8886

> <Gold.Chemscore.Internal.Correction.Weighted>
   9.000000E+99

> <Gold.Protein.RotatedTorsions>
[ 6907 6896 6895 6894 ] final  167.74 input  -60.11 | X-H torsion
[ 7974 7965 7964 7962 ] final -114.30 input  175.53 | X-H torsion
[ 8008 7997 7996 7995 ] final  158.74 input   59.86 | X-H torsion
[ 10167 10162 10161 10158 ] final  176.49 input  -65.29 | X-H torsion
[ 10718 10713 10712 10709 ] final    9.09 input   66.30 | X-H torsion
[ 10763 10752 10751 10750 ] final  -76.75 input  -60.55 | X-H torsion
[ 11005 11000 10999 10996 ] final  108.10 input  -57.11 | X-H torsion

> <Gold.Protein.ActiveResidues>
 VAL166  LYS551  ARG553  GLY616  TRP617  ASP618  TYR619  PRO620  LYS621  CYS622 
 ASP623  PHE694  ASN695  SER759  ASP760  ASP761  ALA762  ILE779  LEU786  VAL792 
 PHE793  MET794  SER795  GLU796  ALA797  LYS798  CYS799  TRP800  GLU811  SER814 

> <Gold.Protein.RotatedAtoms>
  151.8586  133.3453  159.3696 H   0  0  0  0  0  0  0  0  0  0  0  0  # atno 6907 bound_to 6896
  150.7186  134.5229  159.5672 H   0  0  0  0  0  0  0  0  0  0  0  0  # atno 6908 bound_to 6896
  152.2737  134.7905  160.0460 H   0  0  0  0  0  0  0  0  0  0  0  0  # atno 6909 bound_to 6896
  145.1218  140.8673  143.3809 H   0  0  0  0  0  0  0  0  0  0  0  0  # atno 7974 bound_to 7965
  156.2284  140.1850  156.7306 H   0  0  0  0  0  0  0  0  0  0  0  0  # atno 8008 bound_to 7997
  154.5979  140.0640  156.9357 H   0  0  0  0  0  0  0  0  0  0  0  0  # atno 8009 bound_to 7997
  155.2224  140.3308  155.4316 H   0  0  0  0  0  0  0  0  0  0  0  0  # atno 8010 bound_to 7997
  139.5216  144.2909  152.0465 H   0  0  0  0  0  0  0  0  0  0  0  0  # atno 10167 bound_to 10162
  156.9613  130.5934  149.5662 H   0  0  0  0  0  0  0  0  0  0  0  0  # atno 10718 bound_to 10713
  154.5039  135.5787  153.6552 H   0  0  0  0  0  0  0  0  0  0  0  0  # atno 10763 bound_to 10752
  152.9884  135.6142  154.2966 H   0  0  0  0  0  0  0  0  0  0  0  0  # atno 10764 bound_to 10752
  154.2876  135.2849  155.2649 H   0  0  0  0  0  0  0  0  0  0  0  0  # atno 10765 bound_to 10752
  139.8838  134.9420  156.5921 H   0  0  0  0  0  0  0  0  0  0  0  0  # atno 11005 bound_to 11000
  145.0732  139.3015  143.5821 LP  0  0  0  0  0  0  0  0  0  0  0  0  # atno 17320 bound_to 7965
  146.3520  140.0214  142.8658 LP  0  0  0  0  0  0  0  0  0  0  0  0  # atno 17321 bound_to 7965
  140.2360  144.4319  150.6280 LP  0  0  0  0  0  0  0  0  0  0  0  0  # atno 17342 bound_to 10162
  140.6323  143.2189  151.6469 LP  0  0  0  0  0  0  0  0  0  0  0  0  # atno 17343 bound_to 10162
  156.0321  130.5411  150.8561 LP  0  0  0  0  0  0  0  0  0  0  0  0  # atno 17370 bound_to 10713
  157.5656  131.0946  150.9495 LP  0  0  0  0  0  0  0  0  0  0  0  0  # atno 17371 bound_to 10713
  140.7948  133.8553  155.8676 LP  0  0  0  0  0  0  0  0  0  0  0  0  # atno 17394 bound_to 11000
  140.9645  134.1612  157.4627 LP  0  0  0  0  0  0  0  0  0  0  0  0  # atno 17395 bound_to 11000

$$$$
