AV-unprocessed.smi:1047|AV-procd|sdf|4581|dock8
  -GOLD-   22720 3 53D 1   1.00000     0.00000
 Structure written by MMmdl.
 58 60  0  0  0  0  0  0  0  0  4 V2000
  148.9224  131.6142  153.5943 C   0  0  0  0  0  0  0  0  0  0  0  0
  149.1714  133.1290  153.5950 C   0  0  0  0  0  0  0  0  0  0  0  0
  150.0201  133.5634  154.7365 N   0  3  2  0  0  0  0  0  0  0  0  0
  149.5147  133.1126  156.0559 C   0  0  0  0  0  0  0  0  0  0  0  0
  148.3428  133.9895  156.5311 C   0  0  0  0  0  0  0  0  0  0  0  0
  148.7571  135.3502  156.5731 O   0  0  0  0  0  0  0  0  0  0  0  0
  149.1345  135.8475  155.2928 C   0  0  1  0  0  0  0  0  0  0  0  0
  149.5005  137.3320  155.4479 C   0  0  0  0  0  0  0  0  0  0  0  0
  150.0482  137.8866  154.1932 N   0  3  0  0  0  0  0  0  0  0  0  0
  151.5232  137.9576  154.1588 C   0  0  0  0  0  0  0  0  0  0  0  0
  152.0345  139.2761  154.7697 C   0  0  2  0  0  0  0  0  0  0  0  0
  153.4455  139.2964  154.6954 O   0  0  0  0  0  0  0  0  0  0  0  0
  151.6446  139.4813  156.2475 C   0  0  0  0  0  0  0  0  0  0  0  0
  151.2407  140.8610  156.5536 N   0  0  0  0  0  0  0  0  0  0  0  0
  150.4830  141.7228  155.8214 C   0  0  0  0  0  0  0  0  0  0  0  0
  150.3958  142.8889  156.5186 N   0  3  0  0  0  0  0  0  0  0  0  0
  151.1124  142.7737  157.7113 C   0  0  0  0  0  0  0  0  0  0  0  0
  151.3166  143.6849  158.7404 C   0  0  0  0  0  0  0  0  0  0  0  0
  152.1039  143.2582  159.8333 C   0  0  0  0  0  0  0  0  0  0  0  0
  152.3477  144.2309  160.9748 C   0  0  0  0  0  0  0  0  0  0  0  0
  152.6584  141.9526  159.8676 C   0  0  0  0  0  0  0  0  0  0  0  0
  153.5032  141.5040  161.0481 C   0  0  0  0  0  0  0  0  0  0  0  0
  152.4405  141.0409  158.8098 C   0  0  0  0  0  0  0  0  0  0  0  0
  151.6610  141.4764  157.7399 C   0  0  0  0  0  0  0  0  0  0  0  0
  150.3284  135.0167  154.7691 C   0  0  0  0  0  0  0  0  0  0  0  0
  148.2261  131.3420  152.8009 H   0  0  0  0  0  0  0  0  0  0  0  0
  148.4887  131.2858  154.5394 H   0  0  0  0  0  0  0  0  0  0  0  0
  149.8373  131.0464  153.4280 H   0  0  0  0  0  0  0  0  0  0  0  0
  149.6011  133.4450  152.6447 H   0  0  0  0  0  0  0  0  0  0  0  0
  148.2003  133.6203  153.6677 H   0  0  0  0  0  0  0  0  0  0  0  0
  149.2254  132.0615  156.0216 H   0  0  0  0  0  0  0  0  0  0  0  0
  150.3302  133.1808  156.7772 H   0  0  0  0  0  0  0  0  0  0  0  0
  147.4732  133.8771  155.8817 H   0  0  0  0  0  0  0  0  0  0  0  0
  148.0316  133.6862  157.5308 H   0  0  0  0  0  0  0  0  0  0  0  0
  148.2913  135.7651  154.6051 H   0  0  0  0  0  0  0  0  0  0  0  0
  148.6263  137.9085  155.7539 H   0  0  0  0  0  0  0  0  0  0  0  0
  150.2504  137.4451  156.2322 H   0  0  0  0  0  0  0  0  0  0  0  0
  149.7433  137.3110  153.4207 H   0  0  0  0  0  0  0  0  0  0  0  0
  151.9101  137.1072  154.7206 H   0  0  0  0  0  0  0  0  0  0  0  0
  151.8754  137.8515  153.1315 H   0  0  0  0  0  0  0  0  0  0  0  0
  151.6550  140.1151  154.1844 H   0  0  0  0  0  0  0  0  0  0  0  0
  153.7552  138.4201  154.5214 H   0  0  0  0  0  0  0  0  0  0  0  0
  150.8515  138.7965  156.5478 H   0  0  0  0  0  0  0  0  0  0  0  0
  152.4974  139.2544  156.8893 H   0  0  0  0  0  0  0  0  0  0  0  0
  150.0342  141.5204  154.8592 H   0  0  0  0  0  0  0  0  0  0  0  0
  150.8927  144.6782  158.7068 H   0  0  0  0  0  0  0  0  0  0  0  0
  153.4121  144.4476  161.0705 H   0  0  0  0  0  0  0  0  0  0  0  0
  151.9922  143.8149  161.9181 H   0  0  0  0  0  0  0  0  0  0  0  0
  151.8286  145.1760  160.8116 H   0  0  0  0  0  0  0  0  0  0  0  0
  153.8671  140.4847  160.9153 H   0  0  0  0  0  0  0  0  0  0  0  0
  152.9198  141.5312  161.9687 H   0  0  0  0  0  0  0  0  0  0  0  0
  154.3704  142.1535  161.1678 H   0  0  0  0  0  0  0  0  0  0  0  0
  152.8654  140.0488  158.8407 H   0  0  0  0  0  0  0  0  0  0  0  0
  151.1842  135.1605  155.4305 H   0  0  0  0  0  0  0  0  0  0  0  0
  150.6447  135.3707  153.7888 H   0  0  0  0  0  0  0  0  0  0  0  0
  149.6792  138.8180  154.0636 H   0  0  0  0  0  0  0  0  0  0  0  0
  150.9000  133.0847  154.6026 H   0  0  0  0  0  0  0  0  0  0  0  0
  149.8883  143.7043  156.1988 H   0  0  0  0  0  0  0  0  0  0  0  0
  1  2  1  0  0  0  0
  1 26  1  0  0  0  0
  1 27  1  0  0  0  0
  1 28  1  0  0  0  0
  2  3  1  0  0  0  0
  2 29  1  0  0  0  0
  2 30  1  0  0  0  0
  3 25  1  0  0  0  0
  3  4  1  0  0  0  0
  3 57  1  0  0  0  0
  4  5  1  0  0  0  0
  4 31  1  0  0  0  0
  4 32  1  0  0  0  0
  5  6  1  0  0  0  0
  5 33  1  0  0  0  0
  5 34  1  0  0  0  0
  6  7  1  0  0  0  0
  7  8  1  0  0  0  0
  7 25  1  0  0  0  0
  7 35  1  0  0  0  0
  8  9  1  0  0  0  0
  8 36  1  0  0  0  0
  8 37  1  0  0  0  0
  9 10  1  0  0  0  0
  9 38  1  0  0  0  0
  9 56  1  0  0  0  0
 10 11  1  0  0  0  0
 10 39  1  0  0  0  0
 10 40  1  0  0  0  0
 11 12  1  0  0  0  0
 11 13  1  0  0  0  0
 11 41  1  0  0  0  0
 12 42  1  0  0  0  0
 13 14  1  0  0  0  0
 13 43  1  0  0  0  0
 13 44  1  0  0  0  0
 14 24  1  0  0  0  0
 14 15  1  0  0  0  0
 15 16  2  0  0  0  0
 15 45  1  0  0  0  0
 16 17  1  0  0  0  0
 16 58  1  0  0  0  0
 17 24  2  0  0  0  0
 17 18  1  0  0  0  0
 18 19  2  0  0  0  0
 18 46  1  0  0  0  0
 19 20  1  0  0  0  0
 19 21  1  0  0  0  0
 20 47  1  0  0  0  0
 20 48  1  0  0  0  0
 20 49  1  0  0  0  0
 21 22  1  0  0  0  0
 21 23  2  0  0  0  0
 22 50  1  0  0  0  0
 22 51  1  0  0  0  0
 22 52  1  0  0  0  0
 23 24  1  0  0  0  0
 23 53  1  0  0  0  0
 25 54  1  0  0  0  0
 25 55  1  0  0  0  0
M  CHG  1   3   1
M  CHG  1   9   1
M  CHG  1  16   1
M  END
> <s_m_source_file>
AV-unprocessed.smi

> <i_m_source_file_index>
1047

> <i_lp_mmshare_version>
43012

> <i_f3d_flags>
0

> <s_epik_input>
W0NIM11bQ0gyXU4xW0NIMl1bQ0gyXU9bQ0BIXShbQ0gyXTEpW0NIMl1bTkhdW0NIMl1bQ0BIXShbT0hdKVtDSDJdbihbY0hdbjIpYyhjMjMpW2NIXWMoW0NIM10pYyhbY0hdMylbQ0gzXQ==

> <s_epik_cmdline>
J2VwaWtfcHl0aG9uJywgJy1waCcsICc3LjAnLCAnLXRuJywgJzgnLCAnLW1hJywgJzIwMCcsICctbWV0YWxfYmluZGluZycsICctaW1hZScsICc8aW5maWxlLm1hZT4nLCAnLW9tYWUnLCAnPG91dGZpbGUubWFlPic=

> <r_epik_Ionization_Penalty>
1.6114

> <r_epik_Ionization_Penalty_Charging>
1.61139

> <r_epik_Ionization_Penalty_Neutral>
5.04732e-06

> <r_epik_State_Penalty>
1.63724

> <r_epik_Charging_Adjusted_Penalty>
3.24864

> <i_epik_Tot_Q>
3

> <i_epik_Tot_abs_Q>
3

> <r_epik_Metal_State_Penalty>
5.64594

> <b_epik_Metal_Only>
0

> <s_lp_Force_Field>
OPLS_2005

> <r_lp_Energy>
44.3097

> <b_lp_Chiralities_Consistent>
1

> <s_lp_Variant>
AV-unprocessed.smi:1047-22

> <Gold.Version>
5.8.1

> <Gold.Id.Protein>
6NUR|6NUR_protein|mol2

> <Gold.PLP.Fitness>
63.4040

> <Gold.PLP.PLP>
-50.8141

> <Gold.PLP.part.hbond>
-3.3674

> <Gold.PLP.part.metal>
0.0000

> <Gold.PLP.part.buried>
-6.4190

> <Gold.PLP.part.nonpolar>
-41.8882

> <Gold.PLP.part.repulsive>
0.1656

> <Gold.PLP.ligand.clash>
0.0000

> <Gold.PLP.ligand.torsion>
1.3016

> <Gold.PLP.Chemscore.Hbond>
5.0000

> <Gold.PLP.Chemscore.CHOScore>
0.0000

> <Gold.PLP.Chemscore.Metal>
0.0000

> <Gold.Chemscore.Hbonds>
donor molecule, donor type, donor heavy atom, donor atom, acceptor molecule, acceptor atom, score
      L1  H     9    38       P1  7948  2.00
      L1  H    16    58       P1  8028  1.95
      P1  H  7997  8009       L1    12  1.00

> <Gold.PLP.Chemscore.Internal.Correction>
0.1931

> <Gold.Rescore>
     Score         DG    S(hbond)    S(metal)    S(lipo)     H(rot)  DE(clash)    DE(int)     intcor
     21.01     -22.84       2.70        0.00     132.23       2.78       0.55       1.29       ----

> <Gold.Chemscore.Fitness>
21.0053

> <Gold.Chemscore.DG>
-22.8426

> <Gold.Chemscore.ZeroCoef>
-5.4800

> <Gold.Chemscore.Hbond>
2.7007

> <Gold.Chemscore.Metal>
0.0000

> <Gold.Chemscore.Lipo>
132.2329

> <Gold.Chemscore.Internal_Hbond>
0.0000

> <Gold.Chemscore.DEClash>
0.5486

> <Gold.Chemscore.DEInternal>
1.2886

> <Gold.Chemscore.Rot>
2.7848

> <Gold.Chemscore.Internal.Correction>
   9.000000E+99

> <Gold.Chemscore.Hbonds>
donor molecule, donor type, donor heavy atom, donor atom, acceptor molecule, acceptor atom, score
      L1  H     9    38       P1  7948  0.62
      L1  H    16    58       P1  8028  0.91
      P1  H  7997  8009       L1    12  0.80

> <Gold.Chemscore.Hbond.Weighted>
-9.0204

> <Gold.Chemscore.Metal.Weighted>
-0.0000

> <Gold.Chemscore.Lipo.Weighted>
-15.4713

> <Gold.Chemscore.Internal_Hbond.Weighted>
0.0000

> <Gold.Chemscore.DEClash.Weighted>
0.5486

> <Gold.Chemscore.DEInternal.Weighted>
1.2886

> <Gold.Chemscore.Rot.Weighted>
7.1291

> <Gold.Chemscore.Internal.Correction.Weighted>
   9.000000E+99

> <Gold.Protein.RotatedTorsions>
[ 6907 6896 6895 6894 ] final  109.98 input  -60.11 | X-H torsion
[ 7974 7965 7964 7962 ] final  -97.29 input  175.53 | X-H torsion
[ 8008 7997 7996 7995 ] final -144.00 input   59.86 | X-H torsion
[ 10167 10162 10161 10158 ] final   28.83 input  -65.29 | X-H torsion
[ 10718 10713 10712 10709 ] final    3.45 input   66.30 | X-H torsion
[ 10763 10752 10751 10750 ] final   15.98 input  -60.55 | X-H torsion
[ 11005 11000 10999 10996 ] final -128.59 input  -57.11 | X-H torsion

> <Gold.Protein.ActiveResidues>
 VAL166  LYS551  ARG553  GLY616  TRP617  ASP618  TYR619  PRO620  LYS621  CYS622 
 ASP623  PHE694  ASN695  SER759  ASP760  ASP761  ALA762  ILE779  LEU786  VAL792 
 PHE793  MET794  SER795  GLU796  ALA797  LYS798  CYS799  TRP800  GLU811  SER814 

> <Gold.Protein.RotatedAtoms>
  152.5042  133.8866  159.7372 H   0  0  0  0  0  0  0  0  0  0  0  0  # atno 6907 bound_to 6896
  150.9315  133.6752  159.2816 H   0  0  0  0  0  0  0  0  0  0  0  0  # atno 6908 bound_to 6896
  151.4095  135.0987  159.9633 H   0  0  0  0  0  0  0  0  0  0  0  0  # atno 6909 bound_to 6896
  145.3357  140.9450  143.2636 H   0  0  0  0  0  0  0  0  0  0  0  0  # atno 7974 bound_to 7965
  155.5198  140.0590  157.2909 H   0  0  0  0  0  0  0  0  0  0  0  0  # atno 8008 bound_to 7997
  154.4522  140.1954  156.0433 H   0  0  0  0  0  0  0  0  0  0  0  0  # atno 8009 bound_to 7997
  156.0727  140.3258  155.7599 H   0  0  0  0  0  0  0  0  0  0  0  0  # atno 8010 bound_to 7997
  140.4819  144.0603  150.6268 H   0  0  0  0  0  0  0  0  0  0  0  0  # atno 10167 bound_to 10162
  156.8781  130.5644  149.5654 H   0  0  0  0  0  0  0  0  0  0  0  0  # atno 10718 bound_to 10713
  153.1474  135.6772  153.8934 H   0  0  0  0  0  0  0  0  0  0  0  0  # atno 10763 bound_to 10752
  153.8372  135.3110  155.3424 H   0  0  0  0  0  0  0  0  0  0  0  0  # atno 10764 bound_to 10752
  154.7835  135.4875  153.9981 H   0  0  0  0  0  0  0  0  0  0  0  0  # atno 10765 bound_to 10752
  140.9503  134.1075  157.4068 H   0  0  0  0  0  0  0  0  0  0  0  0  # atno 11005 bound_to 11000
  144.8829  139.4879  143.6714 LP  0  0  0  0  0  0  0  0  0  0  0  0  # atno 17320 bound_to 7965
  146.3028  139.7480  142.9079 LP  0  0  0  0  0  0  0  0  0  0  0  0  # atno 17321 bound_to 7965
  140.3847  143.2784  152.0130 LP  0  0  0  0  0  0  0  0  0  0  0  0  # atno 17342 bound_to 10162
  139.4835  144.6126  151.7405 LP  0  0  0  0  0  0  0  0  0  0  0  0  # atno 17343 bound_to 10162
  156.0691  130.5728  150.9348 LP  0  0  0  0  0  0  0  0  0  0  0  0  # atno 17370 bound_to 10713
  157.6156  131.0933  150.8715 LP  0  0  0  0  0  0  0  0  0  0  0  0  # atno 17371 bound_to 10713
  139.8845  135.0064  156.6376 LP  0  0  0  0  0  0  0  0  0  0  0  0  # atno 17394 bound_to 11000
  140.7612  133.8816  155.8419 LP  0  0  0  0  0  0  0  0  0  0  0  0  # atno 17395 bound_to 11000

$$$$
