AV-unprocessed.smi:1933|AV-procd|sdf|7817|dock1
  -GOLD-   22720 9563D 1   1.00000     0.00000
 Structure written by MMmdl.
 47 49  0  0  0  0  0  0  0  0  1 V2000
  145.3536  134.6612  154.2059 O   0  0  0  0  0  0  0  0  0  0  0  0
  146.3654  134.9573  153.5701 C   0  0  0  0  0  0  0  0  0  0  0  0
  147.3549  135.7185  154.0603 N   0  0  0  0  0  0  0  0  0  0  0  0
  147.3988  136.3040  155.3978 C   0  0  0  0  0  0  0  0  0  0  0  0
  148.8448  136.6434  155.8486 C   0  0  2  0  0  0  0  0  0  0  0  0
  149.2285  136.0034  157.2154 C   0  0  1  0  0  0  0  0  0  0  0  0
  148.5616  136.6103  158.4388 C   0  0  0  0  0  0  0  0  0  0  0  0
  148.7647  135.5347  159.5124 C   0  0  0  0  0  0  0  0  0  0  0  0
  149.2506  134.3776  158.8345 O   0  0  0  0  0  0  0  0  0  0  0  0
  148.9803  134.5144  157.4484 C   0  0  0  0  0  0  0  0  0  0  0  0
  149.2142  138.0655  155.7005 N   0  0  0  0  0  0  0  0  0  0  0  0
  148.7268  138.7194  154.4831 C   0  0  0  0  0  0  0  0  0  0  0  0
  149.0713  140.2179  154.4707 C   0  0  0  0  0  0  0  0  0  0  0  0
  150.4809  140.3805  154.5933 O   0  0  0  0  0  0  0  0  0  0  0  0
  151.0042  139.7845  155.7760 C   0  0  0  0  0  0  0  0  0  0  0  0
  150.6547  138.2862  155.8032 C   0  0  0  0  0  0  0  0  0  0  0  0
  146.6400  134.5521  152.3180 N   0  0  0  0  0  0  0  0  0  0  0  0
  145.8747  133.6945  151.4842 C   0  0  0  0  0  0  0  0  0  0  0  0
  146.5121  132.8393  150.5487 C   0  0  0  0  0  0  0  0  0  0  0  0
  145.7296  131.9790  149.7548 C   0  0  0  0  0  0  0  0  0  0  0  0
  144.3335  131.9848  149.9209 C   0  0  0  0  0  0  0  0  0  0  0  0
  143.7844  132.8509  150.8836 C   0  0  0  0  0  0  0  0  0  0  0  0
  144.5315  133.6754  151.6481 N   0  0  0  0  0  0  0  0  0  0  0  0
  148.1473  135.9036  153.4628 H   0  0  0  0  0  0  0  0  0  0  0  0
  146.7930  137.2090  155.3604 H   0  0  0  0  0  0  0  0  0  0  0  0
  146.9152  135.6488  156.1240 H   0  0  0  0  0  0  0  0  0  0  0  0
  149.4830  136.0994  155.1502 H   0  0  0  0  0  0  0  0  0  0  0  0
  150.2983  136.1596  157.3583 H   0  0  0  0  0  0  0  0  0  0  0  0
  148.9964  137.5703  158.7188 H   0  0  0  0  0  0  0  0  0  0  0  0
  147.4947  136.7613  158.2711 H   0  0  0  0  0  0  0  0  0  0  0  0
  149.4918  135.8463  160.2629 H   0  0  0  0  0  0  0  0  0  0  0  0
  147.8272  135.3087  160.0216 H   0  0  0  0  0  0  0  0  0  0  0  0
  147.9411  134.2330  157.2952 H   0  0  0  0  0  0  0  0  0  0  0  0
  149.6174  133.8675  156.8460 H   0  0  0  0  0  0  0  0  0  0  0  0
  149.1798  138.2584  153.6047 H   0  0  0  0  0  0  0  0  0  0  0  0
  147.6548  138.6018  154.3657 H   0  0  0  0  0  0  0  0  0  0  0  0
  148.7398  140.6757  153.5386 H   0  0  0  0  0  0  0  0  0  0  0  0
  148.5629  140.7390  155.2837 H   0  0  0  0  0  0  0  0  0  0  0  0
  152.0853  139.9216  155.7971 H   0  0  0  0  0  0  0  0  0  0  0  0
  150.5997  140.2900  156.6545 H   0  0  0  0  0  0  0  0  0  0  0  0
  151.0338  137.8522  156.7290 H   0  0  0  0  0  0  0  0  0  0  0  0
  151.1722  137.7821  154.9864 H   0  0  0  0  0  0  0  0  0  0  0  0
  147.5547  134.7916  151.9649 H   0  0  0  0  0  0  0  0  0  0  0  0
  147.5857  132.8207  150.4364 H   0  0  0  0  0  0  0  0  0  0  0  0
  146.1944  131.3216  149.0347 H   0  0  0  0  0  0  0  0  0  0  0  0
  143.7009  131.3382  149.3308 H   0  0  0  0  0  0  0  0  0  0  0  0
  142.7174  132.8815  151.0474 H   0  0  0  0  0  0  0  0  0  0  0  0
  1  2  2  0  0  0  0
  2  3  1  0  0  0  0
  2 17  1  0  0  0  0
  3  4  1  0  0  0  0
  3 24  1  0  0  0  0
  4  5  1  0  0  0  0
  4 25  1  0  0  0  0
  4 26  1  0  0  0  0
  5  6  1  0  0  0  0
  5 11  1  0  0  0  0
  5 27  1  0  0  0  0
  6 10  1  0  0  0  0
  6  7  1  0  0  0  0
  6 28  1  0  0  0  0
  7  8  1  0  0  0  0
  7 29  1  0  0  0  0
  7 30  1  0  0  0  0
  8  9  1  0  0  0  0
  8 31  1  0  0  0  0
  8 32  1  0  0  0  0
  9 10  1  0  0  0  0
 10 33  1  0  0  0  0
 10 34  1  0  0  0  0
 11 16  1  0  0  0  0
 11 12  1  0  0  0  0
 12 13  1  0  0  0  0
 12 35  1  0  0  0  0
 12 36  1  0  0  0  0
 13 14  1  0  0  0  0
 13 37  1  0  0  0  0
 13 38  1  0  0  0  0
 14 15  1  0  0  0  0
 15 16  1  0  0  0  0
 15 39  1  0  0  0  0
 15 40  1  0  0  0  0
 16 41  1  0  0  0  0
 16 42  1  0  0  0  0
 17 18  1  0  0  0  0
 17 43  1  0  0  0  0
 18 23  1  0  0  0  0
 18 19  2  0  0  0  0
 19 20  1  0  0  0  0
 19 44  1  0  0  0  0
 20 21  2  0  0  0  0
 20 45  1  0  0  0  0
 21 22  1  0  0  0  0
 21 46  1  0  0  0  0
 22 23  2  0  0  0  0
 22 47  1  0  0  0  0
M  END
> <s_m_source_file>
AV-unprocessed.smi

> <i_m_source_file_index>
1933

> <i_lp_mmshare_version>
43012

> <i_f3d_flags>
0

> <s_epik_input>
bjFbY0hdW2NIXVtjSF1bY0hdYzFbTkhdQyg9TylbTkhdW0NIMl1bQ0BIXShbQ0BASF0yW0NIMl1bQ0gyXU9bQ0gyXTIpTjNbQ0gyXVtDSDJdT1tDSDJdW0NIMl0z

> <s_epik_cmdline>
J2VwaWtfcHl0aG9uJywgJy1waCcsICc3LjAnLCAnLXRuJywgJzgnLCAnLW1hJywgJzIwMCcsICctbWV0YWxfYmluZGluZycsICctaW1hZScsICc8aW5maWxlLm1hZT4nLCAnLW9tYWUnLCAnPG91dGZpbGUubWFlPic=

> <r_epik_Ionization_Penalty>
0.125062

> <r_epik_Ionization_Penalty_Charging>
0

> <r_epik_Ionization_Penalty_Neutral>
0.125062

> <r_epik_State_Penalty>
0.114484

> <r_epik_Charging_Adjusted_Penalty>
0.114484

> <i_epik_Tot_Q>
0

> <i_epik_Tot_abs_Q>
0

> <r_epik_Metal_State_Penalty>
0.114484

> <b_epik_Metal_Only>
0

> <s_lp_Force_Field>
OPLS_2005

> <r_lp_Energy>
60.0985

> <b_lp_Chiralities_Consistent>
1

> <s_lp_Variant>
AV-unprocessed.smi:1933-3

> <Gold.Version>
5.8.1

> <Gold.Id.Protein>
6NUR|6NUR_protein|mol2

> <Gold.PLP.Fitness>
44.4344

> <Gold.PLP.PLP>
-31.6438

> <Gold.PLP.part.hbond>
-3.8678

> <Gold.PLP.part.metal>
0.0000

> <Gold.PLP.part.buried>
-4.3495

> <Gold.PLP.part.nonpolar>
-24.5392

> <Gold.PLP.part.repulsive>
0.3471

> <Gold.PLP.ligand.clash>
0.0000

> <Gold.PLP.ligand.torsion>
1.2260

> <Gold.PLP.Chemscore.Hbond>
3.9600

> <Gold.PLP.Chemscore.CHOScore>
0.9984

> <Gold.PLP.Chemscore.Metal>
0.0000

> <Gold.Chemscore.Hbonds>
donor molecule, donor type, donor heavy atom, donor atom, acceptor molecule, acceptor atom, score
      L1  H     3    24       P1  7948  1.00
      L1  H    17    43       P1  7948  0.93
      P1  H  6896  6909       L1     9  1.00
      P1  H  7989  7998       L1    14  1.00
      L1  C    22    47       P1 10186  0.42

> <Gold.PLP.Chemscore.Internal.Correction>
0.3676

> <Gold.Rescore>
     Score         DG    S(hbond)    S(metal)    S(lipo)     H(rot)  DE(clash)    DE(int)     intcor
     19.60     -22.08       3.70        0.00      73.70       1.72       0.00       2.48       ----

> <Gold.Chemscore.Fitness>
19.6019

> <Gold.Chemscore.DG>
-22.0818

> <Gold.Chemscore.ZeroCoef>
-5.4800

> <Gold.Chemscore.Hbond>
3.7043

> <Gold.Chemscore.Metal>
0.0000

> <Gold.Chemscore.Lipo>
73.6978

> <Gold.Chemscore.Internal_Hbond>
0.0000

> <Gold.Chemscore.DEClash>
0.0000

> <Gold.Chemscore.DEInternal>
2.4799

> <Gold.Chemscore.Rot>
1.7161

> <Gold.Chemscore.Internal.Correction>
   9.000000E+99

> <Gold.Chemscore.Hbonds>
donor molecule, donor type, donor heavy atom, donor atom, acceptor molecule, acceptor atom, score
      L1  H     3    24       P1  7948  0.98
      L1  H    17    43       P1  7948  0.63
      P1  H  6896  6909       L1     9  0.64
      P1  H  7989  7998       L1    14  0.88

> <Gold.Chemscore.Hbond.Weighted>
-12.3724

> <Gold.Chemscore.Metal.Weighted>
-0.0000

> <Gold.Chemscore.Lipo.Weighted>
-8.6226

> <Gold.Chemscore.Internal_Hbond.Weighted>
0.0000

> <Gold.Chemscore.DEClash.Weighted>
0.0000

> <Gold.Chemscore.DEInternal.Weighted>
2.4799

> <Gold.Chemscore.Rot.Weighted>
4.3932

> <Gold.Chemscore.Internal.Correction.Weighted>
   9.000000E+99

> <Gold.Protein.RotatedTorsions>
[ 6907 6896 6895 6894 ] final   16.58 input  -60.11 | X-H torsion
[ 7974 7965 7964 7962 ] final   24.68 input  175.53 | X-H torsion
[ 8008 7997 7996 7995 ] final -103.23 input   59.86 | X-H torsion
[ 10167 10162 10161 10158 ] final -150.29 input  -65.29 | X-H torsion
[ 10718 10713 10712 10709 ] final   -0.25 input   66.30 | X-H torsion
[ 10763 10752 10751 10750 ] final  -19.31 input  -60.55 | X-H torsion
[ 11005 11000 10999 10996 ] final -153.45 input  -57.11 | X-H torsion

> <Gold.Protein.ActiveResidues>
 VAL166  LYS551  ARG553  GLY616  TRP617  ASP618  TYR619  PRO620  LYS621  CYS622 
 ASP623  PHE694  ASN695  SER759  ASP760  ASP761  ALA762  ILE779  LEU786  VAL792 
 PHE793  MET794  SER795  GLU796  ALA797  LYS798  CYS799  TRP800  GLU811  SER814 

> <Gold.Protein.RotatedAtoms>
  151.8362  135.0605  160.0442 H   0  0  0  0  0  0  0  0  0  0  0  0  # atno 6907 bound_to 6896
  152.2844  133.5496  159.5526 H   0  0  0  0  0  0  0  0  0  0  0  0  # atno 6908 bound_to 6896
  150.7203  134.0435  159.3816 H   0  0  0  0  0  0  0  0  0  0  0  0  # atno 6909 bound_to 6896
  146.1926  139.7571  142.8821 H   0  0  0  0  0  0  0  0  0  0  0  0  # atno 7974 bound_to 7965
  154.8679  140.0424  157.1706 H   0  0  0  0  0  0  0  0  0  0  0  0  # atno 8008 bound_to 7997
  154.8770  140.2967  155.5427 H   0  0  0  0  0  0  0  0  0  0  0  0  # atno 8009 bound_to 7997
  156.2999  140.2418  156.3767 H   0  0  0  0  0  0  0  0  0  0  0  0  # atno 8010 bound_to 7997
  139.7367  143.8725  152.2551 H   0  0  0  0  0  0  0  0  0  0  0  0  # atno 10167 bound_to 10162
  156.8233  130.5463  149.5695 H   0  0  0  0  0  0  0  0  0  0  0  0  # atno 10718 bound_to 10713
  153.6028  135.6999  153.5377 H   0  0  0  0  0  0  0  0  0  0  0  0  # atno 10763 bound_to 10752
  153.3082  135.4109  155.1313 H   0  0  0  0  0  0  0  0  0  0  0  0  # atno 10764 bound_to 10752
  154.8579  135.3665  154.5564 H   0  0  0  0  0  0  0  0  0  0  0  0  # atno 10765 bound_to 10752
  140.7080  134.3864  157.5201 H   0  0  0  0  0  0  0  0  0  0  0  0  # atno 11005 bound_to 11000
  145.3746  141.0348  143.3212 LP  0  0  0  0  0  0  0  0  0  0  0  0  # atno 17320 bound_to 7965
  144.8516  139.5313  143.6854 LP  0  0  0  0  0  0  0  0  0  0  0  0  # atno 17321 bound_to 7965
  139.8663  144.7091  150.9039 LP  0  0  0  0  0  0  0  0  0  0  0  0  # atno 17342 bound_to 10162
  140.7780  143.3775  151.1537 LP  0  0  0  0  0  0  0  0  0  0  0  0  # atno 17343 bound_to 10162
  156.0976  130.5944  150.9840 LP  0  0  0  0  0  0  0  0  0  0  0  0  # atno 17370 bound_to 10713
  157.6445  131.0906  150.8181 LP  0  0  0  0  0  0  0  0  0  0  0  0  # atno 17371 bound_to 10713
  139.8879  134.8870  156.2502 LP  0  0  0  0  0  0  0  0  0  0  0  0  # atno 17394 bound_to 11000
  141.0109  133.7096  156.1109 LP  0  0  0  0  0  0  0  0  0  0  0  0  # atno 17395 bound_to 11000

$$$$
