AV-unprocessed.smi:3131|AV-procd|sdf|11927|dock6
  -GOLD-   2272017313D 1   1.00000     0.00000
 Structure written by MMmdl.
 43 43  0  0  0  0  0  0  0  0  2 V2000
  151.9277  145.4683  159.1329 C   0  0  0  0  0  0  0  0  0  0  0  0
  151.8177  144.4787  157.9632 C   0  0  0  0  0  0  0  0  0  0  0  0
  151.1975  143.1116  158.3387 C   0  0  0  0  0  0  0  0  0  0  0  0
  151.8183  142.5552  159.6433 C   0  0  0  0  0  0  0  0  0  0  0  0
  153.3519  142.6258  159.6956 C   0  0  0  0  0  0  0  0  0  0  0  0
  151.3504  142.0947  157.1853 C   0  0  0  0  0  0  0  0  0  0  0  0
  150.3528  142.3203  156.1202 N   0  3  0  0  0  0  0  0  0  0  0  0
  149.2692  141.3155  156.0791 C   0  0  0  0  0  0  0  0  0  0  0  0
  149.3129  140.4743  154.7851 C   0  0  1  0  0  0  0  0  0  0  0  0
  148.0049  139.6825  154.6128 C   0  0  0  0  0  0  0  0  0  0  0  0
  149.3650  141.3781  153.6968 O   0  0  0  0  0  0  0  0  0  0  0  0
  150.4964  139.5296  154.7916 C   0  0  0  0  0  0  0  0  0  0  0  0
  150.8412  138.5348  153.8293 C   0  0  0  0  0  0  0  0  0  0  0  0
  151.9556  137.8885  154.1285 N   0  0  0  0  0  0  0  0  0  0  0  0
  152.3599  138.4371  155.2912 N   0  0  0  0  0  0  0  0  0  0  0  0
  153.5700  137.9581  155.9238 C   0  0  0  0  0  0  0  0  0  0  0  0
  151.5008  139.4273  155.7150 C   0  0  0  0  0  0  0  0  0  0  0  0
  152.4593  146.3683  158.8227 H   0  0  0  0  0  0  0  0  0  0  0  0
  152.4783  145.0331  159.9672 H   0  0  0  0  0  0  0  0  0  0  0  0
  150.9515  145.7834  159.4994 H   0  0  0  0  0  0  0  0  0  0  0  0
  151.2505  144.9335  157.1501 H   0  0  0  0  0  0  0  0  0  0  0  0
  152.8250  144.3337  157.5759 H   0  0  0  0  0  0  0  0  0  0  0  0
  150.1309  143.2643  158.5125 H   0  0  0  0  0  0  0  0  0  0  0  0
  151.4448  143.1178  160.4991 H   0  0  0  0  0  0  0  0  0  0  0  0
  151.4929  141.5262  159.8008 H   0  0  0  0  0  0  0  0  0  0  0  0
  153.7163  142.3085  160.6731 H   0  0  0  0  0  0  0  0  0  0  0  0
  153.7063  143.6430  159.5272 H   0  0  0  0  0  0  0  0  0  0  0  0
  153.8190  141.9792  158.9537 H   0  0  0  0  0  0  0  0  0  0  0  0
  152.3355  142.1753  156.7280 H   0  0  0  0  0  0  0  0  0  0  0  0
  151.2600  141.0760  157.5647 H   0  0  0  0  0  0  0  0  0  0  0  0
  149.9358  143.2304  156.2557 H   0  0  0  0  0  0  0  0  0  0  0  0
  149.3707  140.6628  156.9475 H   0  0  0  0  0  0  0  0  0  0  0  0
  148.3056  141.8187  156.1750 H   0  0  0  0  0  0  0  0  0  0  0  0
  147.8558  138.9768  155.4306 H   0  0  0  0  0  0  0  0  0  0  0  0
  148.0066  139.1111  153.6834 H   0  0  0  0  0  0  0  0  0  0  0  0
  147.1370  140.3429  154.5912 H   0  0  0  0  0  0  0  0  0  0  0  0
  149.5502  140.8926  152.9071 H   0  0  0  0  0  0  0  0  0  0  0  0
  150.3197  138.2684  152.9217 H   0  0  0  0  0  0  0  0  0  0  0  0
  153.8014  138.5668  156.7986 H   0  0  0  0  0  0  0  0  0  0  0  0
  154.4030  138.0159  155.2221 H   0  0  0  0  0  0  0  0  0  0  0  0
  153.4364  136.9224  156.2378 H   0  0  0  0  0  0  0  0  0  0  0  0
  151.6739  139.9750  156.6296 H   0  0  0  0  0  0  0  0  0  0  0  0
  150.8257  142.3150  155.2276 H   0  0  0  0  0  0  0  0  0  0  0  0
  1  2  1  0  0  0  0
  1 18  1  0  0  0  0
  1 19  1  0  0  0  0
  1 20  1  0  0  0  0
  2  3  1  0  0  0  0
  2 21  1  0  0  0  0
  2 22  1  0  0  0  0
  3  4  1  0  0  0  0
  3  6  1  0  0  0  0
  3 23  1  0  0  0  0
  4  5  1  0  0  0  0
  4 24  1  0  0  0  0
  4 25  1  0  0  0  0
  5 26  1  0  0  0  0
  5 27  1  0  0  0  0
  5 28  1  0  0  0  0
  6  7  1  0  0  0  0
  6 29  1  0  0  0  0
  6 30  1  0  0  0  0
  7  8  1  0  0  0  0
  7 31  1  0  0  0  0
  7 43  1  0  0  0  0
  8  9  1  0  0  0  0
  8 32  1  0  0  0  0
  8 33  1  0  0  0  0
  9 10  1  0  0  0  0
  9 11  1  0  0  0  0
  9 12  1  0  0  0  0
 10 34  1  0  0  0  0
 10 35  1  0  0  0  0
 10 36  1  0  0  0  0
 11 37  1  0  0  0  0
 12 17  2  0  0  0  0
 12 13  1  0  0  0  0
 13 14  2  0  0  0  0
 13 38  1  0  0  0  0
 14 15  1  0  0  0  0
 15 16  1  0  0  0  0
 15 17  1  0  0  0  0
 16 39  1  0  0  0  0
 16 40  1  0  0  0  0
 16 41  1  0  0  0  0
 17 42  1  0  0  0  0
M  CHG  1   7   1
M  END
> <s_m_source_file>
AV-unprocessed.smi

> <i_m_source_file_index>
3131

> <i_lp_mmshare_version>
43012

> <i_f3d_flags>
0

> <s_epik_input>
W0NIM11bQ0gyXVtDSF0oW0NIMl1bQ0gzXSlbQ0gyXVtOSF1bQ0gyXVtDQEBdKFtDSDNdKShbT0hdKWMxW2NIXW5uKFtDSDNdKVtjSF0x

> <s_epik_cmdline>
J2VwaWtfcHl0aG9uJywgJy1waCcsICc3LjAnLCAnLXRuJywgJzgnLCAnLW1hJywgJzIwMCcsICctbWV0YWxfYmluZGluZycsICctaW1hZScsICc8aW5maWxlLm1hZT4nLCAnLW9tYWUnLCAnPG91dGZpbGUubWFlPic=

> <r_lp_tautomer_probability>
1

> <r_epik_Ionization_Penalty>
0.00304809

> <r_epik_Ionization_Penalty_Charging>
0.00302982

> <r_epik_Ionization_Penalty_Neutral>
1.82731e-05

> <r_epik_State_Penalty>
0.00212874

> <r_epik_Charging_Adjusted_Penalty>
0.00515857

> <i_epik_Tot_Q>
1

> <i_epik_Tot_abs_Q>
1

> <r_epik_Metal_State_Penalty>
-0

> <b_epik_Metal_Only>
0

> <s_lp_Force_Field>
OPLS_2005

> <r_lp_Energy>
10.206

> <b_lp_Chiralities_Consistent>
1

> <s_lp_Variant>
AV-unprocessed.smi:3131-1

> <Gold.Version>
5.8.1

> <Gold.Id.Protein>
6NUR|6NUR_protein|mol2

> <Gold.PLP.Fitness>
51.3940

> <Gold.PLP.PLP>
-39.0981

> <Gold.PLP.part.hbond>
-4.0230

> <Gold.PLP.part.metal>
0.0000

> <Gold.PLP.part.buried>
-2.3888

> <Gold.PLP.part.nonpolar>
-32.0133

> <Gold.PLP.part.repulsive>
0.3050

> <Gold.PLP.ligand.clash>
0.0000

> <Gold.PLP.ligand.torsion>
1.2668

> <Gold.PLP.Chemscore.Hbond>
3.0153

> <Gold.PLP.Chemscore.CHOScore>
1.8249

> <Gold.PLP.Chemscore.Metal>
0.0000

> <Gold.Chemscore.Hbonds>
donor molecule, donor type, donor heavy atom, donor atom, acceptor molecule, acceptor atom, score
      L1  H     7    31       P1  8028  2.00
      L1  H    11    37       P1  7957  1.00
      P1  H 10752 10764       L1    14  0.03
      L1  C    13    38       P1  7948  0.65
      L1  C    13    38       P1  7949  0.08
      L1  C    13    38       P1  7957  0.70

> <Gold.PLP.Chemscore.Internal.Correction>
0.3087

> <Gold.Rescore>
     Score         DG    S(hbond)    S(metal)    S(lipo)     H(rot)  DE(clash)    DE(int)     intcor
     19.01     -21.01       2.67        0.00     107.91       2.34       0.10       1.90       ----

> <Gold.Chemscore.Fitness>
19.0108

> <Gold.Chemscore.DG>
-21.0102

> <Gold.Chemscore.ZeroCoef>
-5.4800

> <Gold.Chemscore.Hbond>
2.6651

> <Gold.Chemscore.Metal>
0.0000

> <Gold.Chemscore.Lipo>
107.9142

> <Gold.Chemscore.Internal_Hbond>
0.0000

> <Gold.Chemscore.DEClash>
0.1028

> <Gold.Chemscore.DEInternal>
1.8967

> <Gold.Chemscore.Rot>
2.3426

> <Gold.Chemscore.Internal.Correction>
   9.000000E+99

> <Gold.Chemscore.Hbonds>
donor molecule, donor type, donor heavy atom, donor atom, acceptor molecule, acceptor atom, score
      L1  H     7    31       P1  8028  0.96
      L1  H    11    37       P1  7957  0.99
      P1  H 10752 10764       L1    14  0.03

> <Gold.Chemscore.Hbond.Weighted>
-8.9014

> <Gold.Chemscore.Metal.Weighted>
-0.0000

> <Gold.Chemscore.Lipo.Weighted>
-12.6260

> <Gold.Chemscore.Internal_Hbond.Weighted>
0.0000

> <Gold.Chemscore.DEClash.Weighted>
0.1028

> <Gold.Chemscore.DEInternal.Weighted>
1.8967

> <Gold.Chemscore.Rot.Weighted>
5.9972

> <Gold.Chemscore.Internal.Correction.Weighted>
   9.000000E+99

> <Gold.Protein.RotatedTorsions>
[ 6907 6896 6895 6894 ] final  -25.91 input  -60.11 | X-H torsion
[ 7974 7965 7964 7962 ] final   21.57 input  175.53 | X-H torsion
[ 8008 7997 7996 7995 ] final    8.00 input   59.86 | X-H torsion
[ 10167 10162 10161 10158 ] final  169.06 input  -65.29 | X-H torsion
[ 10718 10713 10712 10709 ] final   73.96 input   66.30 | X-H torsion
[ 10763 10752 10751 10750 ] final  -87.82 input  -60.55 | X-H torsion
[ 11005 11000 10999 10996 ] final  -82.55 input  -57.11 | X-H torsion

> <Gold.Protein.ActiveResidues>
 VAL166  LYS551  ARG553  GLY616  TRP617  ASP618  TYR619  PRO620  LYS621  CYS622 
 ASP623  PHE694  ASN695  SER759  ASP760  ASP761  ALA762  ILE779  LEU786  VAL792 
 PHE793  MET794  SER795  GLU796  ALA797  LYS798  CYS799  TRP800  GLU811  SER814 

> <Gold.Protein.RotatedAtoms>
  151.1685  135.0306  159.8740 H   0  0  0  0  0  0  0  0  0  0  0  0  # atno 6907 bound_to 6896
  152.5449  134.1198  159.8404 H   0  0  0  0  0  0  0  0  0  0  0  0  # atno 6908 bound_to 6896
  151.1301  133.4996  159.2632 H   0  0  0  0  0  0  0  0  0  0  0  0  # atno 6909 bound_to 6896
  146.2066  139.8009  142.8721 H   0  0  0  0  0  0  0  0  0  0  0  0  # atno 7974 bound_to 7965
  154.7611  140.2784  155.6213 H   0  0  0  0  0  0  0  0  0  0  0  0  # atno 8008 bound_to 7997
  156.2915  140.2660  156.2316 H   0  0  0  0  0  0  0  0  0  0  0  0  # atno 8009 bound_to 7997
  155.0017  140.0372  157.2352 H   0  0  0  0  0  0  0  0  0  0  0  0  # atno 8010 bound_to 7997
  139.4983  144.3747  151.9687 H   0  0  0  0  0  0  0  0  0  0  0  0  # atno 10167 bound_to 10162
  157.6571  130.9654  150.1143 H   0  0  0  0  0  0  0  0  0  0  0  0  # atno 10718 bound_to 10713
  154.6378  135.5399  153.7754 H   0  0  0  0  0  0  0  0  0  0  0  0  # atno 10763 bound_to 10752
  153.0317  135.6451  154.1205 H   0  0  0  0  0  0  0  0  0  0  0  0  # atno 10764 bound_to 10752
  154.1131  135.2925  155.3206 H   0  0  0  0  0  0  0  0  0  0  0  0  # atno 10765 bound_to 10752
  141.1662  133.7250  156.8588 H   0  0  0  0  0  0  0  0  0  0  0  0  # atno 11005 bound_to 11000
  145.3298  141.0264  143.3453 LP  0  0  0  0  0  0  0  0  0  0  0  0  # atno 17320 bound_to 7965
  144.8807  139.4908  143.6724 LP  0  0  0  0  0  0  0  0  0  0  0  0  # atno 17321 bound_to 7965
  140.3183  144.3457  150.6016 LP  0  0  0  0  0  0  0  0  0  0  0  0  # atno 17342 bound_to 10162
  140.5743  143.2178  151.7543 LP  0  0  0  0  0  0  0  0  0  0  0  0  # atno 17343 bound_to 10162
  156.2031  130.3661  149.8763 LP  0  0  0  0  0  0  0  0  0  0  0  0  # atno 17370 bound_to 10713
  156.6662  130.8802  151.3555 LP  0  0  0  0  0  0  0  0  0  0  0  0  # atno 17371 bound_to 10713
  140.1863  134.8997  157.3008 LP  0  0  0  0  0  0  0  0  0  0  0  0  # atno 17394 bound_to 11000
  140.2339  134.3876  155.7510 LP  0  0  0  0  0  0  0  0  0  0  0  0  # atno 17395 bound_to 11000

$$$$
