AV-unprocessed.smi:2893|AV-procd|sdf|11122|dock1
  -GOLD-   2272015593D 1   1.00000     0.00000
 Structure written by MMmdl.
 37 39  0  0  0  0  0  0  0  0  1 V2000
  150.8445  134.3078  156.0893 C   0  0  0  0  0  0  0  0  0  0  0  0
  150.3829  135.2674  154.9847 C   0  0  0  0  0  0  0  0  0  0  0  0
  150.3448  136.6467  155.4557 N   0  0  0  0  0  0  0  0  0  0  0  0
  151.1235  137.6437  155.0012 C   0  0  0  0  0  0  0  0  0  0  0  0
  151.9858  137.4848  154.1360 O   0  0  0  0  0  0  0  0  0  0  0  0
  150.9130  138.9882  155.6445 C   0  0  0  0  0  0  0  0  0  0  0  0
  150.4284  139.0719  156.9679 C   0  0  0  0  0  0  0  0  0  0  0  0
  150.2665  140.3503  157.5285 C   0  0  0  0  0  0  0  0  0  0  0  0
  150.6025  141.4619  156.7330 C   0  0  0  0  0  0  0  0  0  0  0  0
  150.4549  142.7483  157.2710 N   0  0  0  0  0  0  0  0  0  0  0  0
  150.8292  143.0452  158.6497 C   0  0  2  0  0  0  0  0  0  0  0  0
  150.3088  144.4102  159.1108 C   0  0  0  0  0  0  0  0  0  0  0  0
  151.5944  145.0964  159.5896 C   0  0  1  0  0  0  0  0  0  0  0  0
  152.1610  144.4523  160.8627 C   0  0  0  0  0  0  0  0  0  0  0  0
  152.7262  143.1383  160.3237 C   0  0  0  0  0  0  0  0  0  0  0  0
  152.3490  143.2186  158.8385 C   0  0  2  0  0  0  0  0  0  0  0  0
  152.5071  144.6117  158.6216 O   0  0  0  0  0  0  0  0  0  0  0  0
  151.0697  141.3189  155.4682 N   0  0  0  0  0  0  0  0  0  0  0  0
  151.2232  140.1026  154.9343 N   0  0  0  0  0  0  0  0  0  0  0  0
  150.8974  133.2848  155.7166 H   0  0  0  0  0  0  0  0  0  0  0  0
  150.1568  134.3159  156.9356 H   0  0  0  0  0  0  0  0  0  0  0  0
  151.8342  134.5790  156.4585 H   0  0  0  0  0  0  0  0  0  0  0  0
  151.0714  135.2147  154.1412 H   0  0  0  0  0  0  0  0  0  0  0  0
  149.4042  134.9684  154.6061 H   0  0  0  0  0  0  0  0  0  0  0  0
  149.6724  136.8671  156.1764 H   0  0  0  0  0  0  0  0  0  0  0  0
  150.1859  138.1889  157.5413 H   0  0  0  0  0  0  0  0  0  0  0  0
  149.8983  140.4699  158.5369 H   0  0  0  0  0  0  0  0  0  0  0  0
  150.2039  143.5151  156.6640 H   0  0  0  0  0  0  0  0  0  0  0  0
  150.4477  142.2573  159.3005 H   0  0  0  0  0  0  0  0  0  0  0  0
  149.8689  144.9741  158.2865 H   0  0  0  0  0  0  0  0  0  0  0  0
  149.5612  144.3298  159.9005 H   0  0  0  0  0  0  0  0  0  0  0  0
  151.5241  146.1834  159.6356 H   0  0  0  0  0  0  0  0  0  0  0  0
  152.9570  145.0644  161.2883 H   0  0  0  0  0  0  0  0  0  0  0  0
  151.3963  144.3047  161.6259 H   0  0  0  0  0  0  0  0  0  0  0  0
  153.8095  143.1097  160.4456 H   0  0  0  0  0  0  0  0  0  0  0  0
  152.3041  142.2609  160.8147 H   0  0  0  0  0  0  0  0  0  0  0  0
  152.9668  142.5877  158.1987 H   0  0  0  0  0  0  0  0  0  0  0  0
  1  2  1  0  0  0  0
  1 20  1  0  0  0  0
  1 21  1  0  0  0  0
  1 22  1  0  0  0  0
  2  3  1  0  0  0  0
  2 23  1  0  0  0  0
  2 24  1  0  0  0  0
  3  4  1  0  0  0  0
  3 25  1  0  0  0  0
  4  5  2  0  0  0  0
  4  6  1  0  0  0  0
  6 19  1  0  0  0  0
  6  7  2  0  0  0  0
  7  8  1  0  0  0  0
  7 26  1  0  0  0  0
  8  9  2  0  0  0  0
  8 27  1  0  0  0  0
  9 10  1  0  0  0  0
  9 18  1  0  0  0  0
 10 11  1  0  0  0  0
 10 28  1  0  0  0  0
 11 16  1  0  0  0  0
 11 12  1  0  0  0  0
 11 29  1  0  0  0  0
 12 13  1  0  0  0  0
 12 30  1  0  0  0  0
 12 31  1  0  0  0  0
 13 17  1  0  0  0  0
 13 14  1  0  0  0  0
 13 32  1  0  0  0  0
 14 15  1  0  0  0  0
 14 33  1  0  0  0  0
 14 34  1  0  0  0  0
 15 16  1  0  0  0  0
 15 35  1  0  0  0  0
 15 36  1  0  0  0  0
 16 17  1  0  0  0  0
 16 37  1  0  0  0  0
 18 19  2  0  0  0  0
M  END
> <s_m_source_file>
AV-unprocessed.smi

> <i_m_source_file_index>
2893

> <i_lp_mmshare_version>
43012

> <i_f3d_flags>
0

> <s_epik_input>
W0NIM11bQ0gyXVtOSF1DKD1PKWMxW2NIXVtjSF1jKG5uMSlbTkhdW0NASF0oW0NIMl1bQ0BASF0yMylbQ0BASF0oTzMpW0NIMl1bQ0gyXTI=

> <s_epik_cmdline>
J2VwaWtfcHl0aG9uJywgJy1waCcsICc3LjAnLCAnLXRuJywgJzgnLCAnLW1hJywgJzIwMCcsICctbWV0YWxfYmluZGluZycsICctaW1hZScsICc8aW5maWxlLm1hZT4nLCAnLW9tYWUnLCAnPG91dGZpbGUubWFlPic=

> <r_lp_tautomer_probability>
1

> <r_epik_Ionization_Penalty>
0.00432031

> <r_epik_Ionization_Penalty_Charging>
0

> <r_epik_Ionization_Penalty_Neutral>
0.00432031

> <r_epik_State_Penalty>
-0

> <r_epik_Charging_Adjusted_Penalty>
0

> <i_epik_Tot_Q>
0

> <i_epik_Tot_abs_Q>
0

> <r_epik_Metal_State_Penalty>
-0

> <b_epik_Metal_Only>
0

> <s_lp_Force_Field>
OPLS_2005

> <r_lp_Energy>
51.3486

> <b_lp_Chiralities_Consistent>
1

> <s_lp_Variant>
AV-unprocessed.smi:2893-1

> <Gold.Version>
5.8.1

> <Gold.Id.Protein>
6NUR|6NUR_protein|mol2

> <Gold.PLP.Fitness>
41.5666

> <Gold.PLP.PLP>
-36.4248

> <Gold.PLP.part.hbond>
-4.0000

> <Gold.PLP.part.metal>
0.0000

> <Gold.PLP.part.buried>
-6.7480

> <Gold.PLP.part.nonpolar>
-26.8553

> <Gold.PLP.part.repulsive>
0.3831

> <Gold.PLP.ligand.clash>
0.0000

> <Gold.PLP.ligand.torsion>
0.8515

> <Gold.PLP.Chemscore.Hbond>
2.2656

> <Gold.PLP.Chemscore.CHOScore>
0.0000

> <Gold.PLP.Chemscore.Metal>
0.0000

> <Gold.Chemscore.Hbonds>
donor molecule, donor type, donor heavy atom, donor atom, acceptor molecule, acceptor atom, score
      L1  H    10    28       P1  8028  0.98
      P1  H  7989  7998       L1    19  0.35
      P1  H 10752 10763       L1     5  0.89

> <Gold.PLP.Chemscore.Internal.Correction>
0.0479

> <Gold.Rescore>
     Score         DG    S(hbond)    S(metal)    S(lipo)     H(rot)  DE(clash)    DE(int)     intcor
     18.08     -19.08       1.90        0.00      88.36       1.21       0.13       0.88       ----

> <Gold.Chemscore.Fitness>
18.0770

> <Gold.Chemscore.DG>
-19.0838

> <Gold.Chemscore.ZeroCoef>
-5.4800

> <Gold.Chemscore.Hbond>
1.9023

> <Gold.Chemscore.Metal>
0.0000

> <Gold.Chemscore.Lipo>
88.3568

> <Gold.Chemscore.Internal_Hbond>
0.0000

> <Gold.Chemscore.DEClash>
0.1261

> <Gold.Chemscore.DEInternal>
0.8808

> <Gold.Chemscore.Rot>
1.2061

> <Gold.Chemscore.Internal.Correction>
   9.000000E+99

> <Gold.Chemscore.Hbonds>
donor molecule, donor type, donor heavy atom, donor atom, acceptor molecule, acceptor atom, score
      L1  H    10    28       P1  8028  0.89
      P1  H  7989  7998       L1    19  0.01
      P1  H 10752 10763       L1     5  0.77

> <Gold.Chemscore.Hbond.Weighted>
-6.3537

> <Gold.Chemscore.Metal.Weighted>
-0.0000

> <Gold.Chemscore.Lipo.Weighted>
-10.3377

> <Gold.Chemscore.Internal_Hbond.Weighted>
0.0000

> <Gold.Chemscore.DEClash.Weighted>
0.1261

> <Gold.Chemscore.DEInternal.Weighted>
0.8808

> <Gold.Chemscore.Rot.Weighted>
3.0876

> <Gold.Chemscore.Internal.Correction.Weighted>
   9.000000E+99

> <Gold.Protein.RotatedTorsions>
[ 6907 6896 6895 6894 ] final  131.98 input  -60.11 | X-H torsion
[ 7974 7965 7964 7962 ] final -169.91 input  175.53 | X-H torsion
[ 8008 7997 7996 7995 ] final -127.07 input   59.86 | X-H torsion
[ 10167 10162 10161 10158 ] final   37.62 input  -65.29 | X-H torsion
[ 10718 10713 10712 10709 ] final  162.76 input   66.30 | X-H torsion
[ 10763 10752 10751 10750 ] final   32.41 input  -60.55 | X-H torsion
[ 11005 11000 10999 10996 ] final  -97.82 input  -57.11 | X-H torsion

> <Gold.Protein.ActiveResidues>
 VAL166  LYS551  ARG553  GLY616  TRP617  ASP618  TYR619  PRO620  LYS621  CYS622 
 ASP623  PHE694  ASN695  SER759  ASP760  ASP761  ALA762  ILE779  LEU786  VAL792 
 PHE793  MET794  SER795  GLU796  ALA797  LYS798  CYS799  TRP800  GLU811  SER814 

> <Gold.Protein.RotatedAtoms>
  152.3370  133.6023  159.5849 H   0  0  0  0  0  0  0  0  0  0  0  0  # atno 6907 bound_to 6896
  150.7456  133.9780  159.3576 H   0  0  0  0  0  0  0  0  0  0  0  0  # atno 6908 bound_to 6896
  151.7649  135.0802  160.0402 H   0  0  0  0  0  0  0  0  0  0  0  0  # atno 6909 bound_to 6896
  144.7178  140.2151  143.6323 H   0  0  0  0  0  0  0  0  0  0  0  0  # atno 7974 bound_to 7965
  155.2402  140.0428  157.2974 H   0  0  0  0  0  0  0  0  0  0  0  0  # atno 8008 bound_to 7997
  154.5833  140.2406  155.7993 H   0  0  0  0  0  0  0  0  0  0  0  0  # atno 8009 bound_to 7997
  156.2208  140.2970  155.9957 H   0  0  0  0  0  0  0  0  0  0  0  0  # atno 8010 bound_to 7997
  140.4015  144.1718  150.6134 H   0  0  0  0  0  0  0  0  0  0  0  0  # atno 10167 bound_to 10162
  157.1180  131.0485  151.2428 H   0  0  0  0  0  0  0  0  0  0  0  0  # atno 10718 bound_to 10713
  153.0264  135.6414  154.1351 H   0  0  0  0  0  0  0  0  0  0  0  0  # atno 10763 bound_to 10752
  154.1080  135.2855  155.3238 H   0  0  0  0  0  0  0  0  0  0  0  0  # atno 10764 bound_to 10752
  154.6352  135.5479  153.7788 H   0  0  0  0  0  0  0  0  0  0  0  0  # atno 10765 bound_to 10752
  141.1366  133.8199  157.0757 H   0  0  0  0  0  0  0  0  0  0  0  0  # atno 11005 bound_to 11000
  145.8554  139.2196  143.1747 LP  0  0  0  0  0  0  0  0  0  0  0  0  # atno 17320 bound_to 7965
  146.0222  140.8337  142.9917 LP  0  0  0  0  0  0  0  0  0  0  0  0  # atno 17321 bound_to 7965
  140.4735  143.2404  151.9055 LP  0  0  0  0  0  0  0  0  0  0  0  0  # atno 17342 bound_to 10162
  139.4784  144.5345  151.8619 LP  0  0  0  0  0  0  0  0  0  0  0  0  # atno 17343 bound_to 10162
  157.4501  130.7593  149.7144 LP  0  0  0  0  0  0  0  0  0  0  0  0  # atno 17370 bound_to 10713
  155.9835  130.4000  150.3361 LP  0  0  0  0  0  0  0  0  0  0  0  0  # atno 17371 bound_to 10713
  140.0483  134.9819  157.1089 LP  0  0  0  0  0  0  0  0  0  0  0  0  # atno 17394 bound_to 11000
  140.4029  134.2063  155.7163 LP  0  0  0  0  0  0  0  0  0  0  0  0  # atno 17395 bound_to 11000

$$$$
