AV-unprocessed.smi:2061|AV-procd|sdf|8382|dock10
  -GOLD-   2272011 63D 1   1.00000     0.00000
 Structure written by MMmdl.
 45 46  0  0  0  0  0  0  0  0  3 V2000
  149.7720  132.8624  156.4650 C   0  0  0  0  0  0  0  0  0  0  0  0
  150.4479  134.1568  156.1669 C   0  0  0  0  0  0  0  0  0  0  0  0
  150.6258  134.8664  155.0133 C   0  0  0  0  0  0  0  0  0  0  0  0
  151.3480  136.0123  155.4451 C   0  0  0  0  0  0  0  0  0  0  0  0
  151.7752  137.0158  154.6634 N   0  5  0  0  0  0  0  0  0  0  0  0
  152.4721  138.0453  155.1958 C   0  0  0  0  0  0  0  0  0  0  0  0
  153.6943  138.2044  155.1524 O   0  0  0  0  0  0  0  0  0  0  0  0
  151.7042  138.9456  155.8254 N   0  0  0  0  0  0  0  0  0  0  0  0
  152.1835  140.1426  156.5095 C   0  0  0  0  0  0  0  0  0  0  0  0
  151.0418  140.9726  157.1540 C   0  0  2  0  0  0  0  0  0  0  0  0
  150.1084  141.5386  156.0559 C   0  0  0  0  0  0  0  0  0  0  0  0
  151.6189  142.0231  158.0541 N   0  3  1  0  0  0  0  0  0  0  0  0
  150.6552  143.0225  158.5913 C   0  0  0  0  0  0  0  0  0  0  0  0
  151.3627  144.0886  159.4531 C   0  0  2  0  0  0  0  0  0  0  0  0
  152.1643  145.1112  158.6274 C   0  0  0  0  0  0  0  0  0  0  0  0
  152.1577  143.4722  160.4634 O   0  0  0  0  0  0  0  0  0  0  0  0
  153.1191  142.5439  159.9741 C   0  0  1  0  0  0  0  0  0  0  0  0
  153.8823  141.9793  161.1775 C   0  0  0  0  0  0  0  0  0  0  0  0
  152.3989  141.4420  159.1784 C   0  0  0  0  0  0  0  0  0  0  0  0
  151.6017  135.9911  156.7428 N   0  0  0  0  0  0  0  0  0  0  0  0
  151.0216  134.8075  157.2146 O   0  0  0  0  0  0  0  0  0  0  0  0
  150.0658  132.0989  155.7447 H   0  0  0  0  0  0  0  0  0  0  0  0
  148.6889  132.9742  156.4173 H   0  0  0  0  0  0  0  0  0  0  0  0
  150.0313  132.5037  157.4612 H   0  0  0  0  0  0  0  0  0  0  0  0
  150.2902  134.6099  154.0197 H   0  0  0  0  0  0  0  0  0  0  0  0
  150.7083  138.7798  155.8326 H   0  0  0  0  0  0  0  0  0  0  0  0
  152.9325  139.8369  157.2391 H   0  0  0  0  0  0  0  0  0  0  0  0
  152.7120  140.7532  155.7769 H   0  0  0  0  0  0  0  0  0  0  0  0
  150.4296  140.3144  157.7726 H   0  0  0  0  0  0  0  0  0  0  0  0
  149.7276  140.7511  155.4058 H   0  0  0  0  0  0  0  0  0  0  0  0
  150.6274  142.2596  155.4235 H   0  0  0  0  0  0  0  0  0  0  0  0
  149.2270  142.0219  156.4771 H   0  0  0  0  0  0  0  0  0  0  0  0
  150.1300  143.5401  157.7892 H   0  0  0  0  0  0  0  0  0  0  0  0
  149.9029  142.5047  159.1883 H   0  0  0  0  0  0  0  0  0  0  0  0
  150.5918  144.6503  159.9817 H   0  0  0  0  0  0  0  0  0  0  0  0
  151.5055  145.6786  157.9694 H   0  0  0  0  0  0  0  0  0  0  0  0
  152.9174  144.6370  157.9987 H   0  0  0  0  0  0  0  0  0  0  0  0
  152.6712  145.8243  159.2779 H   0  0  0  0  0  0  0  0  0  0  0  0
  153.8357  143.0538  159.3300 H   0  0  0  0  0  0  0  0  0  0  0  0
  154.6395  141.2614  160.8611 H   0  0  0  0  0  0  0  0  0  0  0  0
  153.2096  141.4729  161.8703 H   0  0  0  0  0  0  0  0  0  0  0  0
  154.3882  142.7741  161.7262 H   0  0  0  0  0  0  0  0  0  0  0  0
  151.7281  140.8835  159.8339 H   0  0  0  0  0  0  0  0  0  0  0  0
  153.1404  140.7323  158.8160 H   0  0  0  0  0  0  0  0  0  0  0  0
  152.2683  142.5472  157.4852 H   0  0  0  0  0  0  0  0  0  0  0  0
  1  2  1  0  0  0  0
  1 22  1  0  0  0  0
  1 23  1  0  0  0  0
  1 24  1  0  0  0  0
  2 21  1  0  0  0  0
  2  3  2  0  0  0  0
  3  4  1  0  0  0  0
  3 25  1  0  0  0  0
  4  5  1  0  0  0  0
  4 20  2  0  0  0  0
  5  6  1  0  0  0  0
  6  7  2  0  0  0  0
  6  8  1  0  0  0  0
  8  9  1  0  0  0  0
  8 26  1  0  0  0  0
  9 10  1  0  0  0  0
  9 27  1  0  0  0  0
  9 28  1  0  0  0  0
 10 11  1  0  0  0  0
 10 12  1  0  0  0  0
 10 29  1  0  0  0  0
 11 30  1  0  0  0  0
 11 31  1  0  0  0  0
 11 32  1  0  0  0  0
 12 19  1  0  0  0  0
 12 13  1  0  0  0  0
 12 45  1  0  0  0  0
 13 14  1  0  0  0  0
 13 33  1  0  0  0  0
 13 34  1  0  0  0  0
 14 15  1  0  0  0  0
 14 16  1  0  0  0  0
 14 35  1  0  0  0  0
 15 36  1  0  0  0  0
 15 37  1  0  0  0  0
 15 38  1  0  0  0  0
 16 17  1  0  0  0  0
 17 18  1  0  0  0  0
 17 19  1  0  0  0  0
 17 39  1  0  0  0  0
 18 40  1  0  0  0  0
 18 41  1  0  0  0  0
 18 42  1  0  0  0  0
 19 43  1  0  0  0  0
 19 44  1  0  0  0  0
 20 21  1  0  0  0  0
M  CHG  1   5  -1
M  CHG  1  12   1
M  END
> <s_m_source_file>
AV-unprocessed.smi

> <i_m_source_file_index>
2061

> <i_lp_mmshare_version>
43012

> <i_f3d_flags>
0

> <s_epik_input>
W0NIM11jMVtjSF1jKG5vMSlbTkhdQyg9TylbTkhdW0NIMl1bQ0BIXShbQ0gzXSlOMltDSDJdW0NAQEhdKFtDSDNdKU9bQ0BASF0oW0NIM10pW0NIMl0y

> <s_epik_cmdline>
J2VwaWtfcHl0aG9uJywgJy1waCcsICc3LjAnLCAnLXRuJywgJzgnLCAnLW1hJywgJzIwMCcsICctbWV0YWxfYmluZGluZycsICctaW1hZScsICc8aW5maWxlLm1hZT4nLCAnLW9tYWUnLCAnPG91dGZpbGUubWFlPic=

> <r_epik_Ionization_Penalty>
6.73511

> <r_epik_Ionization_Penalty_Charging>
6.73502

> <r_epik_Ionization_Penalty_Neutral>
9.50841e-05

> <r_epik_State_Penalty>
6.93549

> <r_epik_Charging_Adjusted_Penalty>
13.6705

> <i_epik_Tot_Q>
0

> <i_epik_Tot_abs_Q>
2

> <r_epik_Metal_State_Penalty>
2.87211

> <b_epik_Metal_Only>
1

> <s_lp_Force_Field>
OPLS_2005

> <r_lp_Energy>
12.0901

> <b_lp_Chiralities_Consistent>
1

> <s_lp_Variant>
AV-unprocessed.smi:2061-23

> <Gold.Version>
5.8.1

> <Gold.Id.Protein>
6NUR|6NUR_protein|mol2

> <Gold.PLP.Fitness>
43.9848

> <Gold.PLP.PLP>
-37.3641

> <Gold.PLP.part.hbond>
-3.1762

> <Gold.PLP.part.metal>
0.0000

> <Gold.PLP.part.buried>
-5.5657

> <Gold.PLP.part.nonpolar>
-28.8450

> <Gold.PLP.part.repulsive>
0.3431

> <Gold.PLP.ligand.clash>
0.0000

> <Gold.PLP.ligand.torsion>
0.8248

> <Gold.PLP.Chemscore.Hbond>
2.7360

> <Gold.PLP.Chemscore.CHOScore>
0.0000

> <Gold.PLP.Chemscore.Metal>
0.0000

> <Gold.Chemscore.Hbonds>
donor molecule, donor type, donor heavy atom, donor atom, acceptor molecule, acceptor atom, score
      P1  H  6896  6908       L1    21  0.13

> <Gold.PLP.Chemscore.Internal.Correction>
0.0624

> <Gold.Rescore>
     Score         DG    S(hbond)    S(metal)    S(lipo)     H(rot)  DE(clash)    DE(int)     intcor
     14.96     -15.86       1.05        0.00      92.84       1.56       0.06       0.84       ----

> <Gold.Chemscore.Fitness>
14.9623

> <Gold.Chemscore.DG>
-15.8587

> <Gold.Chemscore.ZeroCoef>
-5.4800

> <Gold.Chemscore.Hbond>
1.0472

> <Gold.Chemscore.Metal>
0.0000

> <Gold.Chemscore.Lipo>
92.8379

> <Gold.Chemscore.Internal_Hbond>
0.0000

> <Gold.Chemscore.DEClash>
0.0580

> <Gold.Chemscore.DEInternal>
0.8383

> <Gold.Chemscore.Rot>
1.5550

> <Gold.Chemscore.Internal.Correction>
   9.000000E+99

> <Gold.Chemscore.Hbonds>
donor molecule, donor type, donor heavy atom, donor atom, acceptor molecule, acceptor atom, score
      P1  H  6896  6908       L1    21  0.14

> <Gold.Chemscore.Hbond.Weighted>
-3.4975

> <Gold.Chemscore.Metal.Weighted>
-0.0000

> <Gold.Chemscore.Lipo.Weighted>
-10.8620

> <Gold.Chemscore.Internal_Hbond.Weighted>
0.0000

> <Gold.Chemscore.DEClash.Weighted>
0.0580

> <Gold.Chemscore.DEInternal.Weighted>
0.8383

> <Gold.Chemscore.Rot.Weighted>
3.9809

> <Gold.Chemscore.Internal.Correction.Weighted>
   9.000000E+99

> <Gold.Protein.RotatedTorsions>
[ 6907 6896 6895 6894 ] final  141.43 input  -60.11 | X-H torsion
[ 7974 7965 7964 7962 ] final  -40.22 input  175.53 | X-H torsion
[ 8008 7997 7996 7995 ] final  -75.69 input   59.86 | X-H torsion
[ 10167 10162 10161 10158 ] final   27.34 input  -65.29 | X-H torsion
[ 10718 10713 10712 10709 ] final  113.81 input   66.30 | X-H torsion
[ 10763 10752 10751 10750 ] final  -73.59 input  -60.55 | X-H torsion
[ 11005 11000 10999 10996 ] final -116.29 input  -57.11 | X-H torsion

> <Gold.Protein.ActiveResidues>
 VAL166  LYS551  ARG553  GLY616  TRP617  ASP618  TYR619  PRO620  LYS621  CYS622 
 ASP623  PHE694  ASN695  SER759  ASP760  ASP761  ALA762  ILE779  LEU786  VAL792 
 PHE793  MET794  SER795  GLU796  ALA797  LYS798  CYS799  TRP800  GLU811  SER814 

> <Gold.Protein.RotatedAtoms>
  152.2310  133.5058  159.5215 H   0  0  0  0  0  0  0  0  0  0  0  0  # atno 6907 bound_to 6896
  150.7037  134.1216  159.4046 H   0  0  0  0  0  0  0  0  0  0  0  0  # atno 6908 bound_to 6896
  151.9137  135.0328  160.0567 H   0  0  0  0  0  0  0  0  0  0  0  0  # atno 6909 bound_to 6896
  146.0324  140.6714  142.9126 H   0  0  0  0  0  0  0  0  0  0  0  0  # atno 7974 bound_to 7965
  154.5439  140.0739  156.8556 H   0  0  0  0  0  0  0  0  0  0  0  0  # atno 8008 bound_to 7997
  155.3126  140.3391  155.4225 H   0  0  0  0  0  0  0  0  0  0  0  0  # atno 8009 bound_to 7997
  156.1900  140.1683  156.8097 H   0  0  0  0  0  0  0  0  0  0  0  0  # atno 8010 bound_to 7997
  140.4947  144.0411  150.6310 H   0  0  0  0  0  0  0  0  0  0  0  0  # atno 10167 bound_to 10162
  157.6317  131.0989  150.7094 H   0  0  0  0  0  0  0  0  0  0  0  0  # atno 10718 bound_to 10713
  154.4615  135.5892  153.6259 H   0  0  0  0  0  0  0  0  0  0  0  0  # atno 10763 bound_to 10752
  152.9824  135.6045  154.3480 H   0  0  0  0  0  0  0  0  0  0  0  0  # atno 10764 bound_to 10752
  154.3352  135.2842  155.2430 H   0  0  0  0  0  0  0  0  0  0  0  0  # atno 10765 bound_to 10752
  141.0432  133.9804  157.2961 H   0  0  0  0  0  0  0  0  0  0  0  0  # atno 11005 bound_to 11000
  144.7036  140.3760  143.7136 LP  0  0  0  0  0  0  0  0  0  0  0  0  # atno 17320 bound_to 7965
  145.7018  139.1663  143.2588 LP  0  0  0  0  0  0  0  0  0  0  0  0  # atno 17321 bound_to 7965
  140.3690  143.2865  152.0299 LP  0  0  0  0  0  0  0  0  0  0  0  0  # atno 17342 bound_to 10162
  139.4858  144.6244  151.7193 LP  0  0  0  0  0  0  0  0  0  0  0  0  # atno 17343 bound_to 10162
  156.7433  130.4746  149.5473 LP  0  0  0  0  0  0  0  0  0  0  0  0  # atno 17370 bound_to 10713
  156.1526  130.6320  151.0615 LP  0  0  0  0  0  0  0  0  0  0  0  0  # atno 17371 bound_to 10713
  139.9291  135.0200  156.8339 LP  0  0  0  0  0  0  0  0  0  0  0  0  # atno 17394 bound_to 11000
  140.6196  134.0006  155.7612 LP  0  0  0  0  0  0  0  0  0  0  0  0  # atno 17395 bound_to 11000

$$$$
