#       Name:                AV-unprocessed.smi:2008
#       Creating user name   scv26
#       Creation time:       Fri Mar 27 10:37:55 2020


#       File generated by GOLD software.
#

@<TRIPOS>MOLECULE
AV-unprocessed.smi:2008
    51    52     1
SMALL
NO_CHARGES


@<TRIPOS>ATOM
      1 ****        -8.0932   3.1985   1.1935 C.3            1 S1                 0.0000
      2 ****        -6.8604   3.6185   0.6191 O.3            1 S1                 0.0000
      3 ****        -5.7634   2.7912   0.7452 C.ar           1 S1                 0.0000
      4 ****        -4.5463   3.1912   0.1592 C.ar           1 S1                 0.0000
      5 ****        -3.4225   2.3516   0.2804 C.ar           1 S1                 0.0000
      6 ****        -3.5496   1.1362   0.9950 C.ar           1 S1                 0.0000
      7 ****        -2.5018   0.1923   1.1764 N.am           1 S1                 0.0000
      8 ****        -1.1776   0.3603   1.0187 C.2            1 S1                 0.0000
      9 ****        -0.6212   1.4130   0.7078 O.2            1 S1                 0.0000
     10 ****        -0.5114  -0.7787   1.2561 N.am           1 S1                 0.0000
     11 ****         0.9369  -0.9259   1.1669 C.3            1 S1                 0.0000
     12 ****         1.4003  -1.0448  -0.2989 C.3            1 S1                 0.0000
     13 ****         2.8783  -1.1990  -0.4129 N.4            1 S1                 1.0000
     14 ****         3.5589   0.1183  -0.2482 C.3            1 S1                 0.0000
     15 ****         5.0865  -0.0163  -0.2278 C.3            1 S1                 0.0000
     16 ****         5.5756  -0.6854  -1.5114 C.3            1 S1                 0.0000
     17 ****         4.8796  -2.0389  -1.6697 C.3            1 S1                 0.0000
     18 ****         3.3385  -1.9159  -1.6480 C.3            1 S1                 0.0000
     19 ****         2.7432  -3.3341  -1.7839 C.3            1 S1                 0.0000
     20 ****        -4.8145   0.8247   1.5356 C.ar           1 S1                 0.0000
     21 ****        -5.8959   1.6240   1.4220 N.ar           1 S1                 0.0000
     22 ****        -8.8534   3.9574   1.0096 H              1 S1                 0.0000
     23 ****        -8.0086   3.0702   2.2735 H              1 S1                 0.0000
     24 ****        -8.4426   2.2659   0.7482 H              1 S1                 0.0000
     25 ****        -4.4769   4.1247  -0.3796 H              1 S1                 0.0000
     26 ****        -2.4987   2.6536  -0.1870 H              1 S1                 0.0000
     27 ****        -2.7964  -0.7165   1.5027 H              1 S1                 0.0000
     28 ****        -1.0417  -1.5980   1.5154 H              1 S1                 0.0000
     29 ****         1.4112  -0.0887   1.6789 H              1 S1                 0.0000
     30 ****         1.2201  -1.8236   1.7172 H              1 S1                 0.0000
     31 ****         0.8722  -1.8955  -0.7201 H              1 S1                 0.0000
     32 ****         1.0796  -0.1819  -0.8847 H              1 S1                 0.0000
     33 ****         3.2605   0.7843  -1.0598 H              1 S1                 0.0000
     34 ****         3.2445   0.5992   0.6770 H              1 S1                 0.0000
     35 ****         5.5463   0.9668  -0.1227 H              1 S1                 0.0000
     36 ****         5.3969  -0.5997   0.6402 H              1 S1                 0.0000
     37 ****         5.3587  -0.0504  -2.3714 H              1 S1                 0.0000
     38 ****         6.6576  -0.8172  -1.4815 H              1 S1                 0.0000
     39 ****         5.2055  -2.5010  -2.6025 H              1 S1                 0.0000
     40 ****         5.2061  -2.7050  -0.8694 H              1 S1                 0.0000
     41 ****         3.0293  -1.3285  -2.5142 H              1 S1                 0.0000
     42 ****         3.2380  -3.8870  -2.5830 H              1 S1                 0.0000
     43 ****         1.6854  -3.3277  -2.0418 H              1 S1                 0.0000
     44 ****         2.8684  -3.9084  -0.8655 H              1 S1                 0.0000
     45 ****        -4.9658  -0.0961   2.0800 H              1 S1                 0.0000
     46 ****         3.1659  -1.7776   0.3634 H              1 S1                 0.0000
     47 ****        -6.6210   4.4936   1.0397 LP             1 S1                 0.0000
     48 ****        -7.0199   3.7514  -0.3591 LP             1 S1                 0.0000
     49 ****        -1.1642   2.2378   0.5499 LP             1 S1                 0.0000
     50 ****         0.3738   1.4436   0.6132 LP             1 S1                 0.0000
     51 ****        -6.7722   1.3622   1.8266 LP             1 S1                 0.0000
@<TRIPOS>BOND
    1    1    2 1     
    2    1   22 1     
    3    1   23 1     
    4    1   24 1     
    5    2    3 1     
    6    3   21 ar    
    7    3    4 ar    
    8    4    5 ar    
    9    4   25 1     
   10    5    6 ar    
   11    5   26 1     
   12    6    7 1     
   13    6   20 ar    
   14    7    8 am    
   15    7   27 1     
   16    8    9 2     
   17    8   10 am    
   18   10   11 1     
   19   10   28 1     
   20   11   12 1     
   21   11   29 1     
   22   11   30 1     
   23   12   13 1     
   24   12   31 1     
   25   12   32 1     
   26   13   18 1     
   27   13   14 1     
   28   13   46 1     
   29   14   15 1     
   30   14   33 1     
   31   14   34 1     
   32   15   16 1     
   33   15   35 1     
   34   15   36 1     
   35   16   17 1     
   36   16   37 1     
   37   16   38 1     
   38   17   18 1     
   39   17   39 1     
   40   17   40 1     
   41   18   19 1     
   42   18   41 1     
   43   19   42 1     
   44   19   43 1     
   45   19   44 1     
   46   20   21 ar    
   47   20   45 1     
   48    2   47 1     
   49    2   48 1     
   50    9   49 1     
   51    9   50 1     
   52   21   51 1     
@<TRIPOS>SUBSTRUCTURE
      1 S1             1
@<TRIPOS>SET
LONE_PAIRS      STATIC     ATOMS    <user>   **** ""
5 47 48 49 50 51
DONOR_HYDROGENS      STATIC     ATOMS    <user>   **** ""
3 27 28 46
ATOM$BLUE        STATIC     ATOMS    COLORGROUP SYSTEM
5 47 48 49 50 51
ATOM$RED        STATIC     ATOMS    COLORGROUP SYSTEM
3 27 28 46
