#       Name:                AV-unprocessed.smi:1762
#       Creating user name   scv26
#       Creation time:       Fri Mar 27 08:34:22 2020


#       File generated by GOLD software.
#

@<TRIPOS>MOLECULE
AV-unprocessed.smi:1762
    58    59     1
SMALL
NO_CHARGES


@<TRIPOS>ATOM
      1 ****        -4.9892  -2.1645  -2.6029 C.3            1 S1                 0.0000
      2 ****        -3.4811  -1.9677  -2.4125 C.3            1 S1                 0.0000
      3 ****        -3.1480  -1.3113  -1.0587 C.3            1 S1                 0.0000
      4 ****        -1.6855  -1.0597  -0.9268 N.4            1 S1                 1.0000
      5 ****        -1.2558  -0.4617   0.3844 C.3            1 S1                 0.0000
      6 ****         0.2834  -0.4339   0.5035 C.2            1 S1                 0.0000
      7 ****         0.9488  -1.4140   0.1664 O.2            1 S1                 0.0000
      8 ****         0.8318   0.6931   0.9810 N.am           1 S1                 0.0000
      9 ****         2.2622   0.8998   1.1592 C.3            1 S1                 0.0000
     10 ****         2.5571   2.3637   1.5140 C.3            1 S1                 0.0000
     11 ****         4.0397   2.6193   1.7089 C.ar           1 S1                 0.0000
     12 ****         4.5914   2.7111   3.0047 C.ar           1 S1                 0.0000
     13 ****         5.9751   2.9427   3.1294 C.ar           1 S1                 0.0000
     14 ****         6.7493   3.0717   1.9603 C.ar           1 S1                 0.0000
     15 ****         6.1029   2.9632   0.7127 C.ar           1 S1                 0.0000
     16 ****         4.7770   2.7416   0.5819 N.ar           1 S1                 0.0000
     17 ****        -1.8945  -1.1410   1.6434 C.3            1 S1                 0.0000
     18 ****        -1.5508  -0.4203   2.9621 C.3            1 S1                 0.0000
     19 ****        -1.5881  -2.6483   1.7690 C.3            1 S1                 0.0000
     20 ****        -1.2239  -0.2706  -2.1055 C.3            1 S1                 0.0000
     21 ****        -1.6001  -0.9685  -3.4247 C.3            1 S1                 0.0000
     22 ****        -1.1855  -0.1491  -4.6519 C.3            1 S1                 0.0000
     23 ****        -3.0096  -1.1401  -3.4666 O.3            1 S1                 0.0000
     24 ****        -5.4042  -2.8035  -1.8231 H              1 S1                 0.0000
     25 ****        -5.2029  -2.6328  -3.5641 H              1 S1                 0.0000
     26 ****        -5.5186  -1.2117  -2.5723 H              1 S1                 0.0000
     27 ****        -2.9953  -2.9433  -2.4763 H              1 S1                 0.0000
     28 ****        -3.6899  -0.3706  -0.9479 H              1 S1                 0.0000
     29 ****        -3.5053  -1.9844  -0.2821 H              1 S1                 0.0000
     30 ****        -1.6041   0.5731   0.3732 H              1 S1                 0.0000
     31 ****         0.2210   1.4548   1.2392 H              1 S1                 0.0000
     32 ****         2.6234   0.2405   1.9500 H              1 S1                 0.0000
     33 ****         2.7891   0.6253   0.2436 H              1 S1                 0.0000
     34 ****         2.1871   3.0215   0.7260 H              1 S1                 0.0000
     35 ****         2.0225   2.6426   2.4231 H              1 S1                 0.0000
     36 ****         3.9720   2.6061   3.8834 H              1 S1                 0.0000
     37 ****         6.4341   3.0190   4.1041 H              1 S1                 0.0000
     38 ****         7.8130   3.2492   2.0178 H              1 S1                 0.0000
     39 ****         6.6660   3.0559  -0.2043 H              1 S1                 0.0000
     40 ****        -2.9755  -1.0341   1.5664 H              1 S1                 0.0000
     41 ****        -0.4999  -0.5319   3.2304 H              1 S1                 0.0000
     42 ****        -2.1374  -0.8229   3.7883 H              1 S1                 0.0000
     43 ****        -1.7694   0.6459   2.8975 H              1 S1                 0.0000
     44 ****        -0.5336  -2.8303   1.9761 H              1 S1                 0.0000
     45 ****        -1.8449  -3.1961   0.8628 H              1 S1                 0.0000
     46 ****        -2.1576  -3.0919   2.5863 H              1 S1                 0.0000
     47 ****        -1.6684   0.7255  -2.0695 H              1 S1                 0.0000
     48 ****        -0.1431  -0.1314  -2.0920 H              1 S1                 0.0000
     49 ****        -1.1124  -1.9437  -3.4787 H              1 S1                 0.0000
     50 ****        -0.1065   0.0060  -4.6756 H              1 S1                 0.0000
     51 ****        -1.6650   0.8303  -4.6539 H              1 S1                 0.0000
     52 ****        -1.4672  -0.6591  -5.5735 H              1 S1                 0.0000
     53 ****        -1.2332  -1.9615  -0.9841 H              1 S1                 0.0000
     54 ****         0.4923  -2.2311  -0.1858 LP             1 S1                 0.0000
     55 ****         1.9455  -1.3927   0.2448 LP             1 S1                 0.0000
     56 ****         4.3533   2.6701  -0.3211 LP             1 S1                 0.0000
     57 ****        -3.4456  -0.2433  -3.3916 LP             1 S1                 0.0000
     58 ****        -3.2572  -1.5590  -4.3403 LP             1 S1                 0.0000
@<TRIPOS>BOND
    1    1    2 1     
    2    1   24 1     
    3    1   25 1     
    4    1   26 1     
    5    2   23 1     
    6    2    3 1     
    7    2   27 1     
    8    3    4 1     
    9    3   28 1     
   10    3   29 1     
   11    4    5 1     
   12    4   20 1     
   13    4   53 1     
   14    5    6 1     
   15    5   17 1     
   16    5   30 1     
   17    6    7 2     
   18    6    8 am    
   19    8    9 1     
   20    8   31 1     
   21    9   10 1     
   22    9   32 1     
   23    9   33 1     
   24   10   11 1     
   25   10   34 1     
   26   10   35 1     
   27   11   16 ar    
   28   11   12 ar    
   29   12   13 ar    
   30   12   36 1     
   31   13   14 ar    
   32   13   37 1     
   33   14   15 ar    
   34   14   38 1     
   35   15   16 ar    
   36   15   39 1     
   37   17   18 1     
   38   17   19 1     
   39   17   40 1     
   40   18   41 1     
   41   18   42 1     
   42   18   43 1     
   43   19   44 1     
   44   19   45 1     
   45   19   46 1     
   46   20   21 1     
   47   20   47 1     
   48   20   48 1     
   49   21   22 1     
   50   21   23 1     
   51   21   49 1     
   52   22   50 1     
   53   22   51 1     
   54   22   52 1     
   55    7   54 1     
   56    7   55 1     
   57   16   56 1     
   58   23   57 1     
   59   23   58 1     
@<TRIPOS>SUBSTRUCTURE
      1 S1             1
@<TRIPOS>SET
LONE_PAIRS      STATIC     ATOMS    <user>   **** ""
5 54 55 56 57 58
DONOR_HYDROGENS      STATIC     ATOMS    <user>   **** ""
2 53 31
ATOM$BLUE        STATIC     ATOMS    COLORGROUP SYSTEM
5 54 55 56 57 58
ATOM$RED        STATIC     ATOMS    COLORGROUP SYSTEM
2 53 31
