AV-unprocessed.smi:610|AV-procd|sdf|3059|dock7
  -GOLD-   2262023583D 1   1.00000     0.00000
 Structure written by MMmdl.
 37 38  0  0  0  0  0  0  0  0  1 V2000
  151.0489  140.7715  156.1952 C   0  0  0  0  0  0  0  0  0  0  0  0
  150.1880  142.0362  156.3344 C   0  0  2  0  0  0  0  0  0  0  0  0
  150.0028  142.4359  157.8104 C   0  0  0  0  0  0  0  0  0  0  0  0
  151.1150  143.2234  158.3098 N   0  0  0  0  0  0  0  0  0  0  0  0
  151.5260  144.4731  157.8643 C   0  0  0  0  0  0  0  0  0  0  0  0
  152.6190  144.8214  158.6255 C   0  0  0  0  0  0  0  0  0  0  0  0
  152.8954  143.8081  159.5403 N   0  0  0  0  0  0  0  0  0  0  0  0
  151.9634  142.8964  159.2942 C   0  0  0  0  0  0  0  0  0  0  0  0
  148.8846  141.8204  155.7105 N   0  0  0  0  0  0  0  0  0  0  0  0
  148.6719  141.3297  154.4772 C   0  0  0  0  0  0  0  0  0  0  0  0
  149.5952  140.9745  153.7432 O   0  0  0  0  0  0  0  0  0  0  0  0
  147.2072  141.2093  153.9828 C   0  0  0  0  0  0  0  0  0  0  0  0
  147.1156  140.4958  152.7146 N   0  0  0  0  0  0  0  0  0  0  0  0
  146.3092  140.4894  155.0265 C   0  0  0  0  0  0  0  0  0  0  0  0
  145.2216  141.4853  155.4484 C   0  0  0  0  0  0  0  0  0  0  0  0
  145.7762  142.8605  155.0929 C   0  0  0  0  0  0  0  0  0  0  0  0
  146.5754  142.6111  153.8148 C   0  0  0  0  0  0  0  0  0  0  0  0
  152.0325  140.9171  156.6420 H   0  0  0  0  0  0  0  0  0  0  0  0
  151.2010  140.5102  155.1474 H   0  0  0  0  0  0  0  0  0  0  0  0
  150.5827  139.9174  156.6876 H   0  0  0  0  0  0  0  0  0  0  0  0
  150.7031  142.8537  155.8261 H   0  0  0  0  0  0  0  0  0  0  0  0
  149.0808  143.0038  157.9448 H   0  0  0  0  0  0  0  0  0  0  0  0
  149.9149  141.5448  158.4335 H   0  0  0  0  0  0  0  0  0  0  0  0
  151.0229  144.9949  157.0635 H   0  0  0  0  0  0  0  0  0  0  0  0
  153.2229  145.7161  158.5852 H   0  0  0  0  0  0  0  0  0  0  0  0
  151.8981  141.9667  159.8405 H   0  0  0  0  0  0  0  0  0  0  0  0
  148.0715  142.0764  156.2522 H   0  0  0  0  0  0  0  0  0  0  0  0
  148.0289  140.4696  152.2842 H   0  0  0  0  0  0  0  0  0  0  0  0
  146.8612  139.5350  152.8933 H   0  0  0  0  0  0  0  0  0  0  0  0
  145.8557  139.5752  154.6399 H   0  0  0  0  0  0  0  0  0  0  0  0
  146.8784  140.1872  155.9072 H   0  0  0  0  0  0  0  0  0  0  0  0
  144.3154  141.3008  154.8702 H   0  0  0  0  0  0  0  0  0  0  0  0
  144.9626  141.3997  156.5042 H   0  0  0  0  0  0  0  0  0  0  0  0
  144.9940  143.6082  154.9603 H   0  0  0  0  0  0  0  0  0  0  0  0
  146.4397  143.2090  155.8855 H   0  0  0  0  0  0  0  0  0  0  0  0
  147.3105  143.3992  153.6430 H   0  0  0  0  0  0  0  0  0  0  0  0
  145.8918  142.6318  152.9640 H   0  0  0  0  0  0  0  0  0  0  0  0
  1  2  1  0  0  0  0
  1 18  1  0  0  0  0
  1 19  1  0  0  0  0
  1 20  1  0  0  0  0
  2  3  1  0  0  0  0
  2  9  1  0  0  0  0
  2 21  1  0  0  0  0
  3  4  1  0  0  0  0
  3 22  1  0  0  0  0
  3 23  1  0  0  0  0
  4  8  1  0  0  0  0
  4  5  1  0  0  0  0
  5  6  2  0  0  0  0
  5 24  1  0  0  0  0
  6  7  1  0  0  0  0
  6 25  1  0  0  0  0
  7  8  2  0  0  0  0
  8 26  1  0  0  0  0
  9 10  1  0  0  0  0
  9 27  1  0  0  0  0
 10 11  2  0  0  0  0
 10 12  1  0  0  0  0
 12 17  1  0  0  0  0
 12 13  1  0  0  0  0
 12 14  1  0  0  0  0
 13 28  1  0  0  0  0
 13 29  1  0  0  0  0
 14 15  1  0  0  0  0
 14 30  1  0  0  0  0
 14 31  1  0  0  0  0
 15 16  1  0  0  0  0
 15 32  1  0  0  0  0
 15 33  1  0  0  0  0
 16 17  1  0  0  0  0
 16 34  1  0  0  0  0
 16 35  1  0  0  0  0
 17 36  1  0  0  0  0
 17 37  1  0  0  0  0
M  END
> <s_m_source_file>
AV-unprocessed.smi

> <i_m_source_file_index>
610

> <i_lp_mmshare_version>
43012

> <i_f3d_flags>
0

> <s_epik_input>
W2NIXTFuW2NIXVtjSF1uMVtDSDJdW0NAQEhdKFtDSDNdKVtOSF1DKD1PKUMyKFtOSDJdKVtDSDJdW0NIMl1bQ0gyXVtDSDJdMg==

> <s_epik_cmdline>
J2VwaWtfcHl0aG9uJywgJy1waCcsICc3LjAnLCAnLXRuJywgJzgnLCAnLW1hJywgJzIwMCcsICctbWV0YWxfYmluZGluZycsICctaW1hZScsICc8aW5maWxlLm1hZT4nLCAnLW9tYWUnLCAnPG91dGZpbGUubWFlPic=

> <r_lp_tautomer_probability>
1

> <r_epik_Ionization_Penalty>
1.91974

> <r_epik_Ionization_Penalty_Charging>
0.644069

> <r_epik_Ionization_Penalty_Neutral>
1.27567

> <r_epik_State_Penalty>
1.9806

> <r_epik_Charging_Adjusted_Penalty>
2.62467

> <i_epik_Tot_Q>
0

> <i_epik_Tot_abs_Q>
0

> <r_epik_Metal_State_Penalty>
1.61835

> <b_epik_Metal_Only>
0

> <s_lp_Force_Field>
OPLS_2005

> <r_lp_Energy>
21.9363

> <b_lp_Chiralities_Consistent>
1

> <s_lp_Variant>
AV-unprocessed.smi:610-7

> <Gold.Version>
5.8.1

> <Gold.Id.Protein>
6NUR|6NUR_protein|mol2

> <Gold.PLP.Fitness>
44.8083

> <Gold.PLP.PLP>
-35.8972

> <Gold.PLP.part.hbond>
-4.0000

> <Gold.PLP.part.metal>
0.0000

> <Gold.PLP.part.buried>
-4.9876

> <Gold.PLP.part.nonpolar>
-29.9907

> <Gold.PLP.part.repulsive>
2.6475

> <Gold.PLP.ligand.clash>
0.0000

> <Gold.PLP.ligand.torsion>
0.5518

> <Gold.PLP.Chemscore.Hbond>
2.3280

> <Gold.PLP.Chemscore.CHOScore>
0.9995

> <Gold.PLP.Chemscore.Metal>
0.0000

> <Gold.Chemscore.Hbonds>
donor molecule, donor type, donor heavy atom, donor atom, acceptor molecule, acceptor atom, score
      L1  H    13    28       P1  7957  1.00
      P1  H  7989  7998       L1    11  0.37
      P1  H  8011  8017       L1    11  0.98
      L1  C     5    24       P1  8028  1.00

> <Gold.PLP.Chemscore.Internal.Correction>
0.0321

> <Gold.Rescore>
     Score         DG    S(hbond)    S(metal)    S(lipo)     H(rot)  DE(clash)    DE(int)     intcor
     13.10     -15.46       2.04        0.00      69.80       1.95       2.00       0.36       ----

> <Gold.Chemscore.Fitness>
13.1008

> <Gold.Chemscore.DG>
-15.4597

> <Gold.Chemscore.ZeroCoef>
-5.4800

> <Gold.Chemscore.Hbond>
2.0359

> <Gold.Chemscore.Metal>
0.0000

> <Gold.Chemscore.Lipo>
69.8004

> <Gold.Chemscore.Internal_Hbond>
0.0000

> <Gold.Chemscore.DEClash>
1.9969

> <Gold.Chemscore.DEInternal>
0.3620

> <Gold.Chemscore.Rot>
1.9480

> <Gold.Chemscore.Internal.Correction>
   9.000000E+99

> <Gold.Chemscore.Hbonds>
donor molecule, donor type, donor heavy atom, donor atom, acceptor molecule, acceptor atom, score
      L1  H    13    28       P1  7957  0.98
      P1  H  7989  7998       L1    11  0.34
      P1  H  8011  8017       L1    11  0.53

> <Gold.Chemscore.Hbond.Weighted>
-6.7999

> <Gold.Chemscore.Metal.Weighted>
-0.0000

> <Gold.Chemscore.Lipo.Weighted>
-8.1666

> <Gold.Chemscore.Internal_Hbond.Weighted>
0.0000

> <Gold.Chemscore.DEClash.Weighted>
1.9969

> <Gold.Chemscore.DEInternal.Weighted>
0.3620

> <Gold.Chemscore.Rot.Weighted>
4.9869

> <Gold.Chemscore.Internal.Correction.Weighted>
   9.000000E+99

> <Gold.Protein.RotatedTorsions>
[ 6907 6896 6895 6894 ] final  101.14 input  -60.11 | X-H torsion
[ 7974 7965 7964 7962 ] final -162.50 input  175.53 | X-H torsion
[ 8008 7997 7996 7995 ] final -161.34 input   59.86 | X-H torsion
[ 10167 10162 10161 10158 ] final  -71.70 input  -65.29 | X-H torsion
[ 10718 10713 10712 10709 ] final   82.58 input   66.30 | X-H torsion
[ 10763 10752 10751 10750 ] final   50.90 input  -60.55 | X-H torsion
[ 11005 11000 10999 10996 ] final -117.35 input  -57.11 | X-H torsion

> <Gold.Protein.ActiveResidues>
 VAL166  LYS551  ARG553  GLY616  TRP617  ASP618  TYR619  PRO620  LYS621  CYS622 
 ASP623  PHE694  ASN695  SER759  ASP760  ASP761  ALA762  ILE779  LEU786  VAL792 
 PHE793  MET794  SER795  GLU796  ALA797  LYS798  CYS799  TRP800  GLU811  SER814 

> <Gold.Protein.RotatedAtoms>
  152.5356  134.0170  159.7964 H   0  0  0  0  0  0  0  0  0  0  0  0  # atno 6907 bound_to 6896
  151.0363  133.5738  159.2663 H   0  0  0  0  0  0  0  0  0  0  0  0  # atno 6908 bound_to 6896
  151.2724  135.0696  159.9192 H   0  0  0  0  0  0  0  0  0  0  0  0  # atno 6909 bound_to 6896
  144.7355  140.3243  143.6165 H   0  0  0  0  0  0  0  0  0  0  0  0  # atno 7974 bound_to 7965
  155.7908  140.0878  157.2010 H   0  0  0  0  0  0  0  0  0  0  0  0  # atno 8008 bound_to 7997
  154.3985  140.1490  156.3219 H   0  0  0  0  0  0  0  0  0  0  0  0  # atno 8009 bound_to 7997
  155.8561  140.3432  155.5727 H   0  0  0  0  0  0  0  0  0  0  0  0  # atno 8010 bound_to 7997
  140.5252  143.2327  151.7360 H   0  0  0  0  0  0  0  0  0  0  0  0  # atno 10167 bound_to 10162
  157.6860  131.0054  150.2396 H   0  0  0  0  0  0  0  0  0  0  0  0  # atno 10718 bound_to 10713
  152.9784  135.5863  154.4328 H   0  0  0  0  0  0  0  0  0  0  0  0  # atno 10763 bound_to 10752
  154.3939  135.2768  155.2140 H   0  0  0  0  0  0  0  0  0  0  0  0  # atno 10764 bound_to 10752
  154.4000  135.6106  153.5946 H   0  0  0  0  0  0  0  0  0  0  0  0  # atno 10765 bound_to 10752
  141.0360  133.9908  157.3069 H   0  0  0  0  0  0  0  0  0  0  0  0  # atno 11005 bound_to 11000
  145.7536  139.1802  143.2307 LP  0  0  0  0  0  0  0  0  0  0  0  0  # atno 17320 bound_to 7965
  146.1041  140.7508  142.9535 LP  0  0  0  0  0  0  0  0  0  0  0  0  # atno 17321 bound_to 7965
  139.4936  144.4196  151.9992 LP  0  0  0  0  0  0  0  0  0  0  0  0  # atno 17342 bound_to 10162
  140.3295  144.3333  150.5990 LP  0  0  0  0  0  0  0  0  0  0  0  0  # atno 17343 bound_to 10162
  156.3013  130.3759  149.7748 LP  0  0  0  0  0  0  0  0  0  0  0  0  # atno 17370 bound_to 10713
  156.5377  130.8286  151.3258 LP  0  0  0  0  0  0  0  0  0  0  0  0  # atno 17371 bound_to 10713
  139.9241  135.0201  156.8172 LP  0  0  0  0  0  0  0  0  0  0  0  0  # atno 17394 bound_to 11000
  140.6320  133.9897  155.7666 LP  0  0  0  0  0  0  0  0  0  0  0  0  # atno 17395 bound_to 11000

$$$$
