#       Name:                AV-unprocessed.smi:3148
#       Creating user name   scv26
#       Creation time:       Fri Mar 27 17:40:17 2020


#       File generated by GOLD software.
#

@<TRIPOS>MOLECULE
AV-unprocessed.smi:3148
    40    42     1
SMALL
NO_CHARGES


@<TRIPOS>ATOM
      1 ****        -3.8909  -0.8514  -0.1587 C.3            1 S1                 0.0000
      2 ****        -3.1966  -2.0927  -0.0919 O.3            1 S1                 0.0000
      3 ****        -1.8264  -2.0851  -0.2517 C.ar           1 S1                 0.0000
      4 ****        -1.1148  -3.2948  -0.1979 C.ar           1 S1                 0.0000
      5 ****         0.2811  -3.2248  -0.3693 C.ar           1 S1                 0.0000
      6 ****         1.1596  -4.4569  -0.3282 C.3            1 S1                 0.0000
      7 ****         0.8820  -2.0262  -0.5747 N.pl3          1 S1                 1.0000
      8 ****         0.1456  -0.9059  -0.6121 C.ar           1 S1                 0.0000
      9 ****         0.8103   0.2899  -0.8155 N.pl3          1 S1                 0.0000
     10 ****         2.2536   0.4034  -0.9904 C.3            1 S1                 0.0000
     11 ****         2.7383   1.8524  -1.0805 C.3            1 S1                 0.0000
     12 ****         3.5333   1.8364  -2.3937 C.3            1 S1                 0.0000
     13 ****         2.6043   1.8016  -3.6141 C.3            1 S1                 0.0000
     14 ****         2.0814   0.3673  -3.5654 C.3            1 S1                 0.0000
     15 ****         2.7835  -0.1854  -2.3131 C.3            1 S1                 0.0000
     16 ****         4.0188   0.5041  -2.3997 O.3            1 S1                 0.0000
     17 ****        -1.1856  -0.9110  -0.4574 N.ar           1 S1                 0.0000
     18 ****        -4.9585  -1.0279  -0.0276 H              1 S1                 0.0000
     19 ****        -3.7533  -0.3680  -1.1270 H              1 S1                 0.0000
     20 ****        -3.5682  -0.1706   0.6303 H              1 S1                 0.0000
     21 ****        -1.6209  -4.2349  -0.0320 H              1 S1                 0.0000
     22 ****         0.5597  -5.3673  -0.3133 H              1 S1                 0.0000
     23 ****         1.7851  -4.4450   0.5648 H              1 S1                 0.0000
     24 ****         1.8090  -4.4927  -1.2034 H              1 S1                 0.0000
     25 ****         0.2477   1.1071  -1.0028 H              1 S1                 0.0000
     26 ****         2.7531  -0.0827  -0.1509 H              1 S1                 0.0000
     27 ****         1.9324   2.5877  -1.1007 H              1 S1                 0.0000
     28 ****         3.3876   2.0862  -0.2361 H              1 S1                 0.0000
     29 ****         4.3095   2.5998  -2.4512 H              1 S1                 0.0000
     30 ****         1.8093   2.5456  -3.5530 H              1 S1                 0.0000
     31 ****         3.1634   1.9740  -4.5346 H              1 S1                 0.0000
     32 ****         0.9941   0.3112  -3.5095 H              1 S1                 0.0000
     33 ****         2.3991  -0.1803  -4.4535 H              1 S1                 0.0000
     34 ****         2.8823  -1.2712  -2.3070 H              1 S1                 0.0000
     35 ****         1.8942  -1.9896  -0.6963 H              1 S1                 0.0000
     36 ****        -3.5747  -2.6822  -0.8058 LP             1 S1                 0.0000
     37 ****        -3.3879  -2.4910   0.8052 LP             1 S1                 0.0000
     38 ****         4.6082   0.3167  -1.6139 LP             1 S1                 0.0000
     39 ****         4.5099   0.2882  -3.2436 LP             1 S1                 0.0000
     40 ****        -1.7009  -0.0547  -0.4937 LP             1 S1                 0.0000
@<TRIPOS>BOND
    1    1    2 1     
    2    1   18 1     
    3    1   19 1     
    4    1   20 1     
    5    2    3 1     
    6    3   17 ar    
    7    3    4 ar    
    8    4    5 ar    
    9    4   21 1     
   10    5    6 1     
   11    5    7 ar    
   12    6   22 1     
   13    6   23 1     
   14    6   24 1     
   15    7    8 ar    
   16    7   35 1     
   17    8    9 1     
   18    8   17 ar    
   19    9   10 1     
   20    9   25 1     
   21   10   15 1     
   22   10   11 1     
   23   10   26 1     
   24   11   12 1     
   25   11   27 1     
   26   11   28 1     
   27   12   16 1     
   28   12   13 1     
   29   12   29 1     
   30   13   14 1     
   31   13   30 1     
   32   13   31 1     
   33   14   15 1     
   34   14   32 1     
   35   14   33 1     
   36   15   16 1     
   37   15   34 1     
   38    2   36 1     
   39    2   37 1     
   40   16   38 1     
   41   16   39 1     
   42   17   40 1     
@<TRIPOS>SUBSTRUCTURE
      1 S1             1
@<TRIPOS>SET
LONE_PAIRS      STATIC     ATOMS    <user>   **** ""
5 36 37 38 39 40
DONOR_HYDROGENS      STATIC     ATOMS    <user>   **** ""
2 35 25
ATOM$BLUE        STATIC     ATOMS    COLORGROUP SYSTEM
5 36 37 38 39 40
ATOM$RED        STATIC     ATOMS    COLORGROUP SYSTEM
2 35 25
