AV-unprocessed.smi:671|AV-procd|sdf|3274|dock10
  -GOLD-   22720 0233D 1   1.00000     0.00000
 Structure written by MMmdl.
 49 50  0  0  0  0  0  0  0  0  1 V2000
  152.8491  138.5177  154.6547 C   0  0  0  0  0  0  0  0  0  0  0  0
  152.0480  139.4946  155.4671 C   0  0  0  0  0  0  0  0  0  0  0  0
  152.5697  140.0010  156.5720 N   0  0  0  0  0  0  0  0  0  0  0  0
  151.6124  140.8124  157.0646 N   0  0  0  0  0  0  0  0  0  0  0  0
  151.8560  141.5317  158.2997 C   0  0  0  0  0  0  0  0  0  0  0  0
  150.4869  140.8256  156.2640 C   0  0  0  0  0  0  0  0  0  0  0  0
  149.2811  141.6448  156.5943 C   0  0  0  0  0  0  0  0  0  0  0  0
  150.7307  139.9788  155.2162 C   0  0  0  0  0  0  0  0  0  0  0  0
  149.8194  139.6170  154.0689 C   0  0  0  0  0  0  0  0  0  0  0  0
  148.4411  139.1205  154.5475 C   0  0  1  0  0  0  0  0  0  0  0  0
  147.3564  140.1966  154.3902 C   0  0  0  0  0  0  0  0  0  0  0  0
  148.0585  137.9066  153.8181 N   0  0  0  0  0  0  0  0  0  0  0  0
  146.9647  137.1407  153.9782 C   0  0  0  0  0  0  0  0  0  0  0  0
  146.1140  137.3951  154.8286 O   0  0  0  0  0  0  0  0  0  0  0  0
  146.8932  136.0838  153.1529 N   0  0  0  0  0  0  0  0  0  0  0  0
  145.7969  135.1219  153.1077 C   0  0  2  0  0  0  0  0  0  0  0  0
  146.2995  133.6956  152.7998 C   0  0  0  0  0  0  0  0  0  0  0  0
  145.6926  133.3068  151.4501 C   0  0  0  0  0  0  0  0  0  0  0  0
  144.4199  134.1412  151.3503 C   0  0  0  0  0  0  0  0  0  0  0  0
  144.8070  135.4809  151.9809 C   0  0  1  0  0  0  0  0  0  0  0  0
  143.6070  136.3141  152.4503 C   0  0  0  0  0  0  0  0  0  0  0  0
  152.2595  137.6315  154.4186 H   0  0  0  0  0  0  0  0  0  0  0  0
  153.7419  138.1854  155.1861 H   0  0  0  0  0  0  0  0  0  0  0  0
  153.1695  138.9646  153.7135 H   0  0  0  0  0  0  0  0  0  0  0  0
  151.0385  141.3492  158.9978 H   0  0  0  0  0  0  0  0  0  0  0  0
  151.9187  142.6005  158.0943 H   0  0  0  0  0  0  0  0  0  0  0  0
  152.7901  141.2045  158.7588 H   0  0  0  0  0  0  0  0  0  0  0  0
  148.6121  141.7244  155.7376 H   0  0  0  0  0  0  0  0  0  0  0  0
  149.5626  142.6559  156.8889 H   0  0  0  0  0  0  0  0  0  0  0  0
  148.7228  141.1941  157.4151 H   0  0  0  0  0  0  0  0  0  0  0  0
  149.6807  140.4747  153.4100 H   0  0  0  0  0  0  0  0  0  0  0  0
  150.2791  138.8486  153.4462 H   0  0  0  0  0  0  0  0  0  0  0  0
  148.5424  138.8944  155.6099 H   0  0  0  0  0  0  0  0  0  0  0  0
  147.6224  141.1030  154.9346 H   0  0  0  0  0  0  0  0  0  0  0  0
  146.3982  139.8503  154.7784 H   0  0  0  0  0  0  0  0  0  0  0  0
  147.2135  140.4669  153.3433 H   0  0  0  0  0  0  0  0  0  0  0  0
  148.7342  137.5772  153.1438 H   0  0  0  0  0  0  0  0  0  0  0  0
  147.6452  135.9473  152.4936 H   0  0  0  0  0  0  0  0  0  0  0  0
  145.2767  135.1139  154.0679 H   0  0  0  0  0  0  0  0  0  0  0  0
  147.3874  133.6136  152.7852 H   0  0  0  0  0  0  0  0  0  0  0  0
  145.9400  133.0143  153.5720 H   0  0  0  0  0  0  0  0  0  0  0  0
  146.3759  133.5851  150.6467 H   0  0  0  0  0  0  0  0  0  0  0  0
  145.5007  132.2367  151.3685 H   0  0  0  0  0  0  0  0  0  0  0  0
  144.0691  134.2469  150.3235 H   0  0  0  0  0  0  0  0  0  0  0  0
  143.6256  133.6668  151.9284 H   0  0  0  0  0  0  0  0  0  0  0  0
  145.3367  136.0500  151.2142 H   0  0  0  0  0  0  0  0  0  0  0  0
  143.0317  135.7886  153.2130 H   0  0  0  0  0  0  0  0  0  0  0  0
  142.9369  136.5352  151.6193 H   0  0  0  0  0  0  0  0  0  0  0  0
  143.9343  137.2637  152.8746 H   0  0  0  0  0  0  0  0  0  0  0  0
  1  2  1  0  0  0  0
  1 22  1  0  0  0  0
  1 23  1  0  0  0  0
  1 24  1  0  0  0  0
  2  8  1  0  0  0  0
  2  3  2  0  0  0  0
  3  4  1  0  0  0  0
  4  5  1  0  0  0  0
  4  6  1  0  0  0  0
  5 25  1  0  0  0  0
  5 26  1  0  0  0  0
  5 27  1  0  0  0  0
  6  7  1  0  0  0  0
  6  8  2  0  0  0  0
  7 28  1  0  0  0  0
  7 29  1  0  0  0  0
  7 30  1  0  0  0  0
  8  9  1  0  0  0  0
  9 10  1  0  0  0  0
  9 31  1  0  0  0  0
  9 32  1  0  0  0  0
 10 11  1  0  0  0  0
 10 12  1  0  0  0  0
 10 33  1  0  0  0  0
 11 34  1  0  0  0  0
 11 35  1  0  0  0  0
 11 36  1  0  0  0  0
 12 13  1  0  0  0  0
 12 37  1  0  0  0  0
 13 14  2  0  0  0  0
 13 15  1  0  0  0  0
 15 16  1  0  0  0  0
 15 38  1  0  0  0  0
 16 20  1  0  0  0  0
 16 17  1  0  0  0  0
 16 39  1  0  0  0  0
 17 18  1  0  0  0  0
 17 40  1  0  0  0  0
 17 41  1  0  0  0  0
 18 19  1  0  0  0  0
 18 42  1  0  0  0  0
 18 43  1  0  0  0  0
 19 20  1  0  0  0  0
 19 44  1  0  0  0  0
 19 45  1  0  0  0  0
 20 21  1  0  0  0  0
 20 46  1  0  0  0  0
 21 47  1  0  0  0  0
 21 48  1  0  0  0  0
 21 49  1  0  0  0  0
M  END
> <s_m_source_file>
AV-unprocessed.smi

> <i_m_source_file_index>
671

> <i_lp_mmshare_version>
43012

> <i_f3d_flags>
0

> <s_epik_input>
W0NIM11jMW5uKFtDSDNdKWMoW0NIM10pYzFbQ0gyXVtDQEhdKFtDSDNdKVtOSF1DKD1PKVtOSF1bQ0BASF0yW0NIMl1bQ0gyXVtDSDJdW0NASF0yW0NIM10=

> <s_epik_cmdline>
J2VwaWtfcHl0aG9uJywgJy1waCcsICc3LjAnLCAnLXRuJywgJzgnLCAnLW1hJywgJzIwMCcsICctbWV0YWxfYmluZGluZycsICctaW1hZScsICc8aW5maWxlLm1hZT4nLCAnLW9tYWUnLCAnPG91dGZpbGUubWFlPic=

> <r_lp_tautomer_probability>
1

> <r_epik_Ionization_Penalty>
0.0126855

> <r_epik_Ionization_Penalty_Charging>
0

> <r_epik_Ionization_Penalty_Neutral>
0.0126855

> <r_epik_State_Penalty>
0.00977547

> <r_epik_Charging_Adjusted_Penalty>
0.00977547

> <i_epik_Tot_Q>
0

> <i_epik_Tot_abs_Q>
0

> <r_epik_Metal_State_Penalty>
0.00957132

> <b_epik_Metal_Only>
0

> <s_lp_Force_Field>
OPLS_2005

> <r_lp_Energy>
23.179

> <b_lp_Chiralities_Consistent>
1

> <s_lp_Variant>
AV-unprocessed.smi:671-2

> <Gold.Version>
5.8.1

> <Gold.Id.Protein>
6NUR|6NUR_protein|mol2

> <Gold.PLP.Fitness>
40.2657

> <Gold.PLP.PLP>
-33.6709

> <Gold.PLP.part.hbond>
-2.8900

> <Gold.PLP.part.metal>
0.0000

> <Gold.PLP.part.buried>
-0.7445

> <Gold.PLP.part.nonpolar>
-29.1887

> <Gold.PLP.part.repulsive>
0.0780

> <Gold.PLP.ligand.clash>
0.0000

> <Gold.PLP.ligand.torsion>
1.0156

> <Gold.PLP.Chemscore.Hbond>
2.8640

> <Gold.PLP.Chemscore.CHOScore>
0.0000

> <Gold.PLP.Chemscore.Metal>
0.0000

> <Gold.Chemscore.Hbonds>
donor molecule, donor type, donor heavy atom, donor atom, acceptor molecule, acceptor atom, score
      L1  H    12    37       P1  7948  0.83
      L1  H    15    38       P1  7948  0.84
      P1  H  7997  8010       L1     3  1.00

> <Gold.PLP.Chemscore.Internal.Correction>
0.0341

> <Gold.Rescore>
     Score         DG    S(hbond)    S(metal)    S(lipo)     H(rot)  DE(clash)    DE(int)     intcor
     19.92     -20.84       2.89        0.00      80.61       1.45       0.14       0.78       ----

> <Gold.Chemscore.Fitness>
19.9207

> <Gold.Chemscore.DG>
-20.8434

> <Gold.Chemscore.ZeroCoef>
-5.4800

> <Gold.Chemscore.Hbond>
2.8875

> <Gold.Chemscore.Metal>
0.0000

> <Gold.Chemscore.Lipo>
80.6083

> <Gold.Chemscore.Internal_Hbond>
0.0000

> <Gold.Chemscore.DEClash>
0.1449

> <Gold.Chemscore.DEInternal>
0.7779

> <Gold.Chemscore.Rot>
1.4499

> <Gold.Chemscore.Internal.Correction>
   9.000000E+99

> <Gold.Chemscore.Hbonds>
donor molecule, donor type, donor heavy atom, donor atom, acceptor molecule, acceptor atom, score
      L1  H    12    37       P1  7948  0.83
      L1  H    15    38       P1  7948  0.81
      P1  H  7997  8010       L1     3  0.85

> <Gold.Chemscore.Hbond.Weighted>
-9.6441

> <Gold.Chemscore.Metal.Weighted>
-0.0000

> <Gold.Chemscore.Lipo.Weighted>
-9.4312

> <Gold.Chemscore.Internal_Hbond.Weighted>
0.0000

> <Gold.Chemscore.DEClash.Weighted>
0.1449

> <Gold.Chemscore.DEInternal.Weighted>
0.7779

> <Gold.Chemscore.Rot.Weighted>
3.7118

> <Gold.Chemscore.Internal.Correction.Weighted>
   9.000000E+99

> <Gold.Protein.RotatedTorsions>
[ 6907 6896 6895 6894 ] final   36.57 input  -60.11 | X-H torsion
[ 7974 7965 7964 7962 ] final  -57.98 input  175.53 | X-H torsion
[ 8008 7997 7996 7995 ] final   67.59 input   59.86 | X-H torsion
[ 10167 10162 10161 10158 ] final  -83.21 input  -65.29 | X-H torsion
[ 10718 10713 10712 10709 ] final -163.55 input   66.30 | X-H torsion
[ 10763 10752 10751 10750 ] final   76.25 input  -60.55 | X-H torsion
[ 11005 11000 10999 10996 ] final  -12.16 input  -57.11 | X-H torsion

> <Gold.Protein.ActiveResidues>
 VAL166  LYS551  ARG553  GLY616  TRP617  ASP618  TYR619  PRO620  LYS621  CYS622 
 ASP623  PHE694  ASN695  SER759  ASP760  ASP761  ALA762  ILE779  LEU786  VAL792 
 PHE793  MET794  SER795  GLU796  ALA797  LYS798  CYS799  TRP800  GLU811  SER814 

> <Gold.Protein.RotatedAtoms>
  152.1315  134.9131  160.0558 H   0  0  0  0  0  0  0  0  0  0  0  0  # atno 6907 bound_to 6896
  152.0234  133.3903  159.4276 H   0  0  0  0  0  0  0  0  0  0  0  0  # atno 6908 bound_to 6896
  150.6857  134.3522  159.4958 H   0  0  0  0  0  0  0  0  0  0  0  0  # atno 6909 bound_to 6896
  145.8447  140.8393  143.0016 H   0  0  0  0  0  0  0  0  0  0  0  0  # atno 7974 bound_to 7965
  155.6953  140.3496  155.4910 H   0  0  0  0  0  0  0  0  0  0  0  0  # atno 8008 bound_to 7997
  155.9488  140.1115  157.1016 H   0  0  0  0  0  0  0  0  0  0  0  0  # atno 8009 bound_to 7997
  154.4117  140.1198  156.5011 H   0  0  0  0  0  0  0  0  0  0  0  0  # atno 8010 bound_to 7997
  140.4248  143.2571  151.8841 H   0  0  0  0  0  0  0  0  0  0  0  0  # atno 10167 bound_to 10162
  156.6263  130.8911  151.2968 H   0  0  0  0  0  0  0  0  0  0  0  0  # atno 10718 bound_to 10713
  153.0712  135.4958  154.8308 H   0  0  0  0  0  0  0  0  0  0  0  0  # atno 10763 bound_to 10752
  154.7025  135.3004  154.9322 H   0  0  0  0  0  0  0  0  0  0  0  0  # atno 10764 bound_to 10752
  154.0041  135.6762  153.4814 H   0  0  0  0  0  0  0  0  0  0  0  0  # atno 10765 bound_to 10752
  140.7629  133.8501  155.9140 H   0  0  0  0  0  0  0  0  0  0  0  0  # atno 11005 bound_to 11000
  144.6732  140.0865  143.7467 LP  0  0  0  0  0  0  0  0  0  0  0  0  # atno 17320 bound_to 7965
  145.9425  139.2678  143.1260 LP  0  0  0  0  0  0  0  0  0  0  0  0  # atno 17321 bound_to 7965
  139.4783  144.5399  151.8544 LP  0  0  0  0  0  0  0  0  0  0  0  0  # atno 17342 bound_to 10162
  140.4494  144.1877  150.5896 LP  0  0  0  0  0  0  0  0  0  0  0  0  # atno 17343 bound_to 10162
  157.7213  130.9562  150.1451 LP  0  0  0  0  0  0  0  0  0  0  0  0  # atno 17370 bound_to 10713
  156.2271  130.3679  149.8488 LP  0  0  0  0  0  0  0  0  0  0  0  0  # atno 17371 bound_to 10713
  140.9646  134.1610  157.4626 LP  0  0  0  0  0  0  0  0  0  0  0  0  # atno 17394 bound_to 11000
  139.8768  134.9957  156.5758 LP  0  0  0  0  0  0  0  0  0  0  0  0  # atno 17395 bound_to 11000

$$$$
