AV-unprocessed.smi:2858|AV-procd|sdf|10999|dock5
  -GOLD-   2272015453D 1   1.00000     0.00000
 Structure written by MMmdl.
 40 41  0  0  0  0  0  0  0  0  2 V2000
  144.9049  135.2461  151.6112 O   0  0  0  0  0  0  0  0  0  0  0  0
  145.4989  136.3212  151.6101 C   0  0  0  0  0  0  0  0  0  0  0  0
  145.9155  136.9600  152.9439 C   0  0  0  0  0  0  0  0  0  0  0  0
  146.9320  138.0353  152.8075 N   0  3  2  0  0  0  0  0  0  0  0  0
  147.2217  138.6984  154.1032 C   0  0  0  0  0  0  0  0  0  0  0  0
  147.7653  140.1260  153.9247 C   0  0  0  0  0  0  0  0  0  0  0  0
  149.2735  140.2147  154.2111 C   0  0  0  0  0  0  0  0  0  0  0  0
  149.5999  141.3822  155.0219 N   0  0  0  0  0  0  0  0  0  0  0  0
  150.4351  141.3778  156.0710 C   0  0  0  0  0  0  0  0  0  0  0  0
  151.0138  140.3669  156.4714 O   0  0  0  0  0  0  0  0  0  0  0  0
  150.5335  142.5992  156.6237 N   0  0  0  0  0  0  0  0  0  0  0  0
  151.2793  142.9822  157.7695 C   0  0  0  0  0  0  0  0  0  0  0  0
  151.4257  144.3524  158.1062 C   0  0  0  0  0  0  0  0  0  0  0  0
  152.1461  144.7055  159.2633 C   0  0  0  0  0  0  0  0  0  0  0  0
  152.6926  143.6845  160.0606 C   0  0  0  0  0  0  0  0  0  0  0  0
  152.4844  142.3509  159.6640 C   0  0  0  0  0  0  0  0  0  0  0  0
  151.7924  142.0084  158.5564 N   0  0  0  0  0  0  0  0  0  0  0  0
  146.5892  138.9813  151.7184 C   0  0  0  0  0  0  0  0  0  0  0  0
  146.5064  138.2364  150.3744 C   0  0  0  0  0  0  0  0  0  0  0  0
  145.7949  136.9642  150.4690 N   0  0  0  0  0  0  0  0  0  0  0  0
  145.0195  137.3659  153.4163 H   0  0  0  0  0  0  0  0  0  0  0  0
  146.2999  136.1801  153.6026 H   0  0  0  0  0  0  0  0  0  0  0  0
  146.3279  138.6973  154.7290 H   0  0  0  0  0  0  0  0  0  0  0  0
  147.9739  138.1162  154.6380 H   0  0  0  0  0  0  0  0  0  0  0  0
  147.5704  140.4655  152.9065 H   0  0  0  0  0  0  0  0  0  0  0  0
  147.2367  140.8127  154.5851 H   0  0  0  0  0  0  0  0  0  0  0  0
  149.6228  139.3082  154.7085 H   0  0  0  0  0  0  0  0  0  0  0  0
  149.8274  140.2876  153.2746 H   0  0  0  0  0  0  0  0  0  0  0  0
  149.1644  142.2556  154.7622 H   0  0  0  0  0  0  0  0  0  0  0  0
  149.9200  143.3088  156.2513 H   0  0  0  0  0  0  0  0  0  0  0  0
  150.9869  145.1337  157.5042 H   0  0  0  0  0  0  0  0  0  0  0  0
  152.2713  145.7427  159.5370 H   0  0  0  0  0  0  0  0  0  0  0  0
  153.2506  143.9170  160.9556 H   0  0  0  0  0  0  0  0  0  0  0  0
  152.8806  141.5369  160.2527 H   0  0  0  0  0  0  0  0  0  0  0  0
  145.6329  139.4559  151.9446 H   0  0  0  0  0  0  0  0  0  0  0  0
  147.3256  139.7799  151.6387 H   0  0  0  0  0  0  0  0  0  0  0  0
  146.0287  138.8636  149.6213 H   0  0  0  0  0  0  0  0  0  0  0  0
  147.5128  138.0232  150.0121 H   0  0  0  0  0  0  0  0  0  0  0  0
  145.5102  136.5347  149.5998 H   0  0  0  0  0  0  0  0  0  0  0  0
  147.7847  137.5732  152.5258 H   0  0  0  0  0  0  0  0  0  0  0  0
  1  2  2  0  0  0  0
  2 20  1  0  0  0  0
  2  3  1  0  0  0  0
  3  4  1  0  0  0  0
  3 21  1  0  0  0  0
  3 22  1  0  0  0  0
  4  5  1  0  0  0  0
  4 18  1  0  0  0  0
  4 40  1  0  0  0  0
  5  6  1  0  0  0  0
  5 23  1  0  0  0  0
  5 24  1  0  0  0  0
  6  7  1  0  0  0  0
  6 25  1  0  0  0  0
  6 26  1  0  0  0  0
  7  8  1  0  0  0  0
  7 27  1  0  0  0  0
  7 28  1  0  0  0  0
  8  9  1  0  0  0  0
  8 29  1  0  0  0  0
  9 10  2  0  0  0  0
  9 11  1  0  0  0  0
 11 12  1  0  0  0  0
 11 30  1  0  0  0  0
 12 17  1  0  0  0  0
 12 13  2  0  0  0  0
 13 14  1  0  0  0  0
 13 31  1  0  0  0  0
 14 15  2  0  0  0  0
 14 32  1  0  0  0  0
 15 16  1  0  0  0  0
 15 33  1  0  0  0  0
 16 17  2  0  0  0  0
 16 34  1  0  0  0  0
 18 19  1  0  0  0  0
 18 35  1  0  0  0  0
 18 36  1  0  0  0  0
 19 20  1  0  0  0  0
 19 37  1  0  0  0  0
 19 38  1  0  0  0  0
 20 39  1  0  0  0  0
M  CHG  1   4   1
M  END
> <s_m_source_file>
AV-unprocessed.smi

> <i_m_source_file_index>
2858

> <i_lp_mmshare_version>
43012

> <i_f3d_flags>
0

> <s_epik_input>
Tz1DMVtDSDJdTihbQ0gyXVtDSDJdW05IXTEpW0NIMl1bQ0gyXVtDSDJdW05IXUMoPU8pW05IXWMyW2NIXVtjSF1bY0hdW2NIXW4y

> <s_epik_cmdline>
J2VwaWtfcHl0aG9uJywgJy1waCcsICc3LjAnLCAnLXRuJywgJzgnLCAnLW1hJywgJzIwMCcsICctbWV0YWxfYmluZGluZycsICctaW1hZScsICc8aW5maWxlLm1hZT4nLCAnLW9tYWUnLCAnPG91dGZpbGUubWFlPic=

> <r_epik_Ionization_Penalty>
0.11034

> <r_epik_Ionization_Penalty_Charging>
0.110189

> <r_epik_Ionization_Penalty_Neutral>
0.000150894

> <r_epik_State_Penalty>
0.0999426

> <r_epik_Charging_Adjusted_Penalty>
0.210132

> <i_epik_Tot_Q>
1

> <i_epik_Tot_abs_Q>
1

> <r_epik_Metal_State_Penalty>
0.172915

> <b_epik_Metal_Only>
0

> <s_lp_Force_Field>
OPLS_2005

> <r_lp_Energy>
23.7119

> <b_lp_Chiralities_Consistent>
1

> <s_lp_Variant>
AV-unprocessed.smi:2858-1

> <Gold.Version>
5.8.1

> <Gold.Id.Protein>
6NUR|6NUR_protein|mol2

> <Gold.PLP.Fitness>
44.9149

> <Gold.PLP.PLP>
-38.1065

> <Gold.PLP.part.hbond>
-3.0000

> <Gold.PLP.part.metal>
0.0000

> <Gold.PLP.part.buried>
1.1449

> <Gold.PLP.part.nonpolar>
-38.6054

> <Gold.PLP.part.repulsive>
0.5850

> <Gold.PLP.ligand.clash>
0.0059

> <Gold.PLP.ligand.torsion>
1.1078

> <Gold.PLP.Chemscore.Hbond>
3.0000

> <Gold.PLP.Chemscore.CHOScore>
0.0000

> <Gold.PLP.Chemscore.Metal>
0.0000

> <Gold.Chemscore.Hbonds>
donor molecule, donor type, donor heavy atom, donor atom, acceptor molecule, acceptor atom, score
      L1  H     4    40       P1  7948  2.00
      L1  H    11    30       P1  8028  1.00

> <Gold.PLP.Chemscore.Internal.Correction>
0.0299

> <Gold.Rescore>
     Score         DG    S(hbond)    S(metal)    S(lipo)     H(rot)  DE(clash)    DE(int)     intcor
     13.33     -17.50       1.99        0.00      91.43       2.08       1.73       2.44       ----

> <Gold.Chemscore.Fitness>
13.3260

> <Gold.Chemscore.DG>
-17.5016

> <Gold.Chemscore.ZeroCoef>
-5.4800

> <Gold.Chemscore.Hbond>
1.9891

> <Gold.Chemscore.Metal>
0.0000

> <Gold.Chemscore.Lipo>
91.4264

> <Gold.Chemscore.Internal_Hbond>
0.0000

> <Gold.Chemscore.DEClash>
1.7327

> <Gold.Chemscore.DEInternal>
2.4429

> <Gold.Chemscore.Rot>
2.0777

> <Gold.Chemscore.Internal.Correction>
   9.000000E+99

> <Gold.Chemscore.Hbonds>
donor molecule, donor type, donor heavy atom, donor atom, acceptor molecule, acceptor atom, score
      L1  H     4    40       P1  7948  1.00
      L1  H    11    30       P1  8028  1.00

> <Gold.Chemscore.Hbond.Weighted>
-6.6435

> <Gold.Chemscore.Metal.Weighted>
-0.0000

> <Gold.Chemscore.Lipo.Weighted>
-10.6969

> <Gold.Chemscore.Internal_Hbond.Weighted>
0.0000

> <Gold.Chemscore.DEClash.Weighted>
1.7327

> <Gold.Chemscore.DEInternal.Weighted>
2.4429

> <Gold.Chemscore.Rot.Weighted>
5.3188

> <Gold.Chemscore.Internal.Correction.Weighted>
   9.000000E+99

> <Gold.Protein.RotatedTorsions>
[ 6907 6896 6895 6894 ] final  -15.29 input  -60.11 | X-H torsion
[ 7974 7965 7964 7962 ] final -149.15 input  175.53 | X-H torsion
[ 8008 7997 7996 7995 ] final   57.26 input   59.86 | X-H torsion
[ 10167 10162 10161 10158 ] final -104.66 input  -65.29 | X-H torsion
[ 10718 10713 10712 10709 ] final   83.49 input   66.30 | X-H torsion
[ 10763 10752 10751 10750 ] final   37.83 input  -60.55 | X-H torsion
[ 11005 11000 10999 10996 ] final  -12.90 input  -57.11 | X-H torsion

> <Gold.Protein.ActiveResidues>
 VAL166  LYS551  ARG553  GLY616  TRP617  ASP618  TYR619  PRO620  LYS621  CYS622 
 ASP623  PHE694  ASN695  SER759  ASP760  ASP761  ALA762  ILE779  LEU786  VAL792 
 PHE793  MET794  SER795  GLU796  ALA797  LYS798  CYS799  TRP800  GLU811  SER814 

> <Gold.Protein.RotatedAtoms>
  151.3262  135.0830  159.9322 H   0  0  0  0  0  0  0  0  0  0  0  0  # atno 6907 bound_to 6896
  152.5245  133.9589  159.7718 H   0  0  0  0  0  0  0  0  0  0  0  0  # atno 6908 bound_to 6896
  150.9919  133.6088  159.2737 H   0  0  0  0  0  0  0  0  0  0  0  0  # atno 6909 bound_to 6896
  144.7985  140.5102  143.5723 H   0  0  0  0  0  0  0  0  0  0  0  0  # atno 7974 bound_to 7965
  155.5309  140.3482  155.4426 H   0  0  0  0  0  0  0  0  0  0  0  0  # atno 8008 bound_to 7997
  156.0719  140.1365  156.9845 H   0  0  0  0  0  0  0  0  0  0  0  0  # atno 8009 bound_to 7997
  154.4532  140.0964  156.6657 H   0  0  0  0  0  0  0  0  0  0  0  0  # atno 8010 bound_to 7997
  140.2069  143.3776  152.1083 H   0  0  0  0  0  0  0  0  0  0  0  0  # atno 10167 bound_to 10162
  157.6880  131.0093  150.2531 H   0  0  0  0  0  0  0  0  0  0  0  0  # atno 10718 bound_to 10713
  153.0023  135.6266  154.2207 H   0  0  0  0  0  0  0  0  0  0  0  0  # atno 10763 bound_to 10752
  154.1950  135.2807  155.3011 H   0  0  0  0  0  0  0  0  0  0  0  0  # atno 10764 bound_to 10752
  154.5729  135.5671  153.7171 H   0  0  0  0  0  0  0  0  0  0  0  0  # atno 10765 bound_to 10752
  140.7705  133.8442  155.9203 H   0  0  0  0  0  0  0  0  0  0  0  0  # atno 11005 bound_to 11000
  145.5613  139.1479  143.3340 LP  0  0  0  0  0  0  0  0  0  0  0  0  # atno 17320 bound_to 7965
  146.2260  140.5749  142.8996 LP  0  0  0  0  0  0  0  0  0  0  0  0  # atno 17321 bound_to 7965
  139.5195  144.7020  151.5465 LP  0  0  0  0  0  0  0  0  0  0  0  0  # atno 17342 bound_to 10162
  140.6351  143.9000  150.6640 LP  0  0  0  0  0  0  0  0  0  0  0  0  # atno 17343 bound_to 10162
  156.3124  130.3774  149.7649 LP  0  0  0  0  0  0  0  0  0  0  0  0  # atno 17370 bound_to 10713
  156.5245  130.8230  151.3215 LP  0  0  0  0  0  0  0  0  0  0  0  0  # atno 17371 bound_to 10713
  140.9578  134.1695  157.4678 LP  0  0  0  0  0  0  0  0  0  0  0  0  # atno 17394 bound_to 11000
  139.8756  134.9933  156.5639 LP  0  0  0  0  0  0  0  0  0  0  0  0  # atno 17395 bound_to 11000

$$$$
