AV-unprocessed.smi:2148|AV-procd|sdf|8746|dock7
  -GOLD-   2272011523D 1   1.00000     0.00000
 Structure written by MMmdl.
 44 45  0  0  0  0  0  0  0  0  1 V2000
  147.6069  132.7207  152.4039 C   0  0  0  0  0  0  0  0  0  0  0  0
  147.8237  134.0659  153.6010 S   0  0  0  0  0  0  0  0  0  0  0  0
  149.5719  133.8517  154.0531 C   0  0  2  0  0  0  0  0  0  0  0  0
  149.8136  132.4275  154.5786 C   0  0  0  0  0  0  0  0  0  0  0  0
  150.0353  134.9044  155.0689 C   0  0  0  0  0  0  0  0  0  0  0  0
  150.3635  134.5559  156.2031 O   0  0  0  0  0  0  0  0  0  0  0  0
  150.0197  136.1794  154.6370 N   0  0  0  0  0  0  0  0  0  0  0  0
  150.3861  137.3599  155.3381 C   0  0  0  0  0  0  0  0  0  0  0  0
  150.5460  138.6294  154.7364 C   0  0  0  0  0  0  0  0  0  0  0  0
  150.8916  139.7288  155.5453 C   0  0  0  0  0  0  0  0  0  0  0  0
  151.0605  139.5400  156.9372 C   0  0  0  0  0  0  0  0  0  0  0  0
  151.4048  140.6309  157.7647 N   0  0  0  0  0  0  0  0  0  0  0  0
  152.4611  140.3743  158.7399 C   0  0  0  0  0  0  0  0  0  0  0  0
  152.5263  141.5127  159.7762 C   0  0  1  0  0  0  0  0  0  0  0  0
  153.7038  141.3441  160.7418 C   0  0  0  0  0  0  0  0  0  0  0  0
  152.6788  142.7572  159.0989 O   0  0  0  0  0  0  0  0  0  0  0  0
  151.5821  143.0446  158.2357 C   0  0  1  0  0  0  0  0  0  0  0  0
  151.7938  144.4383  157.6351 C   0  0  0  0  0  0  0  0  0  0  0  0
  151.4952  141.9543  157.1516 C   0  0  0  0  0  0  0  0  0  0  0  0
  150.9000  138.3223  157.5109 N   0  0  0  0  0  0  0  0  0  0  0  0
  150.5671  137.2717  156.7325 C   0  0  0  0  0  0  0  0  0  0  0  0
  146.5694  132.6796  152.0729 H   0  0  0  0  0  0  0  0  0  0  0  0
  147.8632  131.7621  152.8551 H   0  0  0  0  0  0  0  0  0  0  0  0
  148.2382  132.8757  151.5291 H   0  0  0  0  0  0  0  0  0  0  0  0
  150.1568  133.9657  153.1389 H   0  0  0  0  0  0  0  0  0  0  0  0
  150.8552  132.2812  154.8679 H   0  0  0  0  0  0  0  0  0  0  0  0
  149.5808  131.6869  153.8129 H   0  0  0  0  0  0  0  0  0  0  0  0
  149.1912  132.2082  155.4473 H   0  0  0  0  0  0  0  0  0  0  0  0
  149.6435  136.3256  153.7114 H   0  0  0  0  0  0  0  0  0  0  0  0
  150.4006  138.7866  153.6791 H   0  0  0  0  0  0  0  0  0  0  0  0
  151.0318  140.6969  155.0884 H   0  0  0  0  0  0  0  0  0  0  0  0
  152.3072  139.4297  159.2597 H   0  0  0  0  0  0  0  0  0  0  0  0
  153.4116  140.2928  158.2109 H   0  0  0  0  0  0  0  0  0  0  0  0
  151.6024  141.5326  160.3572 H   0  0  0  0  0  0  0  0  0  0  0  0
  153.6254  140.4090  161.2967 H   0  0  0  0  0  0  0  0  0  0  0  0
  153.7338  142.1589  161.4655 H   0  0  0  0  0  0  0  0  0  0  0  0
  154.6542  141.3380  160.2075 H   0  0  0  0  0  0  0  0  0  0  0  0
  150.6604  143.0560  158.8201 H   0  0  0  0  0  0  0  0  0  0  0  0
  150.9695  144.7102  156.9754 H   0  0  0  0  0  0  0  0  0  0  0  0
  152.7160  144.4821  157.0549 H   0  0  0  0  0  0  0  0  0  0  0  0
  151.8560  145.1942  158.4182 H   0  0  0  0  0  0  0  0  0  0  0  0
  152.3749  141.9928  156.5073 H   0  0  0  0  0  0  0  0  0  0  0  0
  150.6219  142.1373  156.5241 H   0  0  0  0  0  0  0  0  0  0  0  0
  150.4461  136.3270  157.2425 H   0  0  0  0  0  0  0  0  0  0  0  0
  1  2  1  0  0  0  0
  1 22  1  0  0  0  0
  1 23  1  0  0  0  0
  1 24  1  0  0  0  0
  2  3  1  0  0  0  0
  3  4  1  0  0  0  0
  3  5  1  0  0  0  0
  3 25  1  0  0  0  0
  4 26  1  0  0  0  0
  4 27  1  0  0  0  0
  4 28  1  0  0  0  0
  5  6  2  0  0  0  0
  5  7  1  0  0  0  0
  7  8  1  0  0  0  0
  7 29  1  0  0  0  0
  8 21  1  0  0  0  0
  8  9  2  0  0  0  0
  9 10  1  0  0  0  0
  9 30  1  0  0  0  0
 10 11  2  0  0  0  0
 10 31  1  0  0  0  0
 11 12  1  0  0  0  0
 11 20  1  0  0  0  0
 12 19  1  0  0  0  0
 12 13  1  0  0  0  0
 13 14  1  0  0  0  0
 13 32  1  0  0  0  0
 13 33  1  0  0  0  0
 14 15  1  0  0  0  0
 14 16  1  0  0  0  0
 14 34  1  0  0  0  0
 15 35  1  0  0  0  0
 15 36  1  0  0  0  0
 15 37  1  0  0  0  0
 16 17  1  0  0  0  0
 17 18  1  0  0  0  0
 17 19  1  0  0  0  0
 17 38  1  0  0  0  0
 18 39  1  0  0  0  0
 18 40  1  0  0  0  0
 18 41  1  0  0  0  0
 19 42  1  0  0  0  0
 19 43  1  0  0  0  0
 20 21  2  0  0  0  0
 21 44  1  0  0  0  0
M  END
> <s_m_source_file>
AV-unprocessed.smi

> <i_m_source_file_index>
2148

> <i_lp_mmshare_version>
43012

> <i_f3d_flags>
0

> <s_epik_input>
W0NIM11TW0NASF0oW0NIM10pQyg9TylbTkhdYzFbY0hdW2NIXWMobltjSF0xKU4yW0NIMl1bQ0BASF0oW0NIM10pT1tDQEBIXShbQ0gzXSlbQ0gyXTI=

> <s_epik_cmdline>
J2VwaWtfcHl0aG9uJywgJy1waCcsICc3LjAnLCAnLXRuJywgJzgnLCAnLW1hJywgJzIwMCcsICctbWV0YWxfYmluZGluZycsICctaW1hZScsICc8aW5maWxlLm1hZT4nLCAnLW9tYWUnLCAnPG91dGZpbGUubWFlPic=

> <r_lp_tautomer_probability>
1

> <r_epik_Ionization_Penalty>
0.000646494

> <r_epik_Ionization_Penalty_Charging>
0

> <r_epik_Ionization_Penalty_Neutral>
0.000646494

> <r_epik_State_Penalty>
0.000408447

> <r_epik_Charging_Adjusted_Penalty>
0.000408447

> <i_epik_Tot_Q>
0

> <i_epik_Tot_abs_Q>
0

> <r_epik_Metal_State_Penalty>
-0

> <b_epik_Metal_Only>
0

> <s_lp_Force_Field>
OPLS_2005

> <r_lp_Energy>
22.6119

> <b_lp_Chiralities_Consistent>
1

> <s_lp_Variant>
AV-unprocessed.smi:2148-1

> <Gold.Version>
5.8.1

> <Gold.Id.Protein>
6NUR|6NUR_protein|mol2

> <Gold.PLP.Fitness>
39.6741

> <Gold.PLP.PLP>
-36.9817

> <Gold.PLP.part.hbond>
-1.0000

> <Gold.PLP.part.metal>
0.0000

> <Gold.PLP.part.buried>
-5.2524

> <Gold.PLP.part.nonpolar>
-30.6947

> <Gold.PLP.part.repulsive>
0.0527

> <Gold.PLP.ligand.clash>
0.0000

> <Gold.PLP.ligand.torsion>
0.3298

> <Gold.PLP.Chemscore.Hbond>
1.0000

> <Gold.PLP.Chemscore.CHOScore>
0.0000

> <Gold.PLP.Chemscore.Metal>
0.0000

> <Gold.Chemscore.Hbonds>
donor molecule, donor type, donor heavy atom, donor atom, acceptor molecule, acceptor atom, score
      L1  H     7    29       P1  7948  1.00

> <Gold.PLP.Chemscore.Internal.Correction>
0.3520

> <Gold.Rescore>
     Score         DG    S(hbond)    S(metal)    S(lipo)     H(rot)  DE(clash)    DE(int)     intcor
     14.85     -16.79       0.92        0.00      98.19       1.27       0.07       1.87       ----

> <Gold.Chemscore.Fitness>
14.8502

> <Gold.Chemscore.DG>
-16.7950

> <Gold.Chemscore.ZeroCoef>
-5.4800

> <Gold.Chemscore.Hbond>
0.9183

> <Gold.Chemscore.Metal>
0.0000

> <Gold.Chemscore.Lipo>
98.1917

> <Gold.Chemscore.Internal_Hbond>
0.0000

> <Gold.Chemscore.DEClash>
0.0730

> <Gold.Chemscore.DEInternal>
1.8718

> <Gold.Chemscore.Rot>
1.2659

> <Gold.Chemscore.Internal.Correction>
   9.000000E+99

> <Gold.Chemscore.Hbonds>
donor molecule, donor type, donor heavy atom, donor atom, acceptor molecule, acceptor atom, score
      L1  H     7    29       P1  7948  0.50

> <Gold.Chemscore.Hbond.Weighted>
-3.0671

> <Gold.Chemscore.Metal.Weighted>
-0.0000

> <Gold.Chemscore.Lipo.Weighted>
-11.4884

> <Gold.Chemscore.Internal_Hbond.Weighted>
0.0000

> <Gold.Chemscore.DEClash.Weighted>
0.0730

> <Gold.Chemscore.DEInternal.Weighted>
1.8718

> <Gold.Chemscore.Rot.Weighted>
3.2406

> <Gold.Chemscore.Internal.Correction.Weighted>
   9.000000E+99

> <Gold.Protein.RotatedTorsions>
[ 6907 6896 6895 6894 ] final -153.50 input  -60.11 | X-H torsion
[ 7974 7965 7964 7962 ] final   82.73 input  175.53 | X-H torsion
[ 8008 7997 7996 7995 ] final  -30.87 input   59.86 | X-H torsion
[ 10167 10162 10161 10158 ] final   25.24 input  -65.29 | X-H torsion
[ 10718 10713 10712 10709 ] final   57.82 input   66.30 | X-H torsion
[ 10763 10752 10751 10750 ] final   56.91 input  -60.55 | X-H torsion
[ 11005 11000 10999 10996 ] final   14.79 input  -57.11 | X-H torsion

> <Gold.Protein.ActiveResidues>
 VAL166  LYS551  ARG553  GLY616  TRP617  ASP618  TYR619  PRO620  LYS621  CYS622 
 ASP623  PHE694  ASN695  SER759  ASP760  ASP761  ALA762  ILE779  LEU786  VAL792 
 PHE793  MET794  SER795  GLU796  ALA797  LYS798  CYS799  TRP800  GLU811  SER814 

> <Gold.Protein.RotatedAtoms>
  151.2436  133.4387  159.2608 H   0  0  0  0  0  0  0  0  0  0  0  0  # atno 6907 bound_to 6896
  151.0683  134.9782  159.8305 H   0  0  0  0  0  0  0  0  0  0  0  0  # atno 6908 bound_to 6896
  152.5408  134.2382  159.8904 H   0  0  0  0  0  0  0  0  0  0  0  0  # atno 6909 bound_to 6896
  145.6213  139.2386  143.2137 H   0  0  0  0  0  0  0  0  0  0  0  0  # atno 7974 bound_to 7965
  154.4234  140.1780  156.1475 H   0  0  0  0  0  0  0  0  0  0  0  0  # atno 8008 bound_to 7997
  155.9942  140.3366  155.6757 H   0  0  0  0  0  0  0  0  0  0  0  0  # atno 8009 bound_to 7997
  155.6331  140.0672  157.2633 H   0  0  0  0  0  0  0  0  0  0  0  0  # atno 8010 bound_to 7997
  140.5122  144.0141  150.6378 H   0  0  0  0  0  0  0  0  0  0  0  0  # atno 10167 bound_to 10162
  157.5546  130.8790  149.9015 H   0  0  0  0  0  0  0  0  0  0  0  0  # atno 10718 bound_to 10713
  152.9840  135.5660  154.5305 H   0  0  0  0  0  0  0  0  0  0  0  0  # atno 10763 bound_to 10752
  154.4778  135.2787  155.1596 H   0  0  0  0  0  0  0  0  0  0  0  0  # atno 10764 bound_to 10752
  154.3117  135.6287  153.5522 H   0  0  0  0  0  0  0  0  0  0  0  0  # atno 10765 bound_to 10752
  140.4655  134.1083  155.7723 H   0  0  0  0  0  0  0  0  0  0  0  0  # atno 11005 bound_to 11000
  146.1429  140.7033  142.9358 LP  0  0  0  0  0  0  0  0  0  0  0  0  # atno 17320 bound_to 7965
  144.7230  140.4435  143.6994 LP  0  0  0  0  0  0  0  0  0  0  0  0  # atno 17321 bound_to 7965
  140.3467  143.2987  152.0531 LP  0  0  0  0  0  0  0  0  0  0  0  0  # atno 17342 bound_to 10162
  139.4899  144.6404  151.6889 LP  0  0  0  0  0  0  0  0  0  0  0  0  # atno 17343 bound_to 10162
  156.0607  130.3700  150.0989 LP  0  0  0  0  0  0  0  0  0  0  0  0  # atno 17370 bound_to 10713
  156.9159  130.9667  151.3556 LP  0  0  0  0  0  0  0  0  0  0  0  0  # atno 17371 bound_to 10713
  141.1601  133.8809  157.1871 LP  0  0  0  0  0  0  0  0  0  0  0  0  # atno 17394 bound_to 11000
  139.9918  135.0062  156.9992 LP  0  0  0  0  0  0  0  0  0  0  0  0  # atno 17395 bound_to 11000

$$$$
