AV-unprocessed.smi:45|AV-procd|sdf|414|dock2
  -GOLD-   2262016283D 1   1.00000     0.00000
 Structure written by MMmdl.
 59 62  0  0  0  0  0  0  0  0  2 V2000
  154.2039  126.5802  155.3994 C   0  0  0  0  0  0  0  0  0  0  0  0
  153.9527  127.8247  156.0353 O   0  0  0  0  0  0  0  0  0  0  0  0
  152.7912  128.4980  155.7169 C   0  0  0  0  0  0  0  0  0  0  0  0
  151.7760  127.9681  154.8803 C   0  0  0  0  0  0  0  0  0  0  0  0
  150.6158  128.7157  154.6011 C   0  0  0  0  0  0  0  0  0  0  0  0
  150.4494  130.0019  155.1515 C   0  0  0  0  0  0  0  0  0  0  0  0
  149.1994  130.8052  154.8528 C   0  0  0  0  0  0  0  0  0  0  0  0
  149.2180  132.1332  155.4472 N   0  0  0  0  0  0  0  0  0  0  0  0
  148.2301  133.0848  155.1426 C   0  0  0  0  0  0  0  0  0  0  0  0
  147.5803  132.9613  153.9601 N   0  0  0  0  0  0  0  0  0  0  0  0
  146.6310  133.8530  153.6715 C   0  0  0  0  0  0  0  0  0  0  0  0
  146.0119  133.7030  152.4403 N   0  0  0  0  0  0  0  0  0  0  0  0
  145.7692  132.3591  151.9205 C   0  0  0  0  0  0  0  0  0  0  0  0
  144.4164  132.3922  151.1978 C   0  0  0  0  0  0  0  0  0  0  0  0
  144.1847  133.8735  150.9225 C   0  0  0  0  0  0  0  0  0  0  0  0
  144.8410  134.5212  152.1431 C   0  0  2  0  0  0  0  0  0  0  0  0
  145.1351  136.0316  152.0259 C   0  0  0  0  0  0  0  0  0  0  0  0
  145.8952  136.3309  150.8728 O   0  0  0  0  0  0  0  0  0  0  0  0
  146.2507  134.8777  154.4388 N   0  0  0  0  0  0  0  0  0  0  0  0
  146.8838  135.0184  155.6230 C   0  0  0  0  0  0  0  0  0  0  0  0
  147.9054  134.1342  156.0463 C   0  0  0  0  0  0  0  0  0  0  0  0
  148.6182  134.3443  157.3586 C   0  0  0  0  0  0  0  0  0  0  0  0
  149.3332  133.4342  157.7930 O   0  0  0  0  0  0  0  0  0  0  0  0
  148.3294  135.5585  157.9023 N   0  5  0  0  0  0  0  0  0  0  0  0
  149.0310  136.1347  159.0493 C   0  0  0  0  0  0  0  0  0  0  0  0
  148.2984  135.8475  160.3523 C   0  0  0  0  0  0  0  0  0  0  0  0
  148.0144  134.5658  160.6163 N   0  0  0  0  0  0  0  0  0  0  0  0
  147.3906  134.3040  161.7849 C   0  0  0  0  0  0  0  0  0  0  0  0
  147.0485  135.3292  162.6892 C   0  0  0  0  0  0  0  0  0  0  0  0
  147.3922  136.6404  162.3037 C   0  0  0  0  0  0  0  0  0  0  0  0
  148.0159  136.8975  161.1338 N   0  0  0  0  0  0  0  0  0  0  0  0
  151.4531  130.5351  155.9833 C   0  0  0  0  0  0  0  0  0  0  0  0
  152.6152  129.7897  156.2623 C   0  0  0  0  0  0  0  0  0  0  0  0
  153.8278  130.4746  157.2844 Cl  0  0  0  0  0  0  0  0  0  0  0  0
  144.1601  134.3934  152.9865 H   0  0  0  0  0  0  0  0  0  0  0  0
  155.1482  126.1755  155.7634 H   0  0  0  0  0  0  0  0  0  0  0  0
  154.2893  126.6941  154.3179 H   0  0  0  0  0  0  0  0  0  0  0  0
  153.4240  125.8523  155.6265 H   0  0  0  0  0  0  0  0  0  0  0  0
  151.8627  126.9874  154.4379 H   0  0  0  0  0  0  0  0  0  0  0  0
  149.8517  128.2987  153.9613 H   0  0  0  0  0  0  0  0  0  0  0  0
  149.0978  130.8960  153.7707 H   0  0  0  0  0  0  0  0  0  0  0  0
  148.3233  130.2643  155.2124 H   0  0  0  0  0  0  0  0  0  0  0  0
  149.9490  132.3693  156.1038 H   0  0  0  0  0  0  0  0  0  0  0  0
  146.5657  132.1257  151.2137 H   0  0  0  0  0  0  0  0  0  0  0  0
  145.7858  131.5919  152.6953 H   0  0  0  0  0  0  0  0  0  0  0  0
  144.4038  131.7836  150.2936 H   0  0  0  0  0  0  0  0  0  0  0  0
  143.6376  132.0190  151.8642 H   0  0  0  0  0  0  0  0  0  0  0  0
  144.6944  134.1588  150.0013 H   0  0  0  0  0  0  0  0  0  0  0  0
  143.1294  134.1280  150.8220 H   0  0  0  0  0  0  0  0  0  0  0  0
  144.1963  136.5819  151.9602 H   0  0  0  0  0  0  0  0  0  0  0  0
  145.6522  136.4053  152.9097 H   0  0  0  0  0  0  0  0  0  0  0  0
  145.6142  137.1687  150.5385 H   0  0  0  0  0  0  0  0  0  0  0  0
  146.5757  135.8584  156.2286 H   0  0  0  0  0  0  0  0  0  0  0  0
  150.0462  135.7425  159.1275 H   0  0  0  0  0  0  0  0  0  0  0  0
  149.1528  137.2163  158.9643 H   0  0  0  0  0  0  0  0  0  0  0  0
  147.1636  133.2704  162.0003 H   0  0  0  0  0  0  0  0  0  0  0  0
  146.5509  135.1218  163.6245 H   0  0  0  0  0  0  0  0  0  0  0  0
  147.1664  137.4858  162.9365 H   0  0  0  0  0  0  0  0  0  0  0  0
  151.3353  131.5210  156.4089 H   0  0  0  0  0  0  0  0  0  0  0  0
  1  2  1  0  0  0  0
  1 36  1  0  0  0  0
  1 37  1  0  0  0  0
  1 38  1  0  0  0  0
  2  3  1  0  0  0  0
  3 33  1  0  0  0  0
  3  4  2  0  0  0  0
  4  5  1  0  0  0  0
  4 39  1  0  0  0  0
  5  6  2  0  0  0  0
  5 40  1  0  0  0  0
  6  7  1  0  0  0  0
  6 32  1  0  0  0  0
  7  8  1  0  0  0  0
  7 41  1  0  0  0  0
  7 42  1  0  0  0  0
  8  9  1  0  0  0  0
  8 43  1  0  0  0  0
  9 21  1  0  0  0  0
  9 10  2  0  0  0  0
 10 11  1  0  0  0  0
 11 12  1  0  0  0  0
 11 19  2  0  0  0  0
 12 16  1  0  0  0  0
 12 13  1  0  0  0  0
 13 14  1  0  0  0  0
 13 44  1  0  0  0  0
 13 45  1  0  0  0  0
 14 15  1  0  0  0  0
 14 46  1  0  0  0  0
 14 47  1  0  0  0  0
 15 16  1  0  0  0  0
 15 48  1  0  0  0  0
 15 49  1  0  0  0  0
 16 35  1  0  0  0  0
 16 17  1  0  0  0  0
 17 18  1  0  0  0  0
 17 50  1  0  0  0  0
 17 51  1  0  0  0  0
 18 52  1  0  0  0  0
 19 20  1  0  0  0  0
 20 21  2  0  0  0  0
 20 53  1  0  0  0  0
 21 22  1  0  0  0  0
 22 23  2  0  0  0  0
 22 24  1  0  0  0  0
 24 25  1  0  0  0  0
 25 26  1  0  0  0  0
 25 54  1  0  0  0  0
 25 55  1  0  0  0  0
 26 31  1  0  0  0  0
 26 27  2  0  0  0  0
 27 28  1  0  0  0  0
 28 29  2  0  0  0  0
 28 56  1  0  0  0  0
 29 30  1  0  0  0  0
 29 57  1  0  0  0  0
 30 31  2  0  0  0  0
 30 58  1  0  0  0  0
 32 33  2  0  0  0  0
 32 59  1  0  0  0  0
 33 34  1  0  0  0  0
M  CHG  1  24  -1
M  END
> <s_m_source_file>
AV-unprocessed.smi

> <i_m_source_file_index>
45

> <i_lp_mmshare_version>
43012

> <i_f3d_flags>
0

> <s_epik_input>
W0NIM11PYzFbY0hdW2NIXWMoW2NIXWMxQ2wpW0NIMl1bTkhdYzJuYyhOM1tDSDJdW0NIMl1bQ0gyXVtDQEhdM1tDSDJdW09IXSluW2NIXWMyQyg9TylbTkhdW0NIMl1jNG5bY0hdW2NIXVtjSF1uNA==

> <s_epik_cmdline>
J2VwaWtfcHl0aG9uJywgJy1waCcsICc3LjAnLCAnLXRuJywgJzgnLCAnLW1hJywgJzIwMCcsICctbWV0YWxfYmluZGluZycsICctaW1hZScsICc8aW5maWxlLm1hZT4nLCAnLW9tYWUnLCAnPG91dGZpbGUubWFlPic=

> <r_lp_tautomer_probability>
1

> <r_epik_Ionization_Penalty>
7.35269

> <r_epik_Ionization_Penalty_Charging>
6.82087

> <r_epik_Ionization_Penalty_Neutral>
0.53182

> <r_epik_State_Penalty>
6.85781

> <r_epik_Charging_Adjusted_Penalty>
13.6787

> <i_epik_Tot_Q>
-1

> <i_epik_Tot_abs_Q>
1

> <r_epik_Metal_State_Penalty>
2.8146

> <b_epik_Metal_Only>
1

> <s_epik_Chemistry_Notes>
This compound contains an electron-poor aromatic ring that is susceptible to covalent hydrolysis at low pH, typically resulting in measured values for nitrogen ring protonation that are around two units higher than predicted values.

> <s_lp_Force_Field>
OPLS_2005

> <r_lp_Energy>
50.4559

> <b_lp_Chiralities_Consistent>
1

> <s_lp_Variant>
AV-unprocessed.smi:45-8

> <Gold.Version>
5.8.1

> <Gold.Id.Protein>
6NUR|6NUR_protein|mol2

> <Gold.PLP.Fitness>
59.7048

> <Gold.PLP.PLP>
-49.0784

> <Gold.PLP.part.hbond>
-4.0000

> <Gold.PLP.part.metal>
0.0000

> <Gold.PLP.part.buried>
-8.4309

> <Gold.PLP.part.nonpolar>
-37.2645

> <Gold.PLP.part.repulsive>
0.2360

> <Gold.PLP.ligand.clash>
0.0000

> <Gold.PLP.ligand.torsion>
0.9847

> <Gold.PLP.Chemscore.Hbond>
3.8800

> <Gold.PLP.Chemscore.CHOScore>
0.0000

> <Gold.PLP.Chemscore.Metal>
0.0000

> <Gold.Chemscore.Hbonds>
donor molecule, donor type, donor heavy atom, donor atom, acceptor molecule, acceptor atom, score
      L1  H    18    52       P1 10171  0.19
      P1  H  6896  6909       L1    23  0.83
      P1  H  6931  6943       L1    31  0.60
      P1  H  6934  6947       L1    31  0.21

> <Gold.PLP.Chemscore.Internal.Correction>
0.9558

> <Gold.Rescore>
     Score         DG    S(hbond)    S(metal)    S(lipo)     H(rot)  DE(clash)    DE(int)     intcor
     16.22     -20.07       3.24        0.00     100.12       3.11       0.01       3.84       ----

> <Gold.Chemscore.Fitness>
16.2233

> <Gold.Chemscore.DG>
-20.0693

> <Gold.Chemscore.ZeroCoef>
-5.4800

> <Gold.Chemscore.Hbond>
3.2428

> <Gold.Chemscore.Metal>
0.0000

> <Gold.Chemscore.Lipo>
100.1215

> <Gold.Chemscore.Internal_Hbond>
0.0000

> <Gold.Chemscore.DEClash>
0.0089

> <Gold.Chemscore.DEInternal>
3.8372

> <Gold.Chemscore.Rot>
3.1077

> <Gold.Chemscore.Internal.Correction>
   9.000000E+99

> <Gold.Chemscore.Hbonds>
donor molecule, donor type, donor heavy atom, donor atom, acceptor molecule, acceptor atom, score
      L1  H    18    52       P1 10171  0.20
      P1  H  6896  6909       L1    23  0.79
      P1  H  6931  6943       L1    31  0.04
      P1  H  6934  6947       L1    31  0.03

> <Gold.Chemscore.Hbond.Weighted>
-10.8308

> <Gold.Chemscore.Metal.Weighted>
-0.0000

> <Gold.Chemscore.Lipo.Weighted>
-11.7142

> <Gold.Chemscore.Internal_Hbond.Weighted>
0.0000

> <Gold.Chemscore.DEClash.Weighted>
0.0089

> <Gold.Chemscore.DEInternal.Weighted>
3.8372

> <Gold.Chemscore.Rot.Weighted>
7.9557

> <Gold.Chemscore.Internal.Correction.Weighted>
   9.000000E+99

> <Gold.Protein.RotatedTorsions>
[ 6907 6896 6895 6894 ] final    7.92 input  -60.11 | X-H torsion
[ 7974 7965 7964 7962 ] final -156.59 input  175.53 | X-H torsion
[ 8008 7997 7996 7995 ] final  140.60 input   59.86 | X-H torsion
[ 10167 10162 10161 10158 ] final   10.62 input  -65.29 | X-H torsion
[ 10718 10713 10712 10709 ] final   22.61 input   66.30 | X-H torsion
[ 10763 10752 10751 10750 ] final   81.43 input  -60.55 | X-H torsion
[ 11005 11000 10999 10996 ] final  -65.95 input  -57.11 | X-H torsion

> <Gold.Protein.ActiveResidues>
 VAL166  LYS551  ARG553  GLY616  TRP617  ASP618  TYR619  PRO620  LYS621  CYS622 
 ASP623  PHE694  ASN695  SER759  ASP760  ASP761  ALA762  ILE779  LEU786  VAL792 
 PHE793  MET794  SER795  GLU796  ALA797  LYS798  CYS799  TRP800  GLU811  SER814 

> <Gold.Protein.RotatedAtoms>
  151.6977  135.0935  160.0245 H   0  0  0  0  0  0  0  0  0  0  0  0  # atno 6907 bound_to 6896
  152.3739  133.6451  159.6117 H   0  0  0  0  0  0  0  0  0  0  0  0  # atno 6908 bound_to 6896
  150.7694  133.9141  159.3419 H   0  0  0  0  0  0  0  0  0  0  0  0  # atno 6909 bound_to 6896
  144.7586  140.4088  143.5993 H   0  0  0  0  0  0  0  0  0  0  0  0  # atno 7974 bound_to 7965
  156.2977  140.2337  156.4428 H   0  0  0  0  0  0  0  0  0  0  0  0  # atno 8008 bound_to 7997
  154.8170  140.0440  157.1404 H   0  0  0  0  0  0  0  0  0  0  0  0  # atno 8009 bound_to 7997
  154.9358  140.3023  155.5149 H   0  0  0  0  0  0  0  0  0  0  0  0  # atno 8010 bound_to 7997
  140.6183  143.8260  150.7144 H   0  0  0  0  0  0  0  0  0  0  0  0  # atno 10167 bound_to 10162
  157.1547  130.6690  149.6023 H   0  0  0  0  0  0  0  0  0  0  0  0  # atno 10718 bound_to 10713
  153.1117  135.4765  154.9045 H   0  0  0  0  0  0  0  0  0  0  0  0  # atno 10763 bound_to 10752
  154.7487  135.3100  154.8600 H   0  0  0  0  0  0  0  0  0  0  0  0  # atno 10764 bound_to 10752
  153.9188  135.6857  153.4802 H   0  0  0  0  0  0  0  0  0  0  0  0  # atno 10765 bound_to 10752
  141.1469  133.6690  156.6064 H   0  0  0  0  0  0  0  0  0  0  0  0  # atno 11005 bound_to 11000
  145.6694  139.1596  143.2763 LP  0  0  0  0  0  0  0  0  0  0  0  0  # atno 17320 bound_to 7965
  146.1625  140.6767  142.9271 LP  0  0  0  0  0  0  0  0  0  0  0  0  # atno 17321 bound_to 7965
  140.1844  143.4088  152.1909 LP  0  0  0  0  0  0  0  0  0  0  0  0  # atno 17342 bound_to 10162
  139.5417  144.7262  151.4713 LP  0  0  0  0  0  0  0  0  0  0  0  0  # atno 17343 bound_to 10162
  155.9764  130.4732  150.6527 LP  0  0  0  0  0  0  0  0  0  0  0  0  # atno 17370 bound_to 10713
  157.4188  131.0834  151.1150 LP  0  0  0  0  0  0  0  0  0  0  0  0  # atno 17371 bound_to 10713
  140.3648  134.7656  157.4559 LP  0  0  0  0  0  0  0  0  0  0  0  0  # atno 17394 bound_to 11000
  140.0756  134.5801  155.8594 LP  0  0  0  0  0  0  0  0  0  0  0  0  # atno 17395 bound_to 11000

$$$$
