AV-unprocessed.smi:1320|AV-procd|sdf|5460|dock6
  -GOLD-   22720 5 33D 1   1.00000     0.00000
 Structure written by MMmdl.
 36 37  0  0  0  0  0  0  0  0  1 V2000
  143.3792  136.2922  154.0659 O   0  0  0  0  0  0  0  0  0  0  0  0
  143.3161  137.2051  153.2445 C   0  0  0  0  0  0  0  0  0  0  0  0
  144.2442  137.4168  152.2949 N   0  0  0  0  0  0  0  0  0  0  0  0
  145.4736  136.6471  152.1212 C   0  0  0  0  0  0  0  0  0  0  0  0
  145.5854  136.0181  150.7181 C   0  0  0  0  0  0  0  0  0  0  0  0
  145.3314  134.5197  150.6913 C   0  0  0  0  0  0  0  0  0  0  0  0
  144.0833  134.0125  150.2720 C   0  0  0  0  0  0  0  0  0  0  0  0
  143.8829  132.6187  150.2967 C   0  0  0  0  0  0  0  0  0  0  0  0
  144.9326  131.7900  150.7377 C   0  0  0  0  0  0  0  0  0  0  0  0
  146.1415  132.3945  151.1357 C   0  0  0  0  0  0  0  0  0  0  0  0
  146.3444  133.7293  151.1151 N   0  0  0  0  0  0  0  0  0  0  0  0
  142.2943  138.0796  153.2354 N   0  0  0  0  0  0  0  0  0  0  0  0
  141.1347  138.1227  154.1291 C   0  0  0  0  0  0  0  0  0  0  0  0
  140.2672  136.8612  153.9553 C   0  0  0  0  0  0  0  0  0  0  0  0
  138.8245  137.3527  153.8286 C   0  0  0  0  0  0  0  0  0  0  0  0
  138.9515  138.7290  153.1846 C   0  0  0  0  0  0  0  0  0  0  0  0
  140.2154  139.3200  153.8105 C   0  0  0  0  0  0  0  0  0  0  0  0
  144.1019  138.1921  151.6638 H   0  0  0  0  0  0  0  0  0  0  0  0
  146.3489  137.2681  152.3182 H   0  0  0  0  0  0  0  0  0  0  0  0
  145.4882  135.8595  152.8745 H   0  0  0  0  0  0  0  0  0  0  0  0
  144.8810  136.5059  150.0433 H   0  0  0  0  0  0  0  0  0  0  0  0
  146.5770  136.2161  150.3082 H   0  0  0  0  0  0  0  0  0  0  0  0
  143.2943  134.6754  149.9485 H   0  0  0  0  0  0  0  0  0  0  0  0
  142.9401  132.1933  149.9860 H   0  0  0  0  0  0  0  0  0  0  0  0
  144.8139  130.7172  150.7718 H   0  0  0  0  0  0  0  0  0  0  0  0
  146.9673  131.7904  151.4809 H   0  0  0  0  0  0  0  0  0  0  0  0
  142.3097  138.7780  152.5063 H   0  0  0  0  0  0  0  0  0  0  0  0
  141.4658  138.1807  155.1676 H   0  0  0  0  0  0  0  0  0  0  0  0
  140.5400  136.3286  153.0425 H   0  0  0  0  0  0  0  0  0  0  0  0
  140.3876  136.1611  154.7826 H   0  0  0  0  0  0  0  0  0  0  0  0
  138.1982  136.6729  153.2502 H   0  0  0  0  0  0  0  0  0  0  0  0
  138.3812  137.4520  154.8203 H   0  0  0  0  0  0  0  0  0  0  0  0
  139.0907  138.6190  152.1082 H   0  0  0  0  0  0  0  0  0  0  0  0
  138.0713  139.3520  153.3458 H   0  0  0  0  0  0  0  0  0  0  0  0
  139.9533  139.8270  154.7401 H   0  0  0  0  0  0  0  0  0  0  0  0
  140.6786  140.0647  153.1615 H   0  0  0  0  0  0  0  0  0  0  0  0
  1  2  2  0  0  0  0
  2  3  1  0  0  0  0
  2 12  1  0  0  0  0
  3  4  1  0  0  0  0
  3 18  1  0  0  0  0
  4  5  1  0  0  0  0
  4 19  1  0  0  0  0
  4 20  1  0  0  0  0
  5  6  1  0  0  0  0
  5 21  1  0  0  0  0
  5 22  1  0  0  0  0
  6 11  1  0  0  0  0
  6  7  2  0  0  0  0
  7  8  1  0  0  0  0
  7 23  1  0  0  0  0
  8  9  2  0  0  0  0
  8 24  1  0  0  0  0
  9 10  1  0  0  0  0
  9 25  1  0  0  0  0
 10 11  2  0  0  0  0
 10 26  1  0  0  0  0
 12 13  1  0  0  0  0
 12 27  1  0  0  0  0
 13 17  1  0  0  0  0
 13 14  1  0  0  0  0
 13 28  1  0  0  0  0
 14 15  1  0  0  0  0
 14 29  1  0  0  0  0
 14 30  1  0  0  0  0
 15 16  1  0  0  0  0
 15 31  1  0  0  0  0
 15 32  1  0  0  0  0
 16 17  1  0  0  0  0
 16 33  1  0  0  0  0
 16 34  1  0  0  0  0
 17 35  1  0  0  0  0
 17 36  1  0  0  0  0
M  END
> <s_m_source_file>
AV-unprocessed.smi

> <i_m_source_file_index>
1320

> <i_lp_mmshare_version>
43012

> <i_f3d_flags>
0

> <s_epik_input>
W0NIMl0xW0NIMl1bQ0gyXVtDSDJdW0NIXTFbTkhdQyg9TylbTkhdW0NIMl1bQ0gyXWMyW2NIXVtjSF1bY0hdW2NIXW4y

> <s_epik_cmdline>
J2VwaWtfcHl0aG9uJywgJy1waCcsICc3LjAnLCAnLXRuJywgJzgnLCAnLW1hJywgJzIwMCcsICctbWV0YWxfYmluZGluZycsICctaW1hZScsICc8aW5maWxlLm1hZT4nLCAnLW9tYWUnLCAnPG91dGZpbGUubWFlPic=

> <r_epik_Ionization_Penalty>
0.0441051

> <r_epik_Ionization_Penalty_Charging>
0

> <r_epik_Ionization_Penalty_Neutral>
0.0441051

> <r_epik_State_Penalty>
0.0373009

> <r_epik_Charging_Adjusted_Penalty>
0.0373009

> <i_epik_Tot_Q>
0

> <i_epik_Tot_abs_Q>
0

> <r_epik_Metal_State_Penalty>
0.0347078

> <b_epik_Metal_Only>
0

> <s_lp_Force_Field>
OPLS_2005

> <r_lp_Energy>
26.6462

> <b_lp_Chiralities_Consistent>
1

> <s_lp_Variant>
AV-unprocessed.smi:1320-1

> <Gold.Version>
5.8.1

> <Gold.Id.Protein>
6NUR|6NUR_protein|mol2

> <Gold.PLP.Fitness>
41.3824

> <Gold.PLP.PLP>
-35.8091

> <Gold.PLP.part.hbond>
-2.8087

> <Gold.PLP.part.metal>
0.0000

> <Gold.PLP.part.buried>
-4.5183

> <Gold.PLP.part.nonpolar>
-28.7558

> <Gold.PLP.part.repulsive>
0.2943

> <Gold.PLP.ligand.clash>
0.0000

> <Gold.PLP.ligand.torsion>
0.5930

> <Gold.PLP.Chemscore.Hbond>
1.2669

> <Gold.PLP.Chemscore.CHOScore>
0.9846

> <Gold.PLP.Chemscore.Metal>
0.0000

> <Gold.Chemscore.Hbonds>
donor molecule, donor type, donor heavy atom, donor atom, acceptor molecule, acceptor atom, score
      L1  H     3    18       P1 10171  0.85
      L1  H    12    27       P1 10175  0.42
      L1  C    10    26       P1 10747  1.00

> <Gold.PLP.Chemscore.Internal.Correction>
0.0049

> <Gold.Rescore>
     Score         DG    S(hbond)    S(metal)    S(lipo)     H(rot)  DE(clash)    DE(int)     intcor
     15.98     -16.52       1.39        0.00      87.64       1.51       0.16       0.38       ----

> <Gold.Chemscore.Fitness>
15.9837

> <Gold.Chemscore.DG>
-16.5214

> <Gold.Chemscore.ZeroCoef>
-5.4800

> <Gold.Chemscore.Hbond>
1.3899

> <Gold.Chemscore.Metal>
0.0000

> <Gold.Chemscore.Lipo>
87.6432

> <Gold.Chemscore.Internal_Hbond>
0.0000

> <Gold.Chemscore.DEClash>
0.1564

> <Gold.Chemscore.DEInternal>
0.3813

> <Gold.Chemscore.Rot>
1.5060

> <Gold.Chemscore.Internal.Correction>
   9.000000E+99

> <Gold.Chemscore.Hbonds>
donor molecule, donor type, donor heavy atom, donor atom, acceptor molecule, acceptor atom, score
      L1  H     3    18       P1 10171  0.83
      L1  H    12    27       P1 10175  0.40

> <Gold.Chemscore.Hbond.Weighted>
-4.6424

> <Gold.Chemscore.Metal.Weighted>
-0.0000

> <Gold.Chemscore.Lipo.Weighted>
-10.2543

> <Gold.Chemscore.Internal_Hbond.Weighted>
0.0000

> <Gold.Chemscore.DEClash.Weighted>
0.1564

> <Gold.Chemscore.DEInternal.Weighted>
0.3813

> <Gold.Chemscore.Rot.Weighted>
3.8553

> <Gold.Chemscore.Internal.Correction.Weighted>
   9.000000E+99

> <Gold.Protein.RotatedTorsions>
[ 6907 6896 6895 6894 ] final  160.71 input  -60.11 | X-H torsion
[ 7974 7965 7964 7962 ] final   19.70 input  175.53 | X-H torsion
[ 8008 7997 7996 7995 ] final   62.15 input   59.86 | X-H torsion
[ 10167 10162 10161 10158 ] final -140.58 input  -65.29 | X-H torsion
[ 10718 10713 10712 10709 ] final -156.31 input   66.30 | X-H torsion
[ 10763 10752 10751 10750 ] final  130.35 input  -60.55 | X-H torsion
[ 11005 11000 10999 10996 ] final   20.20 input  -57.11 | X-H torsion

> <Gold.Protein.ActiveResidues>
 VAL166  LYS551  ARG553  GLY616  TRP617  ASP618  TYR619  PRO620  LYS621  CYS622 
 ASP623  PHE694  ASN695  SER759  ASP760  ASP761  ALA762  ILE779  LEU786  VAL792 
 PHE793  MET794  SER795  GLU796  ALA797  LYS798  CYS799  TRP800  GLU811  SER814 

> <Gold.Protein.RotatedAtoms>
  151.9665  133.3712  159.4054 H   0  0  0  0  0  0  0  0  0  0  0  0  # atno 6907 bound_to 6896
  150.6955  134.4185  159.5203 H   0  0  0  0  0  0  0  0  0  0  0  0  # atno 6908 bound_to 6896
  152.1882  134.8695  160.0571 H   0  0  0  0  0  0  0  0  0  0  0  0  # atno 6909 bound_to 6896
  146.2139  139.8276  142.8667 H   0  0  0  0  0  0  0  0  0  0  0  0  # atno 7974 bound_to 7965
  155.6097  140.3495  155.4618 H   0  0  0  0  0  0  0  0  0  0  0  0  # atno 8008 bound_to 7997
  156.0164  140.1244  157.0426 H   0  0  0  0  0  0  0  0  0  0  0  0  # atno 8009 bound_to 7997
  154.4299  140.1071  156.5887 H   0  0  0  0  0  0  0  0  0  0  0  0  # atno 8010 bound_to 7997
  139.8267  143.7501  152.2666 H   0  0  0  0  0  0  0  0  0  0  0  0  # atno 10167 bound_to 10162
  156.5248  130.8494  151.2695 H   0  0  0  0  0  0  0  0  0  0  0  0  # atno 10718 bound_to 10713
  153.7566  135.3202  155.3330 H   0  0  0  0  0  0  0  0  0  0  0  0  # atno 10763 bound_to 10752
  154.8245  135.4580  154.0879 H   0  0  0  0  0  0  0  0  0  0  0  0  # atno 10764 bound_to 10752
  153.2097  135.6934  153.8212 H   0  0  0  0  0  0  0  0  0  0  0  0  # atno 10765 bound_to 10752
  140.4052  134.1676  155.7665 H   0  0  0  0  0  0  0  0  0  0  0  0  # atno 11005 bound_to 11000
  145.3031  141.0199  143.3597 LP  0  0  0  0  0  0  0  0  0  0  0  0  # atno 17320 bound_to 7965
  144.8991  139.4673  143.6641 LP  0  0  0  0  0  0  0  0  0  0  0  0  # atno 17321 bound_to 7965
  139.7696  144.7481  151.0244 LP  0  0  0  0  0  0  0  0  0  0  0  0  # atno 17342 bound_to 10162
  140.7809  143.4660  151.0212 LP  0  0  0  0  0  0  0  0  0  0  0  0  # atno 17343 bound_to 10162
  157.7431  130.9905  150.2568 LP  0  0  0  0  0  0  0  0  0  0  0  0  # atno 17370 bound_to 10713
  156.3115  130.3772  149.7657 LP  0  0  0  0  0  0  0  0  0  0  0  0  # atno 17371 bound_to 10713
  141.1842  133.8349  157.1149 LP  0  0  0  0  0  0  0  0  0  0  0  0  # atno 17394 bound_to 11000
  140.0307  134.9902  157.0774 LP  0  0  0  0  0  0  0  0  0  0  0  0  # atno 17395 bound_to 11000

$$$$
