AV-unprocessed.smi:1824|AV-procd|sdf|7393|dock8
  -GOLD-   22720 9 63D 1   1.00000     0.00000
 Structure written by MMmdl.
 44 46  0  0  0  0  0  0  0  0  1 V2000
  149.3357  141.4220  156.6473 C   0  0  0  0  0  0  0  0  0  0  0  0
  149.5978  141.4370  155.1317 C   0  0  2  0  0  0  0  0  0  0  0  0
  148.3476  141.1083  154.2915 C   0  0  0  0  0  0  0  0  0  0  0  0
  147.9876  139.6952  154.3411 N   0  0  0  0  0  0  0  0  0  0  0  0
  146.7996  139.4288  153.5305 C   0  0  0  0  0  0  0  0  0  0  0  0
  146.8686  138.1546  152.6620 C   0  0  2  0  0  0  0  0  0  0  0  0
  147.3987  138.4866  151.3922 O   0  0  0  0  0  0  0  0  0  0  0  0
  145.4790  137.5176  152.4637 C   0  0  0  0  0  0  0  0  0  0  0  0
  145.5558  136.1678  151.9332 N   0  0  0  0  0  0  0  0  0  0  0  0
  144.9936  135.7042  150.8004 C   0  0  0  0  0  0  0  0  0  0  0  0
  145.1914  134.4230  150.5022 N   0  0  0  0  0  0  0  0  0  0  0  0
  145.9727  134.0056  151.5663 C   0  0  0  0  0  0  0  0  0  0  0  0
  146.5290  132.7391  151.8549 C   0  0  0  0  0  0  0  0  0  0  0  0
  147.3041  132.5468  153.0177 C   0  0  0  0  0  0  0  0  0  0  0  0
  147.8300  131.3266  153.2792 F   0  0  0  0  0  0  0  0  0  0  0  0
  147.5340  133.6168  153.9081 C   0  0  0  0  0  0  0  0  0  0  0  0
  148.2798  133.4239  155.0217 F   0  0  0  0  0  0  0  0  0  0  0  0
  146.9894  134.8876  153.6417 C   0  0  0  0  0  0  0  0  0  0  0  0
  146.2175  135.0743  152.4805 C   0  0  0  0  0  0  0  0  0  0  0  0
  149.1386  138.8976  153.9307 C   0  0  0  0  0  0  0  0  0  0  0  0
  150.3748  139.1786  154.8042 C   0  0  1  0  0  0  0  0  0  0  0  0
  151.6092  138.4125  154.3173 C   0  0  0  0  0  0  0  0  0  0  0  0
  150.6759  140.5724  154.7704 O   0  0  0  0  0  0  0  0  0  0  0  0
  148.5875  142.1670  156.9185 H   0  0  0  0  0  0  0  0  0  0  0  0
  150.2462  141.6516  157.2012 H   0  0  0  0  0  0  0  0  0  0  0  0
  148.9705  140.4544  156.9912 H   0  0  0  0  0  0  0  0  0  0  0  0
  149.9170  142.4475  154.8751 H   0  0  0  0  0  0  0  0  0  0  0  0
  147.5105  141.7198  154.6307 H   0  0  0  0  0  0  0  0  0  0  0  0
  148.5366  141.3960  153.2558 H   0  0  0  0  0  0  0  0  0  0  0  0
  145.9590  139.3099  154.2156 H   0  0  0  0  0  0  0  0  0  0  0  0
  146.5502  140.2974  152.9188 H   0  0  0  0  0  0  0  0  0  0  0  0
  147.5251  137.4217  153.1335 H   0  0  0  0  0  0  0  0  0  0  0  0
  147.9662  139.2358  151.4896 H   0  0  0  0  0  0  0  0  0  0  0  0
  144.9451  137.4742  153.4138 H   0  0  0  0  0  0  0  0  0  0  0  0
  144.8710  138.1255  151.7916 H   0  0  0  0  0  0  0  0  0  0  0  0
  144.4076  136.3442  150.1568 H   0  0  0  0  0  0  0  0  0  0  0  0
  146.3596  131.9127  151.1806 H   0  0  0  0  0  0  0  0  0  0  0  0
  147.1643  135.7091  154.3206 H   0  0  0  0  0  0  0  0  0  0  0  0
  148.9023  137.8358  153.9974 H   0  0  0  0  0  0  0  0  0  0  0  0
  149.3741  139.1010  152.8847 H   0  0  0  0  0  0  0  0  0  0  0  0
  150.1693  138.8780  155.8321 H   0  0  0  0  0  0  0  0  0  0  0  0
  151.4352  137.3365  154.3353 H   0  0  0  0  0  0  0  0  0  0  0  0
  152.4713  138.6204  154.9514 H   0  0  0  0  0  0  0  0  0  0  0  0
  151.8711  138.6927  153.2967 H   0  0  0  0  0  0  0  0  0  0  0  0
  1  2  1  0  0  0  0
  1 24  1  0  0  0  0
  1 25  1  0  0  0  0
  1 26  1  0  0  0  0
  2 23  1  0  0  0  0
  2  3  1  0  0  0  0
  2 27  1  0  0  0  0
  3  4  1  0  0  0  0
  3 28  1  0  0  0  0
  3 29  1  0  0  0  0
  4  5  1  0  0  0  0
  4 20  1  0  0  0  0
  5  6  1  0  0  0  0
  5 30  1  0  0  0  0
  5 31  1  0  0  0  0
  6  7  1  0  0  0  0
  6  8  1  0  0  0  0
  6 32  1  0  0  0  0
  7 33  1  0  0  0  0
  8  9  1  0  0  0  0
  8 34  1  0  0  0  0
  8 35  1  0  0  0  0
  9 19  1  0  0  0  0
  9 10  1  0  0  0  0
 10 11  2  0  0  0  0
 10 36  1  0  0  0  0
 11 12  1  0  0  0  0
 12 19  2  0  0  0  0
 12 13  1  0  0  0  0
 13 14  2  0  0  0  0
 13 37  1  0  0  0  0
 14 15  1  0  0  0  0
 14 16  1  0  0  0  0
 16 17  1  0  0  0  0
 16 18  2  0  0  0  0
 18 19  1  0  0  0  0
 18 38  1  0  0  0  0
 20 21  1  0  0  0  0
 20 39  1  0  0  0  0
 20 40  1  0  0  0  0
 21 22  1  0  0  0  0
 21 23  1  0  0  0  0
 21 41  1  0  0  0  0
 22 42  1  0  0  0  0
 22 43  1  0  0  0  0
 22 44  1  0  0  0  0
M  END
> <s_m_source_file>
AV-unprocessed.smi

> <i_m_source_file_index>
1824

> <i_lp_mmshare_version>
43012

> <i_f3d_flags>
0

> <s_epik_input>
W0NIM11bQ0BASF0xW0NIMl1OKFtDSDJdW0NASF0oTzEpW0NIM10pW0NIMl1bQ0BIXShbT0hdKVtDSDJdbihbY0hdbjIpYyhjMjMpW2NIXWMoRiljKEYpW2NIXTM=

> <s_epik_cmdline>
J2VwaWtfcHl0aG9uJywgJy1waCcsICc3LjAnLCAnLXRuJywgJzgnLCAnLW1hJywgJzIwMCcsICctbWV0YWxfYmluZGluZycsICctaW1hZScsICc8aW5maWxlLm1hZT4nLCAnLW9tYWUnLCAnPG91dGZpbGUubWFlPic=

> <r_epik_Ionization_Penalty>
0.273778

> <r_epik_Ionization_Penalty_Charging>
0

> <r_epik_Ionization_Penalty_Neutral>
0.273778

> <r_epik_State_Penalty>
0.246794

> <r_epik_Charging_Adjusted_Penalty>
0.246794

> <i_epik_Tot_Q>
0

> <i_epik_Tot_abs_Q>
0

> <r_epik_Metal_State_Penalty>
0.238234

> <b_epik_Metal_Only>
0

> <s_lp_Force_Field>
OPLS_2005

> <r_lp_Energy>
29.8683

> <b_lp_Chiralities_Consistent>
1

> <s_lp_Variant>
AV-unprocessed.smi:1824-1

> <Gold.Version>
5.8.1

> <Gold.Id.Protein>
6NUR|6NUR_protein|mol2

> <Gold.PLP.Fitness>
45.5503

> <Gold.PLP.PLP>
-38.1764

> <Gold.PLP.part.hbond>
-4.0000

> <Gold.PLP.part.metal>
0.0000

> <Gold.PLP.part.buried>
0.7928

> <Gold.PLP.part.nonpolar>
-34.4906

> <Gold.PLP.part.repulsive>
0.8737

> <Gold.PLP.ligand.clash>
1.6395

> <Gold.PLP.ligand.torsion>
1.1175

> <Gold.PLP.Chemscore.Hbond>
2.7420

> <Gold.PLP.Chemscore.CHOScore>
1.0000

> <Gold.PLP.Chemscore.Metal>
0.0000

> <Gold.Chemscore.Hbonds>
donor molecule, donor type, donor heavy atom, donor atom, acceptor molecule, acceptor atom, score
      L1  H     7    33       P1  7957  0.96
      P1  H  7954  7966       L1     7  0.75
      P1  H  7989  7998       L1    23  0.99
      L1  C    10    36       P1 10171  1.00

> <Gold.PLP.Chemscore.Internal.Correction>
0.0224

> <Gold.Rescore>
     Score         DG    S(hbond)    S(metal)    S(lipo)     H(rot)  DE(clash)    DE(int)     intcor
     13.55     -14.94       1.78        0.00      79.51       2.26       0.16       1.23       ----

> <Gold.Chemscore.Fitness>
13.5523

> <Gold.Chemscore.DG>
-14.9437

> <Gold.Chemscore.ZeroCoef>
-5.4800

> <Gold.Chemscore.Hbond>
1.7819

> <Gold.Chemscore.Metal>
0.0000

> <Gold.Chemscore.Lipo>
79.5108

> <Gold.Chemscore.Internal_Hbond>
0.0000

> <Gold.Chemscore.DEClash>
0.1611

> <Gold.Chemscore.DEInternal>
1.2303

> <Gold.Chemscore.Rot>
2.2619

> <Gold.Chemscore.Internal.Correction>
   9.000000E+99

> <Gold.Chemscore.Hbonds>
donor molecule, donor type, donor heavy atom, donor atom, acceptor molecule, acceptor atom, score
      L1  H     7    33       P1  7957  0.85
      P1  H  7954  7966       L1     7  0.09
      P1  H  7989  7998       L1    23  0.69

> <Gold.Chemscore.Hbond.Weighted>
-5.9514

> <Gold.Chemscore.Metal.Weighted>
-0.0000

> <Gold.Chemscore.Lipo.Weighted>
-9.3028

> <Gold.Chemscore.Internal_Hbond.Weighted>
0.0000

> <Gold.Chemscore.DEClash.Weighted>
0.1611

> <Gold.Chemscore.DEInternal.Weighted>
1.2303

> <Gold.Chemscore.Rot.Weighted>
5.7904

> <Gold.Chemscore.Internal.Correction.Weighted>
   9.000000E+99

> <Gold.Protein.RotatedTorsions>
[ 6907 6896 6895 6894 ] final -136.97 input  -60.11 | X-H torsion
[ 7974 7965 7964 7962 ] final  -13.37 input  175.53 | X-H torsion
[ 8008 7997 7996 7995 ] final   -5.51 input   59.86 | X-H torsion
[ 10167 10162 10161 10158 ] final  -40.11 input  -65.29 | X-H torsion
[ 10718 10713 10712 10709 ] final -148.49 input   66.30 | X-H torsion
[ 10763 10752 10751 10750 ] final   27.49 input  -60.55 | X-H torsion
[ 11005 11000 10999 10996 ] final  -68.80 input  -57.11 | X-H torsion

> <Gold.Protein.ActiveResidues>
 VAL166  LYS551  ARG553  GLY616  TRP617  ASP618  TYR619  PRO620  LYS621  CYS622 
 ASP623  PHE694  ASN695  SER759  ASP760  ASP761  ALA762  ILE779  LEU786  VAL792 
 PHE793  MET794  SER795  GLU796  ALA797  LYS798  CYS799  TRP800  GLU811  SER814 

> <Gold.Protein.RotatedAtoms>
  151.0167  133.5915  159.2675 H   0  0  0  0  0  0  0  0  0  0  0  0  # atno 6907 bound_to 6896
  151.3047  135.0777  159.9261 H   0  0  0  0  0  0  0  0  0  0  0  0  # atno 6908 bound_to 6896
  152.5313  133.9842  159.7875 H   0  0  0  0  0  0  0  0  0  0  0  0  # atno 6909 bound_to 6896
  146.2117  140.3193  142.8389 H   0  0  0  0  0  0  0  0  0  0  0  0  # atno 7974 bound_to 7965
  154.6032  140.2456  155.7766 H   0  0  0  0  0  0  0  0  0  0  0  0  # atno 8008 bound_to 7997
  156.2324  140.2962  156.0175 H   0  0  0  0  0  0  0  0  0  0  0  0  # atno 8009 bound_to 7997
  155.2177  140.0399  157.2934 H   0  0  0  0  0  0  0  0  0  0  0  0  # atno 8010 bound_to 7997
  140.7044  143.3173  151.2877 H   0  0  0  0  0  0  0  0  0  0  0  0  # atno 10167 bound_to 10162
  156.4209  130.8028  151.2251 H   0  0  0  0  0  0  0  0  0  0  0  0  # atno 10718 bound_to 10713
  153.0552  135.6535  154.0595 H   0  0  0  0  0  0  0  0  0  0  0  0  # atno 10763 bound_to 10752
  154.0274  135.2914  155.3374 H   0  0  0  0  0  0  0  0  0  0  0  0  # atno 10764 bound_to 10752
  154.6863  135.5300  153.8398 H   0  0  0  0  0  0  0  0  0  0  0  0  # atno 10765 bound_to 10752
  141.1540  133.6749  156.6501 H   0  0  0  0  0  0  0  0  0  0  0  0  # atno 11005 bound_to 11000
  144.8932  140.7550  143.5914 LP  0  0  0  0  0  0  0  0  0  0  0  0  # atno 17320 bound_to 7965
  145.3116  139.1817  143.4636 LP  0  0  0  0  0  0  0  0  0  0  0  0  # atno 17321 bound_to 7965
  139.6616  144.0179  152.2696 LP  0  0  0  0  0  0  0  0  0  0  0  0  # atno 17342 bound_to 10162
  139.9748  144.6469  150.7955 LP  0  0  0  0  0  0  0  0  0  0  0  0  # atno 17343 bound_to 10162
  157.7508  131.0228  150.3808 LP  0  0  0  0  0  0  0  0  0  0  0  0  # atno 17370 bound_to 10713
  156.4126  130.3937  149.6881 LP  0  0  0  0  0  0  0  0  0  0  0  0  # atno 17371 bound_to 10713
  140.3326  134.7916  157.4338 LP  0  0  0  0  0  0  0  0  0  0  0  0  # atno 17394 bound_to 11000
  140.1004  134.5481  155.8359 LP  0  0  0  0  0  0  0  0  0  0  0  0  # atno 17395 bound_to 11000

$$$$
