#       Name:                AV-unprocessed.smi:671
#       Creating user name   scv26
#       Creation time:       Fri Mar 27 00:23:45 2020


#       File generated by GOLD software.
#

@<TRIPOS>MOLECULE
AV-unprocessed.smi:671
    52    53     1
SMALL
NO_CHARGES


@<TRIPOS>ATOM
      1 ****         3.5904  -4.8743  -4.1827 C.3            1 S1                 0.0000
      2 ****         3.7655  -3.6052  -4.9673 C.2            1 S1                 0.0000
      3 ****         4.1660  -3.6816  -6.2251 N.2            1 S1                 0.0000
      4 ****         4.2284  -2.4022  -6.6452 N.pl3          1 S1                 0.0000
      5 ****         4.6430  -2.1200  -8.0058 C.3            1 S1                 0.0000
      6 ****         3.8647  -1.5148  -5.6513 C.2            1 S1                 0.0000
      7 ****         3.8506  -0.0364  -5.8728 C.3            1 S1                 0.0000
      8 ****         3.5563  -2.2591  -4.5437 C.2            1 S1                 0.0000
      9 ****         3.1017  -1.7903  -3.1853 C.3            1 S1                 0.0000
     10 ****         1.5759  -1.9402  -2.9924 C.3            1 S1                 0.0000
     11 ****         0.7730  -1.0011  -3.9062 C.3            1 S1                 0.0000
     12 ****         1.2063  -1.6741  -1.5994 N.am           1 S1                 0.0000
     13 ****         1.2918  -2.5049  -0.5438 C.2            1 S1                 0.0000
     14 ****         1.7133  -3.6544  -0.6546 O.2            1 S1                 0.0000
     15 ****         0.8739  -1.9728   0.6171 N.am           1 S1                 0.0000
     16 ****         0.8224  -2.6448   1.9145 C.3            1 S1                 0.0000
     17 ****        -0.5402  -2.3776   2.5839 C.3            1 S1                 0.0000
     18 ****        -0.2797  -1.4411   3.7724 C.3            1 S1                 0.0000
     19 ****         1.1559  -0.9428   3.6072 C.3            1 S1                 0.0000
     20 ****         1.8740  -2.0913   2.8979 C.3            1 S1                 0.0000
     21 ****         3.2358  -1.7004   2.2984 C.3            1 S1                 0.0000
     22 ****         3.1697  -4.6806  -3.1972 H              1 S1                 0.0000
     23 ****         4.5448  -5.3808  -4.0381 H              1 S1                 0.0000
     24 ****         2.9195  -5.5643  -4.6947 H              1 S1                 0.0000
     25 ****         3.8239  -1.6466  -8.5475 H              1 S1                 0.0000
     26 ****         4.9231  -3.0390  -8.5226 H              1 S1                 0.0000
     27 ****         5.5003  -1.4466  -7.9955 H              1 S1                 0.0000
     28 ****         3.3935   0.4872  -5.0336 H              1 S1                 0.0000
     29 ****         3.2830   0.2173  -6.7683 H              1 S1                 0.0000
     30 ****         4.8644   0.3455  -5.9943 H              1 S1                 0.0000
     31 ****         3.6277  -2.3554  -2.4154 H              1 S1                 0.0000
     32 ****         3.3880  -0.7526  -3.0121 H              1 S1                 0.0000
     33 ****         1.2816  -2.9609  -3.2423 H              1 S1                 0.0000
     34 ****         0.9563  -1.2171  -4.9589 H              1 S1                 0.0000
     35 ****         1.0331   0.0433  -3.7304 H              1 S1                 0.0000
     36 ****        -0.2985  -1.1107  -3.7362 H              1 S1                 0.0000
     37 ****         0.8230  -0.7579  -1.4171 H              1 S1                 0.0000
     38 ****         0.5505  -1.0168   0.5981 H              1 S1                 0.0000
     39 ****         0.9658  -3.7191   1.7853 H              1 S1                 0.0000
     40 ****        -1.2526  -1.9318   1.8880 H              1 S1                 0.0000
     41 ****        -0.9866  -3.3087   2.9339 H              1 S1                 0.0000
     42 ****        -0.9957  -0.6200   3.8169 H              1 S1                 0.0000
     43 ****        -0.3666  -2.0018   4.7037 H              1 S1                 0.0000
     44 ****         1.1662  -0.0511   2.9789 H              1 S1                 0.0000
     45 ****         1.6180  -0.6829   4.5599 H              1 S1                 0.0000
     46 ****         2.0544  -2.8685   3.6426 H              1 S1                 0.0000
     47 ****         3.1492  -0.8692   1.5979 H              1 S1                 0.0000
     48 ****         3.6838  -2.5411   1.7682 H              1 S1                 0.0000
     49 ****         3.9300  -1.3959   3.0819 H              1 S1                 0.0000
     50 ****         4.3764  -4.5068  -6.7493 LP             1 S1                 0.0000
     51 ****         2.0047  -3.9962  -1.5481 LP             1 S1                 0.0000
     52 ****         1.7648  -4.2477   0.1487 LP             1 S1                 0.0000
@<TRIPOS>BOND
    1    1    2 1     
    2    1   22 1     
    3    1   23 1     
    4    1   24 1     
    5    2    8 1     
    6    2    3 2     
    7    3    4 1     
    8    4    5 1     
    9    4    6 1     
   10    5   25 1     
   11    5   26 1     
   12    5   27 1     
   13    6    7 1     
   14    6    8 2     
   15    7   28 1     
   16    7   29 1     
   17    7   30 1     
   18    8    9 1     
   19    9   10 1     
   20    9   31 1     
   21    9   32 1     
   22   10   11 1     
   23   10   12 1     
   24   10   33 1     
   25   11   34 1     
   26   11   35 1     
   27   11   36 1     
   28   12   13 am    
   29   12   37 1     
   30   13   14 2     
   31   13   15 am    
   32   15   16 1     
   33   15   38 1     
   34   16   20 1     
   35   16   17 1     
   36   16   39 1     
   37   17   18 1     
   38   17   40 1     
   39   17   41 1     
   40   18   19 1     
   41   18   42 1     
   42   18   43 1     
   43   19   20 1     
   44   19   44 1     
   45   19   45 1     
   46   20   21 1     
   47   20   46 1     
   48   21   47 1     
   49   21   48 1     
   50   21   49 1     
   51    3   50 1     
   52   14   51 1     
   53   14   52 1     
@<TRIPOS>SUBSTRUCTURE
      1 S1             1
@<TRIPOS>SET
LONE_PAIRS      STATIC     ATOMS    <user>   **** ""
3 50 51 52
DONOR_HYDROGENS      STATIC     ATOMS    <user>   **** ""
2 37 38
ATOM$BLUE        STATIC     ATOMS    COLORGROUP SYSTEM
3 50 51 52
ATOM$RED        STATIC     ATOMS    COLORGROUP SYSTEM
2 37 38
