AV-unprocessed.smi:157|AV-procd|sdf|1320|dock1
  -GOLD-   2262019 13D 1   1.00000     0.00000
 Structure written by MMmdl.
 36 38  0  0  0  0  0  0  0  0  2 V2000
  149.1922  141.1409  153.2167 O   0  0  0  0  0  0  0  0  0  0  0  0
  148.6067  140.6205  154.3912 C   0  0  0  0  0  0  0  0  0  0  0  0
  149.6682  139.9310  155.2631 C   0  0  2  0  0  0  0  0  0  0  0  0
  150.4710  140.9218  155.9022 O   0  0  0  0  0  0  0  0  0  0  0  0
  151.7965  140.4898  155.9941 C   0  0  1  0  0  0  0  0  0  0  0  0
  152.1981  140.5054  157.4338 N   0  0  0  0  0  0  0  0  0  0  0  0
  152.6149  139.4434  158.1550 C   0  0  0  0  0  0  0  0  0  0  0  0
  152.9105  139.7210  159.4135 N   0  3  0  0  0  0  0  0  0  0  0  0
  152.6820  141.0705  159.5798 C   0  0  0  0  0  0  0  0  0  0  0  0
  152.2520  141.5428  158.3368 C   0  0  0  0  0  0  0  0  0  0  0  0
  151.8972  142.8424  157.9430 N   0  0  0  0  0  0  0  0  0  0  0  0
  152.1806  143.8940  158.6410 C   0  0  0  0  0  0  0  0  0  0  0  0
  152.7708  143.9823  159.8909 N   0  0  0  0  0  0  0  0  0  0  0  0
  152.3845  143.1478  161.0148 C   0  0  0  0  0  0  0  0  0  0  0  0
  152.9004  141.7065  160.9169 C   0  0  2  0  0  0  0  0  0  0  0  0
  154.2560  141.6825  161.3139 O   0  0  0  0  0  0  0  0  0  0  0  0
  151.8540  139.0664  155.4400 C   0  0  0  0  0  0  0  0  0  0  0  0
  150.6750  139.0711  154.4910 C   0  0  1  0  0  0  0  0  0  0  0  0
  150.2086  137.7557  154.2726 O   0  0  0  0  0  0  0  0  0  0  0  0
  149.1945  139.3435  156.0521 H   0  0  0  0  0  0  0  0  0  0  0  0
  152.4572  141.1908  155.4830 H   0  0  0  0  0  0  0  0  0  0  0  0
  152.3610  141.1129  161.6560 H   0  0  0  0  0  0  0  0  0  0  0  0
  150.9500  139.5418  153.5458 H   0  0  0  0  0  0  0  0  0  0  0  0
  149.2760  140.4413  152.5865 H   0  0  0  0  0  0  0  0  0  0  0  0
  148.1081  141.4205  154.9396 H   0  0  0  0  0  0  0  0  0  0  0  0
  147.8396  139.9028  154.0997 H   0  0  0  0  0  0  0  0  0  0  0  0
  152.6963  138.4564  157.7358 H   0  0  0  0  0  0  0  0  0  0  0  0
  151.9343  144.8767  158.2362 H   0  0  0  0  0  0  0  0  0  0  0  0
  153.1191  144.8791  160.1992 H   0  0  0  0  0  0  0  0  0  0  0  0
  152.7108  143.6128  161.9457 H   0  0  0  0  0  0  0  0  0  0  0  0
  151.2943  143.1320  161.0505 H   0  0  0  0  0  0  0  0  0  0  0  0
  154.7671  141.2831  160.6270 H   0  0  0  0  0  0  0  0  0  0  0  0
  152.8115  138.8658  154.9586 H   0  0  0  0  0  0  0  0  0  0  0  0
  151.7011  138.3463  156.2463 H   0  0  0  0  0  0  0  0  0  0  0  0
  149.9075  137.6890  153.3785 H   0  0  0  0  0  0  0  0  0  0  0  0
  153.2329  139.0655  160.1141 H   0  0  0  0  0  0  0  0  0  0  0  0
  1  2  1  0  0  0  0
  1 24  1  0  0  0  0
  2  3  1  0  0  0  0
  2 25  1  0  0  0  0
  2 26  1  0  0  0  0
  3 20  1  0  0  0  0
  3 18  1  0  0  0  0
  3  4  1  0  0  0  0
  4  5  1  0  0  0  0
  5 21  1  0  0  0  0
  5  6  1  0  0  0  0
  5 17  1  0  0  0  0
  6 10  1  0  0  0  0
  6  7  1  0  0  0  0
  7  8  2  0  0  0  0
  7 27  1  0  0  0  0
  8  9  1  0  0  0  0
  8 36  1  0  0  0  0
  9 15  1  0  0  0  0
  9 10  2  0  0  0  0
 10 11  1  0  0  0  0
 11 12  2  0  0  0  0
 12 13  1  0  0  0  0
 12 28  1  0  0  0  0
 13 14  1  0  0  0  0
 13 29  1  0  0  0  0
 14 15  1  0  0  0  0
 14 30  1  0  0  0  0
 14 31  1  0  0  0  0
 15 22  1  0  0  0  0
 15 16  1  0  0  0  0
 16 32  1  0  0  0  0
 17 18  1  0  0  0  0
 17 33  1  0  0  0  0
 17 34  1  0  0  0  0
 18 23  1  0  0  0  0
 18 19  1  0  0  0  0
 19 35  1  0  0  0  0
M  CHG  1   8   1
M  END
> <s_m_source_file>
AV-unprocessed.smi

> <i_m_source_file_index>
157

> <i_lp_mmshare_version>
43012

> <i_f3d_flags>
0

> <s_epik_input>
W09IXVtDSDJdW0NASF0xT1tDQEhdKFtDSDJdW0NAQEhdMVtPSF0pbihbY0hdbjIpYyhjMjMpTj1bQ0hdW05IXVtDSDJdW0NASF0zW09IXQ==

> <s_epik_cmdline>
J2VwaWtfcHl0aG9uJywgJy1waCcsICc3LjAnLCAnLXRuJywgJzgnLCAnLW1hJywgJzIwMCcsICctbWV0YWxfYmluZGluZycsICctaW1hZScsICc8aW5maWxlLm1hZT4nLCAnLW9tYWUnLCAnPG91dGZpbGUubWFlPic=

> <r_epik_Ionization_Penalty>
1.68594

> <r_epik_Ionization_Penalty_Charging>
0

> <r_epik_Ionization_Penalty_Neutral>
1.68594

> <r_epik_State_Penalty>
1.79006

> <r_epik_Charging_Adjusted_Penalty>
1.79006

> <i_epik_Tot_Q>
1

> <i_epik_Tot_abs_Q>
1

> <r_epik_Metal_State_Penalty>
5.85324

> <b_epik_Metal_Only>
0

> <s_epik_Chemistry_Notes>
This compound has an imine and may undergo hydrolysis. This compound contains an acetal/aminal-like group ( X-CH(R)-Y where X, Y are N, S, or O) that may be acid/base labile, releasing an aldehyde.

> <s_lp_Force_Field>
OPLS_2005

> <r_lp_Energy>
53.8289

> <b_lp_Chiralities_Consistent>
1

> <s_lp_Variant>
AV-unprocessed.smi:157-30

> <Gold.Version>
5.8.1

> <Gold.Id.Protein>
6NUR|6NUR_protein|mol2

> <Gold.PLP.Fitness>
43.7458

> <Gold.PLP.PLP>
-37.1944

> <Gold.PLP.part.hbond>
-4.2926

> <Gold.PLP.part.metal>
0.0000

> <Gold.PLP.part.buried>
-4.0531

> <Gold.PLP.part.nonpolar>
-27.5036

> <Gold.PLP.part.repulsive>
0.2055

> <Gold.PLP.ligand.clash>
0.0000

> <Gold.PLP.ligand.torsion>
0.1370

> <Gold.PLP.Chemscore.Hbond>
2.2714

> <Gold.PLP.Chemscore.CHOScore>
0.0000

> <Gold.PLP.Chemscore.Metal>
0.0000

> <Gold.Chemscore.Hbonds>
donor molecule, donor type, donor heavy atom, donor atom, acceptor molecule, acceptor atom, score
      L1  H     1    24       P1  7957  0.89
      L1  H    19    35       P1  7948  0.35
      P1  H  8011  8017       L1     1  1.00

> <Gold.PLP.Chemscore.Internal.Correction>
0.0112

> <Gold.Rescore>
     Score         DG    S(hbond)    S(metal)    S(lipo)     H(rot)  DE(clash)    DE(int)     intcor
      9.41      -9.83       2.18        0.00      55.29       3.67       0.22       0.20       ----

> <Gold.Chemscore.Fitness>
9.4064

> <Gold.Chemscore.DG>
-9.8314

> <Gold.Chemscore.ZeroCoef>
-5.4800

> <Gold.Chemscore.Hbond>
2.1759

> <Gold.Chemscore.Metal>
0.0000

> <Gold.Chemscore.Lipo>
55.2889

> <Gold.Chemscore.Internal_Hbond>
0.0000

> <Gold.Chemscore.DEClash>
0.2213

> <Gold.Chemscore.DEInternal>
0.2037

> <Gold.Chemscore.Rot>
3.6659

> <Gold.Chemscore.Internal.Correction>
   9.000000E+99

> <Gold.Chemscore.Hbonds>
donor molecule, donor type, donor heavy atom, donor atom, acceptor molecule, acceptor atom, score
      L1  H     1    24       P1  7957  0.83
      L1  H    19    35       P1  7948  0.19
      P1  H  8011  8017       L1     1  0.25

> <Gold.Chemscore.Hbond.Weighted>
-7.2674

> <Gold.Chemscore.Metal.Weighted>
-0.0000

> <Gold.Chemscore.Lipo.Weighted>
-6.4688

> <Gold.Chemscore.Internal_Hbond.Weighted>
0.0000

> <Gold.Chemscore.DEClash.Weighted>
0.2213

> <Gold.Chemscore.DEInternal.Weighted>
0.2037

> <Gold.Chemscore.Rot.Weighted>
9.3848

> <Gold.Chemscore.Internal.Correction.Weighted>
   9.000000E+99

> <Gold.Protein.RotatedTorsions>
[ 6907 6896 6895 6894 ] final -131.11 input  -60.11 | X-H torsion
[ 7974 7965 7964 7962 ] final -137.84 input  175.53 | X-H torsion
[ 8008 7997 7996 7995 ] final -111.80 input   59.86 | X-H torsion
[ 10167 10162 10161 10158 ] final  162.83 input  -65.29 | X-H torsion
[ 10718 10713 10712 10709 ] final  163.02 input   66.30 | X-H torsion
[ 10763 10752 10751 10750 ] final  170.09 input  -60.55 | X-H torsion
[ 11005 11000 10999 10996 ] final   88.02 input  -57.11 | X-H torsion

> <Gold.Protein.ActiveResidues>
 VAL166  LYS551  ARG553  GLY616  TRP617  ASP618  TYR619  PRO620  LYS621  CYS622 
 ASP623  PHE694  ASN695  SER759  ASP760  ASP761  ALA762  ILE779  LEU786  VAL792 
 PHE793  MET794  SER795  GLU796  ALA797  LYS798  CYS799  TRP800  GLU811  SER814 

> <Gold.Protein.RotatedAtoms>
  150.9473  133.6588  159.2778 H   0  0  0  0  0  0  0  0  0  0  0  0  # atno 6907 bound_to 6896
  151.3957  135.0962  159.9550 H   0  0  0  0  0  0  0  0  0  0  0  0  # atno 6908 bound_to 6896
  152.5095  133.8978  159.7481 H   0  0  0  0  0  0  0  0  0  0  0  0  # atno 6909 bound_to 6896
  144.8808  140.6504  143.5207 H   0  0  0  0  0  0  0  0  0  0  0  0  # atno 7974 bound_to 7965
  154.9954  140.0395  157.2337 H   0  0  0  0  0  0  0  0  0  0  0  0  # atno 8008 bound_to 7997
  154.7591  140.2781  155.6206 H   0  0  0  0  0  0  0  0  0  0  0  0  # atno 8009 bound_to 7997
  156.2900  140.2632  156.2364 H   0  0  0  0  0  0  0  0  0  0  0  0  # atno 8010 bound_to 7997
  139.4865  144.4398  151.8966 H   0  0  0  0  0  0  0  0  0  0  0  0  # atno 10167 bound_to 10162
  157.1144  131.0476  151.2443 H   0  0  0  0  0  0  0  0  0  0  0  0  # atno 10718 bound_to 10713
  154.3926  135.2754  155.2145 H   0  0  0  0  0  0  0  0  0  0  0  0  # atno 10763 bound_to 10752
  154.4205  135.6001  153.6010 H   0  0  0  0  0  0  0  0  0  0  0  0  # atno 10764 bound_to 10752
  152.9832  135.5971  154.4183 H   0  0  0  0  0  0  0  0  0  0  0  0  # atno 10765 bound_to 10752
  139.8906  134.8460  156.2941 H   0  0  0  0  0  0  0  0  0  0  0  0  # atno 11005 bound_to 11000
  145.3958  139.1607  143.4204 LP  0  0  0  0  0  0  0  0  0  0  0  0  # atno 17320 bound_to 7965
  146.2993  140.4050  142.8710 LP  0  0  0  0  0  0  0  0  0  0  0  0  # atno 17321 bound_to 7965
  140.3849  144.2689  150.5905 LP  0  0  0  0  0  0  0  0  0  0  0  0  # atno 17342 bound_to 10162
  140.5199  143.2268  151.8405 LP  0  0  0  0  0  0  0  0  0  0  0  0  # atno 17343 bound_to 10162
  157.4531  130.7610  149.7169 LP  0  0  0  0  0  0  0  0  0  0  0  0  # atno 17370 bound_to 10713
  155.9843  130.3993  150.3320 LP  0  0  0  0  0  0  0  0  0  0  0  0  # atno 17371 bound_to 10713
  140.9956  133.7182  156.0881 LP  0  0  0  0  0  0  0  0  0  0  0  0  # atno 17394 bound_to 11000
  140.7566  134.3985  157.5533 LP  0  0  0  0  0  0  0  0  0  0  0  0  # atno 17395 bound_to 11000

$$$$
