#       Name:                AV-unprocessed.smi:2928
#       Creating user name   scv26
#       Creation time:       Fri Mar 27 16:12:40 2020


#       File generated by GOLD software.
#

@<TRIPOS>MOLECULE
AV-unprocessed.smi:2928
    59    62     1
SMALL
NO_CHARGES


@<TRIPOS>ATOM
      1 ****        -3.2372  -3.2259   0.1452 C.3            1 S1                 0.0000
      2 ****        -3.9953  -1.9525   0.1860 N.4            1 S1                 1.0000
      3 ****        -3.7788  -1.0600  -0.9787 C.3            1 S1                 0.0000
      4 ****        -4.9204  -0.0180  -1.0290 C.3            1 S1                 0.0000
      5 ****        -5.1081   0.7628   0.2876 C.3            1 S1                 0.0000
      6 ****        -5.0009  -0.1452   1.5300 C.3            1 S1                 0.0000
      7 ****        -3.8594  -1.1861   1.4485 C.3            1 S1                 0.0000
      8 ****        -2.4340  -0.5996   1.5983 C.3            1 S1                 0.0000
      9 ****        -1.9287   0.1902   0.3693 C.3            1 S1                 0.0000
     10 ****        -0.4708   0.2752   0.4270 N.am           1 S1                 0.0000
     11 ****         0.2610   1.3908   0.2946 C.2            1 S1                 0.0000
     12 ****        -0.2201   2.5063   0.0964 O.2            1 S1                 0.0000
     13 ****         1.5726   1.1171   0.3859 N.am           1 S1                 0.0000
     14 ****         2.6719   2.0188   0.3198 C.ar           1 S1                 0.0000
     15 ****         2.5750   3.3769   0.7090 C.ar           1 S1                 0.0000
     16 ****         3.7186   4.1933   0.6380 C.ar           1 S1                 0.0000
     17 ****         4.9220   3.6206   0.1890 C.ar           1 S1                 0.0000
     18 ****         5.0347   2.3257  -0.1707 N.ar           1 S1                 0.0000
     19 ****         3.9358   1.5348  -0.1048 C.ar           1 S1                 0.0000
     20 ****         4.0759   0.1883  -0.4863 N.3            1 S1                 0.0000
     21 ****         4.4764  -0.0318  -1.8660 C.3            1 S1                 0.0000
     22 ****         4.9187  -1.4958  -1.9320 C.3            1 S1                 0.0000
     23 ****         5.2600  -1.8705  -0.4844 C.3            1 S1                 0.0000
     24 ****         4.9848  -0.6017   0.3272 C.3            1 S1                 0.0000
     25 ****        -2.3507  -0.4587  -0.9703 C.3            1 S1                 0.0000
     26 ****        -2.1596  -3.0685   0.1833 H              1 S1                 0.0000
     27 ****        -3.4653  -3.7743  -0.7691 H              1 S1                 0.0000
     28 ****        -3.5151  -3.8603   0.9872 H              1 S1                 0.0000
     29 ****        -3.8719  -1.6638  -1.8827 H              1 S1                 0.0000
     30 ****        -4.7685   0.6753  -1.8571 H              1 S1                 0.0000
     31 ****        -5.8511  -0.5432  -1.2484 H              1 S1                 0.0000
     32 ****        -4.3923   1.5781   0.3496 H              1 S1                 0.0000
     33 ****        -6.0811   1.2554   0.2814 H              1 S1                 0.0000
     34 ****        -4.8997   0.4627   2.4297 H              1 S1                 0.0000
     35 ****        -5.9436  -0.6829   1.6398 H              1 S1                 0.0000
     36 ****        -4.0135  -1.8789   2.2772 H              1 S1                 0.0000
     37 ****        -2.3810   0.0304   2.4871 H              1 S1                 0.0000
     38 ****        -1.7495  -1.4261   1.7936 H              1 S1                 0.0000
     39 ****        -2.3405   1.1951   0.4185 H              1 S1                 0.0000
     40 ****         0.0252  -0.5905   0.5812 H              1 S1                 0.0000
     41 ****         1.8225   0.1404   0.4397 H              1 S1                 0.0000
     42 ****         1.6526   3.8015   1.0742 H              1 S1                 0.0000
     43 ****         3.6748   5.2329   0.9265 H              1 S1                 0.0000
     44 ****         5.8203   4.2163   0.1225 H              1 S1                 0.0000
     45 ****         3.6530   0.1714  -2.5513 H              1 S1                 0.0000
     46 ****         5.3074   0.6223  -2.1343 H              1 S1                 0.0000
     47 ****         4.1031  -2.1224  -2.2952 H              1 S1                 0.0000
     48 ****         5.7652  -1.6286  -2.6063 H              1 S1                 0.0000
     49 ****         4.6146  -2.6834  -0.1495 H              1 S1                 0.0000
     50 ****         6.2938  -2.1994  -0.3741 H              1 S1                 0.0000
     51 ****         5.9146  -0.0586   0.5013 H              1 S1                 0.0000
     52 ****         4.5430  -0.8329   1.2968 H              1 S1                 0.0000
     53 ****        -1.6494  -1.2588  -1.2114 H              1 S1                 0.0000
     54 ****        -2.2457   0.2652  -1.7794 H              1 S1                 0.0000
     55 ****        -4.9654  -2.2299   0.1398 H              1 S1                 0.0000
     56 ****        -1.2113   2.6179   0.0254 LP             1 S1                 0.0000
     57 ****         0.3803   3.3010   0.0064 LP             1 S1                 0.0000
     58 ****         5.9112   1.9565  -0.4798 LP             1 S1                 0.0000
     59 ****         3.1347  -0.1198  -0.3474 LP             1 S1                 0.0000
@<TRIPOS>BOND
    1    1    2 1     
    2    1   26 1     
    3    1   27 1     
    4    1   28 1     
    5    2    7 1     
    6    2    3 1     
    7    2   55 1     
    8    3   25 1     
    9    3    4 1     
   10    3   29 1     
   11    4    5 1     
   12    4   30 1     
   13    4   31 1     
   14    5    6 1     
   15    5   32 1     
   16    5   33 1     
   17    6    7 1     
   18    6   34 1     
   19    6   35 1     
   20    7    8 1     
   21    7   36 1     
   22    8    9 1     
   23    8   37 1     
   24    8   38 1     
   25    9   10 1     
   26    9   25 1     
   27    9   39 1     
   28   10   11 am    
   29   10   40 1     
   30   11   12 2     
   31   11   13 am    
   32   13   14 1     
   33   13   41 1     
   34   14   19 ar    
   35   14   15 ar    
   36   15   16 ar    
   37   15   42 1     
   38   16   17 ar    
   39   16   43 1     
   40   17   18 ar    
   41   17   44 1     
   42   18   19 ar    
   43   19   20 1     
   44   20   24 1     
   45   20   21 1     
   46   21   22 1     
   47   21   45 1     
   48   21   46 1     
   49   22   23 1     
   50   22   47 1     
   51   22   48 1     
   52   23   24 1     
   53   23   49 1     
   54   23   50 1     
   55   24   51 1     
   56   24   52 1     
   57   25   53 1     
   58   25   54 1     
   59   12   56 1     
   60   12   57 1     
   61   18   58 1     
   62   20   59 1     
@<TRIPOS>SUBSTRUCTURE
      1 S1             1
@<TRIPOS>SET
LONE_PAIRS      STATIC     ATOMS    <user>   **** ""
4 56 57 58 59
DONOR_HYDROGENS      STATIC     ATOMS    <user>   **** ""
3 55 40 41
ATOM$BLUE        STATIC     ATOMS    COLORGROUP SYSTEM
4 56 57 58 59
ATOM$RED        STATIC     ATOMS    COLORGROUP SYSTEM
3 55 40 41
