AV-unprocessed.smi:1703|AV-procd|sdf|6863|dock6
  -GOLD-   22720 8 53D 1   1.00000     0.00000
 Structure written by MMmdl.
 49 51  0  0  0  0  0  0  0  0  2 V2000
  148.8703  140.5571  154.7577 C   0  0  0  0  0  0  0  0  0  0  0  0
  149.5151  139.2459  154.2950 C   0  0  2  0  0  0  0  0  0  0  0  0
  148.9558  138.0261  155.0512 C   0  0  0  0  0  0  0  0  0  0  0  0
  149.6572  136.7885  154.6362 N   0  3  2  0  0  0  0  0  0  0  0  0
  149.1031  135.5777  155.2936 C   0  0  0  0  0  0  0  0  0  0  0  0
  149.5331  134.2690  154.5948 C   0  0  2  0  0  0  0  0  0  0  0  0
  149.0289  134.2661  153.2745 O   0  0  0  0  0  0  0  0  0  0  0  0
  149.0217  132.9943  155.2961 C   0  0  0  0  0  0  0  0  0  0  0  0
  149.4357  131.7735  154.6169 N   0  0  0  0  0  0  0  0  0  0  0  0
  150.6659  131.1995  154.5769 C   0  0  0  0  0  0  0  0  0  0  0  0
  151.8520  131.7868  155.2789 C   0  0  0  0  0  0  0  0  0  0  0  0
  152.4675  130.8765  156.1643 O   0  0  0  0  0  0  0  0  0  0  0  0
  150.7580  130.0754  153.8660 N   0  0  0  0  0  0  0  0  0  0  0  0
  149.4667  129.8947  153.4119 C   0  0  0  0  0  0  0  0  0  0  0  0
  148.9110  128.8769  152.6041 C   0  0  0  0  0  0  0  0  0  0  0  0
  147.5423  128.9021  152.2653 C   0  0  0  0  0  0  0  0  0  0  0  0
  146.7115  129.9429  152.7284 C   0  0  0  0  0  0  0  0  0  0  0  0
  147.2454  130.9676  153.5334 C   0  0  0  0  0  0  0  0  0  0  0  0
  148.6126  130.9386  153.8673 C   0  0  0  0  0  0  0  0  0  0  0  0
  151.1226  136.9453  154.8090 C   0  0  0  0  0  0  0  0  0  0  0  0
  151.6227  138.1918  154.0547 C   0  0  2  0  0  0  0  0  0  0  0  0
  153.1215  138.4336  154.2653 C   0  0  0  0  0  0  0  0  0  0  0  0
  150.9169  139.3344  154.5262 O   0  0  0  0  0  0  0  0  0  0  0  0
  147.7937  140.5476  154.5858 H   0  0  0  0  0  0  0  0  0  0  0  0
  149.2852  141.4075  154.2160 H   0  0  0  0  0  0  0  0  0  0  0  0
  149.0381  140.7269  155.8216 H   0  0  0  0  0  0  0  0  0  0  0  0
  149.3350  139.1299  153.2248 H   0  0  0  0  0  0  0  0  0  0  0  0
  149.0682  138.1633  156.1283 H   0  0  0  0  0  0  0  0  0  0  0  0
  147.8882  137.9287  154.8498 H   0  0  0  0  0  0  0  0  0  0  0  0
  149.4059  135.5828  156.3415 H   0  0  0  0  0  0  0  0  0  0  0  0
  148.0131  135.6268  155.2918 H   0  0  0  0  0  0  0  0  0  0  0  0
  150.6191  134.2134  154.5354 H   0  0  0  0  0  0  0  0  0  0  0  0
  149.0864  135.1428  152.9257 H   0  0  0  0  0  0  0  0  0  0  0  0
  149.3584  132.9700  156.3321 H   0  0  0  0  0  0  0  0  0  0  0  0
  147.9316  133.0025  155.3352 H   0  0  0  0  0  0  0  0  0  0  0  0
  152.5879  132.1044  154.5393 H   0  0  0  0  0  0  0  0  0  0  0  0
  151.5527  132.6812  155.8248 H   0  0  0  0  0  0  0  0  0  0  0  0
  153.3518  130.7203  155.8700 H   0  0  0  0  0  0  0  0  0  0  0  0
  149.5384  128.0741  152.2461 H   0  0  0  0  0  0  0  0  0  0  0  0
  147.1277  128.1180  151.6485 H   0  0  0  0  0  0  0  0  0  0  0  0
  145.6634  129.9529  152.4667 H   0  0  0  0  0  0  0  0  0  0  0  0
  146.6102  131.7640  153.8912 H   0  0  0  0  0  0  0  0  0  0  0  0
  151.3579  137.0286  155.8714 H   0  0  0  0  0  0  0  0  0  0  0  0
  151.6465  136.0665  154.4353 H   0  0  0  0  0  0  0  0  0  0  0  0
  151.4390  138.0720  152.9852 H   0  0  0  0  0  0  0  0  0  0  0  0
  153.7095  137.5858  153.9124 H   0  0  0  0  0  0  0  0  0  0  0  0
  153.3539  138.5865  155.3196 H   0  0  0  0  0  0  0  0  0  0  0  0
  153.4540  139.3168  153.7196 H   0  0  0  0  0  0  0  0  0  0  0  0
  149.4841  136.6807  153.6465 H   0  0  0  0  0  0  0  0  0  0  0  0
  1  2  1  0  0  0  0
  1 24  1  0  0  0  0
  1 25  1  0  0  0  0
  1 26  1  0  0  0  0
  2 23  1  0  0  0  0
  2  3  1  0  0  0  0
  2 27  1  0  0  0  0
  3  4  1  0  0  0  0
  3 28  1  0  0  0  0
  3 29  1  0  0  0  0
  4  5  1  0  0  0  0
  4 20  1  0  0  0  0
  4 49  1  0  0  0  0
  5  6  1  0  0  0  0
  5 30  1  0  0  0  0
  5 31  1  0  0  0  0
  6  7  1  0  0  0  0
  6  8  1  0  0  0  0
  6 32  1  0  0  0  0
  7 33  1  0  0  0  0
  8  9  1  0  0  0  0
  8 34  1  0  0  0  0
  8 35  1  0  0  0  0
  9 19  1  0  0  0  0
  9 10  1  0  0  0  0
 10 11  1  0  0  0  0
 10 13  2  0  0  0  0
 11 12  1  0  0  0  0
 11 36  1  0  0  0  0
 11 37  1  0  0  0  0
 12 38  1  0  0  0  0
 13 14  1  0  0  0  0
 14 19  2  0  0  0  0
 14 15  1  0  0  0  0
 15 16  2  0  0  0  0
 15 39  1  0  0  0  0
 16 17  1  0  0  0  0
 16 40  1  0  0  0  0
 17 18  2  0  0  0  0
 17 41  1  0  0  0  0
 18 19  1  0  0  0  0
 18 42  1  0  0  0  0
 20 21  1  0  0  0  0
 20 43  1  0  0  0  0
 20 44  1  0  0  0  0
 21 22  1  0  0  0  0
 21 23  1  0  0  0  0
 21 45  1  0  0  0  0
 22 46  1  0  0  0  0
 22 47  1  0  0  0  0
 22 48  1  0  0  0  0
M  CHG  1   4   1
M  END
> <s_m_source_file>
AV-unprocessed.smi

> <i_m_source_file_index>
1703

> <i_lp_mmshare_version>
43012

> <i_f3d_flags>
0

> <s_epik_input>
W0NIM11bQ0BASF0xW0NIMl1OKFtDSDJdW0NASF0oTzEpW0NIM10pW0NIMl1bQ0BIXShbT0hdKVtDSDJdbihjKG4yKVtDSDJdW09IXSljKGMyMylbY0hdW2NIXVtjSF1bY0hdMw==

> <s_epik_cmdline>
J2VwaWtfcHl0aG9uJywgJy1waCcsICc3LjAnLCAnLXRuJywgJzgnLCAnLW1hJywgJzIwMCcsICctbWV0YWxfYmluZGluZycsICctaW1hZScsICc8aW5maWxlLm1hZT4nLCAnLW9tYWUnLCAnPG91dGZpbGUubWFlPic=

> <r_epik_Ionization_Penalty>
0.655661

> <r_epik_Ionization_Penalty_Charging>
0.608065

> <r_epik_Ionization_Penalty_Neutral>
0.0475963

> <r_epik_State_Penalty>
0.695267

> <r_epik_Charging_Adjusted_Penalty>
1.30333

> <i_epik_Tot_Q>
1

> <i_epik_Tot_abs_Q>
1

> <r_epik_Metal_State_Penalty>
0.653591

> <b_epik_Metal_Only>
0

> <s_lp_Force_Field>
OPLS_2005

> <r_lp_Energy>
21.8251

> <b_lp_Chiralities_Consistent>
1

> <s_lp_Variant>
AV-unprocessed.smi:1703-11

> <Gold.Version>
5.8.1

> <Gold.Id.Protein>
6NUR|6NUR_protein|mol2

> <Gold.PLP.Fitness>
46.5923

> <Gold.PLP.PLP>
-36.2464

> <Gold.PLP.part.hbond>
-2.8565

> <Gold.PLP.part.metal>
0.0000

> <Gold.PLP.part.buried>
-1.3439

> <Gold.PLP.part.nonpolar>
-32.1654

> <Gold.PLP.part.repulsive>
0.2167

> <Gold.PLP.ligand.clash>
0.0000

> <Gold.PLP.ligand.torsion>
0.2601

> <Gold.PLP.Chemscore.Hbond>
3.6000

> <Gold.PLP.Chemscore.CHOScore>
0.0000

> <Gold.PLP.Chemscore.Metal>
0.0000

> <Gold.Chemscore.Hbonds>
donor molecule, donor type, donor heavy atom, donor atom, acceptor molecule, acceptor atom, score
      L1  H     4    49       P1  7948  2.00
      L1  H     7    33       P1  7948  0.61
      P1  H  7989  7998       L1    23  1.00

> <Gold.PLP.Chemscore.Internal.Correction>
0.0661

> <Gold.Rescore>
     Score         DG    S(hbond)    S(metal)    S(lipo)     H(rot)  DE(clash)    DE(int)     intcor
     12.05     -13.91       1.49        0.00      94.35       2.96       1.60       0.25       ----

> <Gold.Chemscore.Fitness>
12.0518

> <Gold.Chemscore.DG>
-13.9051

> <Gold.Chemscore.ZeroCoef>
-5.4800

> <Gold.Chemscore.Hbond>
1.4869

> <Gold.Chemscore.Metal>
0.0000

> <Gold.Chemscore.Lipo>
94.3523

> <Gold.Chemscore.Internal_Hbond>
0.0000

> <Gold.Chemscore.DEClash>
1.5995

> <Gold.Chemscore.DEInternal>
0.2538

> <Gold.Chemscore.Rot>
2.9611

> <Gold.Chemscore.Internal.Correction>
   9.000000E+99

> <Gold.Chemscore.Hbonds>
donor molecule, donor type, donor heavy atom, donor atom, acceptor molecule, acceptor atom, score
      L1  H     4    49       P1  7948  0.82
      L1  H     7    33       P1  7948  0.06
      P1  H  7989  7998       L1    23  0.34

> <Gold.Chemscore.Hbond.Weighted>
-4.9662

> <Gold.Chemscore.Metal.Weighted>
-0.0000

> <Gold.Chemscore.Lipo.Weighted>
-11.0392

> <Gold.Chemscore.Internal_Hbond.Weighted>
0.0000

> <Gold.Chemscore.DEClash.Weighted>
1.5995

> <Gold.Chemscore.DEInternal.Weighted>
0.2538

> <Gold.Chemscore.Rot.Weighted>
7.5803

> <Gold.Chemscore.Internal.Correction.Weighted>
   9.000000E+99

> <Gold.Protein.RotatedTorsions>
[ 6907 6896 6895 6894 ] final  -76.45 input  -60.11 | X-H torsion
[ 7974 7965 7964 7962 ] final  -12.40 input  175.53 | X-H torsion
[ 8008 7997 7996 7995 ] final  144.21 input   59.86 | X-H torsion
[ 10167 10162 10161 10158 ] final   94.14 input  -65.29 | X-H torsion
[ 10718 10713 10712 10709 ] final   15.69 input   66.30 | X-H torsion
[ 10763 10752 10751 10750 ] final  -84.74 input  -60.55 | X-H torsion
[ 11005 11000 10999 10996 ] final   47.89 input  -57.11 | X-H torsion

> <Gold.Protein.ActiveResidues>
 VAL166  LYS551  ARG553  GLY616  TRP617  ASP618  TYR619  PRO620  LYS621  CYS622 
 ASP623  PHE694  ASN695  SER759  ASP760  ASP761  ALA762  ILE779  LEU786  VAL792 
 PHE793  MET794  SER795  GLU796  ALA797  LYS798  CYS799  TRP800  GLU811  SER814 

> <Gold.Protein.RotatedAtoms>
  150.7027  134.4571  159.5362 H   0  0  0  0  0  0  0  0  0  0  0  0  # atno 6907 bound_to 6896
  152.2252  134.8372  160.0490 H   0  0  0  0  0  0  0  0  0  0  0  0  # atno 6908 bound_to 6896
  151.9207  133.3550  159.3933 H   0  0  0  0  0  0  0  0  0  0  0  0  # atno 6909 bound_to 6896
  146.2153  140.3051  142.8378 H   0  0  0  0  0  0  0  0  0  0  0  0  # atno 7974 bound_to 7965
  156.2913  140.2242  156.5016 H   0  0  0  0  0  0  0  0  0  0  0  0  # atno 8008 bound_to 7997
  154.7685  140.0468  157.1053 H   0  0  0  0  0  0  0  0  0  0  0  0  # atno 8009 bound_to 7997
  154.9903  140.3089  155.4912 H   0  0  0  0  0  0  0  0  0  0  0  0  # atno 8010 bound_to 7997
  139.8112  144.6773  150.9638 H   0  0  0  0  0  0  0  0  0  0  0  0  # atno 10167 bound_to 10162
  157.0572  130.6294  149.5779 H   0  0  0  0  0  0  0  0  0  0  0  0  # atno 10718 bound_to 10713
  154.6030  135.5510  153.7394 H   0  0  0  0  0  0  0  0  0  0  0  0  # atno 10763 bound_to 10752
  153.0162  135.6371  154.1687 H   0  0  0  0  0  0  0  0  0  0  0  0  # atno 10764 bound_to 10752
  154.1627  135.2896  155.3084 H   0  0  0  0  0  0  0  0  0  0  0  0  # atno 10765 bound_to 10752
  140.1239  134.4793  155.8575 H   0  0  0  0  0  0  0  0  0  0  0  0  # atno 11005 bound_to 11000
  144.9029  140.7664  143.5856 LP  0  0  0  0  0  0  0  0  0  0  0  0  # atno 17320 bound_to 7965
  145.2978  139.1861  143.4706 LP  0  0  0  0  0  0  0  0  0  0  0  0  # atno 17321 bound_to 7965
  140.7817  143.4184  151.0881 LP  0  0  0  0  0  0  0  0  0  0  0  0  # atno 17342 bound_to 10162
  139.7850  143.8300  152.3143 LP  0  0  0  0  0  0  0  0  0  0  0  0  # atno 17343 bound_to 10162
  155.9989  130.5064  150.7589 LP  0  0  0  0  0  0  0  0  0  0  0  0  # atno 17370 bound_to 10713
  157.4984  131.0916  151.0344 LP  0  0  0  0  0  0  0  0  0  0  0  0  # atno 17371 bound_to 10713
  141.2157  133.6770  156.6941 LP  0  0  0  0  0  0  0  0  0  0  0  0  # atno 17394 bound_to 11000
  140.2929  134.8226  157.4032 LP  0  0  0  0  0  0  0  0  0  0  0  0  # atno 17395 bound_to 11000

$$$$
