AV-unprocessed.smi:3263|AV-procd|sdf|12489|dock8
  -GOLD-   2272018393D 1   1.00000     0.00000
 Structure written by MMmdl.
 41 43  0  0  0  0  0  0  0  0  1 V2000
  151.3725  140.4973  155.3777 O   0  0  0  0  0  0  0  0  0  0  0  0
  150.8325  141.3508  156.0818 C   0  0  0  0  0  0  0  0  0  0  0  0
  151.4633  141.7641  157.4156 C   0  0  0  0  0  0  0  0  0  0  0  0
  151.2995  143.2718  157.7129 C   0  0  1  0  0  0  0  0  0  0  0  0
  150.1802  143.6277  158.7173 C   0  0  0  0  0  0  0  0  0  0  0  0
  150.8979  144.5559  159.7150 C   0  0  1  0  0  0  0  0  0  0  0  0
  151.8210  143.7109  160.6117 C   0  0  0  0  0  0  0  0  0  0  0  0
  152.9684  143.3359  159.6561 C   0  0  0  0  0  0  0  0  0  0  0  0
  152.5316  143.9806  158.3241 C   0  0  2  0  0  0  0  0  0  0  0  0
  151.9013  145.2782  158.8220 C   0  0  0  0  0  0  0  0  0  0  0  0
  149.6898  141.9679  155.7445 N   0  0  0  0  0  0  0  0  0  0  0  0
  148.9531  141.7468  154.5055 C   0  0  0  0  0  0  0  0  0  0  0  0
  147.5432  141.1971  154.7800 C   0  0  0  0  0  0  0  0  0  0  0  0
  146.4904  142.2894  154.7861 C   0  0  0  0  0  0  0  0  0  0  0  0
  146.2652  143.0801  153.6387 C   0  0  0  0  0  0  0  0  0  0  0  0
  145.2786  144.0835  153.6985 C   0  0  0  0  0  0  0  0  0  0  0  0
  144.5601  144.2576  154.8969 C   0  0  0  0  0  0  0  0  0  0  0  0
  144.8617  143.4174  155.9872 C   0  0  0  0  0  0  0  0  0  0  0  0
  145.8051  142.4520  155.9402 N   0  0  0  0  0  0  0  0  0  0  0  0
  151.0255  141.1657  158.2147 H   0  0  0  0  0  0  0  0  0  0  0  0
  152.5231  141.5102  157.3811 H   0  0  0  0  0  0  0  0  0  0  0  0
  151.0813  143.7791  156.7709 H   0  0  0  0  0  0  0  0  0  0  0  0
  149.3659  144.1486  158.2119 H   0  0  0  0  0  0  0  0  0  0  0  0
  149.7554  142.7535  159.2126 H   0  0  0  0  0  0  0  0  0  0  0  0
  150.2224  145.2055  160.2721 H   0  0  0  0  0  0  0  0  0  0  0  0
  152.1972  144.2993  161.4495 H   0  0  0  0  0  0  0  0  0  0  0  0
  151.3147  142.8346  161.0182 H   0  0  0  0  0  0  0  0  0  0  0  0
  153.9031  143.7801  160.0013 H   0  0  0  0  0  0  0  0  0  0  0  0
  153.1310  142.2612  159.5892 H   0  0  0  0  0  0  0  0  0  0  0  0
  153.3502  144.1161  157.6166 H   0  0  0  0  0  0  0  0  0  0  0  0
  151.4320  145.8667  158.0317 H   0  0  0  0  0  0  0  0  0  0  0  0
  152.5945  145.9138  159.3759 H   0  0  0  0  0  0  0  0  0  0  0  0
  149.3134  142.6531  156.3837 H   0  0  0  0  0  0  0  0  0  0  0  0
  148.9004  142.6725  153.9298 H   0  0  0  0  0  0  0  0  0  0  0  0
  149.5162  141.0363  153.9001 H   0  0  0  0  0  0  0  0  0  0  0  0
  147.2823  140.4519  154.0271 H   0  0  0  0  0  0  0  0  0  0  0  0
  147.5180  140.6812  155.7409 H   0  0  0  0  0  0  0  0  0  0  0  0
  146.8339  142.9236  152.7340 H   0  0  0  0  0  0  0  0  0  0  0  0
  145.0770  144.7086  152.8410 H   0  0  0  0  0  0  0  0  0  0  0  0
  143.7970  145.0171  154.9794 H   0  0  0  0  0  0  0  0  0  0  0  0
  144.3315  143.5241  156.9219 H   0  0  0  0  0  0  0  0  0  0  0  0
  1  2  2  0  0  0  0
  2  3  1  0  0  0  0
  2 11  1  0  0  0  0
  3  4  1  0  0  0  0
  3 20  1  0  0  0  0
  3 21  1  0  0  0  0
  4  9  1  0  0  0  0
  4  5  1  0  0  0  0
  4 22  1  0  0  0  0
  5  6  1  0  0  0  0
  5 23  1  0  0  0  0
  5 24  1  0  0  0  0
  6 10  1  0  0  0  0
  6  7  1  0  0  0  0
  6 25  1  0  0  0  0
  7  8  1  0  0  0  0
  7 26  1  0  0  0  0
  7 27  1  0  0  0  0
  8  9  1  0  0  0  0
  8 28  1  0  0  0  0
  8 29  1  0  0  0  0
  9 10  1  0  0  0  0
  9 30  1  0  0  0  0
 10 31  1  0  0  0  0
 10 32  1  0  0  0  0
 11 12  1  0  0  0  0
 11 33  1  0  0  0  0
 12 13  1  0  0  0  0
 12 34  1  0  0  0  0
 12 35  1  0  0  0  0
 13 14  1  0  0  0  0
 13 36  1  0  0  0  0
 13 37  1  0  0  0  0
 14 19  1  0  0  0  0
 14 15  2  0  0  0  0
 15 16  1  0  0  0  0
 15 38  1  0  0  0  0
 16 17  2  0  0  0  0
 16 39  1  0  0  0  0
 17 18  1  0  0  0  0
 17 40  1  0  0  0  0
 18 19  2  0  0  0  0
 18 41  1  0  0  0  0
M  END
> <s_m_source_file>
AV-unprocessed.smi

> <i_m_source_file_index>
3263

> <i_lp_mmshare_version>
43012

> <i_f3d_flags>
0

> <s_epik_input>
W0NIMl0xW0NIMl1bQ0BASF0oW0NIMl0yKVtDQEBIXShbQ0gyXVtDQEhdMTIpW0NIMl1DKD1PKVtOSF1bQ0gyXVtDSDJdYzNbY0hdW2NIXVtjSF1bY0hdbjM=

> <s_epik_cmdline>
J2VwaWtfcHl0aG9uJywgJy1waCcsICc3LjAnLCAnLXRuJywgJzgnLCAnLW1hJywgJzIwMCcsICctbWV0YWxfYmluZGluZycsICctaW1hZScsICc8aW5maWxlLm1hZT4nLCAnLW9tYWUnLCAnPG91dGZpbGUubWFlPic=

> <r_epik_Ionization_Penalty>
0.0273541

> <r_epik_Ionization_Penalty_Charging>
0

> <r_epik_Ionization_Penalty_Neutral>
0.0273541

> <r_epik_State_Penalty>
0.0223838

> <r_epik_Charging_Adjusted_Penalty>
0.0223838

> <i_epik_Tot_Q>
0

> <i_epik_Tot_abs_Q>
0

> <r_epik_Metal_State_Penalty>
0.0213927

> <b_epik_Metal_Only>
0

> <s_lp_Force_Field>
OPLS_2005

> <r_lp_Energy>
45.4659

> <b_lp_Chiralities_Consistent>
1

> <s_lp_Variant>
AV-unprocessed.smi:3263-4

> <Gold.Version>
5.8.1

> <Gold.Id.Protein>
6NUR|6NUR_protein|mol2

> <Gold.PLP.Fitness>
49.1718

> <Gold.PLP.PLP>
-48.2700

> <Gold.PLP.part.hbond>
-2.0000

> <Gold.PLP.part.metal>
0.0000

> <Gold.PLP.part.buried>
-6.5143

> <Gold.PLP.part.nonpolar>
-39.2606

> <Gold.PLP.part.repulsive>
0.2785

> <Gold.PLP.ligand.clash>
0.0000

> <Gold.PLP.ligand.torsion>
1.1642

> <Gold.PLP.Chemscore.Hbond>
1.0625

> <Gold.PLP.Chemscore.CHOScore>
0.0000

> <Gold.PLP.Chemscore.Metal>
0.0000

> <Gold.Chemscore.Hbonds>
donor molecule, donor type, donor heavy atom, donor atom, acceptor molecule, acceptor atom, score
      L1  H    11    33       P1  8028  0.20
      P1  H  7989  7998       L1     1  0.88

> <Gold.PLP.Chemscore.Internal.Correction>
0.0426

> <Gold.Rescore>
     Score         DG    S(hbond)    S(metal)    S(lipo)     H(rot)  DE(clash)    DE(int)     intcor
     18.77     -20.78       1.12        0.00     130.49       1.46       0.74       1.27       ----

> <Gold.Chemscore.Fitness>
18.7682

> <Gold.Chemscore.DG>
-20.7771

> <Gold.Chemscore.ZeroCoef>
-5.4800

> <Gold.Chemscore.Hbond>
1.1246

> <Gold.Chemscore.Metal>
0.0000

> <Gold.Chemscore.Lipo>
130.4861

> <Gold.Chemscore.Internal_Hbond>
0.0000

> <Gold.Chemscore.DEClash>
0.7408

> <Gold.Chemscore.DEInternal>
1.2681

> <Gold.Chemscore.Rot>
1.4555

> <Gold.Chemscore.Internal.Correction>
   9.000000E+99

> <Gold.Chemscore.Hbonds>
donor molecule, donor type, donor heavy atom, donor atom, acceptor molecule, acceptor atom, score
      L1  H    11    33       P1  8028  0.20
      P1  H  7989  7998       L1     1  0.82

> <Gold.Chemscore.Hbond.Weighted>
-3.7563

> <Gold.Chemscore.Metal.Weighted>
-0.0000

> <Gold.Chemscore.Lipo.Weighted>
-15.2669

> <Gold.Chemscore.Internal_Hbond.Weighted>
0.0000

> <Gold.Chemscore.DEClash.Weighted>
0.7408

> <Gold.Chemscore.DEInternal.Weighted>
1.2681

> <Gold.Chemscore.Rot.Weighted>
3.7260

> <Gold.Chemscore.Internal.Correction.Weighted>
   9.000000E+99

> <Gold.Protein.RotatedTorsions>
[ 6907 6896 6895 6894 ] final -139.51 input  -60.11 | X-H torsion
[ 7974 7965 7964 7962 ] final  -52.81 input  175.53 | X-H torsion
[ 8008 7997 7996 7995 ] final   73.50 input   59.86 | X-H torsion
[ 10167 10162 10161 10158 ] final  -13.69 input  -65.29 | X-H torsion
[ 10718 10713 10712 10709 ] final   66.14 input   66.30 | X-H torsion
[ 10763 10752 10751 10750 ] final   14.01 input  -60.55 | X-H torsion
[ 11005 11000 10999 10996 ] final   95.82 input  -57.11 | X-H torsion

> <Gold.Protein.ActiveResidues>
 VAL166  LYS551  ARG553  GLY616  TRP617  ASP618  TYR619  PRO620  LYS621  CYS622 
 ASP623  PHE694  ASN695  SER759  ASP760  ASP761  ALA762  ILE779  LEU786  VAL792 
 PHE793  MET794  SER795  GLU796  ALA797  LYS798  CYS799  TRP800  GLU811  SER814 

> <Gold.Protein.RotatedAtoms>
  151.0487  133.5643  159.2644 H   0  0  0  0  0  0  0  0  0  0  0  0  # atno 6907 bound_to 6896
  151.2662  135.0669  159.9127 H   0  0  0  0  0  0  0  0  0  0  0  0  # atno 6908 bound_to 6896
  152.5378  134.0224  159.8041 H   0  0  0  0  0  0  0  0  0  0  0  0  # atno 6909 bound_to 6896
  145.9038  140.7972  142.9729 H   0  0  0  0  0  0  0  0  0  0  0  0  # atno 7974 bound_to 7965
  155.7846  140.3481  155.5316 H   0  0  0  0  0  0  0  0  0  0  0  0  # atno 8008 bound_to 7997
  155.8694  140.0984  157.1581 H   0  0  0  0  0  0  0  0  0  0  0  0  # atno 8009 bound_to 7997
  154.4016  140.1343  156.4047 H   0  0  0  0  0  0  0  0  0  0  0  0  # atno 8010 bound_to 7997
  140.7187  143.5399  150.9421 H   0  0  0  0  0  0  0  0  0  0  0  0  # atno 10167 bound_to 10162
  157.6150  130.9252  150.0069 H   0  0  0  0  0  0  0  0  0  0  0  0  # atno 10718 bound_to 10713
  153.1664  135.6805  153.8669 H   0  0  0  0  0  0  0  0  0  0  0  0  # atno 10763 bound_to 10752
  153.8048  135.3151  155.3395 H   0  0  0  0  0  0  0  0  0  0  0  0  # atno 10764 bound_to 10752
  154.7968  135.4802  154.0271 H   0  0  0  0  0  0  0  0  0  0  0  0  # atno 10765 bound_to 10752
  139.8786  134.8919  156.4067 H   0  0  0  0  0  0  0  0  0  0  0  0  # atno 11005 bound_to 11000
  144.6738  140.1719  143.7413 LP  0  0  0  0  0  0  0  0  0  0  0  0  # atno 17320 bound_to 7965
  145.8757  139.2296  143.1635 LP  0  0  0  0  0  0  0  0  0  0  0  0  # atno 17321 bound_to 7965
  139.9122  143.6707  152.3113 LP  0  0  0  0  0  0  0  0  0  0  0  0  # atno 17342 bound_to 10162
  139.7094  144.7623  151.1138 LP  0  0  0  0  0  0  0  0  0  0  0  0  # atno 17343 bound_to 10162
  156.1269  130.3644  149.9795 LP  0  0  0  0  0  0  0  0  0  0  0  0  # atno 17370 bound_to 10713
  156.7864  130.9240  151.3646 LP  0  0  0  0  0  0  0  0  0  0  0  0  # atno 17371 bound_to 10713
  140.9229  133.7632  155.9929 LP  0  0  0  0  0  0  0  0  0  0  0  0  # atno 17394 bound_to 11000
  140.8419  134.3056  157.5310 LP  0  0  0  0  0  0  0  0  0  0  0  0  # atno 17395 bound_to 11000

$$$$
