AV-unprocessed.smi:2495|AV-procd|sdf|9824|dock6
  -GOLD-   2272013453D 1   1.00000     0.00000
 Structure written by MMmdl.
 33 34  0  0  0  0  0  0  0  0  1 V2000
  147.7704  141.6762  154.9050 C   0  0  0  0  0  0  0  0  0  0  0  0
  148.9647  141.4974  155.7162 N   0  0  0  0  0  0  0  0  0  0  0  0
  150.0067  140.7257  155.3719 C   0  0  0  0  0  0  0  0  0  0  0  0
  150.0400  140.0794  154.3239 O   0  0  0  0  0  0  0  0  0  0  0  0
  151.1744  140.6571  156.3678 C   0  0  1  0  0  0  0  0  0  0  0  0
  150.9662  141.5897  157.5833 C   0  0  0  0  0  0  0  0  0  0  0  0
  152.0326  141.4088  158.5660 N   0  0  0  0  0  0  0  0  0  0  0  0
  152.0977  142.3823  159.5867 C   0  0  0  0  0  0  0  0  0  0  0  0
  152.7229  142.0992  160.8253 C   0  0  0  0  0  0  0  0  0  0  0  0
  152.7406  143.1341  161.7835 C   0  0  0  0  0  0  0  0  0  0  0  0
  153.3840  142.9399  163.1402 C   0  0  0  0  0  0  0  0  0  0  0  0
  152.1899  144.3420  161.5383 N   0  0  0  0  0  0  0  0  0  0  0  0
  151.6203  144.5060  160.3432 C   0  0  0  0  0  0  0  0  0  0  0  0
  151.5426  143.6003  159.3656 N   0  0  0  0  0  0  0  0  0  0  0  0
  152.2515  140.0135  158.9401 C   0  0  0  0  0  0  0  0  0  0  0  0
  152.4351  139.1470  157.6850 C   0  0  0  0  0  0  0  0  0  0  0  0
  151.3133  139.3116  156.8258 O   0  0  0  0  0  0  0  0  0  0  0  0
  147.0460  142.2899  155.4404 H   0  0  0  0  0  0  0  0  0  0  0  0
  147.3032  140.7166  154.6796 H   0  0  0  0  0  0  0  0  0  0  0  0
  148.0131  142.1748  153.9657 H   0  0  0  0  0  0  0  0  0  0  0  0
  149.0103  141.9981  156.5922 H   0  0  0  0  0  0  0  0  0  0  0  0
  152.0791  140.9478  155.8308 H   0  0  0  0  0  0  0  0  0  0  0  0
  150.9222  142.6208  157.2355 H   0  0  0  0  0  0  0  0  0  0  0  0
  150.0102  141.3771  158.0645 H   0  0  0  0  0  0  0  0  0  0  0  0
  153.1578  141.1359  161.0464 H   0  0  0  0  0  0  0  0  0  0  0  0
  153.4072  141.8840  163.4111 H   0  0  0  0  0  0  0  0  0  0  0  0
  152.8315  143.4751  163.9132 H   0  0  0  0  0  0  0  0  0  0  0  0
  154.4079  143.3134  163.1273 H   0  0  0  0  0  0  0  0  0  0  0  0
  151.1757  145.4702  160.1465 H   0  0  0  0  0  0  0  0  0  0  0  0
  153.1371  139.9242  159.5706 H   0  0  0  0  0  0  0  0  0  0  0  0
  151.3992  139.6567  159.5201 H   0  0  0  0  0  0  0  0  0  0  0  0
  153.3538  139.4109  157.1587 H   0  0  0  0  0  0  0  0  0  0  0  0
  152.5178  138.0963  157.9637 H   0  0  0  0  0  0  0  0  0  0  0  0
  1  2  1  0  0  0  0
  1 18  1  0  0  0  0
  1 19  1  0  0  0  0
  1 20  1  0  0  0  0
  2  3  1  0  0  0  0
  2 21  1  0  0  0  0
  3  4  2  0  0  0  0
  3  5  1  0  0  0  0
  5 17  1  0  0  0  0
  5  6  1  0  0  0  0
  5 22  1  0  0  0  0
  6  7  1  0  0  0  0
  6 23  1  0  0  0  0
  6 24  1  0  0  0  0
  7  8  1  0  0  0  0
  7 15  1  0  0  0  0
  8 14  1  0  0  0  0
  8  9  2  0  0  0  0
  9 10  1  0  0  0  0
  9 25  1  0  0  0  0
 10 11  1  0  0  0  0
 10 12  2  0  0  0  0
 11 26  1  0  0  0  0
 11 27  1  0  0  0  0
 11 28  1  0  0  0  0
 12 13  1  0  0  0  0
 13 14  2  0  0  0  0
 13 29  1  0  0  0  0
 15 16  1  0  0  0  0
 15 30  1  0  0  0  0
 15 31  1  0  0  0  0
 16 17  1  0  0  0  0
 16 32  1  0  0  0  0
 16 33  1  0  0  0  0
M  END
> <s_m_source_file>
AV-unprocessed.smi

> <i_m_source_file_index>
2495

> <i_lp_mmshare_version>
43012

> <i_f3d_flags>
0

> <s_epik_input>
W0NIM11bTkhdQyg9TylbQ0BASF0xW0NIMl1OKFtDSDJdW0NIMl1PMSljMltjSF1jKFtDSDNdKW5bY0hdbjI=

> <s_epik_cmdline>
J2VwaWtfcHl0aG9uJywgJy1waCcsICc3LjAnLCAnLXRuJywgJzgnLCAnLW1hJywgJzIwMCcsICctbWV0YWxfYmluZGluZycsICctaW1hZScsICc8aW5maWxlLm1hZT4nLCAnLW9tYWUnLCAnPG91dGZpbGUubWFlPic=

> <r_lp_tautomer_probability>
1

> <r_epik_Ionization_Penalty>
0.000466083

> <r_epik_Ionization_Penalty_Charging>
0

> <r_epik_Ionization_Penalty_Neutral>
0.000466083

> <r_epik_State_Penalty>
0.000259726

> <r_epik_Charging_Adjusted_Penalty>
0.000259726

> <i_epik_Tot_Q>
0

> <i_epik_Tot_abs_Q>
0

> <r_epik_Metal_State_Penalty>
-0

> <b_epik_Metal_Only>
0

> <s_lp_Force_Field>
OPLS_2005

> <r_lp_Energy>
12.0364

> <b_lp_Chiralities_Consistent>
1

> <s_lp_Variant>
AV-unprocessed.smi:2495-2

> <Gold.Version>
5.8.1

> <Gold.Id.Protein>
6NUR|6NUR_protein|mol2

> <Gold.PLP.Fitness>
37.9970

> <Gold.PLP.PLP>
-36.3993

> <Gold.PLP.part.hbond>
-1.8315

> <Gold.PLP.part.metal>
0.0000

> <Gold.PLP.part.buried>
-5.0315

> <Gold.PLP.part.nonpolar>
-29.0784

> <Gold.PLP.part.repulsive>
0.5843

> <Gold.PLP.ligand.clash>
0.4106

> <Gold.PLP.ligand.torsion>
0.5859

> <Gold.PLP.Chemscore.Hbond>
0.9440

> <Gold.PLP.Chemscore.CHOScore>
0.0000

> <Gold.PLP.Chemscore.Metal>
0.0000

> <Gold.Chemscore.Hbonds>
donor molecule, donor type, donor heavy atom, donor atom, acceptor molecule, acceptor atom, score
      P1  H  7989  7998       L1     4  1.00

> <Gold.PLP.Chemscore.Internal.Correction>
0.3480

> <Gold.Rescore>
     Score         DG    S(hbond)    S(metal)    S(lipo)     H(rot)  DE(clash)    DE(int)     intcor
     12.00     -12.70       0.98        0.00      63.86       1.37       0.06       0.64       ----

> <Gold.Chemscore.Fitness>
12.0039

> <Gold.Chemscore.DG>
-12.7017

> <Gold.Chemscore.ZeroCoef>
-5.4800

> <Gold.Chemscore.Hbond>
0.9757

> <Gold.Chemscore.Metal>
0.0000

> <Gold.Chemscore.Lipo>
63.8598

> <Gold.Chemscore.Internal_Hbond>
0.0000

> <Gold.Chemscore.DEClash>
0.0551

> <Gold.Chemscore.DEInternal>
0.6427

> <Gold.Chemscore.Rot>
1.3706

> <Gold.Chemscore.Internal.Correction>
   9.000000E+99

> <Gold.Chemscore.Hbonds>
donor molecule, donor type, donor heavy atom, donor atom, acceptor molecule, acceptor atom, score
      P1  H  7989  7998       L1     4  0.24

> <Gold.Chemscore.Hbond.Weighted>
-3.2588

> <Gold.Chemscore.Metal.Weighted>
-0.0000

> <Gold.Chemscore.Lipo.Weighted>
-7.4716

> <Gold.Chemscore.Internal_Hbond.Weighted>
0.0000

> <Gold.Chemscore.DEClash.Weighted>
0.0551

> <Gold.Chemscore.DEInternal.Weighted>
0.6427

> <Gold.Chemscore.Rot.Weighted>
3.5087

> <Gold.Chemscore.Internal.Correction.Weighted>
   9.000000E+99

> <Gold.Protein.RotatedTorsions>
[ 6907 6896 6895 6894 ] final   70.84 input  -60.11 | X-H torsion
[ 7974 7965 7964 7962 ] final -125.27 input  175.53 | X-H torsion
[ 8008 7997 7996 7995 ] final   68.49 input   59.86 | X-H torsion
[ 10167 10162 10161 10158 ] final    6.22 input  -65.29 | X-H torsion
[ 10718 10713 10712 10709 ] final -152.68 input   66.30 | X-H torsion
[ 10763 10752 10751 10750 ] final  -52.72 input  -60.55 | X-H torsion
[ 11005 11000 10999 10996 ] final   36.63 input  -57.11 | X-H torsion

> <Gold.Protein.ActiveResidues>
 VAL166  LYS551  ARG553  GLY616  TRP617  ASP618  TYR619  PRO620  LYS621  CYS622 
 ASP623  PHE694  ASN695  SER759  ASP760  ASP761  ALA762  ILE779  LEU786  VAL792 
 PHE793  MET794  SER795  GLU796  ALA797  LYS798  CYS799  TRP800  GLU811  SER814 

> <Gold.Protein.RotatedAtoms>
  152.4774  134.4808  159.9664 H   0  0  0  0  0  0  0  0  0  0  0  0  # atno 6907 bound_to 6896
  151.4822  133.3538  159.2848 H   0  0  0  0  0  0  0  0  0  0  0  0  # atno 6908 bound_to 6896
  150.8822  134.8241  159.7294 H   0  0  0  0  0  0  0  0  0  0  0  0  # atno 6909 bound_to 6896
  144.9993  140.7806  143.4506 H   0  0  0  0  0  0  0  0  0  0  0  0  # atno 7974 bound_to 7965
  155.7091  140.3494  155.4966 H   0  0  0  0  0  0  0  0  0  0  0  0  # atno 8008 bound_to 7997
  155.9372  140.1095  157.1107 H   0  0  0  0  0  0  0  0  0  0  0  0  # atno 8009 bound_to 7997
  154.4096  140.1220  156.4866 H   0  0  0  0  0  0  0  0  0  0  0  0  # atno 8010 bound_to 7997
  140.6440  143.7707  150.7470 H   0  0  0  0  0  0  0  0  0  0  0  0  # atno 10167 bound_to 10162
  156.4757  130.8279  151.2508 H   0  0  0  0  0  0  0  0  0  0  0  0  # atno 10718 bound_to 10713
  154.1473  135.6495  153.4955 H   0  0  0  0  0  0  0  0  0  0  0  0  # atno 10763 bound_to 10752
  153.0148  135.5330  154.6844 H   0  0  0  0  0  0  0  0  0  0  0  0  # atno 10764 bound_to 10752
  154.6122  135.2955  155.0391 H   0  0  0  0  0  0  0  0  0  0  0  0  # atno 10765 bound_to 10752
  140.2307  134.3531  155.7965 H   0  0  0  0  0  0  0  0  0  0  0  0  # atno 11005 bound_to 11000
  145.2175  139.2175  143.5110 LP  0  0  0  0  0  0  0  0  0  0  0  0  # atno 17320 bound_to 7965
  146.3448  140.2026  142.8589 LP  0  0  0  0  0  0  0  0  0  0  0  0  # atno 17321 bound_to 7965
  140.1345  143.4496  152.2233 LP  0  0  0  0  0  0  0  0  0  0  0  0  # atno 17342 bound_to 10162
  139.5649  144.7429  151.4049 LP  0  0  0  0  0  0  0  0  0  0  0  0  # atno 17343 bound_to 10162
  157.7487  131.0061  150.3141 LP  0  0  0  0  0  0  0  0  0  0  0  0  # atno 17370 bound_to 10713
  156.3573  130.3841  149.7280 LP  0  0  0  0  0  0  0  0  0  0  0  0  # atno 17371 bound_to 10713
  141.2218  133.7244  156.8726 LP  0  0  0  0  0  0  0  0  0  0  0  0  # atno 17394 bound_to 11000
  140.1754  134.9071  157.2884 LP  0  0  0  0  0  0  0  0  0  0  0  0  # atno 17395 bound_to 11000

$$$$
