AV-unprocessed.smi:2772|AV-procd|sdf|10666|dock4
  -GOLD-   2272015113D 1   1.00000     0.00000
 Structure written by MMmdl.
 55 57  0  0  0  0  0  0  0  0  3 V2000
  152.2164  144.7617  159.9570 C   0  0  0  0  0  0  0  0  0  0  0  0
  151.8987  143.5772  159.0684 C   0  0  0  0  0  0  0  0  0  0  0  0
  152.1639  142.2591  159.4930 C   0  0  0  0  0  0  0  0  0  0  0  0
  151.8419  141.1979  158.6253 C   0  0  0  0  0  0  0  0  0  0  0  0
  151.2790  141.4866  157.3652 C   0  0  0  0  0  0  0  0  0  0  0  0
  150.9365  140.3992  156.5167 N   0  0  0  0  0  0  0  0  0  0  0  0
  150.3862  139.2219  156.8597 C   0  0  0  0  0  0  0  0  0  0  0  0
  150.0005  138.9237  157.9898 O   0  0  0  0  0  0  0  0  0  0  0  0
  150.2826  138.4053  155.8003 N   0  0  0  0  0  0  0  0  0  0  0  0
  149.7230  137.0554  155.8217 C   0  0  2  0  0  0  0  0  0  0  0  0
  150.5363  136.1255  154.9173 C   0  0  0  0  0  0  0  0  0  0  0  0
  149.9279  134.7135  154.8856 C   0  0  0  0  0  0  0  0  0  0  0  0
  148.4988  134.7139  154.4485 N   0  3  1  0  0  0  0  0  0  0  0  0
  147.9060  133.3339  154.3540 C   0  0  2  0  0  0  0  0  0  0  0  0
  148.1441  132.6384  152.9896 C   0  0  0  0  0  0  0  0  0  0  0  0
  147.3664  133.3251  151.8515 C   0  0  0  0  0  0  0  0  0  0  0  0
  145.9102  133.3440  152.1394 N   0  3  2  0  0  0  0  0  0  0  0  0
  145.1215  133.9217  151.0300 C   0  0  0  0  0  0  0  0  0  0  0  0
  145.6014  133.9778  153.4458 C   0  0  0  0  0  0  0  0  0  0  0  0
  146.3747  133.2922  154.5875 C   0  0  0  0  0  0  0  0  0  0  0  0
  147.6899  135.6446  155.2932 C   0  0  0  0  0  0  0  0  0  0  0  0
  148.2730  137.0672  155.3296 C   0  0  0  0  0  0  0  0  0  0  0  0
  151.0451  142.8463  157.0423 C   0  0  0  0  0  0  0  0  0  0  0  0
  151.3487  143.8690  157.8702 N   0  0  0  0  0  0  0  0  0  0  0  0
  152.6350  144.4404  160.9111 H   0  0  0  0  0  0  0  0  0  0  0  0
  151.3122  145.3367  160.1591 H   0  0  0  0  0  0  0  0  0  0  0  0
  152.9397  145.4171  159.4711 H   0  0  0  0  0  0  0  0  0  0  0  0
  152.6001  142.0621  160.4613 H   0  0  0  0  0  0  0  0  0  0  0  0
  152.0290  140.1772  158.9256 H   0  0  0  0  0  0  0  0  0  0  0  0
  151.1011  140.5488  155.5320 H   0  0  0  0  0  0  0  0  0  0  0  0
  150.6226  138.7437  154.9117 H   0  0  0  0  0  0  0  0  0  0  0  0
  149.7430  136.6499  156.8351 H   0  0  0  0  0  0  0  0  0  0  0  0
  150.5769  136.5279  153.9038 H   0  0  0  0  0  0  0  0  0  0  0  0
  151.5671  136.0717  155.2700 H   0  0  0  0  0  0  0  0  0  0  0  0
  150.5451  134.1313  154.2055 H   0  0  0  0  0  0  0  0  0  0  0  0
  150.0075  134.2489  155.8698 H   0  0  0  0  0  0  0  0  0  0  0  0
  148.3834  132.7309  155.1281 H   0  0  0  0  0  0  0  0  0  0  0  0
  149.1993  132.5470  152.7399 H   0  0  0  0  0  0  0  0  0  0  0  0
  147.8003  131.6053  153.0617 H   0  0  0  0  0  0  0  0  0  0  0  0
  147.7281  134.3440  151.7040 H   0  0  0  0  0  0  0  0  0  0  0  0
  147.5413  132.7893  150.9176 H   0  0  0  0  0  0  0  0  0  0  0  0
  145.3682  134.9734  150.8789 H   0  0  0  0  0  0  0  0  0  0  0  0
  144.0535  133.8466  151.2376 H   0  0  0  0  0  0  0  0  0  0  0  0
  145.3160  133.3869  150.0998 H   0  0  0  0  0  0  0  0  0  0  0  0
  145.8427  135.0412  153.4077 H   0  0  0  0  0  0  0  0  0  0  0  0
  144.5301  133.9034  153.6370 H   0  0  0  0  0  0  0  0  0  0  0  0
  146.0585  132.2490  154.6344 H   0  0  0  0  0  0  0  0  0  0  0  0
  146.0825  133.6995  155.5531 H   0  0  0  0  0  0  0  0  0  0  0  0
  146.6761  135.7393  154.9114 H   0  0  0  0  0  0  0  0  0  0  0  0
  147.6151  135.2450  156.3060 H   0  0  0  0  0  0  0  0  0  0  0  0
  147.6637  137.6961  155.9803 H   0  0  0  0  0  0  0  0  0  0  0  0
  148.2183  137.5090  154.3333 H   0  0  0  0  0  0  0  0  0  0  0  0
  150.5814  143.1400  156.1136 H   0  0  0  0  0  0  0  0  0  0  0  0
  148.4897  135.0994  153.5152 H   0  0  0  0  0  0  0  0  0  0  0  0
  145.6225  132.3783  152.2160 H   0  0  0  0  0  0  0  0  0  0  0  0
  1  2  1  0  0  0  0
  1 25  1  0  0  0  0
  1 26  1  0  0  0  0
  1 27  1  0  0  0  0
  2 24  1  0  0  0  0
  2  3  2  0  0  0  0
  3  4  1  0  0  0  0
  3 28  1  0  0  0  0
  4  5  2  0  0  0  0
  4 29  1  0  0  0  0
  5  6  1  0  0  0  0
  5 23  1  0  0  0  0
  6  7  1  0  0  0  0
  6 30  1  0  0  0  0
  7  8  2  0  0  0  0
  7  9  1  0  0  0  0
  9 10  1  0  0  0  0
  9 31  1  0  0  0  0
 10 22  1  0  0  0  0
 10 11  1  0  0  0  0
 10 32  1  0  0  0  0
 11 12  1  0  0  0  0
 11 33  1  0  0  0  0
 11 34  1  0  0  0  0
 12 13  1  0  0  0  0
 12 35  1  0  0  0  0
 12 36  1  0  0  0  0
 13 14  1  0  0  0  0
 13 21  1  0  0  0  0
 13 54  1  0  0  0  0
 14 20  1  0  0  0  0
 14 15  1  0  0  0  0
 14 37  1  0  0  0  0
 15 16  1  0  0  0  0
 15 38  1  0  0  0  0
 15 39  1  0  0  0  0
 16 17  1  0  0  0  0
 16 40  1  0  0  0  0
 16 41  1  0  0  0  0
 17 18  1  0  0  0  0
 17 19  1  0  0  0  0
 17 55  1  0  0  0  0
 18 42  1  0  0  0  0
 18 43  1  0  0  0  0
 18 44  1  0  0  0  0
 19 20  1  0  0  0  0
 19 45  1  0  0  0  0
 19 46  1  0  0  0  0
 20 47  1  0  0  0  0
 20 48  1  0  0  0  0
 21 22  1  0  0  0  0
 21 49  1  0  0  0  0
 21 50  1  0  0  0  0
 22 51  1  0  0  0  0
 22 52  1  0  0  0  0
 23 24  2  0  0  0  0
 23 53  1  0  0  0  0
M  CHG  1  13   1
M  CHG  1  17   1
M  END
> <s_m_source_file>
AV-unprocessed.smi

> <i_m_source_file_index>
2772

> <i_lp_mmshare_version>
43012

> <i_f3d_flags>
0

> <s_epik_input>
W0NIM11jMVtjSF1bY0hdYyhbY0hdbjEpW05IXUMoPU8pW05IXVtDSF0yW0NIMl1bQ0gyXU4oW0NIMl1bQ0gyXTIpW0NIXTNbQ0gyXVtDSDJdTihbQ0gzXSlbQ0gyXVtDSDJdMw==

> <s_epik_cmdline>
J2VwaWtfcHl0aG9uJywgJy1waCcsICc3LjAnLCAnLXRuJywgJzgnLCAnLW1hJywgJzIwMCcsICctbWV0YWxfYmluZGluZycsICctaW1hZScsICc8aW5maWxlLm1hZT4nLCAnLW9tYWUnLCAnPG91dGZpbGUubWFlPic=

> <r_epik_Ionization_Penalty>
0.196786

> <r_epik_Ionization_Penalty_Charging>
0.180787

> <r_epik_Ionization_Penalty_Neutral>
0.0159988

> <r_epik_State_Penalty>
0.163322

> <r_epik_Charging_Adjusted_Penalty>
0.344109

> <i_epik_Tot_Q>
2

> <i_epik_Tot_abs_Q>
2

> <r_epik_Metal_State_Penalty>
0.163596

> <b_epik_Metal_Only>
0

> <s_lp_Force_Field>
OPLS_2005

> <r_lp_Energy>
49.2909

> <b_lp_Chiralities_Consistent>
1

> <s_lp_Variant>
AV-unprocessed.smi:2772-3

> <Gold.Version>
5.8.1

> <Gold.Id.Protein>
6NUR|6NUR_protein|mol2

> <Gold.PLP.Fitness>
40.3699

> <Gold.PLP.PLP>
-34.1375

> <Gold.PLP.part.hbond>
-1.0000

> <Gold.PLP.part.metal>
0.0000

> <Gold.PLP.part.buried>
-4.9140

> <Gold.PLP.part.nonpolar>
-28.8924

> <Gold.PLP.part.repulsive>
0.2440

> <Gold.PLP.ligand.clash>
0.0000

> <Gold.PLP.ligand.torsion>
1.3981

> <Gold.PLP.Chemscore.Hbond>
2.0000

> <Gold.PLP.Chemscore.CHOScore>
1.0000

> <Gold.PLP.Chemscore.Metal>
0.0000

> <Gold.Chemscore.Hbonds>
donor molecule, donor type, donor heavy atom, donor atom, acceptor molecule, acceptor atom, score
      L1  H    13    54       P1  7948  1.98
      L1  C    23    53       P1  8028  1.00

> <Gold.PLP.Chemscore.Internal.Correction>
0.0285

> <Gold.Rescore>
     Score         DG    S(hbond)    S(metal)    S(lipo)     H(rot)  DE(clash)    DE(int)     intcor
     15.04     -17.58       0.92        0.00     103.52       1.21       0.06       2.48       ----

> <Gold.Chemscore.Fitness>
15.0404

> <Gold.Chemscore.DG>
-17.5775

> <Gold.Chemscore.ZeroCoef>
-5.4800

> <Gold.Chemscore.Hbond>
0.9223

> <Gold.Chemscore.Metal>
0.0000

> <Gold.Chemscore.Lipo>
103.5238

> <Gold.Chemscore.Internal_Hbond>
0.0000

> <Gold.Chemscore.DEClash>
0.0554

> <Gold.Chemscore.DEInternal>
2.4817

> <Gold.Chemscore.Rot>
1.2092

> <Gold.Chemscore.Internal.Correction>
   9.000000E+99

> <Gold.Chemscore.Hbonds>
donor molecule, donor type, donor heavy atom, donor atom, acceptor molecule, acceptor atom, score
      L1  H    13    54       P1  7948  0.81

> <Gold.Chemscore.Hbond.Weighted>
-3.0806

> <Gold.Chemscore.Metal.Weighted>
-0.0000

> <Gold.Chemscore.Lipo.Weighted>
-12.1123

> <Gold.Chemscore.Internal_Hbond.Weighted>
0.0000

> <Gold.Chemscore.DEClash.Weighted>
0.0554

> <Gold.Chemscore.DEInternal.Weighted>
2.4817

> <Gold.Chemscore.Rot.Weighted>
3.0955

> <Gold.Chemscore.Internal.Correction.Weighted>
   9.000000E+99

> <Gold.Protein.RotatedTorsions>
[ 6907 6896 6895 6894 ] final  120.66 input  -60.11 | X-H torsion
[ 7974 7965 7964 7962 ] final  127.12 input  175.53 | X-H torsion
[ 8008 7997 7996 7995 ] final  129.37 input   59.86 | X-H torsion
[ 10167 10162 10161 10158 ] final  -85.01 input  -65.29 | X-H torsion
[ 10718 10713 10712 10709 ] final   19.79 input   66.30 | X-H torsion
[ 10763 10752 10751 10750 ] final  -21.69 input  -60.55 | X-H torsion
[ 11005 11000 10999 10996 ] final -147.28 input  -57.11 | X-H torsion

> <Gold.Protein.ActiveResidues>
 VAL166  LYS551  ARG553  GLY616  TRP617  ASP618  TYR619  PRO620  LYS621  CYS622 
 ASP623  PHE694  ASN695  SER759  ASP760  ASP761  ALA762  ILE779  LEU786  VAL792 
 PHE793  MET794  SER795  GLU796  ALA797  LYS798  CYS799  TRP800  GLU811  SER814 

> <Gold.Protein.RotatedAtoms>
  152.4381  133.7398  159.6634 H   0  0  0  0  0  0  0  0  0  0  0  0  # atno 6907 bound_to 6896
  150.8268  133.8148  159.3121 H   0  0  0  0  0  0  0  0  0  0  0  0  # atno 6908 bound_to 6896
  151.5813  135.1060  160.0069 H   0  0  0  0  0  0  0  0  0  0  0  0  # atno 6909 bound_to 6896
  145.0541  139.3859  143.5039 H   0  0  0  0  0  0  0  0  0  0  0  0  # atno 7974 bound_to 7965
  156.2934  140.2622  156.2587 H   0  0  0  0  0  0  0  0  0  0  0  0  # atno 8008 bound_to 7997
  154.9810  140.0390  157.2296 H   0  0  0  0  0  0  0  0  0  0  0  0  # atno 8009 bound_to 7997
  154.7772  140.2788  155.6096 H   0  0  0  0  0  0  0  0  0  0  0  0  # atno 8010 bound_to 7997
  140.4078  143.2635  151.9058 H   0  0  0  0  0  0  0  0  0  0  0  0  # atno 10167 bound_to 10162
  157.1155  130.6527  149.5909 H   0  0  0  0  0  0  0  0  0  0  0  0  # atno 10718 bound_to 10713
  153.6401  135.6985  153.5244 H   0  0  0  0  0  0  0  0  0  0  0  0  # atno 10763 bound_to 10752
  153.2789  135.4192  155.1059 H   0  0  0  0  0  0  0  0  0  0  0  0  # atno 10764 bound_to 10752
  154.8502  135.3597  154.5945 H   0  0  0  0  0  0  0  0  0  0  0  0  # atno 10765 bound_to 10752
  140.7733  134.3163  157.5068 H   0  0  0  0  0  0  0  0  0  0  0  0  # atno 11005 bound_to 11000
  146.3520  140.0206  142.8659 LP  0  0  0  0  0  0  0  0  0  0  0  0  # atno 17320 bound_to 7965
  145.1490  140.9613  143.4444 LP  0  0  0  0  0  0  0  0  0  0  0  0  # atno 17321 bound_to 7965
  139.4783  144.5568  151.8301 LP  0  0  0  0  0  0  0  0  0  0  0  0  # atno 17342 bound_to 10162
  140.4671  144.1640  150.5913 LP  0  0  0  0  0  0  0  0  0  0  0  0  # atno 17343 bound_to 10162
  155.9840  130.4863  150.6964 LP  0  0  0  0  0  0  0  0  0  0  0  0  # atno 17370 bound_to 10713
  157.4522  131.0874  151.0834 LP  0  0  0  0  0  0  0  0  0  0  0  0  # atno 17371 bound_to 10713
  139.8752  134.9274  156.3425 LP  0  0  0  0  0  0  0  0  0  0  0  0  # atno 17394 bound_to 11000
  140.9553  133.7424  156.0326 LP  0  0  0  0  0  0  0  0  0  0  0  0  # atno 17395 bound_to 11000

$$$$
