#       Name:                AV-unprocessed.smi:1599
#       Creating user name   scv26
#       Creation time:       Fri Mar 27 07:06:33 2020


#       File generated by GOLD software.
#

@<TRIPOS>MOLECULE
AV-unprocessed.smi:1599
    46    47     1
SMALL
NO_CHARGES


@<TRIPOS>ATOM
      1 ****        -3.0129  -1.5520   1.9470 C.3            1 S1                 0.0000
      2 ****        -2.7064  -0.7665   0.6632 C.3            1 S1                 0.0000
      3 ****        -1.2590  -0.6845   0.4786 N.am           1 S1                 0.0000
      4 ****        -0.4988   0.3938   0.7157 C.2            1 S1                 0.0000
      5 ****        -0.9381   1.4607   1.1440 O.2            1 S1                 0.0000
      6 ****         0.7887   0.1525   0.4220 N.am           1 S1                 0.0000
      7 ****         1.8738   1.0586   0.5189 C.2            1 S1                 0.0000
      8 ****         1.8834   2.4095   0.9676 C.2            1 S1                 0.0000
      9 ****         3.1028   2.9224   0.9031 N.2            1 S1                 0.0000
     10 ****         3.8837   1.9219   0.4240 N.pl3          1 S1                 0.0000
     11 ****         5.3041   2.1510   0.2223 C.3            1 S1                 0.0000
     12 ****         6.1457   1.4311   1.2798 C.2            1 S1                 0.0000
     13 ****         7.0898   0.5949   0.8403 N.am           1 S1                 0.0000
     14 ****         5.9487   1.6242   2.4780 O.2            1 S1                 0.0000
     15 ****         3.1607   0.7706   0.1772 C.2            1 S1                 0.0000
     16 ****        -3.3532  -1.4083  -0.5787 C.3            1 S1                 0.0000
     17 ****        -3.0814  -0.6729  -1.8908 C.3            1 S1                 0.0000
     18 ****        -4.2159  -1.1421  -2.7829 C.3            1 S1                 0.0000
     19 ****        -5.3046  -1.5755  -1.7961 C.3            1 S1                 0.0000
     20 ****        -4.7688  -1.3469  -0.4978 O.3            1 S1                 0.0000
     21 ****        -4.0870  -1.6142   2.1233 H              1 S1                 0.0000
     22 ****        -2.5663  -1.0705   2.8177 H              1 S1                 0.0000
     23 ****        -2.6257  -2.5700   1.8934 H              1 S1                 0.0000
     24 ****        -3.1235   0.2362   0.7736 H              1 S1                 0.0000
     25 ****        -0.8033  -1.5148   0.1298 H              1 S1                 0.0000
     26 ****         1.0133  -0.7706   0.0810 H              1 S1                 0.0000
     27 ****         1.0750   3.0282   1.3274 H              1 S1                 0.0000
     28 ****         5.5688   1.8110  -0.7801 H              1 S1                 0.0000
     29 ****         5.5121   3.2213   0.2631 H              1 S1                 0.0000
     30 ****         7.6688   0.0942   1.4988 H              1 S1                 0.0000
     31 ****         7.2185   0.4645  -0.1527 H              1 S1                 0.0000
     32 ****         3.6161  -0.1288  -0.2105 H              1 S1                 0.0000
     33 ****        -3.0496  -2.4530  -0.6725 H              1 S1                 0.0000
     34 ****        -3.1535   0.4053  -1.7395 H              1 S1                 0.0000
     35 ****        -2.0972  -0.8906  -2.3068 H              1 S1                 0.0000
     36 ****        -4.5540  -0.3544  -3.4567 H              1 S1                 0.0000
     37 ****        -3.9007  -1.9914  -3.3900 H              1 S1                 0.0000
     38 ****        -6.2289  -1.0122  -1.9272 H              1 S1                 0.0000
     39 ****        -5.5328  -2.6352  -1.9156 H              1 S1                 0.0000
     40 ****        -1.9147   1.5585   1.3355 LP             1 S1                 0.0000
     41 ****        -0.3184   2.2298   1.3005 LP             1 S1                 0.0000
     42 ****         3.3868   3.8479   1.1537 LP             1 S1                 0.0000
     43 ****         5.2324   2.2573   2.7713 LP             1 S1                 0.0000
     44 ****         6.5049   1.1481   3.1593 LP             1 S1                 0.0000
     45 ****        -5.0493  -0.4444  -0.1710 LP             1 S1                 0.0000
     46 ****        -5.1015  -2.0480   0.1329 LP             1 S1                 0.0000
@<TRIPOS>BOND
    1    1    2 1     
    2    1   21 1     
    3    1   22 1     
    4    1   23 1     
    5    2    3 1     
    6    2   16 1     
    7    2   24 1     
    8    3    4 am    
    9    3   25 1     
   10    4    5 2     
   11    4    6 am    
   12    6    7 1     
   13    6   26 1     
   14    7   15 2     
   15    7    8 1     
   16    8    9 2     
   17    8   27 1     
   18    9   10 1     
   19   10   11 1     
   20   10   15 1     
   21   11   12 1     
   22   11   28 1     
   23   11   29 1     
   24   12   13 am    
   25   12   14 2     
   26   13   30 1     
   27   13   31 1     
   28   15   32 1     
   29   16   20 1     
   30   16   17 1     
   31   16   33 1     
   32   17   18 1     
   33   17   34 1     
   34   17   35 1     
   35   18   19 1     
   36   18   36 1     
   37   18   37 1     
   38   19   20 1     
   39   19   38 1     
   40   19   39 1     
   41    5   40 1     
   42    5   41 1     
   43    9   42 1     
   44   14   43 1     
   45   14   44 1     
   46   20   45 1     
   47   20   46 1     
@<TRIPOS>SUBSTRUCTURE
      1 S1             1
@<TRIPOS>SET
LONE_PAIRS      STATIC     ATOMS    <user>   **** ""
7 40 41 42 43 44 45 46
DONOR_HYDROGENS      STATIC     ATOMS    <user>   **** ""
4 25 26 30 31
ATOM$BLUE        STATIC     ATOMS    COLORGROUP SYSTEM
7 40 41 42 43 44 45 46
ATOM$RED        STATIC     ATOMS    COLORGROUP SYSTEM
4 25 26 30 31
