AV-unprocessed.smi:1626|AV-procd|sdf|6507|dock1
  -GOLD-   22720 7173D 1   1.00000     0.00000
 Structure written by MMmdl.
 48 50  0  0  0  0  0  0  0  0  2 V2000
  152.9356  141.4460  158.6513 C   0  0  0  0  0  0  0  0  0  0  0  0
  151.9841  141.1758  157.4989 C   0  0  0  0  0  0  0  0  0  0  0  0
  152.1355  139.9889  156.7474 C   0  0  0  0  0  0  0  0  0  0  0  0
  151.2707  139.6990  155.6698 C   0  0  0  0  0  0  0  0  0  0  0  0
  151.2367  138.6138  154.8110 N   0  0  0  0  0  0  0  0  0  0  0  0
  150.2066  138.9223  154.0288 C   0  0  0  0  0  0  0  0  0  0  0  0
  149.5723  140.0849  154.2749 N   0  0  0  0  0  0  0  0  0  0  0  0
  148.4310  140.6295  153.5617 C   0  0  0  0  0  0  0  0  0  0  0  0
  147.2209  139.6755  153.5654 C   0  0  1  0  0  0  0  0  0  0  0  0
  146.0830  140.3642  154.0476 O   0  0  0  0  0  0  0  0  0  0  0  0
  146.9133  139.1438  152.1519 C   0  0  0  0  0  0  0  0  0  0  0  0
  146.4676  137.7265  152.1580 N   0  3  2  0  0  0  0  0  0  0  0  0
  145.9627  137.2634  150.8370 C   0  0  0  0  0  0  0  0  0  0  0  0
  145.6328  135.7614  150.8620 C   0  0  0  0  0  0  0  0  0  0  0  0
  144.6210  135.4428  151.9720 C   0  0  1  0  0  0  0  0  0  0  0  0
  144.4073  134.0493  152.0408 O   0  0  0  0  0  0  0  0  0  0  0  0
  145.1526  135.9505  153.3198 C   0  0  0  0  0  0  0  0  0  0  0  0
  145.4929  137.4482  153.2451 C   0  0  0  0  0  0  0  0  0  0  0  0
  150.2418  140.6366  155.3617 C   0  0  0  0  0  0  0  0  0  0  0  0
  150.0803  141.8207  156.1024 C   0  0  0  0  0  0  0  0  0  0  0  0
  150.9534  142.0949  157.1759 C   0  0  0  0  0  0  0  0  0  0  0  0
  150.7721  143.3763  157.9703 C   0  0  0  0  0  0  0  0  0  0  0  0
  153.6906  140.6638  158.7358 H   0  0  0  0  0  0  0  0  0  0  0  0
  152.3898  141.4882  159.5940 H   0  0  0  0  0  0  0  0  0  0  0  0
  153.4534  142.3945  158.5074 H   0  0  0  0  0  0  0  0  0  0  0  0
  152.9193  139.2879  156.9940 H   0  0  0  0  0  0  0  0  0  0  0  0
  149.8977  138.2666  153.2275 H   0  0  0  0  0  0  0  0  0  0  0  0
  148.1642  141.5883  154.0090 H   0  0  0  0  0  0  0  0  0  0  0  0
  148.7421  140.8393  152.5375 H   0  0  0  0  0  0  0  0  0  0  0  0
  147.4313  138.8513  154.2461 H   0  0  0  0  0  0  0  0  0  0  0  0
  145.4043  140.3204  153.3904 H   0  0  0  0  0  0  0  0  0  0  0  0
  146.1396  139.7738  151.7099 H   0  0  0  0  0  0  0  0  0  0  0  0
  147.7869  139.2420  151.5055 H   0  0  0  0  0  0  0  0  0  0  0  0
  145.0738  137.8354  150.5658 H   0  0  0  0  0  0  0  0  0  0  0  0
  146.7029  137.4480  150.0596 H   0  0  0  0  0  0  0  0  0  0  0  0
  145.2380  135.4526  149.8934 H   0  0  0  0  0  0  0  0  0  0  0  0
  146.5503  135.1920  151.0189 H   0  0  0  0  0  0  0  0  0  0  0  0
  143.6675  135.9238  151.7500 H   0  0  0  0  0  0  0  0  0  0  0  0
  143.8619  133.7886  151.3141 H   0  0  0  0  0  0  0  0  0  0  0  0
  144.4150  135.7767  154.1042 H   0  0  0  0  0  0  0  0  0  0  0  0
  146.0447  135.3901  153.6034 H   0  0  0  0  0  0  0  0  0  0  0  0
  145.9081  137.7653  154.2024 H   0  0  0  0  0  0  0  0  0  0  0  0
  144.5867  138.0336  153.0819 H   0  0  0  0  0  0  0  0  0  0  0  0
  149.2906  142.5116  155.8471 H   0  0  0  0  0  0  0  0  0  0  0  0
  149.9222  143.9541  157.6062 H   0  0  0  0  0  0  0  0  0  0  0  0
  151.6608  144.0027  157.8916 H   0  0  0  0  0  0  0  0  0  0  0  0
  150.5977  143.1521  159.0228 H   0  0  0  0  0  0  0  0  0  0  0  0
  147.2885  137.1773  152.3719 H   0  0  0  0  0  0  0  0  0  0  0  0
  1  2  1  0  0  0  0
  1 23  1  0  0  0  0
  1 24  1  0  0  0  0
  1 25  1  0  0  0  0
  2 21  1  0  0  0  0
  2  3  2  0  0  0  0
  3  4  1  0  0  0  0
  3 26  1  0  0  0  0
  4 19  2  0  0  0  0
  4  5  1  0  0  0  0
  5  6  2  0  0  0  0
  6  7  1  0  0  0  0
  6 27  1  0  0  0  0
  7  8  1  0  0  0  0
  7 19  1  0  0  0  0
  8  9  1  0  0  0  0
  8 28  1  0  0  0  0
  8 29  1  0  0  0  0
  9 10  1  0  0  0  0
  9 11  1  0  0  0  0
  9 30  1  0  0  0  0
 10 31  1  0  0  0  0
 11 12  1  0  0  0  0
 11 32  1  0  0  0  0
 11 33  1  0  0  0  0
 12 18  1  0  0  0  0
 12 13  1  0  0  0  0
 12 48  1  0  0  0  0
 13 14  1  0  0  0  0
 13 34  1  0  0  0  0
 13 35  1  0  0  0  0
 14 15  1  0  0  0  0
 14 36  1  0  0  0  0
 14 37  1  0  0  0  0
 15 16  1  0  0  0  0
 15 17  1  0  0  0  0
 15 38  1  0  0  0  0
 16 39  1  0  0  0  0
 17 18  1  0  0  0  0
 17 40  1  0  0  0  0
 17 41  1  0  0  0  0
 18 42  1  0  0  0  0
 18 43  1  0  0  0  0
 19 20  1  0  0  0  0
 20 21  2  0  0  0  0
 20 44  1  0  0  0  0
 21 22  1  0  0  0  0
 22 45  1  0  0  0  0
 22 46  1  0  0  0  0
 22 47  1  0  0  0  0
M  CHG  1  12   1
M  END
> <s_m_source_file>
AV-unprocessed.smi

> <i_m_source_file_index>
1626

> <i_lp_mmshare_version>
43012

> <i_f3d_flags>
0

> <s_epik_input>
W0NIM11jKFtjSF0xKWMoW0NIM10pW2NIXWMoYzEyKW4oW2NIXW4yKVtDSDJdW0NASF0oW09IXSlbQ0gyXU4zW0NIMl1bQ0gyXVtDSF0oW09IXSlbQ0gyXVtDSDJdMw==

> <s_epik_cmdline>
J2VwaWtfcHl0aG9uJywgJy1waCcsICc3LjAnLCAnLXRuJywgJzgnLCAnLW1hJywgJzIwMCcsICctbWV0YWxfYmluZGluZycsICctaW1hZScsICc8aW5maWxlLm1hZT4nLCAnLW9tYWUnLCAnPG91dGZpbGUubWFlPic=

> <r_epik_Ionization_Penalty>
0.106584

> <r_epik_Ionization_Penalty_Charging>
0.0185694

> <r_epik_Ionization_Penalty_Neutral>
0.0880147

> <r_epik_State_Penalty>
0.0908428

> <r_epik_Charging_Adjusted_Penalty>
0.109412

> <i_epik_Tot_Q>
1

> <i_epik_Tot_abs_Q>
1

> <r_epik_Metal_State_Penalty>
0.0153739

> <b_epik_Metal_Only>
0

> <s_lp_Force_Field>
OPLS_2005

> <r_lp_Energy>
20.8081

> <b_lp_Chiralities_Consistent>
1

> <s_lp_Variant>
AV-unprocessed.smi:1626-2

> <Gold.Version>
5.8.1

> <Gold.Id.Protein>
6NUR|6NUR_protein|mol2

> <Gold.PLP.Fitness>
47.9515

> <Gold.PLP.PLP>
-38.0487

> <Gold.PLP.part.hbond>
-2.0000

> <Gold.PLP.part.metal>
0.0000

> <Gold.PLP.part.buried>
2.8936

> <Gold.PLP.part.nonpolar>
-39.5181

> <Gold.PLP.part.repulsive>
0.1673

> <Gold.PLP.ligand.clash>
0.0000

> <Gold.PLP.ligand.torsion>
1.3248

> <Gold.PLP.Chemscore.Hbond>
3.0000

> <Gold.PLP.Chemscore.CHOScore>
1.1510

> <Gold.PLP.Chemscore.Metal>
0.0000

> <Gold.Chemscore.Hbonds>
donor molecule, donor type, donor heavy atom, donor atom, acceptor molecule, acceptor atom, score
      L1  H    10    31       P1 10175  1.00
      L1  H    12    48       P1  7948  2.00
      L1  C     6    27       P1  7948  0.87
      L1  C     6    27       P1  7957  0.23

> <Gold.PLP.Chemscore.Internal.Correction>
0.0994

> <Gold.Rescore>
     Score         DG    S(hbond)    S(metal)    S(lipo)     H(rot)  DE(clash)    DE(int)     intcor
     14.18     -18.49       1.96        0.00     113.72       2.67       2.90       1.42       ----

> <Gold.Chemscore.Fitness>
14.1759

> <Gold.Chemscore.DG>
-18.4903

> <Gold.Chemscore.ZeroCoef>
-5.4800

> <Gold.Chemscore.Hbond>
1.9592

> <Gold.Chemscore.Metal>
0.0000

> <Gold.Chemscore.Lipo>
113.7163

> <Gold.Chemscore.Internal_Hbond>
0.0000

> <Gold.Chemscore.DEClash>
2.8977

> <Gold.Chemscore.DEInternal>
1.4167

> <Gold.Chemscore.Rot>
2.6712

> <Gold.Chemscore.Internal.Correction>
   9.000000E+99

> <Gold.Chemscore.Hbonds>
donor molecule, donor type, donor heavy atom, donor atom, acceptor molecule, acceptor atom, score
      L1  H    10    31       P1 10175  0.98
      L1  H    12    48       P1  7948  0.94

> <Gold.Chemscore.Hbond.Weighted>
-6.5439

> <Gold.Chemscore.Metal.Weighted>
-0.0000

> <Gold.Chemscore.Lipo.Weighted>
-13.3048

> <Gold.Chemscore.Internal_Hbond.Weighted>
0.0000

> <Gold.Chemscore.DEClash.Weighted>
2.8977

> <Gold.Chemscore.DEInternal.Weighted>
1.4167

> <Gold.Chemscore.Rot.Weighted>
6.8383

> <Gold.Chemscore.Internal.Correction.Weighted>
   9.000000E+99

> <Gold.Protein.RotatedTorsions>
[ 6907 6896 6895 6894 ] final  -90.63 input  -60.11 | X-H torsion
[ 7974 7965 7964 7962 ] final  130.65 input  175.53 | X-H torsion
[ 8008 7997 7996 7995 ] final  107.55 input   59.86 | X-H torsion
[ 10167 10162 10161 10158 ] final   20.41 input  -65.29 | X-H torsion
[ 10718 10713 10712 10709 ] final  -55.53 input   66.30 | X-H torsion
[ 10763 10752 10751 10750 ] final -156.93 input  -60.55 | X-H torsion
[ 11005 11000 10999 10996 ] final  160.74 input  -57.11 | X-H torsion

> <Gold.Protein.ActiveResidues>
 VAL166  LYS551  ARG553  GLY616  TRP617  ASP618  TYR619  PRO620  LYS621  CYS622 
 ASP623  PHE694  ASN695  SER759  ASP760  ASP761  ALA762  ILE779  LEU786  VAL792 
 PHE793  MET794  SER795  GLU796  ALA797  LYS798  CYS799  TRP800  GLU811  SER814 

> <Gold.Protein.RotatedAtoms>
  150.6884  134.2401  159.4468 H   0  0  0  0  0  0  0  0  0  0  0  0  # atno 6907 bound_to 6896
  152.0346  134.9745  160.0582 H   0  0  0  0  0  0  0  0  0  0  0  0  # atno 6908 bound_to 6896
  152.1271  133.4351  159.4740 H   0  0  0  0  0  0  0  0  0  0  0  0  # atno 6909 bound_to 6896
  145.0157  139.4179  143.5223 H   0  0  0  0  0  0  0  0  0  0  0  0  # atno 7974 bound_to 7965
  156.1833  140.3092  155.9191 H   0  0  0  0  0  0  0  0  0  0  0  0  # atno 8008 bound_to 7997
  155.3335  140.0462  157.3060 H   0  0  0  0  0  0  0  0  0  0  0  0  # atno 8009 bound_to 7997
  154.5367  140.2248  155.8720 H   0  0  0  0  0  0  0  0  0  0  0  0  # atno 8010 bound_to 7997
  140.5505  143.9517  150.6575 H   0  0  0  0  0  0  0  0  0  0  0  0  # atno 10167 bound_to 10162
  156.1361  130.4157  150.0184 H   0  0  0  0  0  0  0  0  0  0  0  0  # atno 10718 bound_to 10713
  154.7675  135.3135  154.8256 H   0  0  0  0  0  0  0  0  0  0  0  0  # atno 10763 bound_to 10752
  153.9001  135.6816  153.4760 H   0  0  0  0  0  0  0  0  0  0  0  0  # atno 10764 bound_to 10752
  153.1283  135.4791  154.9242 H   0  0  0  0  0  0  0  0  0  0  0  0  # atno 10765 bound_to 10752
  140.2089  134.8282  157.3099 H   0  0  0  0  0  0  0  0  0  0  0  0  # atno 11005 bound_to 11000
  146.3477  139.9626  142.8715 LP  0  0  0  0  0  0  0  0  0  0  0  0  # atno 17320 bound_to 7965
  145.1964  140.9835  143.4181 LP  0  0  0  0  0  0  0  0  0  0  0  0  # atno 17321 bound_to 7965
  140.2942  143.3304  152.1034 LP  0  0  0  0  0  0  0  0  0  0  0  0  # atno 17342 bound_to 10162
  139.5025  144.6737  151.6181 LP  0  0  0  0  0  0  0  0  0  0  0  0  # atno 17343 bound_to 10162
  156.8082  130.9315  151.3644 LP  0  0  0  0  0  0  0  0  0  0  0  0  # atno 17370 bound_to 10713
  157.6533  130.8903  149.9677 LP  0  0  0  0  0  0  0  0  0  0  0  0  # atno 17371 bound_to 10713
  140.1972  134.4298  155.7682 LP  0  0  0  0  0  0  0  0  0  0  0  0  # atno 17394 bound_to 11000
  141.2226  133.7055  156.8125 LP  0  0  0  0  0  0  0  0  0  0  0  0  # atno 17395 bound_to 11000

$$$$
