AV-unprocessed.smi:2061|AV-procd|sdf|8387|dock5
  -GOLD-   2272011 63D 1   1.00000     0.00000
 Structure written by MMmdl.
 45 46  0  0  0  0  0  0  0  0  3 V2000
  145.4347  134.5392  162.3499 C   0  0  0  0  0  0  0  0  0  0  0  0
  146.5930  135.2706  161.7619 C   0  0  0  0  0  0  0  0  0  0  0  0
  146.9265  135.6014  160.4789 C   0  0  0  0  0  0  0  0  0  0  0  0
  148.1612  136.2897  160.6314 C   0  0  0  0  0  0  0  0  0  0  0  0
  148.8906  136.8335  159.6447 N   0  5  0  0  0  0  0  0  0  0  0  0
  148.9711  136.2246  158.4399 C   0  0  0  0  0  0  0  0  0  0  0  0
  149.3563  135.0736  158.2228 O   0  0  0  0  0  0  0  0  0  0  0  0
  148.5799  137.0005  157.4208 N   0  0  0  0  0  0  0  0  0  0  0  0
  148.5739  136.6110  156.0152 C   0  0  0  0  0  0  0  0  0  0  0  0
  149.9523  136.0727  155.5504 C   0  0  1  0  0  0  0  0  0  0  0  0
  149.8591  134.5547  155.2591 C   0  0  0  0  0  0  0  0  0  0  0  0
  150.4864  136.8170  154.3573 N   0  3  1  0  0  0  0  0  0  0  0  0
  150.4226  138.3026  154.4248 C   0  0  0  0  0  0  0  0  0  0  0  0
  151.4867  138.8601  155.3931 C   0  0  2  0  0  0  0  0  0  0  0  0
  151.4728  140.3914  155.4455 C   0  0  0  0  0  0  0  0  0  0  0  0
  152.7735  138.4463  154.9425 O   0  0  0  0  0  0  0  0  0  0  0  0
  152.9251  137.0304  154.8950 C   0  0  2  0  0  0  0  0  0  0  0  0
  154.3522  136.7223  154.4286 C   0  0  0  0  0  0  0  0  0  0  0  0
  151.8647  136.4379  153.9405 C   0  0  0  0  0  0  0  0  0  0  0  0
  148.5353  136.3827  161.8963 N   0  0  0  0  0  0  0  0  0  0  0  0
  147.5386  135.7255  162.6274 O   0  0  0  0  0  0  0  0  0  0  0  0
  144.4938  134.9939  162.0398 H   0  0  0  0  0  0  0  0  0  0  0  0
  145.4723  134.5526  163.4394 H   0  0  0  0  0  0  0  0  0  0  0  0
  145.4314  133.4987  162.0247 H   0  0  0  0  0  0  0  0  0  0  0  0
  146.3773  135.3836  159.5753 H   0  0  0  0  0  0  0  0  0  0  0  0
  148.2715  137.9359  157.6426 H   0  0  0  0  0  0  0  0  0  0  0  0
  147.8022  135.8596  155.8390 H   0  0  0  0  0  0  0  0  0  0  0  0
  148.2908  137.5088  155.4673 H   0  0  0  0  0  0  0  0  0  0  0  0
  150.6422  136.2061  156.3832 H   0  0  0  0  0  0  0  0  0  0  0  0
  149.4049  134.0035  156.0820 H   0  0  0  0  0  0  0  0  0  0  0  0
  150.8357  134.0954  155.1177 H   0  0  0  0  0  0  0  0  0  0  0  0
  149.2602  134.3599  154.3690 H   0  0  0  0  0  0  0  0  0  0  0  0
  150.6206  138.6906  153.4244 H   0  0  0  0  0  0  0  0  0  0  0  0
  149.4270  138.6700  154.6634 H   0  0  0  0  0  0  0  0  0  0  0  0
  151.3173  138.4821  156.4023 H   0  0  0  0  0  0  0  0  0  0  0  0
  150.5087  140.7630  155.7939 H   0  0  0  0  0  0  0  0  0  0  0  0
  151.6633  140.8231  154.4624 H   0  0  0  0  0  0  0  0  0  0  0  0
  152.2378  140.7646  156.1267 H   0  0  0  0  0  0  0  0  0  0  0  0
  152.8029  136.6236  155.8995 H   0  0  0  0  0  0  0  0  0  0  0  0
  154.5284  135.6472  154.3889 H   0  0  0  0  0  0  0  0  0  0  0  0
  155.0865  137.1533  155.1097 H   0  0  0  0  0  0  0  0  0  0  0  0
  154.5408  137.1295  153.4347 H   0  0  0  0  0  0  0  0  0  0  0  0
  151.9883  135.3624  153.8383 H   0  0  0  0  0  0  0  0  0  0  0  0
  152.0307  136.8338  152.9374 H   0  0  0  0  0  0  0  0  0  0  0  0
  149.8778  136.5517  153.5959 H   0  0  0  0  0  0  0  0  0  0  0  0
  1  2  1  0  0  0  0
  1 22  1  0  0  0  0
  1 23  1  0  0  0  0
  1 24  1  0  0  0  0
  2 21  1  0  0  0  0
  2  3  2  0  0  0  0
  3  4  1  0  0  0  0
  3 25  1  0  0  0  0
  4  5  1  0  0  0  0
  4 20  2  0  0  0  0
  5  6  1  0  0  0  0
  6  7  2  0  0  0  0
  6  8  1  0  0  0  0
  8  9  1  0  0  0  0
  8 26  1  0  0  0  0
  9 10  1  0  0  0  0
  9 27  1  0  0  0  0
  9 28  1  0  0  0  0
 10 11  1  0  0  0  0
 10 12  1  0  0  0  0
 10 29  1  0  0  0  0
 11 30  1  0  0  0  0
 11 31  1  0  0  0  0
 11 32  1  0  0  0  0
 12 19  1  0  0  0  0
 12 13  1  0  0  0  0
 12 45  1  0  0  0  0
 13 14  1  0  0  0  0
 13 33  1  0  0  0  0
 13 34  1  0  0  0  0
 14 15  1  0  0  0  0
 14 16  1  0  0  0  0
 14 35  1  0  0  0  0
 15 36  1  0  0  0  0
 15 37  1  0  0  0  0
 15 38  1  0  0  0  0
 16 17  1  0  0  0  0
 17 18  1  0  0  0  0
 17 19  1  0  0  0  0
 17 39  1  0  0  0  0
 18 40  1  0  0  0  0
 18 41  1  0  0  0  0
 18 42  1  0  0  0  0
 19 43  1  0  0  0  0
 19 44  1  0  0  0  0
 20 21  1  0  0  0  0
M  CHG  1   5  -1
M  CHG  1  12   1
M  END
> <s_m_source_file>
AV-unprocessed.smi

> <i_m_source_file_index>
2061

> <i_lp_mmshare_version>
43012

> <i_f3d_flags>
0

> <s_epik_input>
W0NIM11jMVtjSF1jKG5vMSlbTkhdQyg9TylbTkhdW0NIMl1bQ0BIXShbQ0gzXSlOMltDSDJdW0NAQEhdKFtDSDNdKU9bQ0BASF0oW0NIM10pW0NIMl0y

> <s_epik_cmdline>
J2VwaWtfcHl0aG9uJywgJy1waCcsICc3LjAnLCAnLXRuJywgJzgnLCAnLW1hJywgJzIwMCcsICctbWV0YWxfYmluZGluZycsICctaW1hZScsICc8aW5maWxlLm1hZT4nLCAnLW9tYWUnLCAnPG91dGZpbGUubWFlPic=

> <r_epik_Ionization_Penalty>
6.73511

> <r_epik_Ionization_Penalty_Charging>
6.73502

> <r_epik_Ionization_Penalty_Neutral>
9.50841e-05

> <r_epik_State_Penalty>
6.93549

> <r_epik_Charging_Adjusted_Penalty>
13.6705

> <i_epik_Tot_Q>
0

> <i_epik_Tot_abs_Q>
2

> <r_epik_Metal_State_Penalty>
2.87211

> <b_epik_Metal_Only>
1

> <s_lp_Force_Field>
OPLS_2005

> <r_lp_Energy>
11.5912

> <b_lp_Chiralities_Consistent>
1

> <s_lp_Variant>
AV-unprocessed.smi:2061-28

> <Gold.Version>
5.8.1

> <Gold.Id.Protein>
6NUR|6NUR_protein|mol2

> <Gold.PLP.Fitness>
47.8615

> <Gold.PLP.PLP>
-36.0168

> <Gold.PLP.part.hbond>
-5.1603

> <Gold.PLP.part.metal>
0.0000

> <Gold.PLP.part.buried>
-3.6992

> <Gold.PLP.part.nonpolar>
-27.8472

> <Gold.PLP.part.repulsive>
0.1129

> <Gold.PLP.ligand.clash>
0.0000

> <Gold.PLP.ligand.torsion>
1.6022

> <Gold.PLP.Chemscore.Hbond>
4.9920

> <Gold.PLP.Chemscore.CHOScore>
0.0000

> <Gold.PLP.Chemscore.Metal>
0.0000

> <Gold.Chemscore.Hbonds>
donor molecule, donor type, donor heavy atom, donor atom, acceptor molecule, acceptor atom, score
      L1  H    12    45       P1  7948  2.00
      P1  H  6896  6908       L1     7  1.00
      P1  H  6931  6943       L1    20  0.95

> <Gold.PLP.Chemscore.Internal.Correction>
0.0731

> <Gold.Rescore>
     Score         DG    S(hbond)    S(metal)    S(lipo)     H(rot)  DE(clash)    DE(int)     intcor
     17.57     -20.25       2.99        0.00      74.90       1.56       0.93       1.74       ----

> <Gold.Chemscore.Fitness>
17.5742

> <Gold.Chemscore.DG>
-20.2508

> <Gold.Chemscore.ZeroCoef>
-5.4800

> <Gold.Chemscore.Hbond>
2.9905

> <Gold.Chemscore.Metal>
0.0000

> <Gold.Chemscore.Lipo>
74.9005

> <Gold.Chemscore.Internal_Hbond>
0.0000

> <Gold.Chemscore.DEClash>
0.9336

> <Gold.Chemscore.DEInternal>
1.7430

> <Gold.Chemscore.Rot>
1.5550

> <Gold.Chemscore.Internal.Correction>
   9.000000E+99

> <Gold.Chemscore.Hbonds>
donor molecule, donor type, donor heavy atom, donor atom, acceptor molecule, acceptor atom, score
      L1  H    12    45       P1  7948  0.25
      P1  H  6896  6908       L1     7  0.94
      P1  H  6931  6943       L1    20  0.21

> <Gold.Chemscore.Hbond.Weighted>
-9.9883

> <Gold.Chemscore.Metal.Weighted>
-0.0000

> <Gold.Chemscore.Lipo.Weighted>
-8.7634

> <Gold.Chemscore.Internal_Hbond.Weighted>
0.0000

> <Gold.Chemscore.DEClash.Weighted>
0.9336

> <Gold.Chemscore.DEInternal.Weighted>
1.7430

> <Gold.Chemscore.Rot.Weighted>
3.9809

> <Gold.Chemscore.Internal.Correction.Weighted>
   9.000000E+99

> <Gold.Protein.RotatedTorsions>
[ 6907 6896 6895 6894 ] final  154.62 input  -60.11 | X-H torsion
[ 7974 7965 7964 7962 ] final   86.27 input  175.53 | X-H torsion
[ 8008 7997 7996 7995 ] final  149.77 input   59.86 | X-H torsion
[ 10167 10162 10161 10158 ] final  -14.03 input  -65.29 | X-H torsion
[ 10718 10713 10712 10709 ] final -174.98 input   66.30 | X-H torsion
[ 10763 10752 10751 10750 ] final   45.93 input  -60.55 | X-H torsion
[ 11005 11000 10999 10996 ] final   23.57 input  -57.11 | X-H torsion

> <Gold.Protein.ActiveResidues>
 VAL166  LYS551  ARG553  GLY616  TRP617  ASP618  TYR619  PRO620  LYS621  CYS622 
 ASP623  PHE694  ASN695  SER759  ASP760  ASP761  ALA762  ILE779  LEU786  VAL792 
 PHE793  MET794  SER795  GLU796  ALA797  LYS798  CYS799  TRP800  GLU811  SER814 

> <Gold.Protein.RotatedAtoms>
  152.0558  133.4039  159.4396 H   0  0  0  0  0  0  0  0  0  0  0  0  # atno 6907 bound_to 6896
  150.6868  134.3256  159.4814 H   0  0  0  0  0  0  0  0  0  0  0  0  # atno 6908 bound_to 6896
  152.1071  134.9300  160.0618 H   0  0  0  0  0  0  0  0  0  0  0  0  # atno 6909 bound_to 6896
  145.5744  139.2317  143.2388 H   0  0  0  0  0  0  0  0  0  0  0  0  # atno 7974 bound_to 7965
  156.2742  140.2093  156.5911 H   0  0  0  0  0  0  0  0  0  0  0  0  # atno 8008 bound_to 7997
  154.6981  140.0523  157.0454 H   0  0  0  0  0  0  0  0  0  0  0  0  # atno 8009 bound_to 7997
  155.0772  140.3183  155.4615 H   0  0  0  0  0  0  0  0  0  0  0  0  # atno 8010 bound_to 7997
  140.7194  143.5364  150.9460 H   0  0  0  0  0  0  0  0  0  0  0  0  # atno 10167 bound_to 10162
  156.7930  130.9525  151.3120 H   0  0  0  0  0  0  0  0  0  0  0  0  # atno 10718 bound_to 10713
  152.9817  135.6024  154.3517 H   0  0  0  0  0  0  0  0  0  0  0  0  # atno 10763 bound_to 10752
  154.3206  135.2770  155.2523 H   0  0  0  0  0  0  0  0  0  0  0  0  # atno 10764 bound_to 10752
  154.4691  135.5946  153.6365 H   0  0  0  0  0  0  0  0  0  0  0  0  # atno 10765 bound_to 10752
  140.3681  134.2052  155.7668 H   0  0  0  0  0  0  0  0  0  0  0  0  # atno 11005 bound_to 11000
  146.1761  140.6571  142.9211 LP  0  0  0  0  0  0  0  0  0  0  0  0  # atno 17320 bound_to 7965
  144.7422  140.4974  143.6861 LP  0  0  0  0  0  0  0  0  0  0  0  0  # atno 17321 bound_to 7965
  139.9085  143.6749  152.3119 LP  0  0  0  0  0  0  0  0  0  0  0  0  # atno 17342 bound_to 10162
  139.7123  144.7618  151.1091 LP  0  0  0  0  0  0  0  0  0  0  0  0  # atno 17343 bound_to 10162
  157.6591  130.8950  149.9791 LP  0  0  0  0  0  0  0  0  0  0  0  0  # atno 17370 bound_to 10713
  156.1147  130.3648  149.9988 LP  0  0  0  0  0  0  0  0  0  0  0  0  # atno 17371 bound_to 10713
  141.1963  133.8085  157.0677 LP  0  0  0  0  0  0  0  0  0  0  0  0  # atno 17394 bound_to 11000
  140.0573  134.9773  157.1243 LP  0  0  0  0  0  0  0  0  0  0  0  0  # atno 17395 bound_to 11000

$$$$
