AV-unprocessed.smi:3021|AV-procd|sdf|11499|dock10
  -GOLD-   2272016433D 1   1.00000     0.00000
 Structure written by MMmdl.
 35 37  0  0  0  0  0  0  0  0  1 V2000
  150.3534  139.6049  153.9892 O   0  0  0  0  0  0  0  0  0  0  0  0
  149.2203  140.4502  154.0251 C   0  0  1  0  0  0  0  0  0  0  0  0
  147.9864  139.5929  154.3453 C   0  0  0  0  0  0  0  0  0  0  0  0
  147.6632  138.8109  153.2079 O   0  0  0  0  0  0  0  0  0  0  0  0
  146.2717  138.7930  152.9304 C   0  0  0  0  0  0  0  0  0  0  0  0
  145.9713  137.5533  152.1482 C   0  0  0  0  0  0  0  0  0  0  0  0
  145.0933  136.5229  152.3435 C   0  0  0  0  0  0  0  0  0  0  0  0
  145.2641  135.6325  151.2475 C   0  0  0  0  0  0  0  0  0  0  0  0
  146.2348  136.1850  150.4617 C   0  0  0  0  0  0  0  0  0  0  0  0
  146.6754  137.3568  150.9949 O   0  0  0  0  0  0  0  0  0  0  0  0
  149.4457  141.5516  155.0794 C   0  0  0  0  0  0  0  0  0  0  0  0
  150.0683  141.0436  156.2897 N   0  0  0  0  0  0  0  0  0  0  0  0
  150.0829  139.7016  156.5290 N   0  0  0  0  0  0  0  0  0  0  0  0
  150.6875  139.4871  157.6594 N   0  0  0  0  0  0  0  0  0  0  0  0
  151.0790  140.7113  158.1750 C   0  0  0  0  0  0  0  0  0  0  0  0
  151.7646  141.0593  159.3603 C   0  0  0  0  0  0  0  0  0  0  0  0
  152.0442  142.4124  159.6525 C   0  0  0  0  0  0  0  0  0  0  0  0
  152.8851  142.7982  161.1119 Cl  0  0  0  0  0  0  0  0  0  0  0  0
  151.6398  143.4345  158.7600 C   0  0  0  0  0  0  0  0  0  0  0  0
  151.9743  145.0947  159.1016 Cl  0  0  0  0  0  0  0  0  0  0  0  0
  150.9548  143.1020  157.5743 C   0  0  0  0  0  0  0  0  0  0  0  0
  150.6870  141.7496  157.3027 C   0  0  0  0  0  0  0  0  0  0  0  0
  150.1506  138.8145  154.4662 H   0  0  0  0  0  0  0  0  0  0  0  0
  149.0956  140.9164  153.0468 H   0  0  0  0  0  0  0  0  0  0  0  0
  148.1556  138.9693  155.2252 H   0  0  0  0  0  0  0  0  0  0  0  0
  147.1362  140.2402  154.5664 H   0  0  0  0  0  0  0  0  0  0  0  0
  145.6987  138.7972  153.8586 H   0  0  0  0  0  0  0  0  0  0  0  0
  145.9855  139.6747  152.3553 H   0  0  0  0  0  0  0  0  0  0  0  0
  144.4107  136.4224  153.1744 H   0  0  0  0  0  0  0  0  0  0  0  0
  144.7430  134.7058  151.0581 H   0  0  0  0  0  0  0  0  0  0  0  0
  146.7075  135.8929  149.5357 H   0  0  0  0  0  0  0  0  0  0  0  0
  150.0926  142.3307  154.6744 H   0  0  0  0  0  0  0  0  0  0  0  0
  148.5014  142.0348  155.3362 H   0  0  0  0  0  0  0  0  0  0  0  0
  152.0760  140.2842  160.0452 H   0  0  0  0  0  0  0  0  0  0  0  0
  150.6414  143.8715  156.8843 H   0  0  0  0  0  0  0  0  0  0  0  0
  1  2  1  0  0  0  0
  1 23  1  0  0  0  0
  2  3  1  0  0  0  0
  2 11  1  0  0  0  0
  2 24  1  0  0  0  0
  3  4  1  0  0  0  0
  3 25  1  0  0  0  0
  3 26  1  0  0  0  0
  4  5  1  0  0  0  0
  5  6  1  0  0  0  0
  5 27  1  0  0  0  0
  5 28  1  0  0  0  0
  6 10  1  0  0  0  0
  6  7  2  0  0  0  0
  7  8  1  0  0  0  0
  7 29  1  0  0  0  0
  8  9  2  0  0  0  0
  8 30  1  0  0  0  0
  9 10  1  0  0  0  0
  9 31  1  0  0  0  0
 11 12  1  0  0  0  0
 11 32  1  0  0  0  0
 11 33  1  0  0  0  0
 12 22  1  0  0  0  0
 12 13  1  0  0  0  0
 13 14  2  0  0  0  0
 14 15  1  0  0  0  0
 15 22  2  0  0  0  0
 15 16  1  0  0  0  0
 16 17  2  0  0  0  0
 16 34  1  0  0  0  0
 17 18  1  0  0  0  0
 17 19  1  0  0  0  0
 19 20  1  0  0  0  0
 19 21  2  0  0  0  0
 21 22  1  0  0  0  0
 21 35  1  0  0  0  0
M  END
> <s_m_source_file>
AV-unprocessed.smi

> <i_m_source_file_index>
3021

> <i_lp_mmshare_version>
43012

> <i_f3d_flags>
0

> <s_epik_input>
W2NIXTFjKENsKWMoQ2wpW2NIXWMoYzEyKW4obm4yKVtDSDJdW0NASF0oW09IXSlbQ0gyXU9bQ0gyXWMzW2NIXVtjSF1bY0hdbzM=

> <s_epik_cmdline>
J2VwaWtfcHl0aG9uJywgJy1waCcsICc3LjAnLCAnLXRuJywgJzgnLCAnLW1hJywgJzIwMCcsICctbWV0YWxfYmluZGluZycsICctaW1hZScsICc8aW5maWxlLm1hZT4nLCAnLW9tYWUnLCAnPG91dGZpbGUubWFlPic=

> <r_lp_tautomer_probability>
1

> <r_epik_Ionization_Penalty>
6.1367e-06

> <r_epik_Ionization_Penalty_Charging>
0

> <r_epik_Ionization_Penalty_Neutral>
6.1367e-06

> <r_epik_State_Penalty>
-0

> <r_epik_Charging_Adjusted_Penalty>
0

> <i_epik_Tot_Q>
0

> <i_epik_Tot_abs_Q>
0

> <r_epik_Metal_State_Penalty>
-0

> <b_epik_Metal_Only>
0

> <s_lp_Force_Field>
OPLS_2005

> <r_lp_Energy>
8.01921

> <b_lp_Chiralities_Consistent>
1

> <s_lp_Variant>
AV-unprocessed.smi:3021-2

> <Gold.Version>
5.8.1

> <Gold.Id.Protein>
6NUR|6NUR_protein|mol2

> <Gold.PLP.Fitness>
46.1455

> <Gold.PLP.PLP>
-38.9422

> <Gold.PLP.part.hbond>
-3.0000

> <Gold.PLP.part.metal>
0.0000

> <Gold.PLP.part.buried>
1.5354

> <Gold.PLP.part.nonpolar>
-40.4851

> <Gold.PLP.part.repulsive>
2.9850

> <Gold.PLP.ligand.clash>
0.0000

> <Gold.PLP.ligand.torsion>
0.9169

> <Gold.PLP.Chemscore.Hbond>
1.9913

> <Gold.PLP.Chemscore.CHOScore>
1.0000

> <Gold.PLP.Chemscore.Metal>
0.0000

> <Gold.Chemscore.Hbonds>
donor molecule, donor type, donor heavy atom, donor atom, acceptor molecule, acceptor atom, score
      P1  H  7954  7966       L1    10  1.00
      P1  H  7989  7998       L1     1  0.95
      L1  C     9    31       P1  7921  1.00

> <Gold.PLP.Chemscore.Internal.Correction>
0.0633

> <Gold.Rescore>
     Score         DG    S(hbond)    S(metal)    S(lipo)     H(rot)  DE(clash)    DE(int)     intcor
     10.47     -15.60       0.43        0.00     128.26       2.46       1.83       3.30       ----

> <Gold.Chemscore.Fitness>
10.4678

> <Gold.Chemscore.DG>
-15.6031

> <Gold.Chemscore.ZeroCoef>
-5.4800

> <Gold.Chemscore.Hbond>
0.4271

> <Gold.Chemscore.Metal>
0.0000

> <Gold.Chemscore.Lipo>
128.2578

> <Gold.Chemscore.Internal_Hbond>
0.0000

> <Gold.Chemscore.DEClash>
1.8347

> <Gold.Chemscore.DEInternal>
3.3006

> <Gold.Chemscore.Rot>
2.4647

> <Gold.Chemscore.Internal.Correction>
   9.000000E+99

> <Gold.Chemscore.Hbonds>
donor molecule, donor type, donor heavy atom, donor atom, acceptor molecule, acceptor atom, score
      P1  H  7954  7966       L1    10  0.44
      P1  H  7989  7998       L1     1  0.21

> <Gold.Chemscore.Hbond.Weighted>
-1.4266

> <Gold.Chemscore.Metal.Weighted>
-0.0000

> <Gold.Chemscore.Lipo.Weighted>
-15.0062

> <Gold.Chemscore.Internal_Hbond.Weighted>
0.0000

> <Gold.Chemscore.DEClash.Weighted>
1.8347

> <Gold.Chemscore.DEInternal.Weighted>
3.3006

> <Gold.Chemscore.Rot.Weighted>
6.3097

> <Gold.Chemscore.Internal.Correction.Weighted>
   9.000000E+99

> <Gold.Protein.RotatedTorsions>
[ 6907 6896 6895 6894 ] final -147.23 input  -60.11 | X-H torsion
[ 7974 7965 7964 7962 ] final   41.74 input  175.53 | X-H torsion
[ 8008 7997 7996 7995 ] final  139.15 input   59.86 | X-H torsion
[ 10167 10162 10161 10158 ] final  179.63 input  -65.29 | X-H torsion
[ 10718 10713 10712 10709 ] final  136.76 input   66.30 | X-H torsion
[ 10763 10752 10751 10750 ] final  177.11 input  -60.55 | X-H torsion
[ 11005 11000 10999 10996 ] final -107.58 input  -57.11 | X-H torsion

> <Gold.Protein.ActiveResidues>
 VAL166  LYS551  ARG553  GLY616  TRP617  ASP618  TYR619  PRO620  LYS621  CYS622 
 ASP623  PHE694  ASN695  SER759  ASP760  ASP761  ALA762  ILE779  LEU786  VAL792 
 PHE793  MET794  SER795  GLU796  ALA797  LYS798  CYS799  TRP800  GLU811  SER814 

> <Gold.Protein.RotatedAtoms>
  151.1528  133.4896  159.2594 H   0  0  0  0  0  0  0  0  0  0  0  0  # atno 6907 bound_to 6896
  151.1536  135.0239  159.8689 H   0  0  0  0  0  0  0  0  0  0  0  0  # atno 6908 bound_to 6896
  152.5463  134.1409  159.8532 H   0  0  0  0  0  0  0  0  0  0  0  0  # atno 6909 bound_to 6896
  146.0798  139.5380  142.9544 H   0  0  0  0  0  0  0  0  0  0  0  0  # atno 7974 bound_to 7965
  156.2992  140.2375  156.4190 H   0  0  0  0  0  0  0  0  0  0  0  0  # atno 8008 bound_to 7997
  154.8373  140.0430  157.1537 H   0  0  0  0  0  0  0  0  0  0  0  0  # atno 8009 bound_to 7997
  154.9142  140.2994  155.5254 H   0  0  0  0  0  0  0  0  0  0  0  0  # atno 8010 bound_to 7997
  139.5345  144.2538  152.0763 H   0  0  0  0  0  0  0  0  0  0  0  0  # atno 10167 bound_to 10162
  157.4433  131.1059  151.0118 H   0  0  0  0  0  0  0  0  0  0  0  0  # atno 10718 bound_to 10713
  154.4901  135.2778  155.1503 H   0  0  0  0  0  0  0  0  0  0  0  0  # atno 10763 bound_to 10752
  154.3178  135.6216  153.5498 H   0  0  0  0  0  0  0  0  0  0  0  0  # atno 10764 bound_to 10752
  152.9887  135.5735  154.5321 H   0  0  0  0  0  0  0  0  0  0  0  0  # atno 10765 bound_to 10752
  141.0947  133.8993  157.1992 H   0  0  0  0  0  0  0  0  0  0  0  0  # atno 11005 bound_to 11000
  145.6239  141.0317  143.1900 LP  0  0  0  0  0  0  0  0  0  0  0  0  # atno 17320 bound_to 7965
  144.7286  139.7798  143.7356 LP  0  0  0  0  0  0  0  0  0  0  0  0  # atno 17321 bound_to 7965
  140.2007  144.4661  150.6433 LP  0  0  0  0  0  0  0  0  0  0  0  0  # atno 17342 bound_to 10162
  140.6543  143.2233  151.6005 LP  0  0  0  0  0  0  0  0  0  0  0  0  # atno 17343 bound_to 10162
  157.0974  130.5967  149.5452 LP  0  0  0  0  0  0  0  0  0  0  0  0  # atno 17370 bound_to 10713
  155.9957  130.5024  150.7469 LP  0  0  0  0  0  0  0  0  0  0  0  0  # atno 17371 bound_to 10713
  139.9780  135.0107  156.9680 LP  0  0  0  0  0  0  0  0  0  0  0  0  # atno 17394 bound_to 11000
  140.5169  134.0946  155.7283 LP  0  0  0  0  0  0  0  0  0  0  0  0  # atno 17395 bound_to 11000

$$$$
