AV-unprocessed.smi:165|AV-procd|sdf|1386|dock7
  -GOLD-   2262019123D 1   1.00000     0.00000
 Structure written by MMmdl.
 55 59  0  0  0  0  0  0  0  0  1 V2000
  143.1012  131.9928  149.5219 O   0  0  0  0  0  0  0  0  0  0  0  0
  144.4211  132.4642  149.3343 C   0  0  0  0  0  0  0  0  0  0  0  0
  144.9184  133.3305  150.5067 C   0  0  0  0  0  0  0  0  0  0  0  0
  144.0802  134.6243  150.4346 C   0  0  0  0  0  0  0  0  0  0  0  0
  144.7360  135.6826  149.7654 O   0  0  0  0  0  0  0  0  0  0  0  0
  144.9888  132.6383  151.8871 C   0  0  0  0  0  0  0  0  0  0  0  0
  146.3742  133.2476  152.1331 C   0  0  0  0  0  0  0  0  0  0  0  0
  147.3982  132.5023  152.8061 N   0  0  0  0  0  0  0  0  0  0  0  0
  147.7327  131.1838  152.5938 C   0  0  0  0  0  0  0  0  0  0  0  0
  148.7321  130.7407  153.3064 N   0  0  0  0  0  0  0  0  0  0  0  0
  149.1481  131.8493  154.0342 C   0  0  0  0  0  0  0  0  0  0  0  0
  150.1782  132.0778  154.9900 C   0  0  0  0  0  0  0  0  0  0  0  0
  151.0383  131.1058  155.3856 N   0  0  0  0  0  0  0  0  0  0  0  0
  150.4148  129.9394  155.9967 C   0  0  0  0  0  0  0  0  0  0  0  0
  151.4753  129.1033  156.7259 C   0  0  0  0  0  0  0  0  0  0  0  0
  152.5394  128.7774  155.8334 O   0  0  0  0  0  0  0  0  0  0  0  0
  153.2009  129.8970  155.2328 C   0  0  2  0  0  0  0  0  0  0  0  0
  154.1987  129.2750  154.2359 C   0  0  0  0  0  0  0  0  0  0  0  0
  155.1743  130.3225  153.6872 C   0  0  0  0  0  0  0  0  0  0  0  0
  155.8486  131.0725  154.8434 C   0  0  0  0  0  0  0  0  0  0  0  0
  154.8558  131.6599  155.6746 O   0  0  0  0  0  0  0  0  0  0  0  0
  153.9972  130.7047  156.2920 C   0  0  0  0  0  0  0  0  0  0  0  0
  152.1477  130.7636  154.4994 C   0  0  0  0  0  0  0  0  0  0  0  0
  150.2812  133.3303  155.5103 N   0  0  0  0  0  0  0  0  0  0  0  0
  149.4452  134.2956  155.1171 C   0  0  0  0  0  0  0  0  0  0  0  0
  148.4454  134.2260  154.2368 N   0  0  0  0  0  0  0  0  0  0  0  0
  148.3263  132.9691  153.7212 C   0  0  0  0  0  0  0  0  0  0  0  0
  146.4492  133.5134  150.6244 C   0  0  0  0  0  0  0  0  0  0  0  0
  142.5135  132.7328  149.5194 H   0  0  0  0  0  0  0  0  0  0  0  0
  145.0661  131.5964  149.1917 H   0  0  0  0  0  0  0  0  0  0  0  0
  144.4421  133.0277  148.4008 H   0  0  0  0  0  0  0  0  0  0  0  0
  143.1361  134.4438  149.9194 H   0  0  0  0  0  0  0  0  0  0  0  0
  143.8270  134.9757  151.4355 H   0  0  0  0  0  0  0  0  0  0  0  0
  144.9005  135.4185  148.8731 H   0  0  0  0  0  0  0  0  0  0  0  0
  144.2283  132.9597  152.5993 H   0  0  0  0  0  0  0  0  0  0  0  0
  145.0229  131.5495  151.8299 H   0  0  0  0  0  0  0  0  0  0  0  0
  146.2853  134.1859  152.6815 H   0  0  0  0  0  0  0  0  0  0  0  0
  147.2035  130.5514  151.8959 H   0  0  0  0  0  0  0  0  0  0  0  0
  149.6286  130.2210  156.6962 H   0  0  0  0  0  0  0  0  0  0  0  0
  149.9437  129.3421  155.2149 H   0  0  0  0  0  0  0  0  0  0  0  0
  151.8523  129.6307  157.6021 H   0  0  0  0  0  0  0  0  0  0  0  0
  151.0315  128.1773  157.0913 H   0  0  0  0  0  0  0  0  0  0  0  0
  154.7729  128.4959  154.7397 H   0  0  0  0  0  0  0  0  0  0  0  0
  153.6723  128.7821  153.4178 H   0  0  0  0  0  0  0  0  0  0  0  0
  155.9266  129.8423  153.0613 H   0  0  0  0  0  0  0  0  0  0  0  0
  154.6447  131.0299  153.0486 H   0  0  0  0  0  0  0  0  0  0  0  0
  156.4796  130.4023  155.4292 H   0  0  0  0  0  0  0  0  0  0  0  0
  156.4942  131.8600  154.4542 H   0  0  0  0  0  0  0  0  0  0  0  0
  153.3302  131.2433  156.9648 H   0  0  0  0  0  0  0  0  0  0  0  0
  154.5933  130.0353  156.9142 H   0  0  0  0  0  0  0  0  0  0  0  0
  151.7520  130.2200  153.6401 H   0  0  0  0  0  0  0  0  0  0  0  0
  152.6123  131.6736  154.1169 H   0  0  0  0  0  0  0  0  0  0  0  0
  149.5978  135.2617  155.5751 H   0  0  0  0  0  0  0  0  0  0  0  0
  147.0202  132.7486  150.0967 H   0  0  0  0  0  0  0  0  0  0  0  0
  146.8116  134.5086  150.3654 H   0  0  0  0  0  0  0  0  0  0  0  0
  1  2  1  0  0  0  0
  1 29  1  0  0  0  0
  2  3  1  0  0  0  0
  2 30  1  0  0  0  0
  2 31  1  0  0  0  0
  3 28  1  0  0  0  0
  3  4  1  0  0  0  0
  3  6  1  0  0  0  0
  4  5  1  0  0  0  0
  4 32  1  0  0  0  0
  4 33  1  0  0  0  0
  5 34  1  0  0  0  0
  6  7  1  0  0  0  0
  6 35  1  0  0  0  0
  6 36  1  0  0  0  0
  7  8  1  0  0  0  0
  7 28  1  0  0  0  0
  7 37  1  0  0  0  0
  8 27  1  0  0  0  0
  8  9  1  0  0  0  0
  9 10  2  0  0  0  0
  9 38  1  0  0  0  0
 10 11  1  0  0  0  0
 11 27  2  0  0  0  0
 11 12  1  0  0  0  0
 12 13  1  0  0  0  0
 12 24  2  0  0  0  0
 13 23  1  0  0  0  0
 13 14  1  0  0  0  0
 14 15  1  0  0  0  0
 14 39  1  0  0  0  0
 14 40  1  0  0  0  0
 15 16  1  0  0  0  0
 15 41  1  0  0  0  0
 15 42  1  0  0  0  0
 16 17  1  0  0  0  0
 17 22  1  0  0  0  0
 17 18  1  0  0  0  0
 17 23  1  0  0  0  0
 18 19  1  0  0  0  0
 18 43  1  0  0  0  0
 18 44  1  0  0  0  0
 19 20  1  0  0  0  0
 19 45  1  0  0  0  0
 19 46  1  0  0  0  0
 20 21  1  0  0  0  0
 20 47  1  0  0  0  0
 20 48  1  0  0  0  0
 21 22  1  0  0  0  0
 22 49  1  0  0  0  0
 22 50  1  0  0  0  0
 23 51  1  0  0  0  0
 23 52  1  0  0  0  0
 24 25  1  0  0  0  0
 25 26  2  0  0  0  0
 25 53  1  0  0  0  0
 26 27  1  0  0  0  0
 28 54  1  0  0  0  0
 28 55  1  0  0  0  0
M  END
> <s_m_source_file>
AV-unprocessed.smi

> <i_m_source_file_index>
165

> <i_lp_mmshare_version>
43012

> <i_f3d_flags>
0

> <s_epik_input>
W09IXVtDSDJdQzEoW0NIMl1bT0hdKVtDSDJdW0NIXShbQ0gyXTEpbihbY0hdbjIpYyhjMjMpbltjSF1uYzNOKFtDSDJdNClbQ0gyXVtDSDJdT1tDQEBdNDVbQ0gyXVtDSDJdW0NIMl1PW0NIMl01

> <s_epik_cmdline>
J2VwaWtfcHl0aG9uJywgJy1waCcsICc3LjAnLCAnLXRuJywgJzgnLCAnLW1hJywgJzIwMCcsICctbWV0YWxfYmluZGluZycsICctaW1hZScsICc8aW5maWxlLm1hZT4nLCAnLW9tYWUnLCAnPG91dGZpbGUubWFlPic=

> <r_lp_tautomer_probability>
1

> <r_epik_Ionization_Penalty>
0.00466923

> <r_epik_Ionization_Penalty_Charging>
0

> <r_epik_Ionization_Penalty_Neutral>
0.00466923

> <r_epik_State_Penalty>
0.0032353

> <r_epik_Charging_Adjusted_Penalty>
0.0032353

> <i_epik_Tot_Q>
0

> <i_epik_Tot_abs_Q>
0

> <r_epik_Metal_State_Penalty>
-0

> <b_epik_Metal_Only>
0

> <s_lp_Force_Field>
OPLS_2005

> <r_lp_Energy>
54.9184

> <b_lp_Chiralities_Consistent>
1

> <s_lp_Variant>
AV-unprocessed.smi:165-1

> <Gold.Version>
5.8.1

> <Gold.Id.Protein>
6NUR|6NUR_protein|mol2

> <Gold.PLP.Fitness>
46.8859

> <Gold.PLP.PLP>
-41.4979

> <Gold.PLP.part.hbond>
-4.0294

> <Gold.PLP.part.metal>
0.0000

> <Gold.PLP.part.buried>
-5.2219

> <Gold.PLP.part.nonpolar>
-32.7847

> <Gold.PLP.part.repulsive>
0.2473

> <Gold.PLP.ligand.clash>
0.0000

> <Gold.PLP.ligand.torsion>
1.3993

> <Gold.PLP.Chemscore.Hbond>
2.4137

> <Gold.PLP.Chemscore.CHOScore>
0.0829

> <Gold.PLP.Chemscore.Metal>
0.0000

> <Gold.Chemscore.Hbonds>
donor molecule, donor type, donor heavy atom, donor atom, acceptor molecule, acceptor atom, score
      L1  H     1    29       P1 10186  0.44
      L1  H     5    34       P1  7921  0.96
      P1  H 10785 10796       L1     1  1.00
      L1  C     9    38       P1 10747  0.20

> <Gold.PLP.Chemscore.Internal.Correction>
0.6965

> <Gold.Rescore>
     Score         DG    S(hbond)    S(metal)    S(lipo)     H(rot)  DE(clash)    DE(int)     intcor
     11.82     -14.99       2.18        0.00      87.63       3.14       1.42       1.74       ----

> <Gold.Chemscore.Fitness>
11.8242

> <Gold.Chemscore.DG>
-14.9894

> <Gold.Chemscore.ZeroCoef>
-5.4800

> <Gold.Chemscore.Hbond>
2.1805

> <Gold.Chemscore.Metal>
0.0000

> <Gold.Chemscore.Lipo>
87.6280

> <Gold.Chemscore.Internal_Hbond>
0.0000

> <Gold.Chemscore.DEClash>
1.4245

> <Gold.Chemscore.DEInternal>
1.7406

> <Gold.Chemscore.Rot>
3.1351

> <Gold.Chemscore.Internal.Correction>
   9.000000E+99

> <Gold.Chemscore.Hbonds>
donor molecule, donor type, donor heavy atom, donor atom, acceptor molecule, acceptor atom, score
      L1  H     1    29       P1 10186  0.44
      L1  H     5    34       P1  7921  0.92
      P1  H 10785 10796       L1     1  0.33

> <Gold.Chemscore.Hbond.Weighted>
-7.2829

> <Gold.Chemscore.Metal.Weighted>
-0.0000

> <Gold.Chemscore.Lipo.Weighted>
-10.2525

> <Gold.Chemscore.Internal_Hbond.Weighted>
0.0000

> <Gold.Chemscore.DEClash.Weighted>
1.4245

> <Gold.Chemscore.DEInternal.Weighted>
1.7406

> <Gold.Chemscore.Rot.Weighted>
8.0260

> <Gold.Chemscore.Internal.Correction.Weighted>
   9.000000E+99

> <Gold.Protein.RotatedTorsions>
[ 6907 6896 6895 6894 ] final  -74.30 input  -60.11 | X-H torsion
[ 7974 7965 7964 7962 ] final -101.71 input  175.53 | X-H torsion
[ 8008 7997 7996 7995 ] final  172.03 input   59.86 | X-H torsion
[ 10167 10162 10161 10158 ] final  115.32 input  -65.29 | X-H torsion
[ 10718 10713 10712 10709 ] final  -53.13 input   66.30 | X-H torsion
[ 10763 10752 10751 10750 ] final  -38.57 input  -60.55 | X-H torsion
[ 11005 11000 10999 10996 ] final  131.90 input  -57.11 | X-H torsion

> <Gold.Protein.ActiveResidues>
 VAL166  LYS551  ARG553  GLY616  TRP617  ASP618  TYR619  PRO620  LYS621  CYS622 
 ASP623  PHE694  ASN695  SER759  ASP760  ASP761  ALA762  ILE779  LEU786  VAL792 
 PHE793  MET794  SER795  GLU796  ALA797  LYS798  CYS799  TRP800  GLU811  SER814 

> <Gold.Protein.RotatedAtoms>
  150.7098  134.4890  159.5506 H   0  0  0  0  0  0  0  0  0  0  0  0  # atno 6907 bound_to 6896
  152.2511  134.8128  160.0455 H   0  0  0  0  0  0  0  0  0  0  0  0  # atno 6908 bound_to 6896
  151.8875  133.3473  159.3824 H   0  0  0  0  0  0  0  0  0  0  0  0  # atno 6909 bound_to 6896
  145.2781  140.9318  143.2947 H   0  0  0  0  0  0  0  0  0  0  0  0  # atno 7974 bound_to 7965
  156.1214  140.1496  156.9199 H   0  0  0  0  0  0  0  0  0  0  0  0  # atno 8008 bound_to 7997
  154.4838  140.0871  156.7481 H   0  0  0  0  0  0  0  0  0  0  0  0  # atno 8009 bound_to 7997
  155.4422  140.3431  155.4293 H   0  0  0  0  0  0  0  0  0  0  0  0  # atno 8010 bound_to 7997
  139.6325  144.7116  151.2402 H   0  0  0  0  0  0  0  0  0  0  0  0  # atno 10167 bound_to 10162
  156.1562  130.4150  149.9866 H   0  0  0  0  0  0  0  0  0  0  0  0  # atno 10718 bound_to 10713
  153.9150  135.6788  153.4749 H   0  0  0  0  0  0  0  0  0  0  0  0  # atno 10763 bound_to 10752
  153.1058  135.4806  154.8946 H   0  0  0  0  0  0  0  0  0  0  0  0  # atno 10764 bound_to 10752
  154.7507  135.3184  154.8518 H   0  0  0  0  0  0  0  0  0  0  0  0  # atno 10765 bound_to 10752
  139.9758  134.9564  156.9504 H   0  0  0  0  0  0  0  0  0  0  0  0  # atno 11005 bound_to 11000
  144.9277  139.4336  143.6510 LP  0  0  0  0  0  0  0  0  0  0  0  0  # atno 17320 bound_to 7965
  146.3225  139.8171  142.8934 LP  0  0  0  0  0  0  0  0  0  0  0  0  # atno 17321 bound_to 7965
  140.7447  143.6454  150.8297 LP  0  0  0  0  0  0  0  0  0  0  0  0  # atno 17342 bound_to 10162
  140.0081  143.5672  152.2850 LP  0  0  0  0  0  0  0  0  0  0  0  0  # atno 17343 bound_to 10162
  156.7709  130.9186  151.3644 LP  0  0  0  0  0  0  0  0  0  0  0  0  # atno 17370 bound_to 10713
  157.6697  130.9039  150.0011 LP  0  0  0  0  0  0  0  0  0  0  0  0  # atno 17371 bound_to 10713
  140.5199  134.0918  155.7289 LP  0  0  0  0  0  0  0  0  0  0  0  0  # atno 17394 bound_to 11000
  141.1435  133.9097  157.2271 LP  0  0  0  0  0  0  0  0  0  0  0  0  # atno 17395 bound_to 11000

$$$$
