AV-unprocessed.smi:851|AV-procd|sdf|3950|dock2
  -GOLD-   22720 1423D 1   1.00000     0.00000
 Structure written by MMmdl.
 34 35  0  0  0  0  0  0  0  0  1 V2000
  145.3065  138.3087  162.0860 C   0  0  0  0  0  0  0  0  0  0  0  0
  146.2613  137.7574  161.1863 O   0  0  0  0  0  0  0  0  0  0  0  0
  146.6940  136.4612  161.3942 C   0  0  0  0  0  0  0  0  0  0  0  0
  146.4067  135.8654  162.5787 N   0  0  0  0  0  0  0  0  0  0  0  0
  146.8336  134.6019  162.7818 C   0  0  0  0  0  0  0  0  0  0  0  0
  147.5682  133.8740  161.8277 C   0  0  0  0  0  0  0  0  0  0  0  0
  147.8670  134.4899  160.5983 C   0  0  0  0  0  0  0  0  0  0  0  0
  147.4132  135.8105  160.3651 C   0  0  0  0  0  0  0  0  0  0  0  0
  147.6701  136.5385  159.1718 N   0  0  0  0  0  0  0  0  0  0  0  0
  148.7490  136.4992  158.3667 C   0  0  0  0  0  0  0  0  0  0  0  0
  149.7488  135.8128  158.5650 O   0  0  0  0  0  0  0  0  0  0  0  0
  148.6437  137.2766  157.2735 N   0  0  0  0  0  0  0  0  0  0  0  0
  149.6234  137.4659  156.2017 C   0  0  1  0  0  0  0  0  0  0  0  0
  149.3225  138.7445  155.3978 C   0  0  0  0  0  0  0  0  0  0  0  0
  150.5437  139.0813  154.5328 C   0  0  0  0  0  0  0  0  0  0  0  0
  152.0055  138.4683  155.4544 S   0  0  0  0  0  0  0  0  0  0  0  0
  152.7185  137.4902  154.6189 O   0  0  0  0  0  0  0  0  0  0  0  0
  152.7150  139.6008  156.0681 O   0  0  0  0  0  0  0  0  0  0  0  0
  151.0563  137.5842  156.7470 C   0  0  0  0  0  0  0  0  0  0  0  0
  145.0723  139.3286  161.7810 H   0  0  0  0  0  0  0  0  0  0  0  0
  145.6951  138.3491  163.1045 H   0  0  0  0  0  0  0  0  0  0  0  0
  144.3756  137.7398  162.0790 H   0  0  0  0  0  0  0  0  0  0  0  0
  146.5872  134.1598  163.7358 H   0  0  0  0  0  0  0  0  0  0  0  0
  147.8992  132.8675  162.0359 H   0  0  0  0  0  0  0  0  0  0  0  0
  148.4470  133.9441  159.8707 H   0  0  0  0  0  0  0  0  0  0  0  0
  146.8979  137.0980  158.8402 H   0  0  0  0  0  0  0  0  0  0  0  0
  147.7744  137.7792  157.1652 H   0  0  0  0  0  0  0  0  0  0  0  0
  149.5790  136.6263  155.5053 H   0  0  0  0  0  0  0  0  0  0  0  0
  148.4210  138.6412  154.7930 H   0  0  0  0  0  0  0  0  0  0  0  0
  149.1483  139.5703  156.0893 H   0  0  0  0  0  0  0  0  0  0  0  0
  150.5009  138.5517  153.5807 H   0  0  0  0  0  0  0  0  0  0  0  0
  150.6423  140.1485  154.3335 H   0  0  0  0  0  0  0  0  0  0  0  0
  151.0844  138.1907  157.6530 H   0  0  0  0  0  0  0  0  0  0  0  0
  151.5210  136.6209  156.9589 H   0  0  0  0  0  0  0  0  0  0  0  0
  1  2  1  0  0  0  0
  1 20  1  0  0  0  0
  1 21  1  0  0  0  0
  1 22  1  0  0  0  0
  2  3  1  0  0  0  0
  3  8  1  0  0  0  0
  3  4  2  0  0  0  0
  4  5  1  0  0  0  0
  5  6  2  0  0  0  0
  5 23  1  0  0  0  0
  6  7  1  0  0  0  0
  6 24  1  0  0  0  0
  7  8  2  0  0  0  0
  7 25  1  0  0  0  0
  8  9  1  0  0  0  0
  9 10  1  0  0  0  0
  9 26  1  0  0  0  0
 10 11  2  0  0  0  0
 10 12  1  0  0  0  0
 12 13  1  0  0  0  0
 12 27  1  0  0  0  0
 13 19  1  0  0  0  0
 13 14  1  0  0  0  0
 13 28  1  0  0  0  0
 14 15  1  0  0  0  0
 14 29  1  0  0  0  0
 14 30  1  0  0  0  0
 15 16  1  0  0  0  0
 15 31  1  0  0  0  0
 15 32  1  0  0  0  0
 16 17  2  0  0  0  0
 16 18  2  0  0  0  0
 16 19  1  0  0  0  0
 19 33  1  0  0  0  0
 19 34  1  0  0  0  0
M  END
> <s_m_source_file>
AV-unprocessed.smi

> <i_m_source_file_index>
851

> <i_lp_mmshare_version>
43012

> <i_f3d_flags>
0

> <s_epik_input>
W0NIM11PYzFuW2NIXVtjSF1bY0hdYzFbTkhdQyg9TylbTkhdW0NAQEhdKFtDSDJdMilbQ0gyXVtDSDJdUzIoPU8pPU8=

> <s_epik_cmdline>
J2VwaWtfcHl0aG9uJywgJy1waCcsICc3LjAnLCAnLXRuJywgJzgnLCAnLW1hJywgJzIwMCcsICctbWV0YWxfYmluZGluZycsICctaW1hZScsICc8aW5maWxlLm1hZT4nLCAnLW9tYWUnLCAnPG91dGZpbGUubWFlPic=

> <r_lp_tautomer_probability>
1

> <r_epik_Ionization_Penalty>
7.64927e-05

> <r_epik_Ionization_Penalty_Charging>
0

> <r_epik_Ionization_Penalty_Neutral>
7.64927e-05

> <r_epik_State_Penalty>
-0

> <r_epik_Charging_Adjusted_Penalty>
0

> <i_epik_Tot_Q>
0

> <i_epik_Tot_abs_Q>
0

> <r_epik_Metal_State_Penalty>
-0

> <b_epik_Metal_Only>
0

> <s_lp_Force_Field>
OPLS_2005

> <r_lp_Energy>
17.9576

> <b_lp_Chiralities_Consistent>
1

> <s_lp_Variant>
AV-unprocessed.smi:851-2

> <Gold.Version>
5.8.1

> <Gold.Id.Protein>
6NUR|6NUR_protein|mol2

> <Gold.PLP.Fitness>
35.9315

> <Gold.PLP.PLP>
-26.9103

> <Gold.PLP.part.hbond>
-4.0000

> <Gold.PLP.part.metal>
0.0000

> <Gold.PLP.part.buried>
-4.4473

> <Gold.PLP.part.nonpolar>
-18.3168

> <Gold.PLP.part.repulsive>
0.1620

> <Gold.PLP.ligand.clash>
0.0000

> <Gold.PLP.ligand.torsion>
0.6381

> <Gold.PLP.Chemscore.Hbond>
3.4320

> <Gold.PLP.Chemscore.CHOScore>
0.0000

> <Gold.PLP.Chemscore.Metal>
0.0000

> <Gold.Chemscore.Hbonds>
donor molecule, donor type, donor heavy atom, donor atom, acceptor molecule, acceptor atom, score
      P1  H  6896  6909       L1    11  1.00
      P1  H  6934  6947       L1     2  0.95
      P1  H  7997  8010       L1    18  1.00
      P1  H 10752 10765       L1    17  0.46

> <Gold.PLP.Chemscore.Internal.Correction>
0.0013

> <Gold.Rescore>
     Score         DG    S(hbond)    S(metal)    S(lipo)     H(rot)  DE(clash)    DE(int)     intcor
     16.03     -18.46       3.06        0.00      52.13       1.31       0.09       2.34       ----

> <Gold.Chemscore.Fitness>
16.0270

> <Gold.Chemscore.DG>
-18.4572

> <Gold.Chemscore.ZeroCoef>
-5.4800

> <Gold.Chemscore.Hbond>
3.0642

> <Gold.Chemscore.Metal>
0.0000

> <Gold.Chemscore.Lipo>
52.1264

> <Gold.Chemscore.Internal_Hbond>
0.0000

> <Gold.Chemscore.DEClash>
0.0921

> <Gold.Chemscore.DEInternal>
2.3382

> <Gold.Chemscore.Rot>
1.3109

> <Gold.Chemscore.Internal.Correction>
   9.000000E+99

> <Gold.Chemscore.Hbonds>
donor molecule, donor type, donor heavy atom, donor atom, acceptor molecule, acceptor atom, score
      P1  H  6896  6909       L1    11  0.97
      P1  H  6934  6947       L1     2  0.21
      P1  H  7997  8010       L1    18  1.00
      P1  H 10752 10765       L1    17  0.46

> <Gold.Chemscore.Hbond.Weighted>
-10.2343

> <Gold.Chemscore.Metal.Weighted>
-0.0000

> <Gold.Chemscore.Lipo.Weighted>
-6.0988

> <Gold.Chemscore.Internal_Hbond.Weighted>
0.0000

> <Gold.Chemscore.DEClash.Weighted>
0.0921

> <Gold.Chemscore.DEInternal.Weighted>
2.3382

> <Gold.Chemscore.Rot.Weighted>
3.3559

> <Gold.Chemscore.Internal.Correction.Weighted>
   9.000000E+99

> <Gold.Protein.RotatedTorsions>
[ 6907 6896 6895 6894 ] final   73.46 input  -60.11 | X-H torsion
[ 7974 7965 7964 7962 ] final  -20.90 input  175.53 | X-H torsion
[ 8008 7997 7996 7995 ] final   89.54 input   59.86 | X-H torsion
[ 10167 10162 10161 10158 ] final   75.74 input  -65.29 | X-H torsion
[ 10718 10713 10712 10709 ] final  145.87 input   66.30 | X-H torsion
[ 10763 10752 10751 10750 ] final  174.53 input  -60.55 | X-H torsion
[ 11005 11000 10999 10996 ] final   57.46 input  -57.11 | X-H torsion

> <Gold.Protein.ActiveResidues>
 VAL166  LYS551  ARG553  GLY616  TRP617  ASP618  TYR619  PRO620  LYS621  CYS622 
 ASP623  PHE694  ASN695  SER759  ASP760  ASP761  ALA762  ILE779  LEU786  VAL792 
 PHE793  MET794  SER795  GLU796  ALA797  LYS798  CYS799  TRP800  GLU811  SER814 

> <Gold.Protein.RotatedAtoms>
  152.4924  134.4419  159.9545 H   0  0  0  0  0  0  0  0  0  0  0  0  # atno 6907 bound_to 6896
  151.4403  133.3639  159.2789 H   0  0  0  0  0  0  0  0  0  0  0  0  # atno 6908 bound_to 6896
  150.9092  134.8532  159.7473 H   0  0  0  0  0  0  0  0  0  0  0  0  # atno 6909 bound_to 6896
  146.1763  140.4266  142.8512 H   0  0  0  0  0  0  0  0  0  0  0  0  # atno 7974 bound_to 7965
  156.0012  140.3359  155.6847 H   0  0  0  0  0  0  0  0  0  0  0  0  # atno 8008 bound_to 7997
  155.6288  140.0683  157.2673 H   0  0  0  0  0  0  0  0  0  0  0  0  # atno 8009 bound_to 7997
  154.4250  140.1763  156.1437 H   0  0  0  0  0  0  0  0  0  0  0  0  # atno 8010 bound_to 7997
  139.9997  144.5695  150.7747 H   0  0  0  0  0  0  0  0  0  0  0  0  # atno 10167 bound_to 10162
  157.3400  131.0934  151.1090 H   0  0  0  0  0  0  0  0  0  0  0  0  # atno 10718 bound_to 10713
  154.4551  135.2766  155.1753 H   0  0  0  0  0  0  0  0  0  0  0  0  # atno 10763 bound_to 10752
  154.3564  135.6139  153.5672 H   0  0  0  0  0  0  0  0  0  0  0  0  # atno 10764 bound_to 10752
  152.9850  135.5824  154.4903 H   0  0  0  0  0  0  0  0  0  0  0  0  # atno 10765 bound_to 10752
  140.0451  134.5817  155.9333 H   0  0  0  0  0  0  0  0  0  0  0  0  # atno 11005 bound_to 11000
  144.8241  140.6599  143.6334 LP  0  0  0  0  0  0  0  0  0  0  0  0  # atno 17320 bound_to 7965
  145.4203  139.1565  143.4078 LP  0  0  0  0  0  0  0  0  0  0  0  0  # atno 17321 bound_to 7965
  140.7423  143.2831  151.3542 LP  0  0  0  0  0  0  0  0  0  0  0  0  # atno 17342 bound_to 10162
  139.6280  144.0775  152.2452 LP  0  0  0  0  0  0  0  0  0  0  0  0  # atno 17343 bound_to 10162
  157.2306  130.6523  149.5848 LP  0  0  0  0  0  0  0  0  0  0  0  0  # atno 17370 bound_to 10713
  155.9706  130.4600  150.6057 LP  0  0  0  0  0  0  0  0  0  0  0  0  # atno 17371 bound_to 10713
  141.1903  133.6568  156.5405 LP  0  0  0  0  0  0  0  0  0  0  0  0  # atno 17394 bound_to 11000
  140.4006  134.7360  157.4777 LP  0  0  0  0  0  0  0  0  0  0  0  0  # atno 17395 bound_to 11000

$$$$
