#       Name:                AV-unprocessed.smi:2092
#       Creating user name   scv26
#       Creation time:       Fri Mar 27 11:26:29 2020


#       File generated by GOLD software.
#

@<TRIPOS>MOLECULE
AV-unprocessed.smi:2092
    52    53     1
SMALL
NO_CHARGES


@<TRIPOS>ATOM
      1 ****        -2.8112  -2.6244   3.4149 C.3            1 S1                 0.0000
      2 ****        -2.1364  -1.5534   2.5458 C.3            1 S1                 0.0000
      3 ****        -2.6219  -1.7136   1.2125 O.3            1 S1                 0.0000
      4 ****        -2.2020  -0.7299   0.2701 C.3            1 S1                 0.0000
      5 ****        -3.0226  -0.8627  -1.0177 C.3            1 S1                 0.0000
      6 ****        -2.6056   0.0472  -1.8979 F              1 S1                 0.0000
      7 ****        -2.8600  -2.0751  -1.5467 F              1 S1                 0.0000
      8 ****        -4.3142  -0.6529  -0.7642 F              1 S1                 0.0000
      9 ****        -0.6051  -1.6813   2.5908 C.2            1 S1                 0.0000
     10 ****        -0.0607  -2.7453   2.2952 O.2            1 S1                 0.0000
     11 ****         0.0753  -0.5724   2.9211 N.am           1 S1                 0.0000
     12 ****         1.5278  -0.4406   2.8717 C.3            1 S1                 0.0000
     13 ****         2.0718  -0.2859   1.4588 C.ar           1 S1                 0.0000
     14 ****         3.3020  -0.8710   1.1020 C.ar           1 S1                 0.0000
     15 ****         3.7501  -0.7300  -0.2245 C.ar           1 S1                 0.0000
     16 ****         3.0599  -0.0619  -1.1727 N.ar           1 S1                 0.0000
     17 ****         1.8809   0.5182  -0.8382 C.ar           1 S1                 0.0000
     18 ****         1.1581   1.1988  -1.8412 N.3            1 S1                 0.0000
     19 ****         1.5735   1.0225  -3.2311 C.3            1 S1                 0.0000
     20 ****         0.4929   1.5630  -4.1826 C.3            1 S1                 0.0000
     21 ****         0.2051   2.9197  -3.8608 O.3            1 S1                 0.0000
     22 ****        -0.3014   3.0544  -2.5371 C.3            1 S1                 0.0000
     23 ****         0.7475   2.5641  -1.5241 C.3            1 S1                 0.0000
     24 ****         1.3610   0.4352   0.4746 C.ar           1 S1                 0.0000
     25 ****        -2.4816  -2.5593   4.4525 H              1 S1                 0.0000
     26 ****        -2.5911  -3.6303   3.0553 H              1 S1                 0.0000
     27 ****        -3.8944  -2.5024   3.4059 H              1 S1                 0.0000
     28 ****        -2.4348  -0.5702   2.9151 H              1 S1                 0.0000
     29 ****        -2.3282   0.2713   0.6847 H              1 S1                 0.0000
     30 ****        -1.1457  -0.8579   0.0337 H              1 S1                 0.0000
     31 ****        -0.4508   0.2571   3.1545 H              1 S1                 0.0000
     32 ****         1.8117   0.4401   3.4478 H              1 S1                 0.0000
     33 ****         1.9941  -1.2968   3.3623 H              1 S1                 0.0000
     34 ****         3.8856  -1.4268   1.8211 H              1 S1                 0.0000
     35 ****         4.6851  -1.1722  -0.5351 H              1 S1                 0.0000
     36 ****         2.5150   1.5480  -3.3964 H              1 S1                 0.0000
     37 ****         1.7465  -0.0332  -3.4440 H              1 S1                 0.0000
     38 ****         0.8401   1.5083  -5.2144 H              1 S1                 0.0000
     39 ****        -0.4160   0.9621  -4.1197 H              1 S1                 0.0000
     40 ****        -0.5382   4.1024  -2.3537 H              1 S1                 0.0000
     41 ****        -1.2330   2.4956  -2.4337 H              1 S1                 0.0000
     42 ****         0.3337   2.6414  -0.5199 H              1 S1                 0.0000
     43 ****         1.6255   3.2103  -1.5551 H              1 S1                 0.0000
     44 ****         0.4134   0.8897   0.7211 H              1 S1                 0.0000
     45 ****        -3.6212  -1.6968   1.2470 LP             1 S1                 0.0000
     46 ****        -2.3149  -2.6055   0.8805 LP             1 S1                 0.0000
     47 ****        -0.6151  -3.5322   2.0240 LP             1 S1                 0.0000
     48 ****         0.9358  -2.8226   2.3263 LP             1 S1                 0.0000
     49 ****         3.4121   0.0041  -2.1063 LP             1 S1                 0.0000
     50 ****         0.3179   0.6577  -1.8032 LP             1 S1                 0.0000
     51 ****        -0.4764   3.2674  -4.5048 LP             1 S1                 0.0000
     52 ****         1.0448   3.4566  -3.9420 LP             1 S1                 0.0000
@<TRIPOS>BOND
    1    1    2 1     
    2    1   25 1     
    3    1   26 1     
    4    1   27 1     
    5    2    3 1     
    6    2    9 1     
    7    2   28 1     
    8    3    4 1     
    9    4    5 1     
   10    4   29 1     
   11    4   30 1     
   12    5    6 1     
   13    5    7 1     
   14    5    8 1     
   15    9   10 2     
   16    9   11 am    
   17   11   12 1     
   18   11   31 1     
   19   12   13 1     
   20   12   32 1     
   21   12   33 1     
   22   13   24 ar    
   23   13   14 ar    
   24   14   15 ar    
   25   14   34 1     
   26   15   16 ar    
   27   15   35 1     
   28   16   17 ar    
   29   17   18 1     
   30   17   24 ar    
   31   18   23 1     
   32   18   19 1     
   33   19   20 1     
   34   19   36 1     
   35   19   37 1     
   36   20   21 1     
   37   20   38 1     
   38   20   39 1     
   39   21   22 1     
   40   22   23 1     
   41   22   40 1     
   42   22   41 1     
   43   23   42 1     
   44   23   43 1     
   45   24   44 1     
   46    3   45 1     
   47    3   46 1     
   48   10   47 1     
   49   10   48 1     
   50   16   49 1     
   51   18   50 1     
   52   21   51 1     
   53   21   52 1     
@<TRIPOS>SUBSTRUCTURE
      1 S1             1
@<TRIPOS>SET
LONE_PAIRS      STATIC     ATOMS    <user>   **** ""
8 45 46 47 48 49 50 51 52
DONOR_HYDROGENS      STATIC     ATOMS    <user>   **** ""
1 31
ATOM$BLUE        STATIC     ATOMS    COLORGROUP SYSTEM
8 45 46 47 48 49 50 51 52
ATOM$RED        STATIC     ATOMS    COLORGROUP SYSTEM
1 31
