AV-unprocessed.smi:1008|AV-procd|sdf|4411|dock5
  -GOLD-   22720 2353D 1   1.00000     0.00000
 Structure written by MMmdl.
 23 23  0  0  0  0  0  0  0  0  1 V2000
  149.6786  142.9088  158.2657 C   0  0  0  0  0  0  0  0  0  0  0  0
  150.1793  141.9806  157.1729 C   0  0  0  0  0  0  0  0  0  0  0  0
  149.4134  141.9840  156.0206 N   0  0  0  0  0  0  0  0  0  0  0  0
  149.7881  141.1651  154.9664 C   0  0  0  0  0  0  0  0  0  0  0  0
  148.9619  141.2422  153.8648 N   0  0  0  0  0  0  0  0  0  0  0  0
  150.8246  140.3826  154.9906 N   0  0  0  0  0  0  0  0  0  0  0  0
  151.6388  140.3338  156.1330 C   0  0  0  0  0  0  0  0  0  0  0  0
  152.6208  139.5937  156.1681 O   0  0  0  0  0  0  0  0  0  0  0  0
  151.2747  141.1902  157.2822 C   0  0  0  0  0  0  0  0  0  0  0  0
  152.1586  141.1542  158.5257 C   0  0  0  0  0  0  0  0  0  0  0  0
  152.6908  142.5454  158.8984 C   0  0  0  0  0  0  0  0  0  0  0  0
  153.4119  142.4729  160.1089 O   0  0  0  0  0  0  0  0  0  0  0  0
  149.1004  140.7096  153.0184 H   0  0  0  0  0  0  0  0  0  0  0  0
  149.5070  142.3528  159.1879 H   0  0  0  0  0  0  0  0  0  0  0  0
  148.7412  143.3914  157.9864 H   0  0  0  0  0  0  0  0  0  0  0  0
  150.4110  143.6914  158.4648 H   0  0  0  0  0  0  0  0  0  0  0  0
  148.1510  141.8431  153.8247 H   0  0  0  0  0  0  0  0  0  0  0  0
  148.6052  142.5882  155.9904 H   0  0  0  0  0  0  0  0  0  0  0  0
  152.9959  140.4744  158.3702 H   0  0  0  0  0  0  0  0  0  0  0  0
  151.5962  140.7305  159.3593 H   0  0  0  0  0  0  0  0  0  0  0  0
  153.3471  142.9293  158.1168 H   0  0  0  0  0  0  0  0  0  0  0  0
  151.8722  143.2560  159.0167 H   0  0  0  0  0  0  0  0  0  0  0  0
  152.8767  142.8333  160.7996 H   0  0  0  0  0  0  0  0  0  0  0  0
  1 14  1  0  0  0  0
  1 15  1  0  0  0  0
  1 16  1  0  0  0  0
  1  2  1  0  0  0  0
  2  9  2  0  0  0  0
  2  3  1  0  0  0  0
  3 18  1  0  0  0  0
  3  4  1  0  0  0  0
  4  5  1  0  0  0  0
  4  6  2  0  0  0  0
  5 17  1  0  0  0  0
  5 13  1  0  0  0  0
  6  7  1  0  0  0  0
  7  8  2  0  0  0  0
  7  9  1  0  0  0  0
  9 10  1  0  0  0  0
 10 11  1  0  0  0  0
 10 19  1  0  0  0  0
 10 20  1  0  0  0  0
 11 12  1  0  0  0  0
 11 21  1  0  0  0  0
 11 22  1  0  0  0  0
 12 23  1  0  0  0  0
M  END
> <s_m_source_file>
AV-unprocessed.smi

> <i_m_source_file_index>
1008

> <i_lp_mmshare_version>
43012

> <i_f3d_flags>
0

> <s_epik_input>
W0NIM11jMW5jKFtOSDJdKVtuSF1jKD1PKWMxW0NIMl1bQ0gyXVtPSF0=

> <s_epik_cmdline>
J2VwaWtfcHl0aG9uJywgJy1waCcsICc3LjAnLCAnLXRuJywgJzgnLCAnLW1hJywgJzIwMCcsICctbWV0YWxfYmluZGluZycsICctaW1hZScsICc8aW5maWxlLm1hZT4nLCAnLW9tYWUnLCAnPG91dGZpbGUubWFlPic=

> <r_lp_tautomer_probability>
0.108277

> <r_epik_Ionization_Penalty>
0.666207

> <r_epik_Ionization_Penalty_Charging>
0.00797854

> <r_epik_Ionization_Penalty_Neutral>
0.658229

> <r_epik_State_Penalty>
1.38976

> <r_epik_Charging_Adjusted_Penalty>
1.39774

> <i_epik_Tot_Q>
0

> <i_epik_Tot_abs_Q>
0

> <r_epik_Metal_State_Penalty>
0.86313

> <b_epik_Metal_Only>
0

> <s_lp_Force_Field>
OPLS_2005

> <r_lp_Energy>
8.84659

> <b_lp_Chiralities_Consistent>
1

> <s_lp_Variant>
AV-unprocessed.smi:1008-2

> <Gold.Version>
5.8.1

> <Gold.Id.Protein>
6NUR|6NUR_protein|mol2

> <Gold.PLP.Fitness>
31.8874

> <Gold.PLP.PLP>
-22.1012

> <Gold.PLP.part.hbond>
-4.0000

> <Gold.PLP.part.metal>
0.0000

> <Gold.PLP.part.buried>
-3.8052

> <Gold.PLP.part.nonpolar>
-14.4074

> <Gold.PLP.part.repulsive>
1.4620

> <Gold.PLP.ligand.clash>
0.0000

> <Gold.PLP.ligand.torsion>
0.0198

> <Gold.PLP.Chemscore.Hbond>
3.2752

> <Gold.PLP.Chemscore.CHOScore>
0.0000

> <Gold.PLP.Chemscore.Metal>
0.0000

> <Gold.Chemscore.Hbonds>
donor molecule, donor type, donor heavy atom, donor atom, acceptor molecule, acceptor atom, score
      L1  H     3    18       P1  8028  0.26
      L1  H     5    13       P1  7957  0.99
      P1  H  7989  7998       L1     6  1.00
      P1  H  7997  8009       L1     8  1.00

> <Gold.PLP.Chemscore.Internal.Correction>
0.0003

> <Gold.Rescore>
     Score         DG    S(hbond)    S(metal)    S(lipo)     H(rot)  DE(clash)    DE(int)     intcor
     12.16     -12.22       2.38        0.00      34.76       2.06       0.06       0.00       ----

> <Gold.Chemscore.Fitness>
12.1566

> <Gold.Chemscore.DG>
-12.2162

> <Gold.Chemscore.ZeroCoef>
-5.4800

> <Gold.Chemscore.Hbond>
2.3779

> <Gold.Chemscore.Metal>
0.0000

> <Gold.Chemscore.Lipo>
34.7556

> <Gold.Chemscore.Internal_Hbond>
0.0000

> <Gold.Chemscore.DEClash>
0.0580

> <Gold.Chemscore.DEInternal>
0.0016

> <Gold.Chemscore.Rot>
2.0595

> <Gold.Chemscore.Internal.Correction>
   9.000000E+99

> <Gold.Chemscore.Hbonds>
donor molecule, donor type, donor heavy atom, donor atom, acceptor molecule, acceptor atom, score
      L1  H     3    18       P1  8028  0.26
      L1  H     5    13       P1  7957  0.92
      P1  H  7989  7998       L1     6  0.23
      P1  H  7997  8009       L1     8  1.00

> <Gold.Chemscore.Hbond.Weighted>
-7.9422

> <Gold.Chemscore.Metal.Weighted>
-0.0000

> <Gold.Chemscore.Lipo.Weighted>
-4.0664

> <Gold.Chemscore.Internal_Hbond.Weighted>
0.0000

> <Gold.Chemscore.DEClash.Weighted>
0.0580

> <Gold.Chemscore.DEInternal.Weighted>
0.0016

> <Gold.Chemscore.Rot.Weighted>
5.2724

> <Gold.Chemscore.Internal.Correction.Weighted>
   9.000000E+99

> <Gold.Protein.RotatedTorsions>
[ 6907 6896 6895 6894 ] final  -26.55 input  -60.11 | X-H torsion
[ 7974 7965 7964 7962 ] final  -42.57 input  175.53 | X-H torsion
[ 8008 7997 7996 7995 ] final -155.84 input   59.86 | X-H torsion
[ 10167 10162 10161 10158 ] final -135.30 input  -65.29 | X-H torsion
[ 10718 10713 10712 10709 ] final -178.73 input   66.30 | X-H torsion
[ 10763 10752 10751 10750 ] final  -34.85 input  -60.55 | X-H torsion
[ 11005 11000 10999 10996 ] final    6.51 input  -57.11 | X-H torsion

> <Gold.Protein.ActiveResidues>
 VAL166  LYS551  ARG553  GLY616  TRP617  ASP618  TYR619  PRO620  LYS621  CYS622 
 ASP623  PHE694  ASN695  SER759  ASP760  ASP761  ALA762  ILE779  LEU786  VAL792 
 PHE793  MET794  SER795  GLU796  ALA797  LYS798  CYS799  TRP800  GLU811  SER814 

> <Gold.Protein.RotatedAtoms>
  151.1594  135.0266  159.8703 H   0  0  0  0  0  0  0  0  0  0  0  0  # atno 6907 bound_to 6896
  152.5452  134.1297  159.8444 H   0  0  0  0  0  0  0  0  0  0  0  0  # atno 6908 bound_to 6896
  151.1390  133.4938  159.2630 H   0  0  0  0  0  0  0  0  0  0  0  0  # atno 6909 bound_to 6896
  146.0103  140.6972  142.9227 H   0  0  0  0  0  0  0  0  0  0  0  0  # atno 7974 bound_to 7965
  155.7080  140.0775  157.2383 H   0  0  0  0  0  0  0  0  0  0  0  0  # atno 8008 bound_to 7997
  154.4063  140.1635  156.2318 H   0  0  0  0  0  0  0  0  0  0  0  0  # atno 8009 bound_to 7997
  155.9308  140.3391  155.6250 H   0  0  0  0  0  0  0  0  0  0  0  0  # atno 8010 bound_to 7997
  139.8792  143.6860  152.2629 H   0  0  0  0  0  0  0  0  0  0  0  0  # atno 10167 bound_to 10162
  156.8486  130.9711  151.3094 H   0  0  0  0  0  0  0  0  0  0  0  0  # atno 10718 bound_to 10713
  153.8535  135.6847  153.4790 H   0  0  0  0  0  0  0  0  0  0  0  0  # atno 10763 bound_to 10752
  153.1383  135.4668  154.9455 H   0  0  0  0  0  0  0  0  0  0  0  0  # atno 10764 bound_to 10752
  154.7791  135.3263  154.7976 H   0  0  0  0  0  0  0  0  0  0  0  0  # atno 10765 bound_to 10752
  140.5586  134.0214  155.7963 H   0  0  0  0  0  0  0  0  0  0  0  0  # atno 11005 bound_to 11000
  144.6950  140.3386  143.7203 LP  0  0  0  0  0  0  0  0  0  0  0  0  # atno 17320 bound_to 7965
  145.7352  139.1748  143.2407 LP  0  0  0  0  0  0  0  0  0  0  0  0  # atno 17321 bound_to 7965
  139.7211  144.7602  151.0953 LP  0  0  0  0  0  0  0  0  0  0  0  0  # atno 17342 bound_to 10162
  140.7747  143.5206  150.9541 LP  0  0  0  0  0  0  0  0  0  0  0  0  # atno 17343 bound_to 10162
  157.6316  130.8733  149.9284 LP  0  0  0  0  0  0  0  0  0  0  0  0  # atno 17370 bound_to 10713
  156.0840  130.3670  150.0523 LP  0  0  0  0  0  0  0  0  0  0  0  0  # atno 17371 bound_to 10713
  141.1128  133.9589  157.2878 LP  0  0  0  0  0  0  0  0  0  0  0  0  # atno 17394 bound_to 11000
  139.9419  135.0190  156.8734 LP  0  0  0  0  0  0  0  0  0  0  0  0  # atno 17395 bound_to 11000

$$$$
