AV-unprocessed.smi:1406|AV-procd|sdf|5716|dock4
  -GOLD-   22720 5353D 1   1.00000     0.00000
 Structure written by MMmdl.
 41 43  0  0  0  0  0  0  0  0  2 V2000
  147.3167  144.7305  160.5764 C   0  0  0  0  0  0  0  0  0  0  0  0
  145.9886  144.3499  159.8913 C   0  0  1  0  0  0  0  0  0  0  0  0
  146.1443  143.1963  158.8875 C   0  0  0  0  0  0  0  0  0  0  0  0
  146.3982  142.0545  159.2725 O   0  0  0  0  0  0  0  0  0  0  0  0
  145.9960  143.5132  157.5908 N   0  0  0  0  0  0  0  0  0  0  0  0
  146.0680  142.5687  156.4776 C   0  0  1  0  0  0  0  0  0  0  0  0
  145.8396  143.2354  155.1077 C   0  0  0  0  0  0  0  0  0  0  0  0
  146.8424  142.5503  154.1737 C   0  0  0  0  0  0  0  0  0  0  0  0
  147.9813  142.2804  155.0588 N   0  3  2  0  0  0  0  0  0  0  0  0
  149.0649  141.4031  154.5716 C   0  0  0  0  0  0  0  0  0  0  0  0
  150.2166  141.4369  155.5995 C   0  0  0  0  0  0  0  0  0  0  0  0
  149.7323  141.1224  157.0336 C   0  0  0  0  0  0  0  0  0  0  0  0
  148.5130  141.9827  157.4316 C   0  0  0  0  0  0  0  0  0  0  0  0
  147.4269  141.8391  156.3504 C   0  0  1  0  0  0  0  0  0  0  0  0
  144.9420  144.0416  160.8581 N   0  0  0  0  0  0  0  0  0  0  0  0
  144.9537  143.2046  161.8978 C   0  0  0  0  0  0  0  0  0  0  0  0
  143.8305  143.2034  162.6016 N   0  0  0  0  0  0  0  0  0  0  0  0
  143.1192  144.1331  161.8974 C   0  0  0  0  0  0  0  0  0  0  0  0
  143.7420  144.6742  160.8507 N   0  0  0  0  0  0  0  0  0  0  0  0
  148.0715  145.0124  159.8413 H   0  0  0  0  0  0  0  0  0  0  0  0
  147.7233  143.9098  161.1692 H   0  0  0  0  0  0  0  0  0  0  0  0
  147.1784  145.5815  161.2439 H   0  0  0  0  0  0  0  0  0  0  0  0
  145.6566  145.2236  159.3281 H   0  0  0  0  0  0  0  0  0  0  0  0
  145.7917  144.4752  157.3615 H   0  0  0  0  0  0  0  0  0  0  0  0
  145.2891  141.8146  156.6095 H   0  0  0  0  0  0  0  0  0  0  0  0
  144.8109  143.1389  154.7589 H   0  0  0  0  0  0  0  0  0  0  0  0
  146.0697  144.3009  155.1617 H   0  0  0  0  0  0  0  0  0  0  0  0
  146.4370  141.6101  153.7961 H   0  0  0  0  0  0  0  0  0  0  0  0
  147.1228  143.1745  153.3249 H   0  0  0  0  0  0  0  0  0  0  0  0
  148.6939  140.3863  154.4340 H   0  0  0  0  0  0  0  0  0  0  0  0
  149.4163  141.7550  153.6010 H   0  0  0  0  0  0  0  0  0  0  0  0
  150.9994  140.7363  155.3071 H   0  0  0  0  0  0  0  0  0  0  0  0
  150.6743  142.4270  155.5900 H   0  0  0  0  0  0  0  0  0  0  0  0
  149.4624  140.0674  157.0960 H   0  0  0  0  0  0  0  0  0  0  0  0
  150.5450  141.2723  157.7449 H   0  0  0  0  0  0  0  0  0  0  0  0
  148.1357  141.6571  158.4012 H   0  0  0  0  0  0  0  0  0  0  0  0
  148.8089  143.0273  157.5379 H   0  0  0  0  0  0  0  0  0  0  0  0
  147.1908  140.7766  156.2582 H   0  0  0  0  0  0  0  0  0  0  0  0
  145.8032  142.5862  162.1481 H   0  0  0  0  0  0  0  0  0  0  0  0
  142.1153  144.4248  162.1685 H   0  0  0  0  0  0  0  0  0  0  0  0
  148.4025  143.1820  155.2317 H   0  0  0  0  0  0  0  0  0  0  0  0
  1  2  1  0  0  0  0
  1 20  1  0  0  0  0
  1 21  1  0  0  0  0
  1 22  1  0  0  0  0
  2  3  1  0  0  0  0
  2 15  1  0  0  0  0
  2 23  1  0  0  0  0
  3  4  2  0  0  0  0
  3  5  1  0  0  0  0
  5  6  1  0  0  0  0
  5 24  1  0  0  0  0
  6 14  1  0  0  0  0
  6  7  1  0  0  0  0
  6 25  1  0  0  0  0
  7  8  1  0  0  0  0
  7 26  1  0  0  0  0
  7 27  1  0  0  0  0
  8  9  1  0  0  0  0
  8 28  1  0  0  0  0
  8 29  1  0  0  0  0
  9 14  1  0  0  0  0
  9 10  1  0  0  0  0
  9 41  1  0  0  0  0
 10 11  1  0  0  0  0
 10 30  1  0  0  0  0
 10 31  1  0  0  0  0
 11 12  1  0  0  0  0
 11 32  1  0  0  0  0
 11 33  1  0  0  0  0
 12 13  1  0  0  0  0
 12 34  1  0  0  0  0
 12 35  1  0  0  0  0
 13 14  1  0  0  0  0
 13 36  1  0  0  0  0
 13 37  1  0  0  0  0
 14 38  1  0  0  0  0
 15 19  1  0  0  0  0
 15 16  1  0  0  0  0
 16 17  2  0  0  0  0
 16 39  1  0  0  0  0
 17 18  1  0  0  0  0
 18 19  2  0  0  0  0
 18 40  1  0  0  0  0
M  CHG  1   9   1
M  END
> <s_m_source_file>
AV-unprocessed.smi

> <i_m_source_file_index>
1406

> <i_lp_mmshare_version>
43012

> <i_f3d_flags>
0

> <s_epik_input>
bjFbY0hdbltjSF1uMVtDQEhdKFtDSDNdKUMoPU8pW05IXVtDQEhdKFtDSDJdW0NIMl0yKVtDQEBIXShOMjMpW0NIMl1bQ0gyXVtDSDJdW0NIMl0z

> <s_epik_cmdline>
J2VwaWtfcHl0aG9uJywgJy1waCcsICc3LjAnLCAnLXRuJywgJzgnLCAnLW1hJywgJzIwMCcsICctbWV0YWxfYmluZGluZycsICctaW1hZScsICc8aW5maWxlLm1hZT4nLCAnLW9tYWUnLCAnPG91dGZpbGUubWFlPic=

> <r_lp_tautomer_probability>
1

> <r_epik_Ionization_Penalty>
0.00197066

> <r_epik_Ionization_Penalty_Charging>
0.00196223

> <r_epik_Ionization_Penalty_Neutral>
8.43107e-06

> <r_epik_State_Penalty>
0.00133866

> <r_epik_Charging_Adjusted_Penalty>
0.00330089

> <i_epik_Tot_Q>
1

> <i_epik_Tot_abs_Q>
1

> <r_epik_Metal_State_Penalty>
-0

> <b_epik_Metal_Only>
0

> <s_lp_Force_Field>
OPLS_2005

> <r_lp_Energy>
47.4686

> <b_lp_Chiralities_Consistent>
1

> <s_lp_Variant>
AV-unprocessed.smi:1406-8

> <Gold.Version>
5.8.1

> <Gold.Id.Protein>
6NUR|6NUR_protein|mol2

> <Gold.PLP.Fitness>
43.3227

> <Gold.PLP.PLP>
-34.8203

> <Gold.PLP.part.hbond>
-3.7519

> <Gold.PLP.part.metal>
0.0000

> <Gold.PLP.part.buried>
-6.5268

> <Gold.PLP.part.nonpolar>
-24.4737

> <Gold.PLP.part.repulsive>
0.4398

> <Gold.PLP.ligand.clash>
0.0000

> <Gold.PLP.ligand.torsion>
0.2848

> <Gold.PLP.Chemscore.Hbond>
2.9920

> <Gold.PLP.Chemscore.CHOScore>
0.0000

> <Gold.PLP.Chemscore.Metal>
0.0000

> <Gold.Chemscore.Hbonds>
donor molecule, donor type, donor heavy atom, donor atom, acceptor molecule, acceptor atom, score
      L1  H     9    41       P1  8028  2.00
      P1  H  6934  6946       L1     4  0.99

> <Gold.PLP.Chemscore.Internal.Correction>
0.0961

> <Gold.Rescore>
     Score         DG    S(hbond)    S(metal)    S(lipo)     H(rot)  DE(clash)    DE(int)     intcor
     12.41     -12.75       1.93        0.00      48.23       1.89       0.00       0.34       ----

> <Gold.Chemscore.Fitness>
12.4068

> <Gold.Chemscore.DG>
-12.7492

> <Gold.Chemscore.ZeroCoef>
-5.4800

> <Gold.Chemscore.Hbond>
1.9329

> <Gold.Chemscore.Metal>
0.0000

> <Gold.Chemscore.Lipo>
48.2288

> <Gold.Chemscore.Internal_Hbond>
0.0000

> <Gold.Chemscore.DEClash>
0.0004

> <Gold.Chemscore.DEInternal>
0.3420

> <Gold.Chemscore.Rot>
1.8865

> <Gold.Chemscore.Internal.Correction>
   9.000000E+99

> <Gold.Chemscore.Hbonds>
donor molecule, donor type, donor heavy atom, donor atom, acceptor molecule, acceptor atom, score
      L1  H     9    41       P1  8028  0.99
      P1  H  6934  6946       L1     4  0.94

> <Gold.Chemscore.Hbond.Weighted>
-6.4559

> <Gold.Chemscore.Metal.Weighted>
-0.0000

> <Gold.Chemscore.Lipo.Weighted>
-5.6428

> <Gold.Chemscore.Internal_Hbond.Weighted>
0.0000

> <Gold.Chemscore.DEClash.Weighted>
0.0004

> <Gold.Chemscore.DEInternal.Weighted>
0.3420

> <Gold.Chemscore.Rot.Weighted>
4.8295

> <Gold.Chemscore.Internal.Correction.Weighted>
   9.000000E+99

> <Gold.Protein.RotatedTorsions>
[ 6907 6896 6895 6894 ] final   28.58 input  -60.11 | X-H torsion
[ 7974 7965 7964 7962 ] final  126.88 input  175.53 | X-H torsion
[ 8008 7997 7996 7995 ] final -116.10 input   59.86 | X-H torsion
[ 10167 10162 10161 10158 ] final    3.64 input  -65.29 | X-H torsion
[ 10718 10713 10712 10709 ] final  145.19 input   66.30 | X-H torsion
[ 10763 10752 10751 10750 ] final   14.63 input  -60.55 | X-H torsion
[ 11005 11000 10999 10996 ] final  -59.46 input  -57.11 | X-H torsion

> <Gold.Protein.ActiveResidues>
 VAL166  LYS551  ARG553  GLY616  TRP617  ASP618  TYR619  PRO620  LYS621  CYS622 
 ASP623  PHE694  ASN695  SER759  ASP760  ASP761  ALA762  ILE779  LEU786  VAL792 
 PHE793  MET794  SER795  GLU796  ALA797  LYS798  CYS799  TRP800  GLU811  SER814 

> <Gold.Protein.RotatedAtoms>
  152.0190  134.9833  160.0569 H   0  0  0  0  0  0  0  0  0  0  0  0  # atno 6907 bound_to 6896
  152.1355  133.4428  159.4750 H   0  0  0  0  0  0  0  0  0  0  0  0  # atno 6908 bound_to 6896
  150.6860  134.2287  159.4469 H   0  0  0  0  0  0  0  0  0  0  0  0  # atno 6909 bound_to 6896
  145.0568  139.3838  143.5026 H   0  0  0  0  0  0  0  0  0  0  0  0  # atno 7974 bound_to 7965
  155.0625  140.0393  157.2581 H   0  0  0  0  0  0  0  0  0  0  0  0  # atno 8008 bound_to 7997
  154.7048  140.2680  155.6661 H   0  0  0  0  0  0  0  0  0  0  0  0  # atno 8009 bound_to 7997
  156.2771  140.2733  156.1670 H   0  0  0  0  0  0  0  0  0  0  0  0  # atno 8010 bound_to 7997
  140.6575  143.7388  150.7680 H   0  0  0  0  0  0  0  0  0  0  0  0  # atno 10167 bound_to 10162
  157.3482  131.0946  151.1023 H   0  0  0  0  0  0  0  0  0  0  0  0  # atno 10718 bound_to 10713
  153.1603  135.6794  153.8752 H   0  0  0  0  0  0  0  0  0  0  0  0  # atno 10763 bound_to 10752
  153.8150  135.3138  155.3406 H   0  0  0  0  0  0  0  0  0  0  0  0  # atno 10764 bound_to 10752
  154.7927  135.4825  154.0179 H   0  0  0  0  0  0  0  0  0  0  0  0  # atno 10765 bound_to 10752
  141.1249  133.6616  156.5076 H   0  0  0  0  0  0  0  0  0  0  0  0  # atno 11005 bound_to 11000
  146.3522  140.0246  142.8655 LP  0  0  0  0  0  0  0  0  0  0  0  0  # atno 17320 bound_to 7965
  145.1459  140.9596  143.4461 LP  0  0  0  0  0  0  0  0  0  0  0  0  # atno 17321 bound_to 7965
  140.1051  143.4751  152.2403 LP  0  0  0  0  0  0  0  0  0  0  0  0  # atno 17342 bound_to 10162
  139.5801  144.7506  151.3661 LP  0  0  0  0  0  0  0  0  0  0  0  0  # atno 17343 bound_to 10162
  157.2209  130.6481  149.5811 LP  0  0  0  0  0  0  0  0  0  0  0  0  # atno 17370 bound_to 10713
  155.9717  130.4629  150.6164 LP  0  0  0  0  0  0  0  0  0  0  0  0  # atno 17371 bound_to 10713
  140.4395  134.7028  157.4984 LP  0  0  0  0  0  0  0  0  0  0  0  0  # atno 17394 bound_to 11000
  140.0239  134.6507  155.9201 LP  0  0  0  0  0  0  0  0  0  0  0  0  # atno 17395 bound_to 11000

$$$$
