AV-unprocessed.smi:69|AV-procd|sdf|648|dock6
  -GOLD-   2262016543D 1   1.00000     0.00000
 Structure written by MMmdl.
 32 34  0  0  0  0  0  0  0  0  1 V2000
  154.0353  137.2760  156.7911 N   0  0  0  0  0  0  0  0  0  0  0  0
  153.0932  138.2245  156.6961 C   0  0  0  0  0  0  0  0  0  0  0  0
  153.1188  139.2482  157.5821 N   0  0  0  0  0  0  0  0  0  0  0  0
  152.1876  140.2056  157.5104 C   0  0  0  0  0  0  0  0  0  0  0  0
  151.1707  140.3206  156.6512 N   0  0  0  0  0  0  0  0  0  0  0  0
  151.1511  139.2873  155.7592 C   0  0  0  0  0  0  0  0  0  0  0  0
  152.0708  138.2048  155.7140 C   0  0  0  0  0  0  0  0  0  0  0  0
  151.7368  137.3455  154.6757 N   0  0  0  0  0  0  0  0  0  0  0  0
  150.6767  137.8930  154.1423 C   0  0  0  0  0  0  0  0  0  0  0  0
  150.2518  139.0620  154.7403 N   0  0  0  0  0  0  0  0  0  0  0  0
  149.0864  139.9425  154.3968 C   0  0  1  0  0  0  0  0  0  0  0  0
  148.5450  139.5074  153.1859 O   0  0  0  0  0  0  0  0  0  0  0  0
  147.3662  138.7490  153.4310 C   0  0  2  0  0  0  0  0  0  0  0  0
  146.4906  138.6537  152.1702 C   0  0  0  0  0  0  0  0  0  0  0  0
  147.1296  137.8539  151.1982 O   0  0  0  0  0  0  0  0  0  0  0  0
  146.7409  139.4895  154.6199 C   0  0  2  0  0  0  0  0  0  0  0  0
  146.0450  140.6471  154.1928 O   0  0  0  0  0  0  0  0  0  0  0  0
  147.9565  139.8741  155.4550 C   0  0  1  0  0  0  0  0  0  0  0  0
  148.1663  138.9015  156.4654 O   0  0  0  0  0  0  0  0  0  0  0  0
  149.5177  140.9373  154.2766 H   0  0  0  0  0  0  0  0  0  0  0  0
  147.6473  137.7487  153.7660 H   0  0  0  0  0  0  0  0  0  0  0  0
  146.0382  138.8586  155.1663 H   0  0  0  0  0  0  0  0  0  0  0  0
  147.8401  140.8481  155.9327 H   0  0  0  0  0  0  0  0  0  0  0  0
  154.0349  136.5020  156.1422 H   0  0  0  0  0  0  0  0  0  0  0  0
  154.7406  137.3355  157.5110 H   0  0  0  0  0  0  0  0  0  0  0  0
  152.2684  140.9916  158.2467 H   0  0  0  0  0  0  0  0  0  0  0  0
  150.1768  137.4502  153.2932 H   0  0  0  0  0  0  0  0  0  0  0  0
  145.5391  138.1781  152.4093 H   0  0  0  0  0  0  0  0  0  0  0  0
  146.2697  139.6402  151.7614 H   0  0  0  0  0  0  0  0  0  0  0  0
  147.5425  137.1238  151.6336 H   0  0  0  0  0  0  0  0  0  0  0  0
  145.3041  140.3774  153.6717 H   0  0  0  0  0  0  0  0  0  0  0  0
  147.5859  139.0930  157.1867 H   0  0  0  0  0  0  0  0  0  0  0  0
  1  2  1  0  0  0  0
  1 24  1  0  0  0  0
  1 25  1  0  0  0  0
  2  7  1  0  0  0  0
  2  3  2  0  0  0  0
  3  4  1  0  0  0  0
  4  5  2  0  0  0  0
  4 26  1  0  0  0  0
  5  6  1  0  0  0  0
  6 10  1  0  0  0  0
  6  7  2  0  0  0  0
  7  8  1  0  0  0  0
  8  9  2  0  0  0  0
  9 10  1  0  0  0  0
  9 27  1  0  0  0  0
 10 11  1  0  0  0  0
 11 20  1  0  0  0  0
 11 18  1  0  0  0  0
 11 12  1  0  0  0  0
 12 13  1  0  0  0  0
 13 21  1  0  0  0  0
 13 14  1  0  0  0  0
 13 16  1  0  0  0  0
 14 15  1  0  0  0  0
 14 28  1  0  0  0  0
 14 29  1  0  0  0  0
 15 30  1  0  0  0  0
 16 22  1  0  0  0  0
 16 17  1  0  0  0  0
 16 18  1  0  0  0  0
 17 31  1  0  0  0  0
 18 23  1  0  0  0  0
 18 19  1  0  0  0  0
 19 32  1  0  0  0  0
M  END
> <s_m_source_file>
AV-unprocessed.smi

> <i_m_source_file_index>
69

> <i_lp_mmshare_version>
43012

> <i_f3d_flags>
0

> <s_epik_input>
bjFbY0hdbmMoW05IMl0pYyhjMTIpbltjSF1uMltDQEBIXTNPW0NASF0oW0NIMl1bT0hdKVtDQEBIXShbT0hdKVtDQEhdM1tPSF0=

> <s_epik_cmdline>
J2VwaWtfcHl0aG9uJywgJy1waCcsICc3LjAnLCAnLXRuJywgJzgnLCAnLW1hJywgJzIwMCcsICctbWV0YWxfYmluZGluZycsICctaW1hZScsICc8aW5maWxlLm1hZT4nLCAnLW9tYWUnLCAnPG91dGZpbGUubWFlPic=

> <r_lp_tautomer_probability>
1

> <r_epik_Ionization_Penalty>
0.000428445

> <r_epik_Ionization_Penalty_Charging>
0

> <r_epik_Ionization_Penalty_Neutral>
0.000428445

> <r_epik_State_Penalty>
-0

> <r_epik_Charging_Adjusted_Penalty>
0

> <i_epik_Tot_Q>
0

> <i_epik_Tot_abs_Q>
0

> <r_epik_Metal_State_Penalty>
-0

> <b_epik_Metal_Only>
0

> <s_epik_Chemistry_Notes>
This compound contains an acetal/aminal-like group ( X-CH(R)-Y where X, Y are N, S, or O) that may be acid/base labile, releasing an aldehyde.

> <s_lp_Force_Field>
OPLS_2005

> <r_lp_Energy>
38.9041

> <b_lp_Chiralities_Consistent>
1

> <s_lp_Variant>
AV-unprocessed.smi:69-6

> <Gold.Version>
5.8.1

> <Gold.Id.Protein>
6NUR|6NUR_protein|mol2

> <Gold.PLP.Fitness>
38.4419

> <Gold.PLP.PLP>
-21.9793

> <Gold.PLP.part.hbond>
-5.1257

> <Gold.PLP.part.metal>
0.0000

> <Gold.PLP.part.buried>
-4.6307

> <Gold.PLP.part.nonpolar>
-19.2622

> <Gold.PLP.part.repulsive>
5.3671

> <Gold.PLP.ligand.clash>
0.0000

> <Gold.PLP.ligand.torsion>
0.2102

> <Gold.PLP.Chemscore.Hbond>
4.5653

> <Gold.PLP.Chemscore.CHOScore>
1.0309

> <Gold.PLP.Chemscore.Metal>
0.0000

> <Gold.Chemscore.Hbonds>
donor molecule, donor type, donor heavy atom, donor atom, acceptor molecule, acceptor atom, score
      L1  H    15    30       P1  7948  0.91
      L1  H    17    31       P1 10175  1.00
      P1  H  7954  7966       L1    15  0.75
      P1  H  7997  8010       L1     3  0.98
      P1  H 10752 10765       L1     8  0.84
      L1  C     9    27       P1  7948  0.89
      L1  C     9    27       P1  7949  0.14

> <Gold.PLP.Chemscore.Internal.Correction>
0.0944

> <Gold.Rescore>
     Score         DG    S(hbond)    S(metal)    S(lipo)     H(rot)  DE(clash)    DE(int)     intcor
      6.69      -8.71       3.23        0.00      23.52       4.03       1.69       0.32       ----

> <Gold.Chemscore.Fitness>
6.6926

> <Gold.Chemscore.DG>
-8.7105

> <Gold.Chemscore.ZeroCoef>
-5.4800

> <Gold.Chemscore.Hbond>
3.2305

> <Gold.Chemscore.Metal>
0.0000

> <Gold.Chemscore.Lipo>
23.5181

> <Gold.Chemscore.Internal_Hbond>
0.0000

> <Gold.Chemscore.DEClash>
1.6932

> <Gold.Chemscore.DEInternal>
0.3247

> <Gold.Chemscore.Rot>
4.0277

> <Gold.Chemscore.Internal.Correction>
   9.000000E+99

> <Gold.Chemscore.Hbonds>
donor molecule, donor type, donor heavy atom, donor atom, acceptor molecule, acceptor atom, score
      L1  H    15    30       P1  7948  0.88
      L1  H    17    31       P1 10175  0.94
      P1  H  7954  7966       L1    15  0.09
      P1  H  7997  8010       L1     3  0.14
      P1  H 10752 10765       L1     8  0.73

> <Gold.Chemscore.Hbond.Weighted>
-10.7898

> <Gold.Chemscore.Metal.Weighted>
-0.0000

> <Gold.Chemscore.Lipo.Weighted>
-2.7516

> <Gold.Chemscore.Internal_Hbond.Weighted>
0.0000

> <Gold.Chemscore.DEClash.Weighted>
1.6932

> <Gold.Chemscore.DEInternal.Weighted>
0.3247

> <Gold.Chemscore.Rot.Weighted>
10.3110

> <Gold.Chemscore.Internal.Correction.Weighted>
   9.000000E+99

> <Gold.Protein.RotatedTorsions>
[ 6907 6896 6895 6894 ] final   70.20 input  -60.11 | X-H torsion
[ 7974 7965 7964 7962 ] final  168.79 input  175.53 | X-H torsion
[ 8008 7997 7996 7995 ] final   24.17 input   59.86 | X-H torsion
[ 10167 10162 10161 10158 ] final  -42.74 input  -65.29 | X-H torsion
[ 10718 10713 10712 10709 ] final -104.39 input   66.30 | X-H torsion
[ 10763 10752 10751 10750 ] final  171.98 input  -60.55 | X-H torsion
[ 11005 11000 10999 10996 ] final  -19.63 input  -57.11 | X-H torsion

> <Gold.Protein.ActiveResidues>
 VAL166  LYS551  ARG553  GLY616  TRP617  ASP618  TYR619  PRO620  LYS621  CYS622 
 ASP623  PHE694  ASN695  SER759  ASP760  ASP761  ALA762  ILE779  LEU786  VAL792 
 PHE793  MET794  SER795  GLU796  ALA797  LYS798  CYS799  TRP800  GLU811  SER814 

> <Gold.Protein.RotatedAtoms>
  152.4734  134.4904  159.9693 H   0  0  0  0  0  0  0  0  0  0  0  0  # atno 6907 bound_to 6896
  151.4925  133.3516  159.2863 H   0  0  0  0  0  0  0  0  0  0  0  0  # atno 6908 bound_to 6896
  150.8758  134.8167  159.7250 H   0  0  0  0  0  0  0  0  0  0  0  0  # atno 6909 bound_to 6896
  144.7376  139.8960  143.6406 H   0  0  0  0  0  0  0  0  0  0  0  0  # atno 7974 bound_to 7965
  154.9921  140.3115  155.4902 H   0  0  0  0  0  0  0  0  0  0  0  0  # atno 8008 bound_to 7997
  156.2938  140.2247  156.4966 H   0  0  0  0  0  0  0  0  0  0  0  0  # atno 8009 bound_to 7997
  154.7694  140.0453  157.1027 H   0  0  0  0  0  0  0  0  0  0  0  0  # atno 8010 bound_to 7997
  140.6959  143.3021  151.3252 H   0  0  0  0  0  0  0  0  0  0  0  0  # atno 10167 bound_to 10162
  156.0302  130.5513  150.7389 H   0  0  0  0  0  0  0  0  0  0  0  0  # atno 10718 bound_to 10713
  154.4196  135.2757  155.1984 H   0  0  0  0  0  0  0  0  0  0  0  0  # atno 10763 bound_to 10752
  154.3935  135.6061  153.5860 H   0  0  0  0  0  0  0  0  0  0  0  0  # atno 10764 bound_to 10752
  152.9833  135.5909  154.4490 H   0  0  0  0  0  0  0  0  0  0  0  0  # atno 10765 bound_to 10752
  140.8385  133.7944  155.9835 H   0  0  0  0  0  0  0  0  0  0  0  0  # atno 11005 bound_to 11000
  146.1107  139.4112  143.0289 LP  0  0  0  0  0  0  0  0  0  0  0  0  # atno 17320 bound_to 7965
  145.7447  140.9995  143.1282 LP  0  0  0  0  0  0  0  0  0  0  0  0  # atno 17321 bound_to 7965
  139.6413  144.0534  152.2556 LP  0  0  0  0  0  0  0  0  0  0  0  0  # atno 17342 bound_to 10162
  140.0040  144.6272  150.7705 LP  0  0  0  0  0  0  0  0  0  0  0  0  # atno 17343 bound_to 10162
  157.4963  131.0915  151.0367 LP  0  0  0  0  0  0  0  0  0  0  0  0  # atno 17370 bound_to 10713
  157.0760  130.5883  149.5411 LP  0  0  0  0  0  0  0  0  0  0  0  0  # atno 17371 bound_to 10713
  140.8921  134.2482  157.5089 LP  0  0  0  0  0  0  0  0  0  0  0  0  # atno 17394 bound_to 11000
  139.8703  134.9666  156.4569 LP  0  0  0  0  0  0  0  0  0  0  0  0  # atno 17395 bound_to 11000

$$$$
