AV-unprocessed.smi:2061|AV-procd|sdf|8381|dock2
  -GOLD-   2272011 63D 1   1.00000     0.00000
 Structure written by MMmdl.
 45 46  0  0  0  0  0  0  0  0  3 V2000
  151.0434  141.3778  157.9802 C   0  0  0  0  0  0  0  0  0  0  0  0
  150.9119  140.5183  156.7694 C   0  0  0  0  0  0  0  0  0  0  0  0
  151.0105  139.1700  156.5739 C   0  0  0  0  0  0  0  0  0  0  0  0
  150.7865  139.0268  155.1773 C   0  0  0  0  0  0  0  0  0  0  0  0
  150.7726  137.8715  154.4945 N   0  5  0  0  0  0  0  0  0  0  0  0
  150.6882  136.6927  155.1514 C   0  0  0  0  0  0  0  0  0  0  0  0
  151.2751  136.3899  156.1931 O   0  0  0  0  0  0  0  0  0  0  0  0
  149.8655  135.8094  154.5686 N   0  0  0  0  0  0  0  0  0  0  0  0
  149.5626  134.4712  155.0670 C   0  0  0  0  0  0  0  0  0  0  0  0
  149.2351  133.4622  153.9346 C   0  0  1  0  0  0  0  0  0  0  0  0
  149.1109  132.0317  154.5140 C   0  0  0  0  0  0  0  0  0  0  0  0
  148.0201  133.9121  153.1804 N   0  3  1  0  0  0  0  0  0  0  0  0
  147.5658  132.9079  152.1811 C   0  0  0  0  0  0  0  0  0  0  0  0
  146.3951  133.4526  151.3433 C   0  0  1  0  0  0  0  0  0  0  0  0
  145.8704  132.4199  150.3392 C   0  0  0  0  0  0  0  0  0  0  0  0
  145.3293  133.7999  152.2173 O   0  0  0  0  0  0  0  0  0  0  0  0
  145.6945  134.8262  153.1303 C   0  0  1  0  0  0  0  0  0  0  0  0
  144.4558  135.1865  153.9582 C   0  0  0  0  0  0  0  0  0  0  0  0
  146.8612  134.3389  154.0120 C   0  0  0  0  0  0  0  0  0  0  0  0
  150.5533  140.1840  154.5816 N   0  0  0  0  0  0  0  0  0  0  0  0
  150.6393  141.1468  155.5943 O   0  0  0  0  0  0  0  0  0  0  0  0
  150.4593  140.9725  158.8064 H   0  0  0  0  0  0  0  0  0  0  0  0
  150.6918  142.3909  157.7838 H   0  0  0  0  0  0  0  0  0  0  0  0
  152.0843  141.4368  158.2983 H   0  0  0  0  0  0  0  0  0  0  0  0
  151.2150  138.4077  157.3105 H   0  0  0  0  0  0  0  0  0  0  0  0
  149.4091  136.0953  153.7147 H   0  0  0  0  0  0  0  0  0  0  0  0
  150.4290  134.1232  155.6299 H   0  0  0  0  0  0  0  0  0  0  0  0
  148.7515  134.5567  155.7891 H   0  0  0  0  0  0  0  0  0  0  0  0
  150.0669  133.4402  153.2288 H   0  0  0  0  0  0  0  0  0  0  0  0
  149.9995  131.7460  155.0772 H   0  0  0  0  0  0  0  0  0  0  0  0
  149.0073  131.2808  153.7308 H   0  0  0  0  0  0  0  0  0  0  0  0
  148.2580  131.9463  155.1877 H   0  0  0  0  0  0  0  0  0  0  0  0
  148.3757  132.6295  151.5093 H   0  0  0  0  0  0  0  0  0  0  0  0
  147.2607  131.9961  152.6978 H   0  0  0  0  0  0  0  0  0  0  0  0
  146.7162  134.3384  150.7921 H   0  0  0  0  0  0  0  0  0  0  0  0
  146.6506  132.1222  149.6382 H   0  0  0  0  0  0  0  0  0  0  0  0
  145.0417  132.8272  149.7593 H   0  0  0  0  0  0  0  0  0  0  0  0
  145.5137  131.5219  150.8446 H   0  0  0  0  0  0  0  0  0  0  0  0
  146.0036  135.7106  152.5702 H   0  0  0  0  0  0  0  0  0  0  0  0
  144.6745  135.9849  154.6675 H   0  0  0  0  0  0  0  0  0  0  0  0
  144.0943  134.3267  154.5232 H   0  0  0  0  0  0  0  0  0  0  0  0
  143.6435  135.5269  153.3155 H   0  0  0  0  0  0  0  0  0  0  0  0
  146.5407  133.5081  154.6428 H   0  0  0  0  0  0  0  0  0  0  0  0
  147.1398  135.1622  154.6692 H   0  0  0  0  0  0  0  0  0  0  0  0
  148.3030  134.7329  152.6641 H   0  0  0  0  0  0  0  0  0  0  0  0
  1  2  1  0  0  0  0
  1 22  1  0  0  0  0
  1 23  1  0  0  0  0
  1 24  1  0  0  0  0
  2 21  1  0  0  0  0
  2  3  2  0  0  0  0
  3  4  1  0  0  0  0
  3 25  1  0  0  0  0
  4  5  1  0  0  0  0
  4 20  2  0  0  0  0
  5  6  1  0  0  0  0
  6  7  2  0  0  0  0
  6  8  1  0  0  0  0
  8  9  1  0  0  0  0
  8 26  1  0  0  0  0
  9 10  1  0  0  0  0
  9 27  1  0  0  0  0
  9 28  1  0  0  0  0
 10 11  1  0  0  0  0
 10 12  1  0  0  0  0
 10 29  1  0  0  0  0
 11 30  1  0  0  0  0
 11 31  1  0  0  0  0
 11 32  1  0  0  0  0
 12 19  1  0  0  0  0
 12 13  1  0  0  0  0
 12 45  1  0  0  0  0
 13 14  1  0  0  0  0
 13 33  1  0  0  0  0
 13 34  1  0  0  0  0
 14 15  1  0  0  0  0
 14 16  1  0  0  0  0
 14 35  1  0  0  0  0
 15 36  1  0  0  0  0
 15 37  1  0  0  0  0
 15 38  1  0  0  0  0
 16 17  1  0  0  0  0
 17 18  1  0  0  0  0
 17 19  1  0  0  0  0
 17 39  1  0  0  0  0
 18 40  1  0  0  0  0
 18 41  1  0  0  0  0
 18 42  1  0  0  0  0
 19 43  1  0  0  0  0
 19 44  1  0  0  0  0
 20 21  1  0  0  0  0
M  CHG  1   5  -1
M  CHG  1  12   1
M  END
> <s_m_source_file>
AV-unprocessed.smi

> <i_m_source_file_index>
2061

> <i_lp_mmshare_version>
43012

> <i_f3d_flags>
0

> <s_epik_input>
W0NIM11jMVtjSF1jKG5vMSlbTkhdQyg9TylbTkhdW0NIMl1bQ0BIXShbQ0gzXSlOMltDSDJdW0NAQEhdKFtDSDNdKU9bQ0BASF0oW0NIM10pW0NIMl0y

> <s_epik_cmdline>
J2VwaWtfcHl0aG9uJywgJy1waCcsICc3LjAnLCAnLXRuJywgJzgnLCAnLW1hJywgJzIwMCcsICctbWV0YWxfYmluZGluZycsICctaW1hZScsICc8aW5maWxlLm1hZT4nLCAnLW9tYWUnLCAnPG91dGZpbGUubWFlPic=

> <r_epik_Ionization_Penalty>
6.73511

> <r_epik_Ionization_Penalty_Charging>
6.73502

> <r_epik_Ionization_Penalty_Neutral>
9.50841e-05

> <r_epik_State_Penalty>
6.93549

> <r_epik_Charging_Adjusted_Penalty>
13.6705

> <i_epik_Tot_Q>
0

> <i_epik_Tot_abs_Q>
2

> <r_epik_Metal_State_Penalty>
2.87211

> <b_epik_Metal_Only>
1

> <s_lp_Force_Field>
OPLS_2005

> <r_lp_Energy>
8.02842

> <b_lp_Chiralities_Consistent>
1

> <s_lp_Variant>
AV-unprocessed.smi:2061-22

> <Gold.Version>
5.8.1

> <Gold.Id.Protein>
6NUR|6NUR_protein|mol2

> <Gold.PLP.Fitness>
46.7620

> <Gold.PLP.PLP>
-33.1462

> <Gold.PLP.part.hbond>
-5.6239

> <Gold.PLP.part.metal>
0.0000

> <Gold.PLP.part.buried>
-3.2278

> <Gold.PLP.part.nonpolar>
-24.4681

> <Gold.PLP.part.repulsive>
0.5266

> <Gold.PLP.ligand.clash>
0.0000

> <Gold.PLP.ligand.torsion>
0.7342

> <Gold.PLP.Chemscore.Hbond>
5.0000

> <Gold.PLP.Chemscore.CHOScore>
0.0000

> <Gold.PLP.Chemscore.Metal>
0.0000

> <Gold.Chemscore.Hbonds>
donor molecule, donor type, donor heavy atom, donor atom, acceptor molecule, acceptor atom, score
      L1  H     8    26       P1  7948  1.00
      L1  H    12    45       P1  7948  2.00
      P1  H  7989  7998       L1    20  0.90
      P1  H 10752 10763       L1     7  0.10

> <Gold.PLP.Chemscore.Internal.Correction>
0.0842

> <Gold.Rescore>
     Score         DG    S(hbond)    S(metal)    S(lipo)     H(rot)  DE(clash)    DE(int)     intcor
     17.00     -19.04       3.29        0.00      55.93       1.56       0.02       2.02       ----

> <Gold.Chemscore.Fitness>
16.9969

> <Gold.Chemscore.DG>
-19.0374

> <Gold.Chemscore.ZeroCoef>
-5.4800

> <Gold.Chemscore.Hbond>
3.2919

> <Gold.Chemscore.Metal>
0.0000

> <Gold.Chemscore.Lipo>
55.9269

> <Gold.Chemscore.Internal_Hbond>
0.0000

> <Gold.Chemscore.DEClash>
0.0162

> <Gold.Chemscore.DEInternal>
2.0242

> <Gold.Chemscore.Rot>
1.5550

> <Gold.Chemscore.Internal.Correction>
   9.000000E+99

> <Gold.Chemscore.Hbonds>
donor molecule, donor type, donor heavy atom, donor atom, acceptor molecule, acceptor atom, score
      L1  H     8    26       P1  7948  0.70
      L1  H    12    45       P1  7948  0.45
      P1  H  7989  7998       L1    20  0.18
      P1  H 10752 10763       L1     7  0.01

> <Gold.Chemscore.Hbond.Weighted>
-10.9948

> <Gold.Chemscore.Metal.Weighted>
-0.0000

> <Gold.Chemscore.Lipo.Weighted>
-6.5434

> <Gold.Chemscore.Internal_Hbond.Weighted>
0.0000

> <Gold.Chemscore.DEClash.Weighted>
0.0162

> <Gold.Chemscore.DEInternal.Weighted>
2.0242

> <Gold.Chemscore.Rot.Weighted>
3.9809

> <Gold.Chemscore.Internal.Correction.Weighted>
   9.000000E+99

> <Gold.Protein.RotatedTorsions>
[ 6907 6896 6895 6894 ] final -167.48 input  -60.11 | X-H torsion
[ 7974 7965 7964 7962 ] final    1.37 input  175.53 | X-H torsion
[ 8008 7997 7996 7995 ] final   70.07 input   59.86 | X-H torsion
[ 10167 10162 10161 10158 ] final  -84.06 input  -65.29 | X-H torsion
[ 10718 10713 10712 10709 ] final   10.15 input   66.30 | X-H torsion
[ 10763 10752 10751 10750 ] final   91.16 input  -60.55 | X-H torsion
[ 11005 11000 10999 10996 ] final  119.53 input  -57.11 | X-H torsion

> <Gold.Protein.ActiveResidues>
 VAL166  LYS551  ARG553  GLY616  TRP617  ASP618  TYR619  PRO620  LYS621  CYS622 
 ASP623  PHE694  ASN695  SER759  ASP760  ASP761  ALA762  ILE779  LEU786  VAL792 
 PHE793  MET794  SER795  GLU796  ALA797  LYS798  CYS799  TRP800  GLU811  SER814 

> <Gold.Protein.RotatedAtoms>
  151.4603  133.3594  159.2807 H   0  0  0  0  0  0  0  0  0  0  0  0  # atno 6907 bound_to 6896
  150.9030  134.8445  159.7384 H   0  0  0  0  0  0  0  0  0  0  0  0  # atno 6908 bound_to 6896
  152.4890  134.4525  159.9631 H   0  0  0  0  0  0  0  0  0  0  0  0  # atno 6909 bound_to 6896
  146.2440  140.0997  142.8348 H   0  0  0  0  0  0  0  0  0  0  0  0  # atno 7974 bound_to 7965
  155.7332  140.3491  155.5069 H   0  0  0  0  0  0  0  0  0  0  0  0  # atno 8008 bound_to 7997
  155.9163  140.1059  157.1262 H   0  0  0  0  0  0  0  0  0  0  0  0  # atno 8009 bound_to 7997
  154.4063  140.1258  156.4609 H   0  0  0  0  0  0  0  0  0  0  0  0  # atno 8010 bound_to 7997
  140.4168  143.2600  151.8944 H   0  0  0  0  0  0  0  0  0  0  0  0  # atno 10167 bound_to 10162
  156.9767  130.5990  149.5673 H   0  0  0  0  0  0  0  0  0  0  0  0  # atno 10718 bound_to 10713
  153.2053  135.4407  155.0315 H   0  0  0  0  0  0  0  0  0  0  0  0  # atno 10763 bound_to 10752
  154.8170  135.3319  154.7151 H   0  0  0  0  0  0  0  0  0  0  0  0  # atno 10764 bound_to 10752
  153.7593  135.6992  153.4984 H   0  0  0  0  0  0  0  0  0  0  0  0  # atno 10765 bound_to 10752
  139.9150  134.9629  156.7669 H   0  0  0  0  0  0  0  0  0  0  0  0  # atno 11005 bound_to 11000
  145.0579  140.9066  143.4956 LP  0  0  0  0  0  0  0  0  0  0  0  0  # atno 17320 bound_to 7965
  145.1107  139.2759  143.5639 LP  0  0  0  0  0  0  0  0  0  0  0  0  # atno 17321 bound_to 7965
  139.4782  144.5479  151.8430 LP  0  0  0  0  0  0  0  0  0  0  0  0  # atno 17342 bound_to 10162
  140.4577  144.1765  150.5903 LP  0  0  0  0  0  0  0  0  0  0  0  0  # atno 17343 bound_to 10162
  156.0260  130.5354  150.8409 LP  0  0  0  0  0  0  0  0  0  0  0  0  # atno 17370 bound_to 10713
  157.5554  131.0945  150.9635 LP  0  0  0  0  0  0  0  0  0  0  0  0  # atno 17371 bound_to 10713
  140.6652  133.9609  155.7826 LP  0  0  0  0  0  0  0  0  0  0  0  0  # atno 17394 bound_to 11000
  141.0615  134.0338  157.3651 LP  0  0  0  0  0  0  0  0  0  0  0  0  # atno 17395 bound_to 11000

$$$$
