#       Name:                AV-unprocessed.smi:1385
#       Creating user name   scv26
#       Creation time:       Fri Mar 27 05:24:48 2020


#       File generated by GOLD software.
#

@<TRIPOS>MOLECULE
AV-unprocessed.smi:1385
    45    46     1
SMALL
NO_CHARGES


@<TRIPOS>ATOM
      1 ****        -6.5787   4.4476  -0.9332 C.3            1 S1                 0.0000
      2 ****        -5.6897   3.3455  -0.4681 C.2            1 S1                 0.0000
      3 ****        -5.4834   3.0803   0.8241 N.2            1 S1                 0.0000
      4 ****        -4.6180   2.0114   1.0065 N.2            1 S1                 0.0000
      5 ****        -4.1732   1.4921  -0.1469 C.2            1 S1                 0.0000
      6 ****        -3.3270   0.4498  -0.1904 N.pl3          1 S1                -1.0000
      7 ****        -1.9986   0.6644  -0.3261 C.2            1 S1                 0.0000
      8 ****        -1.4415   1.7611  -0.4151 O.2            1 S1                 0.0000
      9 ****        -1.2711  -0.4613  -0.3602 N.am           1 S1                 0.0000
     10 ****         0.1814  -0.5402  -0.4885 C.3            1 S1                 0.0000
     11 ****         0.5845  -1.9032  -1.0669 C.3            1 S1                 0.0000
     12 ****         2.1150  -2.0557  -1.1045 C.3            1 S1                 0.0000
     13 ****         2.6833  -1.9107   0.2400 N.3            1 S1                 0.0000
     14 ****         4.1367  -2.1874   0.1877 C.3            1 S1                 0.0000
     15 ****         4.8278  -2.1984   1.5562 C.2            1 S1                 0.0000
     16 ****         5.7169  -1.2323   1.7997 N.am           1 S1                 0.0000
     17 ****         4.5561  -3.0653   2.3840 O.2            1 S1                 0.0000
     18 ****         2.3816  -0.5758   0.7785 C.3            1 S1                 0.0000
     19 ****         0.8616  -0.3593   0.8778 C.3            1 S1                 0.0000
     20 ****        -4.8251   2.2935  -1.5760 S.3            1 S1                 0.0000
     21 ****        -6.0506   5.3996  -0.8788 H              1 S1                 0.0000
     22 ****        -7.4709   4.5035  -0.3088 H              1 S1                 0.0000
     23 ****        -6.8860   4.2755  -1.9648 H              1 S1                 0.0000
     24 ****        -1.7693  -1.3357  -0.2823 H              1 S1                 0.0000
     25 ****         0.5298   0.2382  -1.1700 H              1 S1                 0.0000
     26 ****         0.1544  -2.7071  -0.4669 H              1 S1                 0.0000
     27 ****         0.1778  -2.0161  -2.0725 H              1 S1                 0.0000
     28 ****         2.3594  -3.0404  -1.5052 H              1 S1                 0.0000
     29 ****         2.5510  -1.3203  -1.7831 H              1 S1                 0.0000
     30 ****         4.3021  -3.1692  -0.2586 H              1 S1                 0.0000
     31 ****         4.6265  -1.4647  -0.4681 H              1 S1                 0.0000
     32 ****         6.1994  -1.2015   2.6861 H              1 S1                 0.0000
     33 ****         5.9056  -0.5369   1.0925 H              1 S1                 0.0000
     34 ****         2.8025  -0.4534   1.7763 H              1 S1                 0.0000
     35 ****         2.8315   0.1939   0.1491 H              1 S1                 0.0000
     36 ****         0.6589   0.6386   1.2685 H              1 S1                 0.0000
     37 ****         0.4422  -1.0632   1.5986 H              1 S1                 0.0000
     38 ****        -5.9036   3.5925   1.5732 LP             1 S1                 0.0000
     39 ****        -4.3531   1.6639   1.9060 LP             1 S1                 0.0000
     40 ****        -3.6788  -0.4837  -0.1225 LP             1 S1                 0.0000
     41 ****        -1.9837   2.6010  -0.3892 LP             1 S1                 0.0000
     42 ****        -0.4475   1.8106  -0.5131 LP             1 S1                 0.0000
     43 ****         2.2688  -2.5731   0.8640 LP             1 S1                 0.0000
     44 ****         3.8803  -3.7696   2.1669 LP             1 S1                 0.0000
     45 ****         5.0109  -3.0662   3.2747 LP             1 S1                 0.0000
@<TRIPOS>BOND
    1    1    2 1     
    2    1   21 1     
    3    1   22 1     
    4    1   23 1     
    5    2   20 1     
    6    2    3 2     
    7    3    4 1     
    8    4    5 2     
    9    5    6 1     
   10    5   20 1     
   11    6    7 1     
   12    7    8 2     
   13    7    9 am    
   14    9   10 1     
   15    9   24 1     
   16   10   19 1     
   17   10   11 1     
   18   10   25 1     
   19   11   12 1     
   20   11   26 1     
   21   11   27 1     
   22   12   13 1     
   23   12   28 1     
   24   12   29 1     
   25   13   14 1     
   26   13   18 1     
   27   14   15 1     
   28   14   30 1     
   29   14   31 1     
   30   15   16 am    
   31   15   17 2     
   32   16   32 1     
   33   16   33 1     
   34   18   19 1     
   35   18   34 1     
   36   18   35 1     
   37   19   36 1     
   38   19   37 1     
   39    3   38 1     
   40    4   39 1     
   41    6   40 1     
   42    8   41 1     
   43    8   42 1     
   44   13   43 1     
   45   17   44 1     
   46   17   45 1     
@<TRIPOS>SUBSTRUCTURE
      1 S1             1
@<TRIPOS>SET
LONE_PAIRS      STATIC     ATOMS    <user>   **** ""
8 38 39 40 41 42 43 44 45
DONOR_HYDROGENS      STATIC     ATOMS    <user>   **** ""
3 24 32 33
ATOM$BLUE        STATIC     ATOMS    COLORGROUP SYSTEM
8 38 39 40 41 42 43 44 45
ATOM$RED        STATIC     ATOMS    COLORGROUP SYSTEM
3 24 32 33
