AV-unprocessed.smi:1761|AV-procd|sdf|7095|dock10
  -GOLD-   22720 8313D 1   1.00000     0.00000
 Structure written by MMmdl.
 34 35  0  0  0  0  0  0  0  0  1 V2000
  151.0235  141.1612  156.3397 O   0  0  0  0  0  0  0  0  0  0  0  0
  150.1125  141.9794  156.4702 C   0  0  0  0  0  0  0  0  0  0  0  0
  148.9443  141.9544  155.8051 N   0  0  0  0  0  0  0  0  0  0  0  0
  148.4961  141.0013  154.8520 C   0  0  0  0  0  0  0  0  0  0  0  0
  147.4929  141.4641  153.9706 C   0  0  0  0  0  0  0  0  0  0  0  0
  146.9781  140.5951  152.9892 C   0  0  0  0  0  0  0  0  0  0  0  0
  147.4798  139.2836  152.9150 C   0  0  0  0  0  0  0  0  0  0  0  0
  148.4782  138.9024  153.8303 C   0  0  0  0  0  0  0  0  0  0  0  0
  148.9732  139.7337  154.7714 N   0  0  0  0  0  0  0  0  0  0  0  0
  150.1693  143.0263  157.3064 N   0  0  0  0  0  0  0  0  0  0  0  0
  151.2980  143.3614  158.1726 C   0  0  2  0  0  0  0  0  0  0  0  0
  151.7590  142.0663  158.8729 C   0  0  0  0  0  0  0  0  0  0  0  0
  152.8490  142.3299  159.9216 C   0  0  0  0  0  0  0  0  0  0  0  0
  152.3756  143.3584  160.9571 C   0  0  0  0  0  0  0  0  0  0  0  0
  151.9623  144.6673  160.2708 C   0  0  0  0  0  0  0  0  0  0  0  0
  150.8744  144.4349  159.2045 C   0  0  1  0  0  0  0  0  0  0  0  0
  150.6518  145.6691  158.5519 O   0  0  0  0  0  0  0  0  0  0  0  0
  148.2979  142.7027  156.0070 H   0  0  0  0  0  0  0  0  0  0  0  0
  147.1184  142.4751  154.0420 H   0  0  0  0  0  0  0  0  0  0  0  0
  146.2119  140.9306  152.3060 H   0  0  0  0  0  0  0  0  0  0  0  0
  147.1096  138.5880  152.1764 H   0  0  0  0  0  0  0  0  0  0  0  0
  148.8903  137.9045  153.8071 H   0  0  0  0  0  0  0  0  0  0  0  0
  149.3743  143.6471  157.3422 H   0  0  0  0  0  0  0  0  0  0  0  0
  152.1387  143.7405  157.5878 H   0  0  0  0  0  0  0  0  0  0  0  0
  150.9084  141.5876  159.3608 H   0  0  0  0  0  0  0  0  0  0  0  0
  152.1275  141.3546  158.1332 H   0  0  0  0  0  0  0  0  0  0  0  0
  153.1189  141.3982  160.4194 H   0  0  0  0  0  0  0  0  0  0  0  0
  153.7527  142.6910  159.4289 H   0  0  0  0  0  0  0  0  0  0  0  0
  151.5325  142.9553  161.5195 H   0  0  0  0  0  0  0  0  0  0  0  0
  153.1684  143.5515  161.6803 H   0  0  0  0  0  0  0  0  0  0  0  0
  151.6074  145.3780  161.0181 H   0  0  0  0  0  0  0  0  0  0  0  0
  152.8422  145.1188  159.8096 H   0  0  0  0  0  0  0  0  0  0  0  0
  149.9497  144.1312  159.6979 H   0  0  0  0  0  0  0  0  0  0  0  0
  149.8021  145.6421  158.1387 H   0  0  0  0  0  0  0  0  0  0  0  0
  1  2  2  0  0  0  0
  2  3  1  0  0  0  0
  2 10  1  0  0  0  0
  3  4  1  0  0  0  0
  3 18  1  0  0  0  0
  4  9  1  0  0  0  0
  4  5  2  0  0  0  0
  5  6  1  0  0  0  0
  5 19  1  0  0  0  0
  6  7  2  0  0  0  0
  6 20  1  0  0  0  0
  7  8  1  0  0  0  0
  7 21  1  0  0  0  0
  8  9  2  0  0  0  0
  8 22  1  0  0  0  0
 10 11  1  0  0  0  0
 10 23  1  0  0  0  0
 11 16  1  0  0  0  0
 11 12  1  0  0  0  0
 11 24  1  0  0  0  0
 12 13  1  0  0  0  0
 12 25  1  0  0  0  0
 12 26  1  0  0  0  0
 13 14  1  0  0  0  0
 13 27  1  0  0  0  0
 13 28  1  0  0  0  0
 14 15  1  0  0  0  0
 14 29  1  0  0  0  0
 14 30  1  0  0  0  0
 15 16  1  0  0  0  0
 15 31  1  0  0  0  0
 15 32  1  0  0  0  0
 16 17  1  0  0  0  0
 16 33  1  0  0  0  0
 17 34  1  0  0  0  0
M  END
> <s_m_source_file>
AV-unprocessed.smi

> <i_m_source_file_index>
1761

> <i_lp_mmshare_version>
43012

> <i_f3d_flags>
0

> <s_epik_input>
bjFbY0hdW2NIXVtjSF1bY0hdYzFbTkhdQyg9TylbTkhdW0NAQEhdMltDSDJdW0NIMl1bQ0gyXVtDSDJdW0NASF0yW09IXQ==

> <s_epik_cmdline>
J2VwaWtfcHl0aG9uJywgJy1waCcsICc3LjAnLCAnLXRuJywgJzgnLCAnLW1hJywgJzIwMCcsICctbWV0YWxfYmluZGluZycsICctaW1hZScsICc8aW5maWxlLm1hZT4nLCAnLW9tYWUnLCAnPG91dGZpbGUubWFlPic=

> <r_lp_tautomer_probability>
1

> <r_epik_Ionization_Penalty>
4.92589e-05

> <r_epik_Ionization_Penalty_Charging>
0

> <r_epik_Ionization_Penalty_Neutral>
4.92589e-05

> <r_epik_State_Penalty>
-0

> <r_epik_Charging_Adjusted_Penalty>
0

> <i_epik_Tot_Q>
0

> <i_epik_Tot_abs_Q>
0

> <r_epik_Metal_State_Penalty>
-0

> <b_epik_Metal_Only>
0

> <s_lp_Force_Field>
OPLS_2005

> <r_lp_Energy>
12.6575

> <b_lp_Chiralities_Consistent>
1

> <s_lp_Variant>
AV-unprocessed.smi:1761-1

> <Gold.Version>
5.8.1

> <Gold.Id.Protein>
6NUR|6NUR_protein|mol2

> <Gold.PLP.Fitness>
40.7429

> <Gold.PLP.PLP>
-33.5078

> <Gold.PLP.part.hbond>
-4.1934

> <Gold.PLP.part.metal>
0.0000

> <Gold.PLP.part.buried>
2.8115

> <Gold.PLP.part.nonpolar>
-31.6751

> <Gold.PLP.part.repulsive>
0.2487

> <Gold.PLP.ligand.clash>
0.0000

> <Gold.PLP.ligand.torsion>
0.2655

> <Gold.PLP.Chemscore.Hbond>
1.5965

> <Gold.PLP.Chemscore.CHOScore>
0.9918

> <Gold.PLP.Chemscore.Metal>
0.0000

> <Gold.Chemscore.Hbonds>
donor molecule, donor type, donor heavy atom, donor atom, acceptor molecule, acceptor atom, score
      L1  H     3    18       P1  8028  0.32
      L1  H    10    23       P1  8028  0.39
      L1  H    17    34       P1  8029  0.84
      L1  C     8    22       P1  7948  0.93

> <Gold.PLP.Chemscore.Internal.Correction>
0.0011

> <Gold.Rescore>
     Score         DG    S(hbond)    S(metal)    S(lipo)     H(rot)  DE(clash)    DE(int)     intcor
     12.14     -15.49       0.85        0.00      93.37       1.47       0.43       2.92       ----

> <Gold.Chemscore.Fitness>
12.1427

> <Gold.Chemscore.DG>
-15.4874

> <Gold.Chemscore.ZeroCoef>
-5.4800

> <Gold.Chemscore.Hbond>
0.8484

> <Gold.Chemscore.Metal>
0.0000

> <Gold.Chemscore.Lipo>
93.3747

> <Gold.Chemscore.Internal_Hbond>
0.0000

> <Gold.Chemscore.DEClash>
0.4278

> <Gold.Chemscore.DEInternal>
2.9169

> <Gold.Chemscore.Rot>
1.4653

> <Gold.Chemscore.Internal.Correction>
   9.000000E+99

> <Gold.Chemscore.Hbonds>
donor molecule, donor type, donor heavy atom, donor atom, acceptor molecule, acceptor atom, score
      L1  H     3    18       P1  8028  0.29
      L1  H    10    23       P1  8028  0.20
      L1  H    17    34       P1  8029  0.33

> <Gold.Chemscore.Hbond.Weighted>
-2.8336

> <Gold.Chemscore.Metal.Weighted>
-0.0000

> <Gold.Chemscore.Lipo.Weighted>
-10.9248

> <Gold.Chemscore.Internal_Hbond.Weighted>
0.0000

> <Gold.Chemscore.DEClash.Weighted>
0.4278

> <Gold.Chemscore.DEInternal.Weighted>
2.9169

> <Gold.Chemscore.Rot.Weighted>
3.7511

> <Gold.Chemscore.Internal.Correction.Weighted>
   9.000000E+99

> <Gold.Protein.RotatedTorsions>
[ 6907 6896 6895 6894 ] final -168.65 input  -60.11 | X-H torsion
[ 7974 7965 7964 7962 ] final   10.82 input  175.53 | X-H torsion
[ 8008 7997 7996 7995 ] final -141.92 input   59.86 | X-H torsion
[ 10167 10162 10161 10158 ] final  -41.39 input  -65.29 | X-H torsion
[ 10718 10713 10712 10709 ] final  -12.74 input   66.30 | X-H torsion
[ 10763 10752 10751 10750 ] final   75.66 input  -60.55 | X-H torsion
[ 11005 11000 10999 10996 ] final -107.10 input  -57.11 | X-H torsion

> <Gold.Protein.ActiveResidues>
 VAL166  LYS551  ARG553  GLY616  TRP617  ASP618  TYR619  PRO620  LYS621  CYS622 
 ASP623  PHE694  ASN695  SER759  ASP760  ASP761  ALA762  ILE779  LEU786  VAL792 
 PHE793  MET794  SER795  GLU796  ALA797  LYS798  CYS799  TRP800  GLU811  SER814 

> <Gold.Protein.RotatedAtoms>
  151.4790  133.3551  159.2834 H   0  0  0  0  0  0  0  0  0  0  0  0  # atno 6907 bound_to 6896
  150.8910  134.8315  159.7304 H   0  0  0  0  0  0  0  0  0  0  0  0  # atno 6908 bound_to 6896
  152.4823  134.4699  159.9684 H   0  0  0  0  0  0  0  0  0  0  0  0  # atno 6909 bound_to 6896
  146.2382  139.9577  142.8462 H   0  0  0  0  0  0  0  0  0  0  0  0  # atno 7974 bound_to 7965
  155.4857  140.0564  157.2961 H   0  0  0  0  0  0  0  0  0  0  0  0  # atno 8008 bound_to 7997
  154.4643  140.2011  156.0113 H   0  0  0  0  0  0  0  0  0  0  0  0  # atno 8009 bound_to 7997
  156.0946  140.3228  155.7864 H   0  0  0  0  0  0  0  0  0  0  0  0  # atno 8010 bound_to 7997
  140.7004  143.3097  151.3060 H   0  0  0  0  0  0  0  0  0  0  0  0  # atno 10167 bound_to 10162
  156.6403  130.4926  149.6097 H   0  0  0  0  0  0  0  0  0  0  0  0  # atno 10718 bound_to 10713
  153.0671  135.4980  154.8223 H   0  0  0  0  0  0  0  0  0  0  0  0  # atno 10763 bound_to 10752
  154.6968  135.2994  154.9401 H   0  0  0  0  0  0  0  0  0  0  0  0  # atno 10764 bound_to 10752
  154.0138  135.6751  153.4820 H   0  0  0  0  0  0  0  0  0  0  0  0  # atno 10765 bound_to 10752
  141.0971  133.8951  157.1936 H   0  0  0  0  0  0  0  0  0  0  0  0  # atno 11005 bound_to 11000
  145.1800  140.9762  143.4271 LP  0  0  0  0  0  0  0  0  0  0  0  0  # atno 17320 bound_to 7965
  144.9950  139.3652  143.6196 LP  0  0  0  0  0  0  0  0  0  0  0  0  # atno 17321 bound_to 7965
  139.6515  144.0353  152.2630 LP  0  0  0  0  0  0  0  0  0  0  0  0  # atno 17342 bound_to 10162
  139.9891  144.6374  150.7831 LP  0  0  0  0  0  0  0  0  0  0  0  0  # atno 17343 bound_to 10162
  156.2164  130.6710  151.1323 LP  0  0  0  0  0  0  0  0  0  0  0  0  # atno 17370 bound_to 10713
  157.7173  131.0702  150.6277 LP  0  0  0  0  0  0  0  0  0  0  0  0  # atno 17371 bound_to 10713
  139.9811  135.0098  156.9751 LP  0  0  0  0  0  0  0  0  0  0  0  0  # atno 17394 bound_to 11000
  140.5113  134.0999  155.7271 LP  0  0  0  0  0  0  0  0  0  0  0  0  # atno 17395 bound_to 11000

$$$$
