#       Name:                AV-unprocessed.smi:2817
#       Creating user name   scv26
#       Creation time:       Fri Mar 27 15:28:51 2020


#       File generated by GOLD software.
#

@<TRIPOS>MOLECULE
AV-unprocessed.smi:2817
    49    51     1
SMALL
NO_CHARGES


@<TRIPOS>ATOM
      1 ****        -0.2045   1.6514  -3.4231 O.2            1 S1                 0.0000
      2 ****        -0.5817   1.8091  -2.2619 C.2            1 S1                 0.0000
      3 ****        -1.1533   3.0685  -1.7844 C.2            1 S1                 0.0000
      4 ****        -1.5616   3.2056  -0.5007 C.2            1 S1                 0.0000
      5 ****        -2.1444   4.5243   0.0005 C.3            1 S1                 0.0000
      6 ****        -1.6892   4.9696   1.4008 C.3            1 S1                 0.0000
      7 ****        -3.0321   4.4967   1.9689 C.3            1 S1                 0.0000
      8 ****        -3.5801   4.4251   0.5390 C.3            1 S1                 0.0000
      9 ****        -1.4306   2.1421   0.4025 N.2            1 S1                 0.0000
     10 ****        -0.9247   1.0181   0.0064 C.2            1 S1                 0.0000
     11 ****        -0.4990   0.8239  -1.3219 N.am           1 S1                 0.0000
     12 ****         0.0648  -0.4968  -1.6432 C.3            1 S1                 0.0000
     13 ****         1.5775  -0.5699  -1.3319 C.3            1 S1                 0.0000
     14 ****         2.3039  -0.1394  -2.4651 O.3            1 S1                 0.0000
     15 ****         2.0386  -2.0008  -1.0156 C.3            1 S1                 0.0000
     16 ****         1.4875  -2.3880   0.2362 O.3            1 S1                 0.0000
     17 ****         1.7646  -3.6515   0.7113 C.ar           1 S1                 0.0000
     18 ****         1.1812  -4.0124   1.9436 C.ar           1 S1                 0.0000
     19 ****         1.4103  -5.2831   2.5051 C.ar           1 S1                 0.0000
     20 ****         2.2299  -6.2104   1.8359 C.ar           1 S1                 0.0000
     21 ****         2.8186  -5.8636   0.6056 C.ar           1 S1                 0.0000
     22 ****         2.5893  -4.5924   0.0437 C.ar           1 S1                 0.0000
     23 ****        -1.2481   3.8955  -2.4731 H              1 S1                 0.0000
     24 ****        -2.0356   5.3211  -0.7368 H              1 S1                 0.0000
     25 ****        -0.8193   4.4463   1.7998 H              1 S1                 0.0000
     26 ****        -1.5657   6.0510   1.4732 H              1 S1                 0.0000
     27 ****        -2.9685   3.5184   2.4470 H              1 S1                 0.0000
     28 ****        -3.5333   5.2249   2.6074 H              1 S1                 0.0000
     29 ****        -4.1847   5.2949   0.2787 H              1 S1                 0.0000
     30 ****        -4.0986   3.4950   0.3028 H              1 S1                 0.0000
     31 ****        -0.7932   0.1617   0.6705 H              1 S1                 0.0000
     32 ****        -0.4656  -1.2526  -1.0606 H              1 S1                 0.0000
     33 ****        -0.1324  -0.7813  -2.6785 H              1 S1                 0.0000
     34 ****         1.8362   0.0749  -0.4909 H              1 S1                 0.0000
     35 ****         2.0689  -0.6859  -3.1993 H              1 S1                 0.0000
     36 ****         1.7234  -2.6828  -1.8074 H              1 S1                 0.0000
     37 ****         3.1280  -2.0311  -0.9540 H              1 S1                 0.0000
     38 ****         0.5506  -3.3066   2.4644 H              1 S1                 0.0000
     39 ****         0.9570  -5.5455   3.4496 H              1 S1                 0.0000
     40 ****         2.4069  -7.1854   2.2659 H              1 S1                 0.0000
     41 ****         3.4486  -6.5741   0.0911 H              1 S1                 0.0000
     42 ****         3.0591  -4.3630  -0.9006 H              1 S1                 0.0000
     43 ****         0.1808   0.7739  -3.7089 LP             1 S1                 0.0000
     44 ****        -0.2833   2.4007  -4.0806 LP             1 S1                 0.0000
     45 ****        -1.7273   2.2512   1.3512 LP             1 S1                 0.0000
     46 ****         3.2847  -0.2185  -2.2866 LP             1 S1                 0.0000
     47 ****         2.0778   0.8132  -2.6683 LP             1 S1                 0.0000
     48 ****         0.4934  -2.3131   0.1575 LP             1 S1                 0.0000
     49 ****         1.8179  -1.7364   0.9190 LP             1 S1                 0.0000
@<TRIPOS>BOND
    1    1    2 2     
    2    2   11 am    
    3    2    3 1     
    4    3    4 2     
    5    3   23 1     
    6    4    5 1     
    7    4    9 1     
    8    5    8 1     
    9    5    6 1     
   10    5   24 1     
   11    6    7 1     
   12    6   25 1     
   13    6   26 1     
   14    7    8 1     
   15    7   27 1     
   16    7   28 1     
   17    8   29 1     
   18    8   30 1     
   19    9   10 2     
   20   10   11 1     
   21   10   31 1     
   22   11   12 1     
   23   12   13 1     
   24   12   32 1     
   25   12   33 1     
   26   13   14 1     
   27   13   15 1     
   28   13   34 1     
   29   14   35 1     
   30   15   16 1     
   31   15   36 1     
   32   15   37 1     
   33   16   17 1     
   34   17   22 ar    
   35   17   18 ar    
   36   18   19 ar    
   37   18   38 1     
   38   19   20 ar    
   39   19   39 1     
   40   20   21 ar    
   41   20   40 1     
   42   21   22 ar    
   43   21   41 1     
   44   22   42 1     
   45    1   43 1     
   46    1   44 1     
   47    9   45 1     
   48   14   46 1     
   49   14   47 1     
   50   16   48 1     
   51   16   49 1     
@<TRIPOS>SUBSTRUCTURE
      1 S1             1
@<TRIPOS>SET
LONE_PAIRS      STATIC     ATOMS    <user>   **** ""
7 43 44 45 46 47 48 49
DONOR_HYDROGENS      STATIC     ATOMS    <user>   **** ""
1 35
ATOM$BLUE        STATIC     ATOMS    COLORGROUP SYSTEM
7 43 44 45 46 47 48 49
ATOM$RED        STATIC     ATOMS    COLORGROUP SYSTEM
1 35
