AV-unprocessed.smi:1983|AV-procd|sdf|8031|dock7
  -GOLD-   2272010223D 1   1.00000     0.00000
 Structure written by MMmdl.
 49 50  0  0  0  0  0  0  0  0  1 V2000
  149.1158  133.4617  154.7302 C   0  0  0  0  0  0  0  0  0  0  0  0
  148.8885  134.7644  155.5118 C   0  0  1  0  0  0  0  0  0  0  0  0
  150.0009  135.0258  156.5475 C   0  0  0  0  0  0  0  0  0  0  0  0
  150.1524  133.9125  157.4024 O   0  0  0  0  0  0  0  0  0  0  0  0
  148.7980  135.8763  154.5691 N   0  0  0  0  0  0  0  0  0  0  0  0
  148.5058  137.1440  154.8932 C   0  0  0  0  0  0  0  0  0  0  0  0
  148.2763  137.5282  156.0403 O   0  0  0  0  0  0  0  0  0  0  0  0
  148.5049  137.9461  153.8193 N   0  0  0  0  0  0  0  0  0  0  0  0
  148.2655  139.3839  153.8608 C   0  0  0  0  0  0  0  0  0  0  0  0
  149.1232  140.0920  154.8946 C   0  0  0  0  0  0  0  0  0  0  0  0
  150.4938  139.7943  155.0269 C   0  0  0  0  0  0  0  0  0  0  0  0
  151.2457  140.4677  156.0082 C   0  0  0  0  0  0  0  0  0  0  0  0
  150.6041  141.4200  156.8348 C   0  0  0  0  0  0  0  0  0  0  0  0
  151.3411  142.1005  157.8263 N   0  0  0  0  0  0  0  0  0  0  0  0
  152.0763  141.3030  158.8032 C   0  0  0  0  0  0  0  0  0  0  0  0
  153.0712  142.1883  159.5740 C   0  0  2  0  0  0  0  0  0  0  0  0
  153.7744  141.4168  160.6953 C   0  0  0  0  0  0  0  0  0  0  0  0
  152.3758  143.2878  160.1611 O   0  0  0  0  0  0  0  0  0  0  0  0
  151.6627  144.1100  159.2339 C   0  0  1  0  0  0  0  0  0  0  0  0
  152.6061  144.9593  158.3636 C   0  0  0  0  0  0  0  0  0  0  0  0
  150.6734  143.2577  158.4143 C   0  0  0  0  0  0  0  0  0  0  0  0
  149.2834  141.7001  156.7065 N   0  0  0  0  0  0  0  0  0  0  0  0
  148.5680  141.0550  155.7612 C   0  0  0  0  0  0  0  0  0  0  0  0
  149.1423  132.6000  155.3976 H   0  0  0  0  0  0  0  0  0  0  0  0
  150.0581  133.4865  154.1821 H   0  0  0  0  0  0  0  0  0  0  0  0
  148.3152  133.2913  154.0098 H   0  0  0  0  0  0  0  0  0  0  0  0
  147.9325  134.6831  156.0328 H   0  0  0  0  0  0  0  0  0  0  0  0
  150.9506  135.2443  156.0582 H   0  0  0  0  0  0  0  0  0  0  0  0
  149.7559  135.8863  157.1711 H   0  0  0  0  0  0  0  0  0  0  0  0
  149.5021  133.2667  157.1719 H   0  0  0  0  0  0  0  0  0  0  0  0
  148.9737  135.6624  153.5984 H   0  0  0  0  0  0  0  0  0  0  0  0
  148.7004  137.5394  152.9164 H   0  0  0  0  0  0  0  0  0  0  0  0
  148.4937  139.7978  152.8784 H   0  0  0  0  0  0  0  0  0  0  0  0
  147.2079  139.5846  154.0410 H   0  0  0  0  0  0  0  0  0  0  0  0
  150.9623  139.0585  154.3901 H   0  0  0  0  0  0  0  0  0  0  0  0
  152.2942  140.2381  156.1275 H   0  0  0  0  0  0  0  0  0  0  0  0
  151.3696  140.8397  159.4931 H   0  0  0  0  0  0  0  0  0  0  0  0
  152.6180  140.4994  158.3023 H   0  0  0  0  0  0  0  0  0  0  0  0
  153.8356  142.5594  158.8908 H   0  0  0  0  0  0  0  0  0  0  0  0
  154.3356  140.5713  160.2969 H   0  0  0  0  0  0  0  0  0  0  0  0
  153.0571  141.0316  161.4205 H   0  0  0  0  0  0  0  0  0  0  0  0
  154.4754  142.0588  161.2293 H   0  0  0  0  0  0  0  0  0  0  0  0
  151.0785  144.8071  159.8351 H   0  0  0  0  0  0  0  0  0  0  0  0
  152.0395  145.6695  157.7610 H   0  0  0  0  0  0  0  0  0  0  0  0
  153.1955  144.3522  157.6768 H   0  0  0  0  0  0  0  0  0  0  0  0
  153.2970  145.5307  158.9837 H   0  0  0  0  0  0  0  0  0  0  0  0
  150.1952  143.8795  157.6583 H   0  0  0  0  0  0  0  0  0  0  0  0
  149.8782  142.8941  159.0667 H   0  0  0  0  0  0  0  0  0  0  0  0
  147.5204  141.3113  155.7021 H   0  0  0  0  0  0  0  0  0  0  0  0
  1  2  1  0  0  0  0
  1 24  1  0  0  0  0
  1 25  1  0  0  0  0
  1 26  1  0  0  0  0
  2  3  1  0  0  0  0
  2  5  1  0  0  0  0
  2 27  1  0  0  0  0
  3  4  1  0  0  0  0
  3 28  1  0  0  0  0
  3 29  1  0  0  0  0
  4 30  1  0  0  0  0
  5  6  1  0  0  0  0
  5 31  1  0  0  0  0
  6  7  2  0  0  0  0
  6  8  1  0  0  0  0
  8  9  1  0  0  0  0
  8 32  1  0  0  0  0
  9 10  1  0  0  0  0
  9 33  1  0  0  0  0
  9 34  1  0  0  0  0
 10 23  1  0  0  0  0
 10 11  2  0  0  0  0
 11 12  1  0  0  0  0
 11 35  1  0  0  0  0
 12 13  2  0  0  0  0
 12 36  1  0  0  0  0
 13 14  1  0  0  0  0
 13 22  1  0  0  0  0
 14 21  1  0  0  0  0
 14 15  1  0  0  0  0
 15 16  1  0  0  0  0
 15 37  1  0  0  0  0
 15 38  1  0  0  0  0
 16 17  1  0  0  0  0
 16 18  1  0  0  0  0
 16 39  1  0  0  0  0
 17 40  1  0  0  0  0
 17 41  1  0  0  0  0
 17 42  1  0  0  0  0
 18 19  1  0  0  0  0
 19 20  1  0  0  0  0
 19 21  1  0  0  0  0
 19 43  1  0  0  0  0
 20 44  1  0  0  0  0
 20 45  1  0  0  0  0
 20 46  1  0  0  0  0
 21 47  1  0  0  0  0
 21 48  1  0  0  0  0
 22 23  2  0  0  0  0
 23 49  1  0  0  0  0
M  END
> <s_m_source_file>
AV-unprocessed.smi

> <i_m_source_file_index>
1983

> <i_lp_mmshare_version>
43012

> <i_f3d_flags>
0

> <s_epik_input>
W09IXVtDSDJdW0NAQEhdKFtDSDNdKVtOSF1DKD1PKVtOSF1bQ0gyXWMxW2NIXVtjSF1jKG5bY0hdMSlOMltDSDJdW0NAQEhdKFtDSDNdKU9bQ0BASF0oW0NIM10pW0NIMl0y

> <s_epik_cmdline>
J2VwaWtfcHl0aG9uJywgJy1waCcsICc3LjAnLCAnLXRuJywgJzgnLCAnLW1hJywgJzIwMCcsICctbWV0YWxfYmluZGluZycsICctaW1hZScsICc8aW5maWxlLm1hZT4nLCAnLW9tYWUnLCAnPG91dGZpbGUubWFlPic=

> <r_lp_tautomer_probability>
1

> <r_epik_Ionization_Penalty>
0.00801967

> <r_epik_Ionization_Penalty_Charging>
0

> <r_epik_Ionization_Penalty_Neutral>
0.00801967

> <r_epik_State_Penalty>
0.00598289

> <r_epik_Charging_Adjusted_Penalty>
0.00598289

> <i_epik_Tot_Q>
0

> <i_epik_Tot_abs_Q>
0

> <r_epik_Metal_State_Penalty>
0.00590297

> <b_epik_Metal_Only>
0

> <s_lp_Force_Field>
OPLS_2005

> <r_lp_Energy>
16.1949

> <b_lp_Chiralities_Consistent>
1

> <s_lp_Variant>
AV-unprocessed.smi:1983-4

> <Gold.Version>
5.8.1

> <Gold.Id.Protein>
6NUR|6NUR_protein|mol2

> <Gold.PLP.Fitness>
48.9771

> <Gold.PLP.PLP>
-41.3110

> <Gold.PLP.part.hbond>
-3.0000

> <Gold.PLP.part.metal>
0.0000

> <Gold.PLP.part.buried>
-4.1729

> <Gold.PLP.part.nonpolar>
-34.4850

> <Gold.PLP.part.repulsive>
0.2134

> <Gold.PLP.ligand.clash>
0.0000

> <Gold.PLP.ligand.torsion>
0.4396

> <Gold.PLP.Chemscore.Hbond>
2.7280

> <Gold.PLP.Chemscore.CHOScore>
0.0000

> <Gold.PLP.Chemscore.Metal>
0.0000

> <Gold.Chemscore.Hbonds>
donor molecule, donor type, donor heavy atom, donor atom, acceptor molecule, acceptor atom, score
      L1  H     5    31       P1  7948  0.98
      L1  H     8    32       P1  7948  1.00
      P1  H  6896  6908       L1     4  0.88

> <Gold.PLP.Chemscore.Internal.Correction>
0.3613

> <Gold.Rescore>
     Score         DG    S(hbond)    S(metal)    S(lipo)     H(rot)  DE(clash)    DE(int)     intcor
     19.16     -20.41       2.80        0.00     104.67       2.61       0.00       1.24       ----

> <Gold.Chemscore.Fitness>
19.1617

> <Gold.Chemscore.DG>
-20.4082

> <Gold.Chemscore.ZeroCoef>
-5.4800

> <Gold.Chemscore.Hbond>
2.8031

> <Gold.Chemscore.Metal>
0.0000

> <Gold.Chemscore.Lipo>
104.6727

> <Gold.Chemscore.Internal_Hbond>
0.0000

> <Gold.Chemscore.DEClash>
0.0038

> <Gold.Chemscore.DEInternal>
1.2427

> <Gold.Chemscore.Rot>
2.6097

> <Gold.Chemscore.Internal.Correction>
   9.000000E+99

> <Gold.Chemscore.Hbonds>
donor molecule, donor type, donor heavy atom, donor atom, acceptor molecule, acceptor atom, score
      L1  H     5    31       P1  7948  0.80
      L1  H     8    32       P1  7948  0.98
      P1  H  6896  6908       L1     4  0.75

> <Gold.Chemscore.Hbond.Weighted>
-9.3624

> <Gold.Chemscore.Metal.Weighted>
-0.0000

> <Gold.Chemscore.Lipo.Weighted>
-12.2467

> <Gold.Chemscore.Internal_Hbond.Weighted>
0.0000

> <Gold.Chemscore.DEClash.Weighted>
0.0038

> <Gold.Chemscore.DEInternal.Weighted>
1.2427

> <Gold.Chemscore.Rot.Weighted>
6.6809

> <Gold.Chemscore.Internal.Correction.Weighted>
   9.000000E+99

> <Gold.Protein.RotatedTorsions>
[ 6907 6896 6895 6894 ] final  111.83 input  -60.11 | X-H torsion
[ 7974 7965 7964 7962 ] final  -53.60 input  175.53 | X-H torsion
[ 8008 7997 7996 7995 ] final  -83.93 input   59.86 | X-H torsion
[ 10167 10162 10161 10158 ] final   23.79 input  -65.29 | X-H torsion
[ 10718 10713 10712 10709 ] final  -73.40 input   66.30 | X-H torsion
[ 10763 10752 10751 10750 ] final   62.31 input  -60.55 | X-H torsion
[ 11005 11000 10999 10996 ] final -153.79 input  -57.11 | X-H torsion

> <Gold.Protein.ActiveResidues>
 VAL166  LYS551  ARG553  GLY616  TRP617  ASP618  TYR619  PRO620  LYS621  CYS622 
 ASP623  PHE694  ASN695  SER759  ASP760  ASP761  ALA762  ILE779  LEU786  VAL792 
 PHE793  MET794  SER795  GLU796  ALA797  LYS798  CYS799  TRP800  GLU811  SER814 

> <Gold.Protein.RotatedAtoms>
  152.4949  133.8602  159.7245 H   0  0  0  0  0  0  0  0  0  0  0  0  # atno 6907 bound_to 6896
  150.9115  133.6982  159.2860 H   0  0  0  0  0  0  0  0  0  0  0  0  # atno 6908 bound_to 6896
  151.4390  135.1022  159.9717 H   0  0  0  0  0  0  0  0  0  0  0  0  # atno 6909 bound_to 6896
  145.8950  140.8040  142.9772 H   0  0  0  0  0  0  0  0  0  0  0  0  # atno 7974 bound_to 7965
  154.6244  140.0612  156.9655 H   0  0  0  0  0  0  0  0  0  0  0  0  # atno 8008 bound_to 7997
  155.1766  140.3295  155.4364 H   0  0  0  0  0  0  0  0  0  0  0  0  # atno 8009 bound_to 7997
  156.2449  140.1905  156.6865 H   0  0  0  0  0  0  0  0  0  0  0  0  # atno 8010 bound_to 7997
  140.5240  143.9954  150.6431 H   0  0  0  0  0  0  0  0  0  0  0  0  # atno 10167 bound_to 10162
  156.0282  130.4393  150.2737 H   0  0  0  0  0  0  0  0  0  0  0  0  # atno 10718 bound_to 10713
  152.9978  135.5469  154.6172 H   0  0  0  0  0  0  0  0  0  0  0  0  # atno 10763 bound_to 10752
  154.5480  135.2824  155.1037 H   0  0  0  0  0  0  0  0  0  0  0  0  # atno 10764 bound_to 10752
  154.2288  135.6437  153.5221 H   0  0  0  0  0  0  0  0  0  0  0  0  # atno 10765 bound_to 10752
  140.7043  134.3902  157.5206 H   0  0  0  0  0  0  0  0  0  0  0  0  # atno 11005 bound_to 11000
  144.6732  140.1589  143.7424 LP  0  0  0  0  0  0  0  0  0  0  0  0  # atno 17320 bound_to 7965
  145.8861  139.2350  143.1577 LP  0  0  0  0  0  0  0  0  0  0  0  0  # atno 17321 bound_to 7965
  140.3311  143.3077  152.0686 LP  0  0  0  0  0  0  0  0  0  0  0  0  # atno 17342 bound_to 10162
  139.4932  144.6508  151.6678 LP  0  0  0  0  0  0  0  0  0  0  0  0  # atno 17343 bound_to 10162
  157.0840  131.0151  151.3146 LP  0  0  0  0  0  0  0  0  0  0  0  0  # atno 17370 bound_to 10713
  157.4905  130.7819  149.7503 LP  0  0  0  0  0  0  0  0  0  0  0  0  # atno 17371 bound_to 10713
  139.8888  134.8846  156.2454 LP  0  0  0  0  0  0  0  0  0  0  0  0  # atno 17394 bound_to 11000
  141.0137  133.7081  156.1154 LP  0  0  0  0  0  0  0  0  0  0  0  0  # atno 17395 bound_to 11000

$$$$
