AV-unprocessed.smi:2503|AV-procd|sdf|9848|dock4
  -GOLD-   2272013473D 1   1.00000     0.00000
 Structure written by MMmdl.
 36 37  0  0  0  0  0  0  0  0  1 V2000
  152.7607  144.8437  157.9887 C   0  0  0  0  0  0  0  0  0  0  0  0
  151.8755  144.1957  159.0639 C   0  0  0  0  0  0  0  0  0  0  0  0
  151.7020  145.1039  160.2904 C   0  0  0  0  0  0  0  0  0  0  0  0
  152.3787  142.8323  159.4559 C   0  0  0  0  0  0  0  0  0  0  0  0
  153.3813  142.6445  160.3109 N   0  0  0  0  0  0  0  0  0  0  0  0
  153.5058  141.2658  160.4272 C   0  0  0  0  0  0  0  0  0  0  0  0
  152.5566  140.6577  159.6439 C   0  0  0  0  0  0  0  0  0  0  0  0
  151.8282  141.6719  159.0332 N   0  0  0  0  0  0  0  0  0  0  0  0
  150.7033  141.4659  158.1316 C   0  0  0  0  0  0  0  0  0  0  0  0
  151.1192  140.6780  156.8854 C   0  0  0  0  0  0  0  0  0  0  0  0
  152.2889  140.3040  156.7755 O   0  0  0  0  0  0  0  0  0  0  0  0
  150.1282  140.4483  155.9931 N   0  0  0  0  0  0  0  0  0  0  0  0
  150.1165  139.7429  154.8375 C   0  0  0  0  0  0  0  0  0  0  0  0
  151.1597  139.2771  154.3818 O   0  0  0  0  0  0  0  0  0  0  0  0
  148.9288  139.5939  154.2225 N   0  0  0  0  0  0  0  0  0  0  0  0
  147.7526  140.3588  154.4816 C   0  0  0  0  0  0  0  0  0  0  0  0
  147.0351  140.9662  153.2956 C   0  0  0  0  0  0  0  0  0  0  0  0
  147.8179  141.8492  154.2278 C   0  0  0  0  0  0  0  0  0  0  0  0
  152.8249  144.2123  157.1022 H   0  0  0  0  0  0  0  0  0  0  0  0
  153.7749  145.0108  158.3532 H   0  0  0  0  0  0  0  0  0  0  0  0
  152.3580  145.8080  157.6779 H   0  0  0  0  0  0  0  0  0  0  0  0
  150.8917  144.0874  158.6113 H   0  0  0  0  0  0  0  0  0  0  0  0
  151.0144  144.6614  161.0121 H   0  0  0  0  0  0  0  0  0  0  0  0
  151.2991  146.0758  160.0055 H   0  0  0  0  0  0  0  0  0  0  0  0
  152.6526  145.2724  160.7973 H   0  0  0  0  0  0  0  0  0  0  0  0
  154.2589  140.8224  161.0616 H   0  0  0  0  0  0  0  0  0  0  0  0
  152.3379  139.6125  159.4817 H   0  0  0  0  0  0  0  0  0  0  0  0
  149.8980  140.9670  158.6728 H   0  0  0  0  0  0  0  0  0  0  0  0
  150.3153  142.4366  157.8208 H   0  0  0  0  0  0  0  0  0  0  0  0
  149.2403  140.8639  156.2342 H   0  0  0  0  0  0  0  0  0  0  0  0
  148.8553  138.8759  153.5152 H   0  0  0  0  0  0  0  0  0  0  0  0
  147.1241  140.0454  155.3143 H   0  0  0  0  0  0  0  0  0  0  0  0
  147.4498  140.7887  152.3049 H   0  0  0  0  0  0  0  0  0  0  0  0
  145.9496  141.0234  153.3420 H   0  0  0  0  0  0  0  0  0  0  0  0
  147.2555  142.4967  154.8972 H   0  0  0  0  0  0  0  0  0  0  0  0
  148.7544  142.2629  153.8582 H   0  0  0  0  0  0  0  0  0  0  0  0
  1  2  1  0  0  0  0
  1 19  1  0  0  0  0
  1 20  1  0  0  0  0
  1 21  1  0  0  0  0
  2  3  1  0  0  0  0
  2  4  1  0  0  0  0
  2 22  1  0  0  0  0
  3 23  1  0  0  0  0
  3 24  1  0  0  0  0
  3 25  1  0  0  0  0
  4  8  1  0  0  0  0
  4  5  2  0  0  0  0
  5  6  1  0  0  0  0
  6  7  2  0  0  0  0
  6 26  1  0  0  0  0
  7  8  1  0  0  0  0
  7 27  1  0  0  0  0
  8  9  1  0  0  0  0
  9 10  1  0  0  0  0
  9 28  1  0  0  0  0
  9 29  1  0  0  0  0
 10 11  2  0  0  0  0
 10 12  1  0  0  0  0
 12 13  1  0  0  0  0
 12 30  1  0  0  0  0
 13 14  2  0  0  0  0
 13 15  1  0  0  0  0
 15 16  1  0  0  0  0
 15 31  1  0  0  0  0
 16 18  1  0  0  0  0
 16 17  1  0  0  0  0
 16 32  1  0  0  0  0
 17 18  1  0  0  0  0
 17 33  1  0  0  0  0
 17 34  1  0  0  0  0
 18 35  1  0  0  0  0
 18 36  1  0  0  0  0
M  END
> <s_m_source_file>
AV-unprocessed.smi

> <i_m_source_file_index>
2503

> <i_lp_mmshare_version>
43012

> <i_f3d_flags>
0

> <s_epik_input>
W0NIM11bQ0hdKFtDSDNdKWMxbltjSF1bY0hdbjFbQ0gyXUMoPU8pW05IXUMoPU8pW05IXVtDSF0yW0NIMl1bQ0gyXTI=

> <s_epik_cmdline>
J2VwaWtfcHl0aG9uJywgJy1waCcsICc3LjAnLCAnLXRuJywgJzgnLCAnLW1hJywgJzIwMCcsICctbWV0YWxfYmluZGluZycsICctaW1hZScsICc8aW5maWxlLm1hZT4nLCAnLW9tYWUnLCAnPG91dGZpbGUubWFlPic=

> <r_lp_tautomer_probability>
1

> <r_epik_Ionization_Penalty>
0.441646

> <r_epik_Ionization_Penalty_Charging>
0.441618

> <r_epik_Ionization_Penalty_Neutral>
2.81151e-05

> <r_epik_State_Penalty>
0.443748

> <r_epik_Charging_Adjusted_Penalty>
0.885366

> <i_epik_Tot_Q>
0

> <i_epik_Tot_abs_Q>
0

> <r_epik_Metal_State_Penalty>
0.251733

> <b_epik_Metal_Only>
0

> <s_lp_Force_Field>
OPLS_2005

> <r_lp_Energy>
20.0487

> <b_lp_Chiralities_Consistent>
1

> <s_lp_Variant>
AV-unprocessed.smi:2503-2

> <Gold.Version>
5.8.1

> <Gold.Id.Protein>
6NUR|6NUR_protein|mol2

> <Gold.PLP.Fitness>
45.0658

> <Gold.PLP.PLP>
-41.2154

> <Gold.PLP.part.hbond>
-2.8381

> <Gold.PLP.part.metal>
0.0000

> <Gold.PLP.part.buried>
-4.3589

> <Gold.PLP.part.nonpolar>
-33.8358

> <Gold.PLP.part.repulsive>
0.3105

> <Gold.PLP.ligand.clash>
0.0000

> <Gold.PLP.ligand.torsion>
0.5239

> <Gold.PLP.Chemscore.Hbond>
1.5938

> <Gold.PLP.Chemscore.CHOScore>
0.0000

> <Gold.PLP.Chemscore.Metal>
0.0000

> <Gold.Chemscore.Hbonds>
donor molecule, donor type, donor heavy atom, donor atom, acceptor molecule, acceptor atom, score
      P1  H  7989  7998       L1    14  0.75
      P1  H  7997  8010       L1    11  0.88

> <Gold.PLP.Chemscore.Internal.Correction>
0.1169

> <Gold.Rescore>
     Score         DG    S(hbond)    S(metal)    S(lipo)     H(rot)  DE(clash)    DE(int)     intcor
     12.49     -15.59       1.58        0.00      80.07       1.77       0.18       2.93       ----

> <Gold.Chemscore.Fitness>
12.4871

> <Gold.Chemscore.DG>
-15.5942

> <Gold.Chemscore.ZeroCoef>
-5.4800

> <Gold.Chemscore.Hbond>
1.5828

> <Gold.Chemscore.Metal>
0.0000

> <Gold.Chemscore.Lipo>
80.0722

> <Gold.Chemscore.Internal_Hbond>
0.0000

> <Gold.Chemscore.DEClash>
0.1751

> <Gold.Chemscore.DEInternal>
2.9321

> <Gold.Chemscore.Rot>
1.7738

> <Gold.Chemscore.Internal.Correction>
   9.000000E+99

> <Gold.Chemscore.Hbonds>
donor molecule, donor type, donor heavy atom, donor atom, acceptor molecule, acceptor atom, score
      P1  H  7989  7998       L1    14  0.09
      P1  H  7997  8010       L1    11  0.82

> <Gold.Chemscore.Hbond.Weighted>
-5.2867

> <Gold.Chemscore.Metal.Weighted>
-0.0000

> <Gold.Chemscore.Lipo.Weighted>
-9.3684

> <Gold.Chemscore.Internal_Hbond.Weighted>
0.0000

> <Gold.Chemscore.DEClash.Weighted>
0.1751

> <Gold.Chemscore.DEInternal.Weighted>
2.9321

> <Gold.Chemscore.Rot.Weighted>
4.5409

> <Gold.Chemscore.Internal.Correction.Weighted>
   9.000000E+99

> <Gold.Protein.RotatedTorsions>
[ 6907 6896 6895 6894 ] final  -89.09 input  -60.11 | X-H torsion
[ 7974 7965 7964 7962 ] final  -49.22 input  175.53 | X-H torsion
[ 8008 7997 7996 7995 ] final   73.00 input   59.86 | X-H torsion
[ 10167 10162 10161 10158 ] final  -39.49 input  -65.29 | X-H torsion
[ 10718 10713 10712 10709 ] final    7.17 input   66.30 | X-H torsion
[ 10763 10752 10751 10750 ] final  -27.63 input  -60.55 | X-H torsion
[ 11005 11000 10999 10996 ] final -104.42 input  -57.11 | X-H torsion

> <Gold.Protein.ActiveResidues>
 VAL166  LYS551  ARG553  GLY616  TRP617  ASP618  TYR619  PRO620  LYS621  CYS622 
 ASP623  PHE694  ASN695  SER759  ASP760  ASP761  ALA762  ILE779  LEU786  VAL792 
 PHE793  MET794  SER795  GLU796  ALA797  LYS798  CYS799  TRP800  GLU811  SER814 

> <Gold.Protein.RotatedAtoms>
  150.6872  134.2641  159.4560 H   0  0  0  0  0  0  0  0  0  0  0  0  # atno 6907 bound_to 6896
  152.0568  134.9616  160.0584 H   0  0  0  0  0  0  0  0  0  0  0  0  # atno 6908 bound_to 6896
  152.1059  133.4240  159.4645 H   0  0  0  0  0  0  0  0  0  0  0  0  # atno 6909 bound_to 6896
  145.9428  140.7646  142.9543 H   0  0  0  0  0  0  0  0  0  0  0  0  # atno 7974 bound_to 7965
  155.7771  140.3483  155.5278 H   0  0  0  0  0  0  0  0  0  0  0  0  # atno 8008 bound_to 7997
  155.8765  140.0995  157.1535 H   0  0  0  0  0  0  0  0  0  0  0  0  # atno 8009 bound_to 7997
  154.4021  140.1330  156.4130 H   0  0  0  0  0  0  0  0  0  0  0  0  # atno 8010 bound_to 7997
  140.7062  143.3211  151.2789 H   0  0  0  0  0  0  0  0  0  0  0  0  # atno 10167 bound_to 10162
  156.9329  130.5833  149.5650 H   0  0  0  0  0  0  0  0  0  0  0  0  # atno 10718 bound_to 10713
  153.7353  135.6936  153.4979 H   0  0  0  0  0  0  0  0  0  0  0  0  # atno 10763 bound_to 10752
  153.2107  135.4404  155.0375 H   0  0  0  0  0  0  0  0  0  0  0  0  # atno 10764 bound_to 10752
  154.8239  135.3436  154.6881 H   0  0  0  0  0  0  0  0  0  0  0  0  # atno 10765 bound_to 10752
  141.1101  133.8722  157.1609 H   0  0  0  0  0  0  0  0  0  0  0  0  # atno 11005 bound_to 11000
  144.6782  140.2308  143.7355 LP  0  0  0  0  0  0  0  0  0  0  0  0  # atno 17320 bound_to 7965
  145.8276  139.2071  143.1901 LP  0  0  0  0  0  0  0  0  0  0  0  0  # atno 17321 bound_to 7965
  139.6665  144.0095  152.2726 LP  0  0  0  0  0  0  0  0  0  0  0  0  # atno 17342 bound_to 10162
  139.9680  144.6513  150.8016 LP  0  0  0  0  0  0  0  0  0  0  0  0  # atno 17343 bound_to 10162
  156.0439  130.5518  150.8835 LP  0  0  0  0  0  0  0  0  0  0  0  0  # atno 17370 bound_to 10713
  157.5835  131.0946  150.9233 LP  0  0  0  0  0  0  0  0  0  0  0  0  # atno 17371 bound_to 10713
  139.9990  135.0035  157.0148 LP  0  0  0  0  0  0  0  0  0  0  0  0  # atno 17394 bound_to 11000
  140.4798  134.1301  155.7215 LP  0  0  0  0  0  0  0  0  0  0  0  0  # atno 17395 bound_to 11000

$$$$
