AV-unprocessed.smi:2424|AV-procd|sdf|9573|dock1
  -GOLD-   2272013203D 1   1.00000     0.00000
 Structure written by MMmdl.
 49 50  0  0  0  0  0  0  0  0  2 V2000
  144.4611  135.1412  149.8784 C   0  0  0  0  0  0  0  0  0  0  0  0
  145.1478  135.8219  151.0742 C   0  0  0  0  0  0  0  0  0  0  0  0
  144.5400  135.4928  152.4636 C   0  0  0  0  0  0  0  0  0  0  0  0
  144.4375  133.9575  152.6152 C   0  0  0  0  0  0  0  0  0  0  0  0
  145.7800  133.2094  152.6322 C   0  0  0  0  0  0  0  0  0  0  0  0
  145.1638  136.2200  153.6848 C   0  0  1  0  0  0  0  0  0  0  0  0
  146.5375  136.6734  153.4822 N   0  0  0  0  0  0  0  0  0  0  0  0
  147.2675  137.3530  154.3763 C   0  0  0  0  0  0  0  0  0  0  0  0
  146.8445  137.6828  155.4837 O   0  0  0  0  0  0  0  0  0  0  0  0
  148.4959  137.6077  153.8924 N   0  0  0  0  0  0  0  0  0  0  0  0
  149.5577  138.2828  154.5085 C   0  0  0  0  0  0  0  0  0  0  0  0
  150.7349  137.6193  154.7890 C   0  0  0  0  0  0  0  0  0  0  0  0
  151.8569  138.0934  155.3724 N   0  5  0  0  0  0  0  0  0  0  0  0
  151.8786  139.4025  155.7547 C   0  0  0  0  0  0  0  0  0  0  0  0
  152.8661  139.9042  156.2909 O   0  0  0  0  0  0  0  0  0  0  0  0
  150.6817  140.2338  155.5157 C   0  0  0  0  0  0  0  0  0  0  0  0
  150.7073  141.6910  155.9445 C   0  0  0  0  0  0  0  0  0  0  0  0
  149.5914  139.6853  154.9235 C   0  0  0  0  0  0  0  0  0  0  0  0
  144.1467  137.3519  153.5170 C   0  0  2  0  0  0  0  0  0  0  0  0
  143.6299  138.0959  154.7423 C   0  0  0  0  0  0  0  0  0  0  0  0
  143.2610  136.3130  152.8107 C   0  0  2  0  0  0  0  0  0  0  0  0
  142.3956  135.6801  153.7467 O   0  0  0  0  0  0  0  0  0  0  0  0
  141.1427  136.3313  153.8720 C   0  0  0  0  0  0  0  0  0  0  0  0
  144.8648  135.5227  148.9406 H   0  0  0  0  0  0  0  0  0  0  0  0
  143.3870  135.3248  149.8702 H   0  0  0  0  0  0  0  0  0  0  0  0
  144.6201  134.0634  149.8777 H   0  0  0  0  0  0  0  0  0  0  0  0
  146.2121  135.5891  151.0497 H   0  0  0  0  0  0  0  0  0  0  0  0
  145.1031  136.8960  150.8952 H   0  0  0  0  0  0  0  0  0  0  0  0
  143.9370  133.7164  153.5532 H   0  0  0  0  0  0  0  0  0  0  0  0
  143.7982  133.5289  151.8448 H   0  0  0  0  0  0  0  0  0  0  0  0
  145.6214  132.1489  152.8285 H   0  0  0  0  0  0  0  0  0  0  0  0
  146.4383  133.5891  153.4129 H   0  0  0  0  0  0  0  0  0  0  0  0
  146.3038  133.2835  151.6800 H   0  0  0  0  0  0  0  0  0  0  0  0
  144.9970  135.6754  154.6175 H   0  0  0  0  0  0  0  0  0  0  0  0
  146.9659  136.4457  152.5971 H   0  0  0  0  0  0  0  0  0  0  0  0
  148.6924  137.2711  152.9612 H   0  0  0  0  0  0  0  0  0  0  0  0
  150.7828  136.5467  154.5013 H   0  0  0  0  0  0  0  0  0  0  0  0
  149.7674  142.1912  155.7099 H   0  0  0  0  0  0  0  0  0  0  0  0
  151.5092  142.2247  155.4336 H   0  0  0  0  0  0  0  0  0  0  0  0
  150.8708  141.7690  157.0198 H   0  0  0  0  0  0  0  0  0  0  0  0
  148.7375  140.3234  154.7663 H   0  0  0  0  0  0  0  0  0  0  0  0
  144.5018  138.0674  152.7730 H   0  0  0  0  0  0  0  0  0  0  0  0
  143.3369  137.4087  155.5363 H   0  0  0  0  0  0  0  0  0  0  0  0
  142.7609  138.7055  154.4955 H   0  0  0  0  0  0  0  0  0  0  0  0
  144.3945  138.7576  155.1497 H   0  0  0  0  0  0  0  0  0  0  0  0
  142.7338  136.7420  151.9570 H   0  0  0  0  0  0  0  0  0  0  0  0
  140.5116  135.7774  154.5665 H   0  0  0  0  0  0  0  0  0  0  0  0
  140.6213  136.3904  152.9168 H   0  0  0  0  0  0  0  0  0  0  0  0
  141.2660  137.3418  154.2632 H   0  0  0  0  0  0  0  0  0  0  0  0
  1  2  1  0  0  0  0
  1 24  1  0  0  0  0
  1 25  1  0  0  0  0
  1 26  1  0  0  0  0
  2  3  1  0  0  0  0
  2 27  1  0  0  0  0
  2 28  1  0  0  0  0
  3 21  1  0  0  0  0
  3  4  1  0  0  0  0
  3  6  1  0  0  0  0
  4  5  1  0  0  0  0
  4 29  1  0  0  0  0
  4 30  1  0  0  0  0
  5 31  1  0  0  0  0
  5 32  1  0  0  0  0
  5 33  1  0  0  0  0
  6  7  1  0  0  0  0
  6 19  1  0  0  0  0
  6 34  1  0  0  0  0
  7  8  1  0  0  0  0
  7 35  1  0  0  0  0
  8  9  2  0  0  0  0
  8 10  1  0  0  0  0
 10 11  1  0  0  0  0
 10 36  1  0  0  0  0
 11 18  1  0  0  0  0
 11 12  2  0  0  0  0
 12 13  1  0  0  0  0
 12 37  1  0  0  0  0
 13 14  1  0  0  0  0
 14 15  2  0  0  0  0
 14 16  1  0  0  0  0
 16 17  1  0  0  0  0
 16 18  2  0  0  0  0
 17 38  1  0  0  0  0
 17 39  1  0  0  0  0
 17 40  1  0  0  0  0
 18 41  1  0  0  0  0
 19 20  1  0  0  0  0
 19 21  1  0  0  0  0
 19 42  1  0  0  0  0
 20 43  1  0  0  0  0
 20 44  1  0  0  0  0
 20 45  1  0  0  0  0
 21 22  1  0  0  0  0
 21 46  1  0  0  0  0
 22 23  1  0  0  0  0
 23 47  1  0  0  0  0
 23 48  1  0  0  0  0
 23 49  1  0  0  0  0
M  CHG  1  13  -1
M  END
> <s_m_source_file>
AV-unprocessed.smi

> <i_m_source_file_index>
2424

> <i_lp_mmshare_version>
43012

> <i_f3d_flags>
0

> <s_epik_input>
W0NIM11PW0NAQEhdMVtDQEhdKFtDSDNdKVtDQEBIXShDMShbQ0gyXVtDSDNdKVtDSDJdW0NIM10pW05IXUMoPU8pW05IXWMyW2NIXVtuSF1jKD1PKWMoW0NIM10pW2NIXTI=

> <s_epik_cmdline>
J2VwaWtfcHl0aG9uJywgJy1waCcsICc3LjAnLCAnLXRuJywgJzgnLCAnLW1hJywgJzIwMCcsICctbWV0YWxfYmluZGluZycsICctaW1hZScsICc8aW5maWxlLm1hZT4nLCAnLW9tYWUnLCAnPG91dGZpbGUubWFlPic=

> <r_lp_tautomer_probability>
1

> <r_epik_Ionization_Penalty>
7.6122

> <r_epik_Ionization_Penalty_Charging>
1.53843

> <r_epik_Ionization_Penalty_Neutral>
6.07377

> <r_epik_State_Penalty>
6.07371

> <r_epik_Charging_Adjusted_Penalty>
7.61214

> <i_epik_Tot_Q>
-1

> <i_epik_Tot_abs_Q>
1

> <r_epik_Metal_State_Penalty>
2.02136

> <b_epik_Metal_Only>
1

> <s_lp_Force_Field>
OPLS_2005

> <r_lp_Energy>
41.9258

> <b_lp_Chiralities_Consistent>
1

> <s_lp_Variant>
AV-unprocessed.smi:2424-15

> <Gold.Version>
5.8.1

> <Gold.Id.Protein>
6NUR|6NUR_protein|mol2

> <Gold.PLP.Fitness>
37.1917

> <Gold.PLP.PLP>
-30.9744

> <Gold.PLP.part.hbond>
-2.8591

> <Gold.PLP.part.metal>
0.0000

> <Gold.PLP.part.buried>
-0.7558

> <Gold.PLP.part.nonpolar>
-27.4949

> <Gold.PLP.part.repulsive>
0.1710

> <Gold.PLP.ligand.clash>
0.0000

> <Gold.PLP.ligand.torsion>
1.1479

> <Gold.PLP.Chemscore.Hbond>
2.5778

> <Gold.PLP.Chemscore.CHOScore>
0.0000

> <Gold.PLP.Chemscore.Metal>
0.0000

> <Gold.Chemscore.Hbonds>
donor molecule, donor type, donor heavy atom, donor atom, acceptor molecule, acceptor atom, score
      L1  H     7    35       P1  7948  0.57
      L1  H    10    36       P1  7948  0.98
      P1  H  7997  8009       L1    15  0.98

> <Gold.PLP.Chemscore.Internal.Correction>
0.7795

> <Gold.Rescore>
     Score         DG    S(hbond)    S(metal)    S(lipo)     H(rot)  DE(clash)    DE(int)     intcor
     16.75     -19.84       2.88        0.00      73.81       1.52       2.09       1.00       ----

> <Gold.Chemscore.Fitness>
16.7517

> <Gold.Chemscore.DG>
-19.8415

> <Gold.Chemscore.ZeroCoef>
-5.4800

> <Gold.Chemscore.Hbond>
2.8796

> <Gold.Chemscore.Metal>
0.0000

> <Gold.Chemscore.Lipo>
73.8106

> <Gold.Chemscore.Internal_Hbond>
0.0000

> <Gold.Chemscore.DEClash>
2.0940

> <Gold.Chemscore.DEInternal>
0.9959

> <Gold.Chemscore.Rot>
1.5204

> <Gold.Chemscore.Internal.Correction>
   9.000000E+99

> <Gold.Chemscore.Hbonds>
donor molecule, donor type, donor heavy atom, donor atom, acceptor molecule, acceptor atom, score
      L1  H     7    35       P1  7948  0.57
      L1  H    10    36       P1  7948  0.92
      P1  H  7997  8009       L1    15  0.90

> <Gold.Chemscore.Hbond.Weighted>
-9.6179

> <Gold.Chemscore.Metal.Weighted>
-0.0000

> <Gold.Chemscore.Lipo.Weighted>
-8.6358

> <Gold.Chemscore.Internal_Hbond.Weighted>
0.0000

> <Gold.Chemscore.DEClash.Weighted>
2.0940

> <Gold.Chemscore.DEInternal.Weighted>
0.9959

> <Gold.Chemscore.Rot.Weighted>
3.8922

> <Gold.Chemscore.Internal.Correction.Weighted>
   9.000000E+99

> <Gold.Protein.RotatedTorsions>
[ 6907 6896 6895 6894 ] final  -92.40 input  -60.11 | X-H torsion
[ 7974 7965 7964 7962 ] final   -3.55 input  175.53 | X-H torsion
[ 8008 7997 7996 7995 ] final -175.19 input   59.86 | X-H torsion
[ 10167 10162 10161 10158 ] final -105.39 input  -65.29 | X-H torsion
[ 10718 10713 10712 10709 ] final  125.19 input   66.30 | X-H torsion
[ 10763 10752 10751 10750 ] final -137.50 input  -60.55 | X-H torsion
[ 11005 11000 10999 10996 ] final  134.78 input  -57.11 | X-H torsion

> <Gold.Protein.ActiveResidues>
 VAL166  LYS551  ARG553  GLY616  TRP617  ASP618  TYR619  PRO620  LYS621  CYS622 
 ASP623  PHE694  ASN695  SER759  ASP760  ASP761  ALA762  ILE779  LEU786  VAL792 
 PHE793  MET794  SER795  GLU796  ALA797  LYS798  CYS799  TRP800  GLU811  SER814 

> <Gold.Protein.RotatedAtoms>
  150.6905  134.2128  159.4365 H   0  0  0  0  0  0  0  0  0  0  0  0  # atno 6907 bound_to 6896
  152.0089  134.9885  160.0577 H   0  0  0  0  0  0  0  0  0  0  0  0  # atno 6908 bound_to 6896
  152.1507  133.4485  159.4849 H   0  0  0  0  0  0  0  0  0  0  0  0  # atno 6909 bound_to 6896
  146.2388  140.1738  142.8332 H   0  0  0  0  0  0  0  0  0  0  0  0  # atno 7974 bound_to 7965
  155.9795  140.1179  157.0739 H   0  0  0  0  0  0  0  0  0  0  0  0  # atno 8008 bound_to 7997
  154.4179  140.1147  156.5484 H   0  0  0  0  0  0  0  0  0  0  0  0  # atno 8009 bound_to 7997
  155.6489  140.3473  155.4743 H   0  0  0  0  0  0  0  0  0  0  0  0  # atno 8010 bound_to 7997
  140.1990  143.3833  152.1144 H   0  0  0  0  0  0  0  0  0  0  0  0  # atno 10167 bound_to 10162
  157.5524  131.1093  150.8680 H   0  0  0  0  0  0  0  0  0  0  0  0  # atno 10718 bound_to 10713
  154.8660  135.3640  154.5233 H   0  0  0  0  0  0  0  0  0  0  0  0  # atno 10763 bound_to 10752
  153.5862  135.7017  153.5447 H   0  0  0  0  0  0  0  0  0  0  0  0  # atno 10764 bound_to 10752
  153.3413  135.4097  155.1536 H   0  0  0  0  0  0  0  0  0  0  0  0  # atno 10765 bound_to 10752
  139.9937  134.9505  156.9914 H   0  0  0  0  0  0  0  0  0  0  0  0  # atno 11005 bound_to 11000
  144.9990  140.8615  143.5293 LP  0  0  0  0  0  0  0  0  0  0  0  0  # atno 17320 bound_to 7965
  145.1754  139.2381  143.5320 LP  0  0  0  0  0  0  0  0  0  0  0  0  # atno 17321 bound_to 7965
  139.5225  144.7059  151.5355 LP  0  0  0  0  0  0  0  0  0  0  0  0  # atno 17342 bound_to 10162
  140.6403  143.8902  150.6685 LP  0  0  0  0  0  0  0  0  0  0  0  0  # atno 17343 bound_to 10162
  156.9201  130.5312  149.5279 LP  0  0  0  0  0  0  0  0  0  0  0  0  # atno 17370 bound_to 10713
  156.0588  130.5644  150.9149 LP  0  0  0  0  0  0  0  0  0  0  0  0  # atno 17371 bound_to 10713
  140.4860  134.1242  155.7224 LP  0  0  0  0  0  0  0  0  0  0  0  0  # atno 17394 bound_to 11000
  141.1587  133.8834  157.1908 LP  0  0  0  0  0  0  0  0  0  0  0  0  # atno 17395 bound_to 11000

$$$$
