AV-unprocessed.smi:2870|AV-procd|sdf|11029|dock7
  -GOLD-   2272015493D 1   1.00000     0.00000
 Structure written by MMmdl.
 40 42  0  0  0  0  0  0  0  0  1 V2000
  156.1390  140.7413  160.4155 N   0  0  0  0  0  0  0  0  0  0  0  0
  155.0717  141.0606  160.1017 C   0  0  0  0  0  0  0  0  0  0  0  0
  153.7562  141.4298  159.6949 C   0  0  0  0  0  0  0  0  0  0  0  0
  153.1977  142.5984  160.0716 C   0  0  0  0  0  0  0  0  0  0  0  0
  151.9336  142.9770  159.6761 N   0  0  0  0  0  0  0  0  0  0  0  0
  151.3080  144.1578  160.2018 C   0  0  0  0  0  0  0  0  0  0  0  0
  150.7040  145.1894  159.2685 C   0  0  0  0  0  0  0  0  0  0  0  0
  151.9863  145.4956  160.0027 C   0  0  0  0  0  0  0  0  0  0  0  0
  151.1338  142.0960  158.9158 C   0  0  0  0  0  0  0  0  0  0  0  0
  149.9706  142.3827  158.6213 O   0  0  0  0  0  0  0  0  0  0  0  0
  151.7078  140.8690  158.5030 N   0  0  0  0  0  0  0  0  0  0  0  0
  150.9042  139.9640  157.6517 C   0  0  0  0  0  0  0  0  0  0  0  0
  150.5665  140.5578  156.2754 C   0  0  0  0  0  0  0  0  0  0  0  0
  151.4127  140.6165  155.3820 O   0  0  0  0  0  0  0  0  0  0  0  0
  149.3067  140.9874  156.1191 N   0  0  0  0  0  0  0  0  0  0  0  0
  148.7750  141.5624  154.8915 C   0  0  0  0  0  0  0  0  0  0  0  0
  147.6264  140.7130  154.3611 C   0  0  0  0  0  0  0  0  0  0  0  0
  147.9018  139.3014  153.8202 C   0  0  0  0  0  0  0  0  0  0  0  0
  146.7994  139.5334  152.7836 C   0  0  0  0  0  0  0  0  0  0  0  0
  147.0140  141.0354  152.9900 C   0  0  0  0  0  0  0  0  0  0  0  0
  153.0285  140.4852  158.8506 C   0  0  0  0  0  0  0  0  0  0  0  0
  153.5061  139.4209  158.4536 O   0  0  0  0  0  0  0  0  0  0  0  0
  153.7648  143.2698  160.7005 H   0  0  0  0  0  0  0  0  0  0  0  0
  150.7957  144.0245  161.1530 H   0  0  0  0  0  0  0  0  0  0  0  0
  150.7757  145.0208  158.1957 H   0  0  0  0  0  0  0  0  0  0  0  0
  149.8002  145.6960  159.6002 H   0  0  0  0  0  0  0  0  0  0  0  0
  151.9381  146.2089  160.8228 H   0  0  0  0  0  0  0  0  0  0  0  0
  152.9011  145.5248  159.4137 H   0  0  0  0  0  0  0  0  0  0  0  0
  151.4138  139.0120  157.4958 H   0  0  0  0  0  0  0  0  0  0  0  0
  149.9751  139.6848  158.1516 H   0  0  0  0  0  0  0  0  0  0  0  0
  148.6713  140.9020  156.8991 H   0  0  0  0  0  0  0  0  0  0  0  0
  148.4332  142.5815  155.0789 H   0  0  0  0  0  0  0  0  0  0  0  0
  149.5772  141.6276  154.1549 H   0  0  0  0  0  0  0  0  0  0  0  0
  146.8195  140.6540  155.0951 H   0  0  0  0  0  0  0  0  0  0  0  0
  148.8910  139.2051  153.3692 H   0  0  0  0  0  0  0  0  0  0  0  0
  147.7029  138.4963  154.5281 H   0  0  0  0  0  0  0  0  0  0  0  0
  147.0302  139.1708  151.7814 H   0  0  0  0  0  0  0  0  0  0  0  0
  145.8196  139.1946  153.1239 H   0  0  0  0  0  0  0  0  0  0  0  0
  146.0992  141.6276  153.0269 H   0  0  0  0  0  0  0  0  0  0  0  0
  147.7377  141.4563  152.2896 H   0  0  0  0  0  0  0  0  0  0  0  0
  1  2  3  0  0  0  0
  2  3  1  0  0  0  0
  3 21  1  0  0  0  0
  3  4  2  0  0  0  0
  4  5  1  0  0  0  0
  4 23  1  0  0  0  0
  5  6  1  0  0  0  0
  5  9  1  0  0  0  0
  6  8  1  0  0  0  0
  6  7  1  0  0  0  0
  6 24  1  0  0  0  0
  7  8  1  0  0  0  0
  7 25  1  0  0  0  0
  7 26  1  0  0  0  0
  8 27  1  0  0  0  0
  8 28  1  0  0  0  0
  9 10  2  0  0  0  0
  9 11  1  0  0  0  0
 11 12  1  0  0  0  0
 11 21  1  0  0  0  0
 12 13  1  0  0  0  0
 12 29  1  0  0  0  0
 12 30  1  0  0  0  0
 13 14  2  0  0  0  0
 13 15  1  0  0  0  0
 15 16  1  0  0  0  0
 15 31  1  0  0  0  0
 16 17  1  0  0  0  0
 16 32  1  0  0  0  0
 16 33  1  0  0  0  0
 17 20  1  0  0  0  0
 17 18  1  0  0  0  0
 17 34  1  0  0  0  0
 18 19  1  0  0  0  0
 18 35  1  0  0  0  0
 18 36  1  0  0  0  0
 19 20  1  0  0  0  0
 19 37  1  0  0  0  0
 19 38  1  0  0  0  0
 20 39  1  0  0  0  0
 20 40  1  0  0  0  0
 21 22  2  0  0  0  0
M  END
> <s_m_source_file>
AV-unprocessed.smi

> <i_m_source_file_index>
2870

> <i_lp_mmshare_version>
43012

> <i_f3d_flags>
0

> <s_epik_input>
TiNDYzFbY0hdbihbQ0hdMltDSDJdW0NIMl0yKWMoPU8pbihjMT1PKVtDSDJdQyg9TylbTkhdW0NIMl1bQ0hdM1tDSDJdW0NIMl1bQ0gyXTM=

> <s_epik_cmdline>
J2VwaWtfcHl0aG9uJywgJy1waCcsICc3LjAnLCAnLXRuJywgJzgnLCAnLW1hJywgJzIwMCcsICctbWV0YWxfYmluZGluZycsICctaW1hZScsICc8aW5maWxlLm1hZT4nLCAnLW9tYWUnLCAnPG91dGZpbGUubWFlPic=

> <r_lp_tautomer_probability>
1

> <r_epik_Ionization_Penalty>
1.93838e-08

> <r_epik_Ionization_Penalty_Charging>
8.20545e-11

> <r_epik_Ionization_Penalty_Neutral>
1.93017e-08

> <r_epik_State_Penalty>
-0

> <r_epik_Charging_Adjusted_Penalty>
8.20545e-11

> <i_epik_Tot_Q>
0

> <i_epik_Tot_abs_Q>
0

> <r_epik_Metal_State_Penalty>
-0

> <b_epik_Metal_Only>
0

> <s_lp_Force_Field>
OPLS_2005

> <r_lp_Energy>
38.3845

> <b_lp_Chiralities_Consistent>
1

> <s_lp_Variant>
AV-unprocessed.smi:2870-1

> <Gold.Version>
5.8.1

> <Gold.Id.Protein>
6NUR|6NUR_protein|mol2

> <Gold.PLP.Fitness>
51.7323

> <Gold.PLP.PLP>
-46.5997

> <Gold.PLP.part.hbond>
-3.0000

> <Gold.PLP.part.metal>
0.0000

> <Gold.PLP.part.buried>
-4.7407

> <Gold.PLP.part.nonpolar>
-37.9121

> <Gold.PLP.part.repulsive>
0.1483

> <Gold.PLP.ligand.clash>
0.0000

> <Gold.PLP.ligand.torsion>
0.3480

> <Gold.PLP.Chemscore.Hbond>
1.8480

> <Gold.PLP.Chemscore.CHOScore>
0.0000

> <Gold.PLP.Chemscore.Metal>
0.0000

> <Gold.Chemscore.Hbonds>
donor molecule, donor type, donor heavy atom, donor atom, acceptor molecule, acceptor atom, score
      P1  H  7989  7998       L1    14  0.80
      P1  H  7997  8009       L1    22  1.00

> <Gold.PLP.Chemscore.Internal.Correction>
0.2846

> <Gold.Rescore>
     Score         DG    S(hbond)    S(metal)    S(lipo)     H(rot)  DE(clash)    DE(int)     intcor
     13.03     -15.03       1.12        0.00      92.97       1.98       0.60       1.40       ----

> <Gold.Chemscore.Fitness>
13.0320

> <Gold.Chemscore.DG>
-15.0311

> <Gold.Chemscore.ZeroCoef>
-5.4800

> <Gold.Chemscore.Hbond>
1.1197

> <Gold.Chemscore.Metal>
0.0000

> <Gold.Chemscore.Lipo>
92.9727

> <Gold.Chemscore.Internal_Hbond>
0.0000

> <Gold.Chemscore.DEClash>
0.5967

> <Gold.Chemscore.DEInternal>
1.4023

> <Gold.Chemscore.Rot>
1.9791

> <Gold.Chemscore.Internal.Correction>
   9.000000E+99

> <Gold.Chemscore.Hbonds>
donor molecule, donor type, donor heavy atom, donor atom, acceptor molecule, acceptor atom, score
      P1  H  7989  7998       L1    14  0.79
      P1  H  7997  8009       L1    22  0.30

> <Gold.Chemscore.Hbond.Weighted>
-3.7397

> <Gold.Chemscore.Metal.Weighted>
-0.0000

> <Gold.Chemscore.Lipo.Weighted>
-10.8778

> <Gold.Chemscore.Internal_Hbond.Weighted>
0.0000

> <Gold.Chemscore.DEClash.Weighted>
0.5967

> <Gold.Chemscore.DEInternal.Weighted>
1.4023

> <Gold.Chemscore.Rot.Weighted>
5.0665

> <Gold.Chemscore.Internal.Correction.Weighted>
   9.000000E+99

> <Gold.Protein.RotatedTorsions>
[ 6907 6896 6895 6894 ] final -138.13 input  -60.11 | X-H torsion
[ 7974 7965 7964 7962 ] final -128.72 input  175.53 | X-H torsion
[ 8008 7997 7996 7995 ] final  152.30 input   59.86 | X-H torsion
[ 10167 10162 10161 10158 ] final  -90.82 input  -65.29 | X-H torsion
[ 10718 10713 10712 10709 ] final  -41.16 input   66.30 | X-H torsion
[ 10763 10752 10751 10750 ] final  -96.49 input  -60.55 | X-H torsion
[ 11005 11000 10999 10996 ] final  -69.61 input  -57.11 | X-H torsion

> <Gold.Protein.ActiveResidues>
 VAL166  LYS551  ARG553  GLY616  TRP617  ASP618  TYR619  PRO620  LYS621  CYS622 
 ASP623  PHE694  ASN695  SER759  ASP760  ASP761  ALA762  ILE779  LEU786  VAL792 
 PHE793  MET794  SER795  GLU796  ALA797  LYS798  CYS799  TRP800  GLU811  SER814 

> <Gold.Protein.RotatedAtoms>
  151.0311  133.5789  159.2660 H   0  0  0  0  0  0  0  0  0  0  0  0  # atno 6907 bound_to 6896
  151.2871  135.0730  159.9200 H   0  0  0  0  0  0  0  0  0  0  0  0  # atno 6908 bound_to 6896
  152.5345  134.0016  159.7951 H   0  0  0  0  0  0  0  0  0  0  0  0  # atno 6909 bound_to 6896
  144.9642  140.7479  143.4710 H   0  0  0  0  0  0  0  0  0  0  0  0  # atno 7974 bound_to 7965
  156.2635  140.2024  156.6311 H   0  0  0  0  0  0  0  0  0  0  0  0  # atno 8008 bound_to 7997
  154.6682  140.0553  157.0161 H   0  0  0  0  0  0  0  0  0  0  0  0  # atno 8009 bound_to 7997
  155.1176  140.3221  155.4508 H   0  0  0  0  0  0  0  0  0  0  0  0  # atno 8010 bound_to 7997
  140.3510  143.2891  151.9726 H   0  0  0  0  0  0  0  0  0  0  0  0  # atno 10167 bound_to 10162
  156.2734  130.4209  149.8413 H   0  0  0  0  0  0  0  0  0  0  0  0  # atno 10718 bound_to 10713
  154.7244  135.5082  153.8863 H   0  0  0  0  0  0  0  0  0  0  0  0  # atno 10763 bound_to 10752
  153.0891  135.6654  153.9898 H   0  0  0  0  0  0  0  0  0  0  0  0  # atno 10764 bound_to 10752
  153.9714  135.3038  155.3406 H   0  0  0  0  0  0  0  0  0  0  0  0  # atno 10765 bound_to 10752
  141.1557  133.6769  156.6625 H   0  0  0  0  0  0  0  0  0  0  0  0  # atno 11005 bound_to 11000
  145.2654  139.1975  143.4870 LP  0  0  0  0  0  0  0  0  0  0  0  0  # atno 17320 bound_to 7965
  146.3363  140.2591  142.8601 LP  0  0  0  0  0  0  0  0  0  0  0  0  # atno 17321 bound_to 7965
  139.4826  144.6075  151.7493 LP  0  0  0  0  0  0  0  0  0  0  0  0  # atno 17342 bound_to 10162
  140.5219  144.0866  150.6025 LP  0  0  0  0  0  0  0  0  0  0  0  0  # atno 17343 bound_to 10162
  156.5887  130.8497  151.3402 LP  0  0  0  0  0  0  0  0  0  0  0  0  # atno 17370 bound_to 10713
  157.7291  130.9666  150.1773 LP  0  0  0  0  0  0  0  0  0  0  0  0  # atno 17371 bound_to 10713
  140.3236  134.7987  157.4272 LP  0  0  0  0  0  0  0  0  0  0  0  0  # atno 17394 bound_to 11000
  140.1076  134.5389  155.8295 LP  0  0  0  0  0  0  0  0  0  0  0  0  # atno 17395 bound_to 11000

$$$$
