AV-unprocessed.smi:1859|AV-procd|sdf|7545|dock3
  -GOLD-   22720 9263D 1   1.00000     0.00000
 Structure written by MMmdl.
 46 48  0  0  0  0  0  0  0  0  2 V2000
  151.6856  138.5360  158.0527 O   0  0  0  0  0  0  0  0  0  0  0  0
  150.5106  138.4013  157.7096 C   0  0  0  0  0  0  0  0  0  0  0  0
  149.8948  139.2387  156.8602 N   0  0  0  0  0  0  0  0  0  0  0  0
  150.5217  140.3930  156.2265 C   0  0  0  0  0  0  0  0  0  0  0  0
  149.9348  141.7176  156.7440 C   0  0  0  0  0  0  0  0  0  0  0  0
  150.9345  142.5032  157.5695 C   0  0  0  0  0  0  0  0  0  0  0  0
  151.8173  141.8731  158.4733 C   0  0  0  0  0  0  0  0  0  0  0  0
  152.7305  142.6594  159.2062 C   0  0  0  0  0  0  0  0  0  0  0  0
  152.7422  144.0573  159.0194 C   0  0  0  0  0  0  0  0  0  0  0  0
  151.8406  144.6339  158.1015 C   0  0  0  0  0  0  0  0  0  0  0  0
  150.9815  143.8466  157.4174 N   0  3  0  0  0  0  0  0  0  0  0  0
  149.6748  137.2346  158.2517 C   0  0  2  0  0  0  0  0  0  0  0  0
  149.3197  136.2345  157.1261 C   0  0  0  0  0  0  0  0  0  0  0  0
  148.3631  135.1322  157.6210 C   0  0  0  0  0  0  0  0  0  0  0  0
  147.1479  135.7453  158.3388 C   0  0  0  0  0  0  0  0  0  0  0  0
  147.6296  136.5916  159.4400 N   0  0  0  0  0  0  0  0  0  0  0  0
  147.5031  136.3282  160.7649 C   0  0  0  0  0  0  0  0  0  0  0  0
  147.9194  137.1010  161.6292 O   0  0  0  0  0  0  0  0  0  0  0  0
  146.8506  135.0342  161.1464 C   0  0  0  0  0  0  0  0  0  0  0  0
  146.5551  134.8242  162.6165 C   0  0  0  0  0  0  0  0  0  0  0  0
  147.6538  134.0328  161.9573 C   0  0  0  0  0  0  0  0  0  0  0  0
  148.3843  137.7453  158.9332 C   0  0  0  0  0  0  0  0  0  0  0  0
  148.9290  139.0548  156.6286 H   0  0  0  0  0  0  0  0  0  0  0  0
  151.5998  140.3624  156.3935 H   0  0  0  0  0  0  0  0  0  0  0  0
  150.3722  140.3129  155.1496 H   0  0  0  0  0  0  0  0  0  0  0  0
  149.6024  142.3326  155.9064 H   0  0  0  0  0  0  0  0  0  0  0  0
  149.0512  141.5296  157.3553 H   0  0  0  0  0  0  0  0  0  0  0  0
  151.7981  140.8005  158.6026 H   0  0  0  0  0  0  0  0  0  0  0  0
  153.4137  142.1955  159.9025 H   0  0  0  0  0  0  0  0  0  0  0  0
  153.4335  144.6775  159.5713 H   0  0  0  0  0  0  0  0  0  0  0  0
  151.7808  145.6927  157.8957 H   0  0  0  0  0  0  0  0  0  0  0  0
  150.2662  136.7066  159.0024 H   0  0  0  0  0  0  0  0  0  0  0  0
  148.8447  136.7630  156.2979 H   0  0  0  0  0  0  0  0  0  0  0  0
  150.2258  135.7819  156.7215 H   0  0  0  0  0  0  0  0  0  0  0  0
  148.0343  134.5194  156.7812 H   0  0  0  0  0  0  0  0  0  0  0  0
  148.8921  134.4660  158.3036 H   0  0  0  0  0  0  0  0  0  0  0  0
  146.5792  136.3603  157.6398 H   0  0  0  0  0  0  0  0  0  0  0  0
  146.4574  134.9634  158.6515 H   0  0  0  0  0  0  0  0  0  0  0  0
  146.1596  134.6046  160.4232 H   0  0  0  0  0  0  0  0  0  0  0  0
  146.8509  135.6041  163.3163 H   0  0  0  0  0  0  0  0  0  0  0  0
  145.6294  134.3094  162.8645 H   0  0  0  0  0  0  0  0  0  0  0  0
  147.4730  132.9787  161.7580 H   0  0  0  0  0  0  0  0  0  0  0  0
  148.6761  134.2752  162.2414 H   0  0  0  0  0  0  0  0  0  0  0  0
  148.6325  138.4631  159.7167 H   0  0  0  0  0  0  0  0  0  0  0  0
  147.7620  138.2923  158.2222 H   0  0  0  0  0  0  0  0  0  0  0  0
  150.3381  144.2857  156.7583 H   0  0  0  0  0  0  0  0  0  0  0  0
  1  2  2  0  0  0  0
  2  3  1  0  0  0  0
  2 12  1  0  0  0  0
  3  4  1  0  0  0  0
  3 23  1  0  0  0  0
  4  5  1  0  0  0  0
  4 24  1  0  0  0  0
  4 25  1  0  0  0  0
  5  6  1  0  0  0  0
  5 26  1  0  0  0  0
  5 27  1  0  0  0  0
  6 11  1  0  0  0  0
  6  7  2  0  0  0  0
  7  8  1  0  0  0  0
  7 28  1  0  0  0  0
  8  9  2  0  0  0  0
  8 29  1  0  0  0  0
  9 10  1  0  0  0  0
  9 30  1  0  0  0  0
 10 11  2  0  0  0  0
 10 31  1  0  0  0  0
 11 46  1  0  0  0  0
 12 22  1  0  0  0  0
 12 13  1  0  0  0  0
 12 32  1  0  0  0  0
 13 14  1  0  0  0  0
 13 33  1  0  0  0  0
 13 34  1  0  0  0  0
 14 15  1  0  0  0  0
 14 35  1  0  0  0  0
 14 36  1  0  0  0  0
 15 16  1  0  0  0  0
 15 37  1  0  0  0  0
 15 38  1  0  0  0  0
 16 17  1  0  0  0  0
 16 22  1  0  0  0  0
 17 18  2  0  0  0  0
 17 19  1  0  0  0  0
 19 21  1  0  0  0  0
 19 20  1  0  0  0  0
 19 39  1  0  0  0  0
 20 21  1  0  0  0  0
 20 40  1  0  0  0  0
 20 41  1  0  0  0  0
 21 42  1  0  0  0  0
 21 43  1  0  0  0  0
 22 44  1  0  0  0  0
 22 45  1  0  0  0  0
M  CHG  1  11   1
M  END
> <s_m_source_file>
AV-unprocessed.smi

> <i_m_source_file_index>
1859

> <i_lp_mmshare_version>
43012

> <i_f3d_flags>
0

> <s_epik_input>
W0NIMl0xW0NIMl1bQ0hdMUMoPU8pTihbQ0gyXTIpW0NIMl1bQ0gyXVtDSDJdW0NASF0yQyg9TylbTkhdW0NIMl1bQ0gyXWMzW2NIXVtjSF1bY0hdW2NIXW4z

> <s_epik_cmdline>
J2VwaWtfcHl0aG9uJywgJy1waCcsICc3LjAnLCAnLXRuJywgJzgnLCAnLW1hJywgJzIwMCcsICctbWV0YWxfYmluZGluZycsICctaW1hZScsICc8aW5maWxlLm1hZT4nLCAnLW9tYWUnLCAnPG91dGZpbGUubWFlPic=

> <r_epik_Ionization_Penalty>
1.84754

> <r_epik_Ionization_Penalty_Charging>
1.84754

> <r_epik_Ionization_Penalty_Neutral>
7.35743e-08

> <r_epik_State_Penalty>
1.96477

> <r_epik_Charging_Adjusted_Penalty>
3.81231

> <i_epik_Tot_Q>
1

> <i_epik_Tot_abs_Q>
1

> <r_epik_Metal_State_Penalty>
1.99062

> <b_epik_Metal_Only>
0

> <s_lp_Force_Field>
OPLS_2005

> <r_lp_Energy>
35.3834

> <b_lp_Chiralities_Consistent>
1

> <s_lp_Variant>
AV-unprocessed.smi:1859-3

> <Gold.Version>
5.8.1

> <Gold.Id.Protein>
6NUR|6NUR_protein|mol2

> <Gold.PLP.Fitness>
52.3236

> <Gold.PLP.PLP>
-42.6310

> <Gold.PLP.part.hbond>
-3.0000

> <Gold.PLP.part.metal>
0.0000

> <Gold.PLP.part.buried>
-5.3287

> <Gold.PLP.part.nonpolar>
-34.4832

> <Gold.PLP.part.repulsive>
0.0025

> <Gold.PLP.ligand.clash>
0.0000

> <Gold.PLP.ligand.torsion>
0.8177

> <Gold.PLP.Chemscore.Hbond>
3.7360

> <Gold.PLP.Chemscore.CHOScore>
0.0000

> <Gold.PLP.Chemscore.Metal>
0.0000

> <Gold.Chemscore.Hbonds>
donor molecule, donor type, donor heavy atom, donor atom, acceptor molecule, acceptor atom, score
      L1  H    11    46       P1  8028  2.00
      P1  H  6931  6943       L1    18  1.00
      P1  H  6934  6947       L1    18  0.45

> <Gold.PLP.Chemscore.Internal.Correction>
0.1200

> <Gold.Rescore>
     Score         DG    S(hbond)    S(metal)    S(lipo)     H(rot)  DE(clash)    DE(int)     intcor
     21.72     -22.62       2.74        0.00     105.52       1.70       0.04       0.87       ----

> <Gold.Chemscore.Fitness>
21.7187

> <Gold.Chemscore.DG>
-22.6244

> <Gold.Chemscore.ZeroCoef>
-5.4800

> <Gold.Chemscore.Hbond>
2.7382

> <Gold.Chemscore.Metal>
0.0000

> <Gold.Chemscore.Lipo>
105.5203

> <Gold.Chemscore.Internal_Hbond>
0.0000

> <Gold.Chemscore.DEClash>
0.0402

> <Gold.Chemscore.DEInternal>
0.8655

> <Gold.Chemscore.Rot>
1.6980

> <Gold.Chemscore.Internal.Correction>
   9.000000E+99

> <Gold.Chemscore.Hbonds>
donor molecule, donor type, donor heavy atom, donor atom, acceptor molecule, acceptor atom, score
      L1  H    11    46       P1  8028  0.98
      P1  H  6931  6943       L1    18  0.98
      P1  H  6934  6947       L1    18  0.17

> <Gold.Chemscore.Hbond.Weighted>
-9.1454

> <Gold.Chemscore.Metal.Weighted>
-0.0000

> <Gold.Chemscore.Lipo.Weighted>
-12.3459

> <Gold.Chemscore.Internal_Hbond.Weighted>
0.0000

> <Gold.Chemscore.DEClash.Weighted>
0.0402

> <Gold.Chemscore.DEInternal.Weighted>
0.8655

> <Gold.Chemscore.Rot.Weighted>
4.3469

> <Gold.Chemscore.Internal.Correction.Weighted>
   9.000000E+99

> <Gold.Protein.RotatedTorsions>
[ 6907 6896 6895 6894 ] final  -84.87 input  -60.11 | X-H torsion
[ 7974 7965 7964 7962 ] final -111.11 input  175.53 | X-H torsion
[ 8008 7997 7996 7995 ] final   26.97 input   59.86 | X-H torsion
[ 10167 10162 10161 10158 ] final  -53.32 input  -65.29 | X-H torsion
[ 10718 10713 10712 10709 ] final  -68.97 input   66.30 | X-H torsion
[ 10763 10752 10751 10750 ] final  -13.19 input  -60.55 | X-H torsion
[ 11005 11000 10999 10996 ] final  -23.28 input  -57.11 | X-H torsion

> <Gold.Protein.ActiveResidues>
 VAL166  LYS551  ARG553  GLY616  TRP617  ASP618  TYR619  PRO620  LYS621  CYS622 
 ASP623  PHE694  ASN695  SER759  ASP760  ASP761  ALA762  ILE779  LEU786  VAL792 
 PHE793  MET794  SER795  GLU796  ALA797  LYS798  CYS799  TRP800  GLU811  SER814 

> <Gold.Protein.RotatedAtoms>
  150.6873  134.3292  159.4819 H   0  0  0  0  0  0  0  0  0  0  0  0  # atno 6907 bound_to 6896
  152.1159  134.9238  160.0574 H   0  0  0  0  0  0  0  0  0  0  0  0  # atno 6908 bound_to 6896
  152.0463  133.3964  159.4395 H   0  0  0  0  0  0  0  0  0  0  0  0  # atno 6909 bound_to 6896
  145.1600  140.8873  143.3596 H   0  0  0  0  0  0  0  0  0  0  0  0  # atno 7974 bound_to 7965
  155.0356  140.3163  155.4742 H   0  0  0  0  0  0  0  0  0  0  0  0  # atno 8008 bound_to 7997
  156.2865  140.2172  156.5422 H   0  0  0  0  0  0  0  0  0  0  0  0  # atno 8009 bound_to 7997
  154.7333  140.0479  157.0734 H   0  0  0  0  0  0  0  0  0  0  0  0  # atno 8010 bound_to 7997
  140.6491  143.2554  151.4775 H   0  0  0  0  0  0  0  0  0  0  0  0  # atno 10167 bound_to 10162
  156.0479  130.4304  150.2078 H   0  0  0  0  0  0  0  0  0  0  0  0  # atno 10718 bound_to 10713
  153.5097  135.7016  153.5787 H   0  0  0  0  0  0  0  0  0  0  0  0  # atno 10763 bound_to 10752
  153.3883  135.3902  155.1905 H   0  0  0  0  0  0  0  0  0  0  0  0  # atno 10764 bound_to 10752
  154.8704  135.3852  154.4576 H   0  0  0  0  0  0  0  0  0  0  0  0  # atno 10765 bound_to 10752
  140.8737  133.7702  156.0217 H   0  0  0  0  0  0  0  0  0  0  0  0  # atno 11005 bound_to 11000
  145.0340  139.3316  143.6010 LP  0  0  0  0  0  0  0  0  0  0  0  0  # atno 17320 bound_to 7965
  146.3483  139.9689  142.8708 LP  0  0  0  0  0  0  0  0  0  0  0  0  # atno 17321 bound_to 7965
  139.5704  144.1942  152.1828 LP  0  0  0  0  0  0  0  0  0  0  0  0  # atno 17342 bound_to 10162
  140.1237  144.5351  150.6847 LP  0  0  0  0  0  0  0  0  0  0  0  0  # atno 17343 bound_to 10162
  157.0166  130.9967  151.3351 LP  0  0  0  0  0  0  0  0  0  0  0  0  # atno 17370 bound_to 10713
  157.5374  130.8097  149.7987 LP  0  0  0  0  0  0  0  0  0  0  0  0  # atno 17371 bound_to 10713
  140.8543  134.2917  157.5262 LP  0  0  0  0  0  0  0  0  0  0  0  0  # atno 17394 bound_to 11000
  139.8714  134.9484  156.3996 LP  0  0  0  0  0  0  0  0  0  0  0  0  # atno 17395 bound_to 11000

$$$$
