AV-unprocessed.smi:3263|AV-procd|sdf|12487|dock3
  -GOLD-   2272018383D 1   1.00000     0.00000
 Structure written by MMmdl.
 41 43  0  0  0  0  0  0  0  0  1 V2000
  153.8828  138.8570  157.7197 O   0  0  0  0  0  0  0  0  0  0  0  0
  152.7605  139.3405  157.5670 C   0  0  0  0  0  0  0  0  0  0  0  0
  151.9683  139.0879  156.2789 C   0  0  0  0  0  0  0  0  0  0  0  0
  150.6705  139.9203  156.1666 C   0  0  1  0  0  0  0  0  0  0  0  0
  150.8733  141.3352  155.5721 C   0  0  0  0  0  0  0  0  0  0  0  0
  149.8840  141.3642  154.3936 C   0  0  2  0  0  0  0  0  0  0  0  0
  148.4411  141.3817  154.9316 C   0  0  0  0  0  0  0  0  0  0  0  0
  148.2591  139.9461  155.4600 C   0  0  0  0  0  0  0  0  0  0  0  0
  149.6366  139.3093  155.1926 C   0  0  1  0  0  0  0  0  0  0  0  0
  150.0064  139.9446  153.8553 C   0  0  0  0  0  0  0  0  0  0  0  0
  152.1628  140.1189  158.4832 N   0  0  0  0  0  0  0  0  0  0  0  0
  152.7373  140.5135  159.7674 C   0  0  0  0  0  0  0  0  0  0  0  0
  153.5306  141.8323  159.6795 C   0  0  0  0  0  0  0  0  0  0  0  0
  152.6597  143.0594  159.4683 C   0  0  0  0  0  0  0  0  0  0  0  0
  152.2871  143.8768  160.5574 C   0  0  0  0  0  0  0  0  0  0  0  0
  151.4560  144.9863  160.3096 C   0  0  0  0  0  0  0  0  0  0  0  0
  151.0336  145.2360  158.9897 C   0  0  0  0  0  0  0  0  0  0  0  0
  151.4644  144.3621  157.9717 C   0  0  0  0  0  0  0  0  0  0  0  0
  152.2626  143.2965  158.1978 N   0  0  0  0  0  0  0  0  0  0  0  0
  152.6127  139.2811  155.4204 H   0  0  0  0  0  0  0  0  0  0  0  0
  151.7222  138.0260  156.2461 H   0  0  0  0  0  0  0  0  0  0  0  0
  150.2231  139.9937  157.1594 H   0  0  0  0  0  0  0  0  0  0  0  0
  150.6759  142.1222  156.3009 H   0  0  0  0  0  0  0  0  0  0  0  0
  151.8924  141.4728  155.2074 H   0  0  0  0  0  0  0  0  0  0  0  0
  150.0915  142.1519  153.6689 H   0  0  0  0  0  0  0  0  0  0  0  0
  148.3014  142.1323  155.7106 H   0  0  0  0  0  0  0  0  0  0  0  0
  147.7285  141.5900  154.1326 H   0  0  0  0  0  0  0  0  0  0  0  0
  147.9822  139.9204  156.5145 H   0  0  0  0  0  0  0  0  0  0  0  0
  147.4793  139.4291  154.8995 H   0  0  0  0  0  0  0  0  0  0  0  0
  149.6145  138.2191  155.1951 H   0  0  0  0  0  0  0  0  0  0  0  0
  149.2948  139.7216  153.0582 H   0  0  0  0  0  0  0  0  0  0  0  0
  151.0124  139.6954  153.5142 H   0  0  0  0  0  0  0  0  0  0  0  0
  151.2408  140.4720  158.2713 H   0  0  0  0  0  0  0  0  0  0  0  0
  151.9180  140.6326  160.4765 H   0  0  0  0  0  0  0  0  0  0  0  0
  153.3693  139.7190  160.1676 H   0  0  0  0  0  0  0  0  0  0  0  0
  154.1214  141.9657  160.5864 H   0  0  0  0  0  0  0  0  0  0  0  0
  154.2485  141.7701  158.8608 H   0  0  0  0  0  0  0  0  0  0  0  0
  152.6197  143.6538  161.5604 H   0  0  0  0  0  0  0  0  0  0  0  0
  151.1459  145.6320  161.1177 H   0  0  0  0  0  0  0  0  0  0  0  0
  150.3943  146.0763  158.7630 H   0  0  0  0  0  0  0  0  0  0  0  0
  151.1602  144.5233  156.9482 H   0  0  0  0  0  0  0  0  0  0  0  0
  1  2  2  0  0  0  0
  2  3  1  0  0  0  0
  2 11  1  0  0  0  0
  3  4  1  0  0  0  0
  3 20  1  0  0  0  0
  3 21  1  0  0  0  0
  4  9  1  0  0  0  0
  4  5  1  0  0  0  0
  4 22  1  0  0  0  0
  5  6  1  0  0  0  0
  5 23  1  0  0  0  0
  5 24  1  0  0  0  0
  6 10  1  0  0  0  0
  6  7  1  0  0  0  0
  6 25  1  0  0  0  0
  7  8  1  0  0  0  0
  7 26  1  0  0  0  0
  7 27  1  0  0  0  0
  8  9  1  0  0  0  0
  8 28  1  0  0  0  0
  8 29  1  0  0  0  0
  9 10  1  0  0  0  0
  9 30  1  0  0  0  0
 10 31  1  0  0  0  0
 10 32  1  0  0  0  0
 11 12  1  0  0  0  0
 11 33  1  0  0  0  0
 12 13  1  0  0  0  0
 12 34  1  0  0  0  0
 12 35  1  0  0  0  0
 13 14  1  0  0  0  0
 13 36  1  0  0  0  0
 13 37  1  0  0  0  0
 14 19  1  0  0  0  0
 14 15  2  0  0  0  0
 15 16  1  0  0  0  0
 15 38  1  0  0  0  0
 16 17  2  0  0  0  0
 16 39  1  0  0  0  0
 17 18  1  0  0  0  0
 17 40  1  0  0  0  0
 18 19  2  0  0  0  0
 18 41  1  0  0  0  0
M  END
> <s_m_source_file>
AV-unprocessed.smi

> <i_m_source_file_index>
3263

> <i_lp_mmshare_version>
43012

> <i_f3d_flags>
0

> <s_epik_input>
W0NIMl0xW0NIMl1bQ0BASF0oW0NIMl0yKVtDQEBIXShbQ0gyXVtDQEhdMTIpW0NIMl1DKD1PKVtOSF1bQ0gyXVtDSDJdYzNbY0hdW2NIXVtjSF1bY0hdbjM=

> <s_epik_cmdline>
J2VwaWtfcHl0aG9uJywgJy1waCcsICc3LjAnLCAnLXRuJywgJzgnLCAnLW1hJywgJzIwMCcsICctbWV0YWxfYmluZGluZycsICctaW1hZScsICc8aW5maWxlLm1hZT4nLCAnLW9tYWUnLCAnPG91dGZpbGUubWFlPic=

> <r_epik_Ionization_Penalty>
0.0273541

> <r_epik_Ionization_Penalty_Charging>
0

> <r_epik_Ionization_Penalty_Neutral>
0.0273541

> <r_epik_State_Penalty>
0.0223838

> <r_epik_Charging_Adjusted_Penalty>
0.0223838

> <i_epik_Tot_Q>
0

> <i_epik_Tot_abs_Q>
0

> <r_epik_Metal_State_Penalty>
0.0213927

> <b_epik_Metal_Only>
0

> <s_lp_Force_Field>
OPLS_2005

> <r_lp_Energy>
47.5771

> <b_lp_Chiralities_Consistent>
1

> <s_lp_Variant>
AV-unprocessed.smi:3263-2

> <Gold.Version>
5.8.1

> <Gold.Id.Protein>
6NUR|6NUR_protein|mol2

> <Gold.PLP.Fitness>
44.2393

> <Gold.PLP.PLP>
-39.8233

> <Gold.PLP.part.hbond>
-1.0000

> <Gold.PLP.part.metal>
0.0000

> <Gold.PLP.part.buried>
-3.4829

> <Gold.PLP.part.nonpolar>
-35.7222

> <Gold.PLP.part.repulsive>
0.1452

> <Gold.PLP.ligand.clash>
0.0000

> <Gold.PLP.ligand.torsion>
0.8333

> <Gold.PLP.Chemscore.Hbond>
1.0000

> <Gold.PLP.Chemscore.CHOScore>
1.0000

> <Gold.PLP.Chemscore.Metal>
0.0000

> <Gold.Chemscore.Hbonds>
donor molecule, donor type, donor heavy atom, donor atom, acceptor molecule, acceptor atom, score
      P1  H  7997  8009       L1     1  0.74
      L1  C    18    41       P1  8028  0.86

> <Gold.PLP.Chemscore.Internal.Correction>
0.0825

> <Gold.Rescore>
     Score         DG    S(hbond)    S(metal)    S(lipo)     H(rot)  DE(clash)    DE(int)     intcor
     17.80     -18.87       0.81        0.00     123.15       1.46       0.36       0.71       ----

> <Gold.Chemscore.Fitness>
17.7994

> <Gold.Chemscore.DG>
-18.8741

> <Gold.Chemscore.ZeroCoef>
-5.4800

> <Gold.Chemscore.Hbond>
0.8118

> <Gold.Chemscore.Metal>
0.0000

> <Gold.Chemscore.Lipo>
123.1509

> <Gold.Chemscore.Internal_Hbond>
0.0000

> <Gold.Chemscore.DEClash>
0.3639

> <Gold.Chemscore.DEInternal>
0.7108

> <Gold.Chemscore.Rot>
1.4555

> <Gold.Chemscore.Internal.Correction>
   9.000000E+99

> <Gold.Chemscore.Hbonds>
donor molecule, donor type, donor heavy atom, donor atom, acceptor molecule, acceptor atom, score
      P1  H  7997  8009       L1     1  0.09

> <Gold.Chemscore.Hbond.Weighted>
-2.7115

> <Gold.Chemscore.Metal.Weighted>
-0.0000

> <Gold.Chemscore.Lipo.Weighted>
-14.4087

> <Gold.Chemscore.Internal_Hbond.Weighted>
0.0000

> <Gold.Chemscore.DEClash.Weighted>
0.3639

> <Gold.Chemscore.DEInternal.Weighted>
0.7108

> <Gold.Chemscore.Rot.Weighted>
3.7260

> <Gold.Chemscore.Internal.Correction.Weighted>
   9.000000E+99

> <Gold.Protein.RotatedTorsions>
[ 6907 6896 6895 6894 ] final  -29.55 input  -60.11 | X-H torsion
[ 7974 7965 7964 7962 ] final  -82.97 input  175.53 | X-H torsion
[ 8008 7997 7996 7995 ] final  154.72 input   59.86 | X-H torsion
[ 10167 10162 10161 10158 ] final -103.20 input  -65.29 | X-H torsion
[ 10718 10713 10712 10709 ] final   12.69 input   66.30 | X-H torsion
[ 10763 10752 10751 10750 ] final  -18.49 input  -60.55 | X-H torsion
[ 11005 11000 10999 10996 ] final   40.01 input  -57.11 | X-H torsion

> <Gold.Protein.ActiveResidues>
 VAL166  LYS551  ARG553  GLY616  TRP617  ASP618  TYR619  PRO620  LYS621  CYS622 
 ASP623  PHE694  ASN695  SER759  ASP760  ASP761  ALA762  ILE779  LEU786  VAL792 
 PHE793  MET794  SER795  GLU796  ALA797  LYS798  CYS799  TRP800  GLU811  SER814 

> <Gold.Protein.RotatedAtoms>
  151.1176  135.0062  159.8523 H   0  0  0  0  0  0  0  0  0  0  0  0  # atno 6907 bound_to 6896
  152.5446  134.1760  159.8626 H   0  0  0  0  0  0  0  0  0  0  0  0  # atno 6908 bound_to 6896
  151.1816  133.4677  159.2627 H   0  0  0  0  0  0  0  0  0  0  0  0  # atno 6909 bound_to 6896
  145.5262  140.9526  143.1628 H   0  0  0  0  0  0  0  0  0  0  0  0  # atno 7974 bound_to 7965
  156.2516  140.1959  156.6690 H   0  0  0  0  0  0  0  0  0  0  0  0  # atno 8008 bound_to 7997
  154.6407  140.0584  156.9868 H   0  0  0  0  0  0  0  0  0  0  0  0  # atno 8009 bound_to 7997
  155.1567  140.3256  155.4422 H   0  0  0  0  0  0  0  0  0  0  0  0  # atno 8010 bound_to 7997
  140.2225  143.3665  152.0957 H   0  0  0  0  0  0  0  0  0  0  0  0  # atno 10167 bound_to 10162
  157.0138  130.6127  149.5711 H   0  0  0  0  0  0  0  0  0  0  0  0  # atno 10718 bound_to 10713
  153.5902  135.7002  153.5426 H   0  0  0  0  0  0  0  0  0  0  0  0  # atno 10763 bound_to 10752
  153.3185  135.4081  155.1396 H   0  0  0  0  0  0  0  0  0  0  0  0  # atno 10764 bound_to 10752
  154.8602  135.3689  154.5433 H   0  0  0  0  0  0  0  0  0  0  0  0  # atno 10765 bound_to 10752
  140.1973  134.3914  155.8115 H   0  0  0  0  0  0  0  0  0  0  0  0  # atno 11005 bound_to 11000
  144.7650  139.6867  143.7218 LP  0  0  0  0  0  0  0  0  0  0  0  0  # atno 17320 bound_to 7965
  146.2074  139.5407  142.9703 LP  0  0  0  0  0  0  0  0  0  0  0  0  # atno 17321 bound_to 7965
  139.5139  144.6939  151.5684 LP  0  0  0  0  0  0  0  0  0  0  0  0  # atno 17342 bound_to 10162
  140.6244  143.9196  150.6553 LP  0  0  0  0  0  0  0  0  0  0  0  0  # atno 17343 bound_to 10162
  156.0126  130.5219  150.8037 LP  0  0  0  0  0  0  0  0  0  0  0  0  # atno 17370 bound_to 10713
  157.5301  131.0936  150.9967 LP  0  0  0  0  0  0  0  0  0  0  0  0  # atno 17371 bound_to 10713
  141.2227  133.7076  156.8197 LP  0  0  0  0  0  0  0  0  0  0  0  0  # atno 17394 bound_to 11000
  140.2093  134.8839  157.3257 LP  0  0  0  0  0  0  0  0  0  0  0  0  # atno 17395 bound_to 11000

$$$$
