AV-unprocessed.smi:3148|AV-procd|sdf|11993|dock1
  -GOLD-   2272017393D 1   1.00000     0.00000
 Structure written by MMmdl.
 34 36  0  0  0  0  0  0  0  0  1 V2000
  154.0522  141.0713  160.7721 C   0  0  0  0  0  0  0  0  0  0  0  0
  153.1114  140.7999  159.7391 O   0  0  0  0  0  0  0  0  0  0  0  0
  152.4141  141.8612  159.2005 C   0  0  0  0  0  0  0  0  0  0  0  0
  152.6191  143.1582  159.7131 C   0  0  0  0  0  0  0  0  0  0  0  0
  151.8713  144.1945  159.1160 C   0  0  0  0  0  0  0  0  0  0  0  0
  151.9954  145.6296  159.5813 C   0  0  0  0  0  0  0  0  0  0  0  0
  151.0045  143.9577  158.1068 N   0  0  0  0  0  0  0  0  0  0  0  0
  150.8836  142.6934  157.6965 C   0  0  0  0  0  0  0  0  0  0  0  0
  149.9829  142.4851  156.6685 N   0  0  0  0  0  0  0  0  0  0  0  0
  149.5006  141.1727  156.2535 C   0  0  2  0  0  0  0  0  0  0  0  0
  149.7473  140.8809  154.7718 C   0  0  0  0  0  0  0  0  0  0  0  0
  148.3403  140.5015  154.2880 C   0  0  2  0  0  0  0  0  0  0  0  0
  147.4381  141.7355  154.1569 C   0  0  0  0  0  0  0  0  0  0  0  0
  147.1698  142.0805  155.6204 C   0  0  0  0  0  0  0  0  0  0  0  0
  147.9727  140.9939  156.3560 C   0  0  1  0  0  0  0  0  0  0  0  0
  147.8006  139.9103  155.4584 O   0  0  0  0  0  0  0  0  0  0  0  0
  151.5408  141.6367  158.1874 N   0  0  0  0  0  0  0  0  0  0  0  0
  154.5221  140.1393  161.0858 H   0  0  0  0  0  0  0  0  0  0  0  0
  153.5697  141.5094  161.6469 H   0  0  0  0  0  0  0  0  0  0  0  0
  154.8417  141.7406  160.4268 H   0  0  0  0  0  0  0  0  0  0  0  0
  153.3116  143.3434  160.5211 H   0  0  0  0  0  0  0  0  0  0  0  0
  152.8180  145.7441  160.2877 H   0  0  0  0  0  0  0  0  0  0  0  0
  151.0758  145.9472  160.0732 H   0  0  0  0  0  0  0  0  0  0  0  0
  152.1793  146.2917  158.7346 H   0  0  0  0  0  0  0  0  0  0  0  0
  149.5012  143.2980  156.3133 H   0  0  0  0  0  0  0  0  0  0  0  0
  149.9970  140.4056  156.8496 H   0  0  0  0  0  0  0  0  0  0  0  0
  150.1545  141.7275  154.2170 H   0  0  0  0  0  0  0  0  0  0  0  0
  150.4363  140.0429  154.6625 H   0  0  0  0  0  0  0  0  0  0  0  0
  148.3332  139.8537  153.4112 H   0  0  0  0  0  0  0  0  0  0  0  0
  147.9200  142.5474  153.6109 H   0  0  0  0  0  0  0  0  0  0  0  0
  146.5075  141.4851  153.6464 H   0  0  0  0  0  0  0  0  0  0  0  0
  147.4771  143.0931  155.8832 H   0  0  0  0  0  0  0  0  0  0  0  0
  146.1065  141.9856  155.8422 H   0  0  0  0  0  0  0  0  0  0  0  0
  147.6174  140.7929  157.3670 H   0  0  0  0  0  0  0  0  0  0  0  0
  1  2  1  0  0  0  0
  1 18  1  0  0  0  0
  1 19  1  0  0  0  0
  1 20  1  0  0  0  0
  2  3  1  0  0  0  0
  3 17  1  0  0  0  0
  3  4  2  0  0  0  0
  4  5  1  0  0  0  0
  4 21  1  0  0  0  0
  5  6  1  0  0  0  0
  5  7  2  0  0  0  0
  6 22  1  0  0  0  0
  6 23  1  0  0  0  0
  6 24  1  0  0  0  0
  7  8  1  0  0  0  0
  8  9  1  0  0  0  0
  8 17  2  0  0  0  0
  9 10  1  0  0  0  0
  9 25  1  0  0  0  0
 10 15  1  0  0  0  0
 10 11  1  0  0  0  0
 10 26  1  0  0  0  0
 11 12  1  0  0  0  0
 11 27  1  0  0  0  0
 11 28  1  0  0  0  0
 12 16  1  0  0  0  0
 12 13  1  0  0  0  0
 12 29  1  0  0  0  0
 13 14  1  0  0  0  0
 13 30  1  0  0  0  0
 13 31  1  0  0  0  0
 14 15  1  0  0  0  0
 14 32  1  0  0  0  0
 14 33  1  0  0  0  0
 15 16  1  0  0  0  0
 15 34  1  0  0  0  0
M  END
> <s_m_source_file>
AV-unprocessed.smi

> <i_m_source_file_index>
3148

> <i_lp_mmshare_version>
43012

> <i_f3d_flags>
0

> <s_epik_input>
W0NIM11PYzFbY0hdYyhbQ0gzXSluYyhuMSlbTkhdW0NASF0oW0NIMl1bQ0BASF0yMylbQ0BASF0oTzMpW0NIMl1bQ0gyXTI=

> <s_epik_cmdline>
J2VwaWtfcHl0aG9uJywgJy1waCcsICc3LjAnLCAnLXRuJywgJzgnLCAnLW1hJywgJzIwMCcsICctbWV0YWxfYmluZGluZycsICctaW1hZScsICc8aW5maWxlLm1hZT4nLCAnLW9tYWUnLCAnPG91dGZpbGUubWFlPic=

> <r_lp_tautomer_probability>
1

> <r_epik_Ionization_Penalty>
0.101645

> <r_epik_Ionization_Penalty_Charging>
0

> <r_epik_Ionization_Penalty_Neutral>
0.101645

> <r_epik_State_Penalty>
0.0916212

> <r_epik_Charging_Adjusted_Penalty>
0.0916212

> <i_epik_Tot_Q>
0

> <i_epik_Tot_abs_Q>
0

> <r_epik_Metal_State_Penalty>
0.0781

> <b_epik_Metal_Only>
0

> <s_lp_Force_Field>
OPLS_2005

> <r_lp_Energy>
31.5885

> <b_lp_Chiralities_Consistent>
1

> <s_lp_Variant>
AV-unprocessed.smi:3148-3

> <Gold.Version>
5.8.1

> <Gold.Id.Protein>
6NUR|6NUR_protein|mol2

> <Gold.PLP.Fitness>
37.4601

> <Gold.PLP.PLP>
-34.7573

> <Gold.PLP.part.hbond>
-1.0000

> <Gold.PLP.part.metal>
0.0000

> <Gold.PLP.part.buried>
-3.2400

> <Gold.PLP.part.nonpolar>
-30.8973

> <Gold.PLP.part.repulsive>
0.2271

> <Gold.PLP.ligand.clash>
0.2123

> <Gold.PLP.ligand.torsion>
0.0475

> <Gold.PLP.Chemscore.Hbond>
1.0000

> <Gold.PLP.Chemscore.CHOScore>
0.0000

> <Gold.PLP.Chemscore.Metal>
0.0000

> <Gold.Chemscore.Hbonds>
donor molecule, donor type, donor heavy atom, donor atom, acceptor molecule, acceptor atom, score
      L1  H     9    25       P1  8028  1.00

> <Gold.PLP.Chemscore.Internal.Correction>
0.0100

> <Gold.Rescore>
     Score         DG    S(hbond)    S(metal)    S(lipo)     H(rot)  DE(clash)    DE(int)     intcor
     15.12     -15.45       1.00        0.00      83.55       1.22       0.24       0.09       ----

> <Gold.Chemscore.Fitness>
15.1165

> <Gold.Chemscore.DG>
-15.4491

> <Gold.Chemscore.ZeroCoef>
-5.4800

> <Gold.Chemscore.Hbond>
0.9955

> <Gold.Chemscore.Metal>
0.0000

> <Gold.Chemscore.Lipo>
83.5521

> <Gold.Chemscore.Internal_Hbond>
0.0000

> <Gold.Chemscore.DEClash>
0.2438

> <Gold.Chemscore.DEInternal>
0.0888

> <Gold.Chemscore.Rot>
1.2232

> <Gold.Chemscore.Internal.Correction>
   9.000000E+99

> <Gold.Chemscore.Hbonds>
donor molecule, donor type, donor heavy atom, donor atom, acceptor molecule, acceptor atom, score
      L1  H     9    25       P1  8028  1.00

> <Gold.Chemscore.Hbond.Weighted>
-3.3249

> <Gold.Chemscore.Metal.Weighted>
-0.0000

> <Gold.Chemscore.Lipo.Weighted>
-9.7756

> <Gold.Chemscore.Internal_Hbond.Weighted>
0.0000

> <Gold.Chemscore.DEClash.Weighted>
0.2438

> <Gold.Chemscore.DEInternal.Weighted>
0.0888

> <Gold.Chemscore.Rot.Weighted>
3.1314

> <Gold.Chemscore.Internal.Correction.Weighted>
   9.000000E+99

> <Gold.Protein.RotatedTorsions>
[ 6907 6896 6895 6894 ] final   71.19 input  -60.11 | X-H torsion
[ 7974 7965 7964 7962 ] final -142.46 input  175.53 | X-H torsion
[ 8008 7997 7996 7995 ] final -179.83 input   59.86 | X-H torsion
[ 10167 10162 10161 10158 ] final -156.73 input  -65.29 | X-H torsion
[ 10718 10713 10712 10709 ] final   85.61 input   66.30 | X-H torsion
[ 10763 10752 10751 10750 ] final  134.01 input  -60.55 | X-H torsion
[ 11005 11000 10999 10996 ] final   60.34 input  -57.11 | X-H torsion

> <Gold.Protein.ActiveResidues>
 VAL166  LYS551  ARG553  GLY616  TRP617  ASP618  TYR619  PRO620  LYS621  CYS622 
 ASP623  PHE694  ASN695  SER759  ASP760  ASP761  ALA762  ILE779  LEU786  VAL792 
 PHE793  MET794  SER795  GLU796  ALA797  LYS798  CYS799  TRP800  GLU811  SER814 

> <Gold.Protein.RotatedAtoms>
  152.4795  134.4757  159.9649 H   0  0  0  0  0  0  0  0  0  0  0  0  # atno 6907 bound_to 6896
  151.4766  133.3550  159.2839 H   0  0  0  0  0  0  0  0  0  0  0  0  # atno 6908 bound_to 6896
  150.8857  134.8280  159.7318 H   0  0  0  0  0  0  0  0  0  0  0  0  # atno 6909 bound_to 6896
  144.8441  140.5955  143.5433 H   0  0  0  0  0  0  0  0  0  0  0  0  # atno 7974 bound_to 7965
  156.0350  140.1290  157.0217 H   0  0  0  0  0  0  0  0  0  0  0  0  # atno 8008 bound_to 7997
  154.4366  140.1042  156.6225 H   0  0  0  0  0  0  0  0  0  0  0  0  # atno 8009 bound_to 7997
  155.5750  140.3467  155.4527 H   0  0  0  0  0  0  0  0  0  0  0  0  # atno 8010 bound_to 7997
  139.6827  143.9554  152.2345 H   0  0  0  0  0  0  0  0  0  0  0  0  # atno 10167 bound_to 10162
  157.6917  131.0182  150.2848 H   0  0  0  0  0  0  0  0  0  0  0  0  # atno 10718 bound_to 10713
  153.8165  135.3122  155.3406 H   0  0  0  0  0  0  0  0  0  0  0  0  # atno 10763 bound_to 10752
  154.8030  135.4715  154.0326 H   0  0  0  0  0  0  0  0  0  0  0  0  # atno 10764 bound_to 10752
  153.1721  135.6879  153.8683 H   0  0  0  0  0  0  0  0  0  0  0  0  # atno 10765 bound_to 10752
  140.0239  134.6112  155.9601 H   0  0  0  0  0  0  0  0  0  0  0  0  # atno 11005 bound_to 11000
  145.4632  139.1510  143.3855 LP  0  0  0  0  0  0  0  0  0  0  0  0  # atno 17320 bound_to 7965
  146.2729  140.4763  142.8807 LP  0  0  0  0  0  0  0  0  0  0  0  0  # atno 17321 bound_to 7965
  139.9348  144.6718  150.8325 LP  0  0  0  0  0  0  0  0  0  0  0  0  # atno 17342 bound_to 10162
  140.7657  143.3284  151.2465 LP  0  0  0  0  0  0  0  0  0  0  0  0  # atno 17343 bound_to 10162
  156.3389  130.3812  149.7426 LP  0  0  0  0  0  0  0  0  0  0  0  0  # atno 17370 bound_to 10713
  156.4942  130.8099  151.3107 LP  0  0  0  0  0  0  0  0  0  0  0  0  # atno 17371 bound_to 10713
  141.1791  133.6544  156.4945 LP  0  0  0  0  0  0  0  0  0  0  0  0  # atno 17394 bound_to 11000
  140.4340  134.7076  157.4957 LP  0  0  0  0  0  0  0  0  0  0  0  0  # atno 17395 bound_to 11000

$$$$
