AV-unprocessed.smi:212|AV-procd|sdf|1630|dock3
  -GOLD-   2262019583D 1   1.00000     0.00000
 Structure written by MMmdl.
 65 68  0  0  0  0  0  0  0  0  2 V2000
  147.2768  130.8849  153.0162 C   0  0  0  0  0  0  0  0  0  0  0  0
  147.7607  132.3448  153.0073 C   0  0  1  0  0  0  0  0  0  0  0  0
  147.2186  133.1307  151.7940 C   0  0  0  0  0  0  0  0  0  0  0  0
  145.7708  133.4333  151.9379 N   0  3  2  0  0  0  0  0  0  0  0  0
  145.1825  134.0783  150.7347 C   0  0  0  0  0  0  0  0  0  0  0  0
  144.5763  133.0508  149.7504 C   0  0  0  0  0  0  0  0  0  0  0  0
  145.6767  132.1236  149.2078 C   0  0  0  0  0  0  0  0  0  0  0  0
  143.4493  132.2204  150.3927 C   0  0  0  0  0  0  0  0  0  0  0  0
  144.0424  133.7387  148.6363 O   0  0  0  0  0  0  0  0  0  0  0  0
  145.4714  134.1573  153.1996 C   0  0  0  0  0  0  0  0  0  0  0  0
  146.0026  133.3815  154.4184 C   0  0  0  0  0  0  0  0  0  0  0  0
  147.4153  133.0348  154.2528 N   0  0  0  0  0  0  0  0  0  0  0  0
  148.3593  133.8748  154.7532 C   0  0  0  0  0  0  0  0  0  0  0  0
  149.6016  133.4044  155.0435 N   0  0  0  0  0  0  0  0  0  0  0  0
  150.5336  134.2200  155.5454 C   0  0  0  0  0  0  0  0  0  0  0  0
  150.4392  135.5202  155.8284 N   0  0  0  0  0  0  0  0  0  0  0  0
  149.1989  136.0012  155.5297 C   0  0  0  0  0  0  0  0  0  0  0  0
  148.1104  135.2555  154.9958 C   0  0  0  0  0  0  0  0  0  0  0  0
  147.0107  136.0875  154.8174 N   0  0  0  0  0  0  0  0  0  0  0  0
  147.4229  137.2552  155.2304 C   0  0  0  0  0  0  0  0  0  0  0  0
  148.7272  137.2938  155.6686 N   0  0  0  0  0  0  0  0  0  0  0  0
  149.4451  138.4492  156.1769 C   0  0  0  0  0  0  0  0  0  0  0  0
  149.6879  139.5280  155.0900 C   0  0  1  0  0  0  0  0  0  0  0  0
  148.3574  140.0089  154.4666 C   0  0  0  0  0  0  0  0  0  0  0  0
  148.5848  140.7853  153.3089 O   0  0  0  0  0  0  0  0  0  0  0  0
  150.5612  140.7142  155.5836 C   0  0  1  0  0  0  0  0  0  0  0  0
  149.9036  141.6795  156.5642 C   0  0  0  0  0  0  0  0  0  0  0  0
  151.1020  142.2290  157.3247 C   0  0  0  0  0  0  0  0  0  0  0  0
  151.9175  141.0811  157.4902 O   0  0  0  0  0  0  0  0  0  0  0  0
  151.8744  140.3232  156.2857 C   0  0  0  0  0  0  0  0  0  0  0  0
  147.5937  130.3645  152.1121 H   0  0  0  0  0  0  0  0  0  0  0  0
  146.1906  130.8122  153.0725 H   0  0  0  0  0  0  0  0  0  0  0  0
  147.6913  130.3441  153.8674 H   0  0  0  0  0  0  0  0  0  0  0  0
  148.8441  132.3087  152.8950 H   0  0  0  0  0  0  0  0  0  0  0  0
  147.7655  134.0696  151.6898 H   0  0  0  0  0  0  0  0  0  0  0  0
  147.3919  132.5626  150.8789 H   0  0  0  0  0  0  0  0  0  0  0  0
  144.4329  134.8147  151.0306 H   0  0  0  0  0  0  0  0  0  0  0  0
  145.9507  134.6468  150.2077 H   0  0  0  0  0  0  0  0  0  0  0  0
  146.1367  131.5461  150.0107 H   0  0  0  0  0  0  0  0  0  0  0  0
  146.4685  132.6891  148.7146 H   0  0  0  0  0  0  0  0  0  0  0  0
  145.2790  131.4134  148.4816 H   0  0  0  0  0  0  0  0  0  0  0  0
  143.8114  131.6756  151.2652 H   0  0  0  0  0  0  0  0  0  0  0  0
  143.0484  131.4869  149.6919 H   0  0  0  0  0  0  0  0  0  0  0  0
  142.6167  132.8455  150.7169 H   0  0  0  0  0  0  0  0  0  0  0  0
  144.7573  134.0939  148.1295 H   0  0  0  0  0  0  0  0  0  0  0  0
  145.9200  135.1508  153.1601 H   0  0  0  0  0  0  0  0  0  0  0  0
  144.3960  134.3023  153.3021 H   0  0  0  0  0  0  0  0  0  0  0  0
  145.8428  133.9511  155.3350 H   0  0  0  0  0  0  0  0  0  0  0  0
  145.4347  132.4595  154.5419 H   0  0  0  0  0  0  0  0  0  0  0  0
  151.4924  133.7664  155.7489 H   0  0  0  0  0  0  0  0  0  0  0  0
  146.7854  138.1274  155.2189 H   0  0  0  0  0  0  0  0  0  0  0  0
  148.8748  138.8613  157.0094 H   0  0  0  0  0  0  0  0  0  0  0  0
  150.3835  138.0895  156.5973 H   0  0  0  0  0  0  0  0  0  0  0  0
  150.2545  139.0487  154.2900 H   0  0  0  0  0  0  0  0  0  0  0  0
  147.7371  139.1640  154.1688 H   0  0  0  0  0  0  0  0  0  0  0  0
  147.7784  140.5903  155.1846 H   0  0  0  0  0  0  0  0  0  0  0  0
  149.1218  140.2863  152.7122 H   0  0  0  0  0  0  0  0  0  0  0  0
  150.8575  141.3022  154.7137 H   0  0  0  0  0  0  0  0  0  0  0  0
  149.3238  142.4591  156.0692 H   0  0  0  0  0  0  0  0  0  0  0  0
  149.2470  141.1646  157.2639 H   0  0  0  0  0  0  0  0  0  0  0  0
  151.6330  142.9772  156.7340 H   0  0  0  0  0  0  0  0  0  0  0  0
  150.8288  142.6717  158.2827 H   0  0  0  0  0  0  0  0  0  0  0  0
  151.9524  139.2600  156.5106 H   0  0  0  0  0  0  0  0  0  0  0  0
  152.7310  140.5848  155.6628 H   0  0  0  0  0  0  0  0  0  0  0  0
  145.3127  132.5366  152.0155 H   0  0  0  0  0  0  0  0  0  0  0  0
  1  2  1  0  0  0  0
  1 31  1  0  0  0  0
  1 32  1  0  0  0  0
  1 33  1  0  0  0  0
  2 12  1  0  0  0  0
  2  3  1  0  0  0  0
  2 34  1  0  0  0  0
  3  4  1  0  0  0  0
  3 35  1  0  0  0  0
  3 36  1  0  0  0  0
  4  5  1  0  0  0  0
  4 10  1  0  0  0  0
  4 65  1  0  0  0  0
  5  6  1  0  0  0  0
  5 37  1  0  0  0  0
  5 38  1  0  0  0  0
  6  7  1  0  0  0  0
  6  8  1  0  0  0  0
  6  9  1  0  0  0  0
  7 39  1  0  0  0  0
  7 40  1  0  0  0  0
  7 41  1  0  0  0  0
  8 42  1  0  0  0  0
  8 43  1  0  0  0  0
  8 44  1  0  0  0  0
  9 45  1  0  0  0  0
 10 11  1  0  0  0  0
 10 46  1  0  0  0  0
 10 47  1  0  0  0  0
 11 12  1  0  0  0  0
 11 48  1  0  0  0  0
 11 49  1  0  0  0  0
 12 13  1  0  0  0  0
 13 18  1  0  0  0  0
 13 14  2  0  0  0  0
 14 15  1  0  0  0  0
 15 16  2  0  0  0  0
 15 50  1  0  0  0  0
 16 17  1  0  0  0  0
 17 21  1  0  0  0  0
 17 18  2  0  0  0  0
 18 19  1  0  0  0  0
 19 20  2  0  0  0  0
 20 21  1  0  0  0  0
 20 51  1  0  0  0  0
 21 22  1  0  0  0  0
 22 23  1  0  0  0  0
 22 52  1  0  0  0  0
 22 53  1  0  0  0  0
 23 24  1  0  0  0  0
 23 26  1  0  0  0  0
 23 54  1  0  0  0  0
 24 25  1  0  0  0  0
 24 55  1  0  0  0  0
 24 56  1  0  0  0  0
 25 57  1  0  0  0  0
 26 30  1  0  0  0  0
 26 27  1  0  0  0  0
 26 58  1  0  0  0  0
 27 28  1  0  0  0  0
 27 59  1  0  0  0  0
 27 60  1  0  0  0  0
 28 29  1  0  0  0  0
 28 61  1  0  0  0  0
 28 62  1  0  0  0  0
 29 30  1  0  0  0  0
 30 63  1  0  0  0  0
 30 64  1  0  0  0  0
M  CHG  1   4   1
M  END
> <s_m_source_file>
AV-unprocessed.smi

> <i_m_source_file_index>
212

> <i_lp_mmshare_version>
43012

> <i_f3d_flags>
0

> <s_epik_input>
W0NIM11bQ0BASF0xW0NIMl1OKFtDSDJdQyhbQ0gzXSkoW0NIM10pW09IXSlbQ0gyXVtDSDJdTjFjKG5bY0hdbjIpYyhjMjMpbltjSF1uM1tDSDJdW0NASF0oW0NIMl1bT0hdKVtDQEBIXTRbQ0gyXVtDSDJdT1tDSDJdNA==

> <s_epik_cmdline>
J2VwaWtfcHl0aG9uJywgJy1waCcsICc3LjAnLCAnLXRuJywgJzgnLCAnLW1hJywgJzIwMCcsICctbWV0YWxfYmluZGluZycsICctaW1hZScsICc8aW5maWxlLm1hZT4nLCAnLW9tYWUnLCAnPG91dGZpbGUubWFlPic=

> <r_lp_tautomer_probability>
1

> <r_epik_Ionization_Penalty>
0.00182193

> <r_epik_Ionization_Penalty_Charging>
0.00173996

> <r_epik_Ionization_Penalty_Neutral>
8.19718e-05

> <r_epik_State_Penalty>
-0

> <r_epik_Charging_Adjusted_Penalty>
0.00173996

> <i_epik_Tot_Q>
1

> <i_epik_Tot_abs_Q>
1

> <r_epik_Metal_State_Penalty>
-0

> <b_epik_Metal_Only>
0

> <s_lp_Force_Field>
OPLS_2005

> <r_lp_Energy>
60.3061

> <b_lp_Chiralities_Consistent>
1

> <s_lp_Variant>
AV-unprocessed.smi:212-14

> <Gold.Version>
5.8.1

> <Gold.Id.Protein>
6NUR|6NUR_protein|mol2

> <Gold.PLP.Fitness>
47.0886

> <Gold.PLP.PLP>
-42.4319

> <Gold.PLP.part.hbond>
-3.1385

> <Gold.PLP.part.metal>
0.0000

> <Gold.PLP.part.buried>
-5.8082

> <Gold.PLP.part.nonpolar>
-33.8710

> <Gold.PLP.part.repulsive>
0.2088

> <Gold.PLP.ligand.clash>
0.0000

> <Gold.PLP.ligand.torsion>
1.3158

> <Gold.PLP.Chemscore.Hbond>
2.0000

> <Gold.PLP.Chemscore.CHOScore>
0.0000

> <Gold.PLP.Chemscore.Metal>
0.0000

> <Gold.Chemscore.Hbonds>
donor molecule, donor type, donor heavy atom, donor atom, acceptor molecule, acceptor atom, score
      L1  H     9    45       P1  7921  1.00
      L1  H    25    57       P1  7957  0.94

> <Gold.PLP.Chemscore.Internal.Correction>
1.2882

> <Gold.Rescore>
     Score         DG    S(hbond)    S(metal)    S(lipo)     H(rot)  DE(clash)    DE(int)     intcor
     11.70     -15.70       1.95        0.00     105.94       3.40       0.33       3.67       ----

> <Gold.Chemscore.Fitness>
11.6953

> <Gold.Chemscore.DG>
-15.7017

> <Gold.Chemscore.ZeroCoef>
-5.4800

> <Gold.Chemscore.Hbond>
1.9541

> <Gold.Chemscore.Metal>
0.0000

> <Gold.Chemscore.Lipo>
105.9443

> <Gold.Chemscore.Internal_Hbond>
0.0000

> <Gold.Chemscore.DEClash>
0.3325

> <Gold.Chemscore.DEInternal>
3.6739

> <Gold.Chemscore.Rot>
3.3986

> <Gold.Chemscore.Internal.Correction>
   9.000000E+99

> <Gold.Chemscore.Hbonds>
donor molecule, donor type, donor heavy atom, donor atom, acceptor molecule, acceptor atom, score
      L1  H     9    45       P1  7921  0.99
      L1  H    25    57       P1  7957  0.91

> <Gold.Chemscore.Hbond.Weighted>
-6.5267

> <Gold.Chemscore.Metal.Weighted>
-0.0000

> <Gold.Chemscore.Lipo.Weighted>
-12.3955

> <Gold.Chemscore.Internal_Hbond.Weighted>
0.0000

> <Gold.Chemscore.DEClash.Weighted>
0.3325

> <Gold.Chemscore.DEInternal.Weighted>
3.6739

> <Gold.Chemscore.Rot.Weighted>
8.7005

> <Gold.Chemscore.Internal.Correction.Weighted>
   9.000000E+99

> <Gold.Protein.RotatedTorsions>
[ 6907 6896 6895 6894 ] final    5.15 input  -60.11 | X-H torsion
[ 7974 7965 7964 7962 ] final -148.89 input  175.53 | X-H torsion
[ 8008 7997 7996 7995 ] final -171.84 input   59.86 | X-H torsion
[ 10167 10162 10161 10158 ] final -153.88 input  -65.29 | X-H torsion
[ 10718 10713 10712 10709 ] final   97.08 input   66.30 | X-H torsion
[ 10763 10752 10751 10750 ] final -136.40 input  -60.55 | X-H torsion
[ 11005 11000 10999 10996 ] final  -62.47 input  -57.11 | X-H torsion

> <Gold.Protein.ActiveResidues>
 VAL166  LYS551  ARG553  GLY616  TRP617  ASP618  TYR619  PRO620  LYS621  CYS622 
 ASP623  PHE694  ASN695  SER759  ASP760  ASP761  ALA762  ILE779  LEU786  VAL792 
 PHE793  MET794  SER795  GLU796  ALA797  LYS798  CYS799  TRP800  GLU811  SER814 

> <Gold.Protein.RotatedAtoms>
  151.6528  135.0999  160.0163 H   0  0  0  0  0  0  0  0  0  0  0  0  # atno 6907 bound_to 6896
  152.3991  133.6786  159.6309 H   0  0  0  0  0  0  0  0  0  0  0  0  # atno 6908 bound_to 6896
  150.7893  133.8739  159.3307 H   0  0  0  0  0  0  0  0  0  0  0  0  # atno 6909 bound_to 6896
  144.8001  140.5136  143.5713 H   0  0  0  0  0  0  0  0  0  0  0  0  # atno 7974 bound_to 7965
  155.9368  140.1101  157.1088 H   0  0  0  0  0  0  0  0  0  0  0  0  # atno 8008 bound_to 7997
  154.4081  140.1227  156.4940 H   0  0  0  0  0  0  0  0  0  0  0  0  # atno 8009 bound_to 7997
  155.7012  140.3472  155.4936 H   0  0  0  0  0  0  0  0  0  0  0  0  # atno 8010 bound_to 7997
  139.7060  143.9186  152.2448 H   0  0  0  0  0  0  0  0  0  0  0  0  # atno 10167 bound_to 10162
  157.6918  131.0598  150.4589 H   0  0  0  0  0  0  0  0  0  0  0  0  # atno 10718 bound_to 10713
  154.8684  135.3674  154.5055 H   0  0  0  0  0  0  0  0  0  0  0  0  # atno 10763 bound_to 10752
  153.5693  135.7021  153.5517 H   0  0  0  0  0  0  0  0  0  0  0  0  # atno 10764 bound_to 10752
  153.3557  135.4060  155.1643 H   0  0  0  0  0  0  0  0  0  0  0  0  # atno 10765 bound_to 10752
  141.1361  133.6640  156.5532 H   0  0  0  0  0  0  0  0  0  0  0  0  # atno 11005 bound_to 11000
  145.5575  139.1478  143.3360 LP  0  0  0  0  0  0  0  0  0  0  0  0  # atno 17320 bound_to 7965
  146.2280  140.5711  142.8988 LP  0  0  0  0  0  0  0  0  0  0  0  0  # atno 17321 bound_to 7965
  139.9042  144.6894  150.8632 LP  0  0  0  0  0  0  0  0  0  0  0  0  # atno 17342 bound_to 10162
  140.7721  143.3491  151.2050 LP  0  0  0  0  0  0  0  0  0  0  0  0  # atno 17343 bound_to 10162
  156.4935  130.4100  149.6393 LP  0  0  0  0  0  0  0  0  0  0  0  0  # atno 17370 bound_to 10713
  156.3395  130.7374  151.2317 LP  0  0  0  0  0  0  0  0  0  0  0  0  # atno 17371 bound_to 10713
  140.4047  134.7325  157.4800 LP  0  0  0  0  0  0  0  0  0  0  0  0  # atno 17394 bound_to 11000
  140.0470  134.6184  155.8908 LP  0  0  0  0  0  0  0  0  0  0  0  0  # atno 17395 bound_to 11000

$$$$
