AV-unprocessed.smi:742|AV-procd|sdf|3558|dock3
  -GOLD-   22720 0553D 1   1.00000     0.00000
 Structure written by MMmdl.
 25 25  0  0  0  0  0  0  0  0  2 V2000
  145.3528  138.2896  151.5337 N   0  3  0  0  0  0  0  0  0  0  0  0
  146.5901  139.0485  151.2886 C   0  0  0  0  0  0  0  0  0  0  0  0
  147.1913  139.5716  152.6013 C   0  0  0  0  0  0  0  0  0  0  0  0
  148.0416  138.5559  153.2227 N   0  0  0  0  0  0  0  0  0  0  0  0
  148.4240  138.5895  154.9075 S   0  0  0  0  0  0  0  0  0  0  0  0
  147.2161  139.0031  155.6389 O   0  0  0  0  0  0  0  0  0  0  0  0
  149.0829  137.3124  155.2185 O   0  0  0  0  0  0  0  0  0  0  0  0
  149.6965  139.9261  155.0053 C   0  0  0  0  0  0  0  0  0  0  0  0
  151.0239  139.3719  155.4420 C   0  0  0  0  0  0  0  0  0  0  0  0
  151.8261  138.3931  154.7918 C   0  0  0  0  0  0  0  0  0  0  0  0
  152.9046  138.2639  155.6187 C   0  0  0  0  0  0  0  0  0  0  0  0
  152.7832  139.0877  156.6897 O   0  0  0  0  0  0  0  0  0  0  0  0
  151.5767  139.7866  156.5711 N   0  0  0  0  0  0  0  0  0  0  0  0
  144.6887  138.8765  152.0181 H   0  0  0  0  0  0  0  0  0  0  0  0
  145.5591  137.4781  152.0983 H   0  0  0  0  0  0  0  0  0  0  0  0
  147.2926  138.3949  150.7714 H   0  0  0  0  0  0  0  0  0  0  0  0
  146.3685  139.8768  150.6149 H   0  0  0  0  0  0  0  0  0  0  0  0
  147.7899  140.4637  152.4154 H   0  0  0  0  0  0  0  0  0  0  0  0
  146.4026  139.8555  153.2986 H   0  0  0  0  0  0  0  0  0  0  0  0
  148.0612  137.6348  152.7852 H   0  0  0  0  0  0  0  0  0  0  0  0
  149.7788  140.3809  154.0176 H   0  0  0  0  0  0  0  0  0  0  0  0
  149.3398  140.6963  155.6888 H   0  0  0  0  0  0  0  0  0  0  0  0
  151.6399  137.8696  153.8658 H   0  0  0  0  0  0  0  0  0  0  0  0
  153.7972  137.6569  155.5853 H   0  0  0  0  0  0  0  0  0  0  0  0
  144.9584  137.9957  150.6512 H   0  0  0  0  0  0  0  0  0  0  0  0
  1  2  1  0  0  0  0
  1 14  1  0  0  0  0
  1 15  1  0  0  0  0
  1 25  1  0  0  0  0
  2  3  1  0  0  0  0
  2 16  1  0  0  0  0
  2 17  1  0  0  0  0
  3  4  1  0  0  0  0
  3 18  1  0  0  0  0
  3 19  1  0  0  0  0
  4  5  1  0  0  0  0
  4 20  1  0  0  0  0
  5  6  2  0  0  0  0
  5  7  2  0  0  0  0
  5  8  1  0  0  0  0
  8  9  1  0  0  0  0
  8 21  1  0  0  0  0
  8 22  1  0  0  0  0
  9 13  2  0  0  0  0
  9 10  1  0  0  0  0
 10 11  2  0  0  0  0
 10 23  1  0  0  0  0
 11 12  1  0  0  0  0
 11 24  1  0  0  0  0
 12 13  1  0  0  0  0
M  CHG  1   1   1
M  END
> <s_m_source_file>
AV-unprocessed.smi

> <i_m_source_file_index>
742

> <i_lp_mmshare_version>
43012

> <i_f3d_flags>
0

> <s_epik_input>
W05IMl1bQ0gyXVtDSDJdW05IXVMoPU8pKD1PKVtDSDJdYzFbY0hdW2NIXW9uMQ==

> <s_epik_cmdline>
J2VwaWtfcHl0aG9uJywgJy1waCcsICc3LjAnLCAnLXRuJywgJzgnLCAnLW1hJywgJzIwMCcsICctbWV0YWxfYmluZGluZycsICctaW1hZScsICc8aW5maWxlLm1hZT4nLCAnLW9tYWUnLCAnPG91dGZpbGUubWFlPic=

> <r_lp_tautomer_probability>
1

> <r_epik_Ionization_Penalty>
0.00734165

> <r_epik_Ionization_Penalty_Charging>
0.00580839

> <r_epik_Ionization_Penalty_Neutral>
0.00153326

> <r_epik_State_Penalty>
-0

> <r_epik_Charging_Adjusted_Penalty>
0.00580839

> <i_epik_Tot_Q>
1

> <i_epik_Tot_abs_Q>
1

> <r_epik_Metal_State_Penalty>
0.322493

> <b_epik_Metal_Only>
0

> <s_lp_Force_Field>
OPLS_2005

> <r_lp_Energy>
-3.29025

> <b_lp_Chiralities_Consistent>
1

> <s_lp_Variant>
AV-unprocessed.smi:742-1

> <Gold.Version>
5.8.1

> <Gold.Id.Protein>
6NUR|6NUR_protein|mol2

> <Gold.PLP.Fitness>
36.5224

> <Gold.PLP.PLP>
-23.0594

> <Gold.PLP.part.hbond>
-4.5507

> <Gold.PLP.part.metal>
0.0000

> <Gold.PLP.part.buried>
1.5063

> <Gold.PLP.part.nonpolar>
-20.0165

> <Gold.PLP.part.repulsive>
0.2259

> <Gold.PLP.ligand.clash>
0.0000

> <Gold.PLP.ligand.torsion>
0.8741

> <Gold.PLP.Chemscore.Hbond>
4.7040

> <Gold.PLP.Chemscore.CHOScore>
0.0000

> <Gold.PLP.Chemscore.Metal>
0.0000

> <Gold.Chemscore.Hbonds>
donor molecule, donor type, donor heavy atom, donor atom, acceptor molecule, acceptor atom, score
      L1  H     1    14       P1 10175  2.00
      L1  H     1    25       P1 10171  0.57
      L1  H     4    20       P1  7948  1.00
      P1  H  7997  8010       L1    12  0.62

> <Gold.PLP.Chemscore.Internal.Correction>
1.0992

> <Gold.Rescore>
     Score         DG    S(hbond)    S(metal)    S(lipo)     H(rot)  DE(clash)    DE(int)     intcor
     14.41     -16.90       3.39        0.00      50.62       2.28       0.42       2.07       ----

> <Gold.Chemscore.Fitness>
14.4123

> <Gold.Chemscore.DG>
-16.8984

> <Gold.Chemscore.ZeroCoef>
-5.4800

> <Gold.Chemscore.Hbond>
3.3929

> <Gold.Chemscore.Metal>
0.0000

> <Gold.Chemscore.Lipo>
50.6178

> <Gold.Chemscore.Internal_Hbond>
0.0000

> <Gold.Chemscore.DEClash>
0.4197

> <Gold.Chemscore.DEInternal>
2.0664

> <Gold.Chemscore.Rot>
2.2798

> <Gold.Chemscore.Internal.Correction>
   9.000000E+99

> <Gold.Chemscore.Hbonds>
donor molecule, donor type, donor heavy atom, donor atom, acceptor molecule, acceptor atom, score
      L1  H     1    14       P1 10175  0.99
      L1  H     1    25       P1 10171  0.54
      L1  H     4    20       P1  7948  0.95
      P1  H  7997  8010       L1    12  0.04

> <Gold.Chemscore.Hbond.Weighted>
-11.3323

> <Gold.Chemscore.Metal.Weighted>
-0.0000

> <Gold.Chemscore.Lipo.Weighted>
-5.9223

> <Gold.Chemscore.Internal_Hbond.Weighted>
0.0000

> <Gold.Chemscore.DEClash.Weighted>
0.4197

> <Gold.Chemscore.DEInternal.Weighted>
2.0664

> <Gold.Chemscore.Rot.Weighted>
5.8362

> <Gold.Chemscore.Internal.Correction.Weighted>
   9.000000E+99

> <Gold.Protein.RotatedTorsions>
[ 6907 6896 6895 6894 ] final   35.08 input  -60.11 | X-H torsion
[ 7974 7965 7964 7962 ] final  116.87 input  175.53 | X-H torsion
[ 8008 7997 7996 7995 ] final   88.61 input   59.86 | X-H torsion
[ 10167 10162 10161 10158 ] final   20.85 input  -65.29 | X-H torsion
[ 10718 10713 10712 10709 ] final  157.66 input   66.30 | X-H torsion
[ 10763 10752 10751 10750 ] final   69.31 input  -60.55 | X-H torsion
[ 11005 11000 10999 10996 ] final   97.91 input  -57.11 | X-H torsion

> <Gold.Protein.ActiveResidues>
 VAL166  LYS551  ARG553  GLY616  TRP617  ASP618  TYR619  PRO620  LYS621  CYS622 
 ASP623  PHE694  ASN695  SER759  ASP760  ASP761  ALA762  ILE779  LEU786  VAL792 
 PHE793  MET794  SER795  GLU796  ALA797  LYS798  CYS799  TRP800  GLU811  SER814 

> <Gold.Protein.RotatedAtoms>
  152.1113  134.9272  160.0566 H   0  0  0  0  0  0  0  0  0  0  0  0  # atno 6907 bound_to 6896
  152.0449  133.3988  159.4360 H   0  0  0  0  0  0  0  0  0  0  0  0  # atno 6908 bound_to 6896
  150.6843  134.3294  159.4864 H   0  0  0  0  0  0  0  0  0  0  0  0  # atno 6909 bound_to 6896
  145.1743  139.3084  143.4451 H   0  0  0  0  0  0  0  0  0  0  0  0  # atno 7974 bound_to 7965
  155.9899  140.3370  155.6743 H   0  0  0  0  0  0  0  0  0  0  0  0  # atno 8008 bound_to 7997
  155.6435  140.0698  157.2628 H   0  0  0  0  0  0  0  0  0  0  0  0  # atno 8009 bound_to 7997
  154.4216  140.1738  156.1586 H   0  0  0  0  0  0  0  0  0  0  0  0  # atno 8010 bound_to 7997
  140.5472  143.9573  150.6555 H   0  0  0  0  0  0  0  0  0  0  0  0  # atno 10167 bound_to 10162
  157.1884  131.0649  151.2093 H   0  0  0  0  0  0  0  0  0  0  0  0  # atno 10718 bound_to 10713
  153.0280  135.5215  154.7268 H   0  0  0  0  0  0  0  0  0  0  0  0  # atno 10763 bound_to 10752
  154.6307  135.2900  155.0222 H   0  0  0  0  0  0  0  0  0  0  0  0  # atno 10764 bound_to 10752
  154.1175  135.6613  153.4949 H   0  0  0  0  0  0  0  0  0  0  0  0  # atno 10765 bound_to 10752
  139.8774  134.9023  156.4377 H   0  0  0  0  0  0  0  0  0  0  0  0  # atno 11005 bound_to 11000
  146.3463  140.1899  142.8589 LP  0  0  0  0  0  0  0  0  0  0  0  0  # atno 17320 bound_to 7965
  145.0201  140.8786  143.5172 LP  0  0  0  0  0  0  0  0  0  0  0  0  # atno 17321 bound_to 7965
  140.2989  143.3273  152.0990 LP  0  0  0  0  0  0  0  0  0  0  0  0  # atno 17342 bound_to 10162
  139.5012  144.6709  151.6245 LP  0  0  0  0  0  0  0  0  0  0  0  0  # atno 17343 bound_to 10162
  157.3884  130.7269  149.6680 LP  0  0  0  0  0  0  0  0  0  0  0  0  # atno 17370 bound_to 10713
  155.9715  130.4153  150.4175 LP  0  0  0  0  0  0  0  0  0  0  0  0  # atno 17371 bound_to 10713
  140.9022  133.7771  155.9693 LP  0  0  0  0  0  0  0  0  0  0  0  0  # atno 17394 bound_to 11000
  140.8639  134.2808  157.5222 LP  0  0  0  0  0  0  0  0  0  0  0  0  # atno 17395 bound_to 11000

$$$$
