#       Name:                AV-unprocessed.smi:1601
#       Creating user name   scv26
#       Creation time:       Fri Mar 27 07:08:21 2020


#       File generated by GOLD software.
#

@<TRIPOS>MOLECULE
AV-unprocessed.smi:1601
    47    48     1
SMALL
NO_CHARGES


@<TRIPOS>ATOM
      1 ****        -0.5500   1.3567  -1.9415 C.3            1 S1                 0.0000
      2 ****        -1.0752   0.7855  -0.6016 C.3            1 S1                 0.0000
      3 ****        -0.4575  -0.6187  -0.3394 C.3            1 S1                 0.0000
      4 ****         1.0024  -0.6246  -0.3823 N.am           1 S1                 0.0000
      5 ****         1.8025  -0.1355   0.5788 C.2            1 S1                 0.0000
      6 ****         1.3704   0.3709   1.6149 O.2            1 S1                 0.0000
      7 ****         3.3147  -0.2270   0.3206 C.3            1 S1                 0.0000
      8 ****         4.1010   0.9094   1.0059 C.3            1 S1                 0.0000
      9 ****         3.8148  -1.5469   0.6885 N.pl3          1 S1                 0.0000
     10 ****         4.0609  -2.6219  -0.1414 C.2            1 S1                 0.0000
     11 ****         4.4863  -3.6569   0.6409 C.2            1 S1                 0.0000
     12 ****         4.4560  -3.1197   1.9575 C.2            1 S1                 0.0000
     13 ****         4.0452  -1.8628   1.9845 N.2            1 S1                 0.0000
     14 ****        -2.5765   0.7826  -0.5675 N.4            1 S1                 1.0000
     15 ****        -3.1695   0.0488   0.5862 C.3            1 S1                 0.0000
     16 ****        -4.7070   0.0948   0.5576 C.3            1 S1                 0.0000
     17 ****        -5.1504   1.4419   0.5348 O.3            1 S1                 0.0000
     18 ****        -4.6990   2.1102  -0.6319 C.3            1 S1                 0.0000
     19 ****        -3.1623   2.1511  -0.6405 C.3            1 S1                 0.0000
     20 ****         0.5368   1.3178  -2.0069 H              1 S1                 0.0000
     21 ****        -0.8041   2.4064  -2.0775 H              1 S1                 0.0000
     22 ****        -0.9481   0.8002  -2.7905 H              1 S1                 0.0000
     23 ****        -0.7392   1.4458   0.1995 H              1 S1                 0.0000
     24 ****        -0.7416  -1.0090   0.6379 H              1 S1                 0.0000
     25 ****        -0.8211  -1.3318  -1.0798 H              1 S1                 0.0000
     26 ****         1.4352  -1.0252  -1.2021 H              1 S1                 0.0000
     27 ****         3.4683  -0.1159  -0.7543 H              1 S1                 0.0000
     28 ****         3.7472   1.8867   0.6755 H              1 S1                 0.0000
     29 ****         5.1621   0.8478   0.7631 H              1 S1                 0.0000
     30 ****         4.0093   0.8768   2.0923 H              1 S1                 0.0000
     31 ****         3.9162  -2.5613  -1.2100 H              1 S1                 0.0000
     32 ****         4.7727  -4.6481   0.3222 H              1 S1                 0.0000
     33 ****         4.7148  -3.6034   2.8877 H              1 S1                 0.0000
     34 ****        -2.8857  -1.0022   0.5684 H              1 S1                 0.0000
     35 ****        -2.7986   0.4743   1.5200 H              1 S1                 0.0000
     36 ****        -5.0973  -0.4451  -0.3069 H              1 S1                 0.0000
     37 ****        -5.1127  -0.3932   1.4440 H              1 S1                 0.0000
     38 ****        -5.0823   1.6156  -1.5260 H              1 S1                 0.0000
     39 ****        -5.1001   3.1239  -0.6334 H              1 S1                 0.0000
     40 ****        -2.8036   2.7469   0.2005 H              1 S1                 0.0000
     41 ****        -2.8558   2.6637  -1.5498 H              1 S1                 0.0000
     42 ****        -2.8804   0.2922  -1.3965 H              1 S1                 0.0000
     43 ****         0.3841   0.4311   1.7684 LP             1 S1                 0.0000
     44 ****         2.0059   0.7219   2.3026 LP             1 S1                 0.0000
     45 ****         3.9302  -1.2754   2.7856 LP             1 S1                 0.0000
     46 ****        -4.7952   1.9160   1.3404 LP             1 S1                 0.0000
     47 ****        -6.1501   1.4567   0.5531 LP             1 S1                 0.0000
@<TRIPOS>BOND
    1    1    2 1     
    2    1   20 1     
    3    1   21 1     
    4    1   22 1     
    5    2    3 1     
    6    2   14 1     
    7    2   23 1     
    8    3    4 1     
    9    3   24 1     
   10    3   25 1     
   11    4    5 am    
   12    4   26 1     
   13    5    6 2     
   14    5    7 1     
   15    7    8 1     
   16    7    9 1     
   17    7   27 1     
   18    8   28 1     
   19    8   29 1     
   20    8   30 1     
   21    9   13 1     
   22    9   10 1     
   23   10   11 2     
   24   10   31 1     
   25   11   12 1     
   26   11   32 1     
   27   12   13 2     
   28   12   33 1     
   29   14   19 1     
   30   14   15 1     
   31   14   42 1     
   32   15   16 1     
   33   15   34 1     
   34   15   35 1     
   35   16   17 1     
   36   16   36 1     
   37   16   37 1     
   38   17   18 1     
   39   18   19 1     
   40   18   38 1     
   41   18   39 1     
   42   19   40 1     
   43   19   41 1     
   44    6   43 1     
   45    6   44 1     
   46   13   45 1     
   47   17   46 1     
   48   17   47 1     
@<TRIPOS>SUBSTRUCTURE
      1 S1             1
@<TRIPOS>SET
LONE_PAIRS      STATIC     ATOMS    <user>   **** ""
5 43 44 45 46 47
DONOR_HYDROGENS      STATIC     ATOMS    <user>   **** ""
2 26 42
ATOM$BLUE        STATIC     ATOMS    COLORGROUP SYSTEM
5 43 44 45 46 47
ATOM$RED        STATIC     ATOMS    COLORGROUP SYSTEM
2 26 42
