AV-unprocessed.smi:3348|AV-procd|sdf|12915|dock5
  -GOLD-   2272019333D 1   1.00000     0.00000
 Structure written by MMmdl.
 47 48  0  0  0  0  0  0  0  0  2 V2000
  150.2460  138.8523  154.0473 C   0  0  0  0  0  0  0  0  0  0  0  0
  150.5486  139.8010  155.2151 C   0  0  2  0  0  0  0  0  0  0  0  0
  150.0592  141.2296  154.8906 C   0  0  0  0  0  0  0  0  0  0  0  0
  148.6360  141.3057  154.6142 N   0  0  0  0  0  0  0  0  0  0  0  0
  147.6919  142.1226  155.2002 C   0  0  0  0  0  0  0  0  0  0  0  0
  146.4925  141.8463  154.6092 C   0  0  0  0  0  0  0  0  0  0  0  0
  146.8099  140.8411  153.6533 C   0  0  0  0  0  0  0  0  0  0  0  0
  148.0944  140.5219  153.6569 N   0  0  0  0  0  0  0  0  0  0  0  0
  152.0030  139.7776  155.4940 N   0  3  0  0  0  0  0  0  0  0  0  0
  152.3757  139.8389  156.9233 C   0  0  0  0  0  0  0  0  0  0  0  0
  151.5486  140.8984  157.6566 C   0  0  0  0  0  0  0  0  0  0  0  0
  152.3966  141.5835  158.5662 O   0  0  0  0  0  0  0  0  0  0  0  0
  151.7671  142.6432  159.2767 C   0  0  2  0  0  0  0  0  0  0  0  0
  151.4601  143.8023  158.3041 C   0  0  0  0  0  0  0  0  0  0  0  0
  150.9080  145.0296  159.0432 C   0  0  0  0  0  0  0  0  0  0  0  0
  151.8716  145.4867  160.1467 C   0  0  0  0  0  0  0  0  0  0  0  0
  152.1719  144.3411  161.1245 C   0  0  0  0  0  0  0  0  0  0  0  0
  152.7281  143.0991  160.3987 C   0  0  1  0  0  0  0  0  0  0  0  0
  153.0103  141.9689  161.4021 C   0  0  0  0  0  0  0  0  0  0  0  0
  149.1769  138.8197  153.8346 H   0  0  0  0  0  0  0  0  0  0  0  0
  150.5648  137.8344  154.2744 H   0  0  0  0  0  0  0  0  0  0  0  0
  150.7564  139.1661  153.1360 H   0  0  0  0  0  0  0  0  0  0  0  0
  150.0094  139.4200  156.0840 H   0  0  0  0  0  0  0  0  0  0  0  0
  150.2916  141.9076  155.7130 H   0  0  0  0  0  0  0  0  0  0  0  0
  150.5862  141.6150  154.0164 H   0  0  0  0  0  0  0  0  0  0  0  0
  147.9475  142.8239  155.9810 H   0  0  0  0  0  0  0  0  0  0  0  0
  145.5348  142.2975  154.8228 H   0  0  0  0  0  0  0  0  0  0  0  0
  146.1502  140.3389  152.9609 H   0  0  0  0  0  0  0  0  0  0  0  0
  152.3689  138.9070  155.1352 H   0  0  0  0  0  0  0  0  0  0  0  0
  152.2079  138.8684  157.3883 H   0  0  0  0  0  0  0  0  0  0  0  0
  153.4392  140.0609  157.0198 H   0  0  0  0  0  0  0  0  0  0  0  0
  151.0928  141.5810  156.9392 H   0  0  0  0  0  0  0  0  0  0  0  0
  150.7402  140.4153  158.2072 H   0  0  0  0  0  0  0  0  0  0  0  0
  150.8406  142.2923  159.7361 H   0  0  0  0  0  0  0  0  0  0  0  0
  152.3692  144.0810  157.7694 H   0  0  0  0  0  0  0  0  0  0  0  0
  150.7418  143.4906  157.5465 H   0  0  0  0  0  0  0  0  0  0  0  0
  150.7369  145.8435  158.3381 H   0  0  0  0  0  0  0  0  0  0  0  0
  149.9379  144.7886  159.4797 H   0  0  0  0  0  0  0  0  0  0  0  0
  152.8014  145.8410  159.6996 H   0  0  0  0  0  0  0  0  0  0  0  0
  151.4450  146.3330  160.6856 H   0  0  0  0  0  0  0  0  0  0  0  0
  152.8835  144.6836  161.8766 H   0  0  0  0  0  0  0  0  0  0  0  0
  151.2602  144.0769  161.6624 H   0  0  0  0  0  0  0  0  0  0  0  0
  153.6774  143.3790  159.9392 H   0  0  0  0  0  0  0  0  0  0  0  0
  152.0951  141.6386  161.8947 H   0  0  0  0  0  0  0  0  0  0  0  0
  153.7040  142.2970  162.1767 H   0  0  0  0  0  0  0  0  0  0  0  0
  153.4558  141.1025  160.9128 H   0  0  0  0  0  0  0  0  0  0  0  0
  152.4447  140.5371  154.9960 H   0  0  0  0  0  0  0  0  0  0  0  0
  1  2  1  0  0  0  0
  1 20  1  0  0  0  0
  1 21  1  0  0  0  0
  1 22  1  0  0  0  0
  2  3  1  0  0  0  0
  2  9  1  0  0  0  0
  2 23  1  0  0  0  0
  3  4  1  0  0  0  0
  3 24  1  0  0  0  0
  3 25  1  0  0  0  0
  4  8  1  0  0  0  0
  4  5  1  0  0  0  0
  5  6  2  0  0  0  0
  5 26  1  0  0  0  0
  6  7  1  0  0  0  0
  6 27  1  0  0  0  0
  7  8  2  0  0  0  0
  7 28  1  0  0  0  0
  9 10  1  0  0  0  0
  9 29  1  0  0  0  0
  9 47  1  0  0  0  0
 10 11  1  0  0  0  0
 10 30  1  0  0  0  0
 10 31  1  0  0  0  0
 11 12  1  0  0  0  0
 11 32  1  0  0  0  0
 11 33  1  0  0  0  0
 12 13  1  0  0  0  0
 13 18  1  0  0  0  0
 13 14  1  0  0  0  0
 13 34  1  0  0  0  0
 14 15  1  0  0  0  0
 14 35  1  0  0  0  0
 14 36  1  0  0  0  0
 15 16  1  0  0  0  0
 15 37  1  0  0  0  0
 15 38  1  0  0  0  0
 16 17  1  0  0  0  0
 16 39  1  0  0  0  0
 16 40  1  0  0  0  0
 17 18  1  0  0  0  0
 17 41  1  0  0  0  0
 17 42  1  0  0  0  0
 18 19  1  0  0  0  0
 18 43  1  0  0  0  0
 19 44  1  0  0  0  0
 19 45  1  0  0  0  0
 19 46  1  0  0  0  0
M  CHG  1   9   1
M  END
> <s_m_source_file>
AV-unprocessed.smi

> <i_m_source_file_index>
3348

> <i_lp_mmshare_version>
43012

> <i_f3d_flags>
0

> <s_epik_input>
bjFbY0hdW2NIXVtjSF1uMVtDSDJdW0NAQEhdKFtDSDNdKVtOSF1bQ0gyXVtDSDJdT1tDQEBIXTJbQ0gyXVtDSDJdW0NIMl1bQ0gyXVtDQEhdMltDSDNd

> <s_epik_cmdline>
J2VwaWtfcHl0aG9uJywgJy1waCcsICc3LjAnLCAnLXRuJywgJzgnLCAnLW1hJywgJzIwMCcsICctbWV0YWxfYmluZGluZycsICctaW1hZScsICc8aW5maWxlLm1hZT4nLCAnLW9tYWUnLCAnPG91dGZpbGUubWFlPic=

> <r_lp_tautomer_probability>
1

> <r_epik_Ionization_Penalty>
0.00925088

> <r_epik_Ionization_Penalty_Charging>
0.00924645

> <r_epik_Ionization_Penalty_Neutral>
4.42413e-06

> <r_epik_State_Penalty>
0.0070118

> <r_epik_Charging_Adjusted_Penalty>
0.0162583

> <i_epik_Tot_Q>
1

> <i_epik_Tot_abs_Q>
1

> <r_epik_Metal_State_Penalty>
0.00701222

> <b_epik_Metal_Only>
0

> <s_lp_Force_Field>
OPLS_2005

> <r_lp_Energy>
16.8222

> <b_lp_Chiralities_Consistent>
1

> <s_lp_Variant>
AV-unprocessed.smi:3348-1

> <Gold.Version>
5.8.1

> <Gold.Id.Protein>
6NUR|6NUR_protein|mol2

> <Gold.PLP.Fitness>
47.0042

> <Gold.PLP.PLP>
-42.7535

> <Gold.PLP.part.hbond>
0.0000

> <Gold.PLP.part.metal>
0.0000

> <Gold.PLP.part.buried>
-2.0255

> <Gold.PLP.part.nonpolar>
-41.5262

> <Gold.PLP.part.repulsive>
1.2368

> <Gold.PLP.ligand.clash>
0.0000

> <Gold.PLP.ligand.torsion>
0.9441

> <Gold.PLP.Chemscore.Hbond>
0.0000

> <Gold.PLP.Chemscore.CHOScore>
1.9713

> <Gold.PLP.Chemscore.Metal>
0.0000

> <Gold.Chemscore.Hbonds>
donor molecule, donor type, donor heavy atom, donor atom, acceptor molecule, acceptor atom, score
      L1  C     5    26       P1  8028  0.89
      L1  C     7    28       P1 10175  1.00

> <Gold.PLP.Chemscore.Internal.Correction>
0.2250

> <Gold.Rescore>
     Score         DG    S(hbond)    S(metal)    S(lipo)     H(rot)  DE(clash)    DE(int)     intcor
     13.06     -16.01       0.00        0.00     129.78       1.82       0.68       2.28       ----

> <Gold.Chemscore.Fitness>
13.0611

> <Gold.Chemscore.DG>
-16.0144

> <Gold.Chemscore.ZeroCoef>
-5.4800

> <Gold.Chemscore.Hbond>
0.0000

> <Gold.Chemscore.Metal>
0.0000

> <Gold.Chemscore.Lipo>
129.7786

> <Gold.Chemscore.Internal_Hbond>
0.0000

> <Gold.Chemscore.DEClash>
0.6759

> <Gold.Chemscore.DEInternal>
2.2774

> <Gold.Chemscore.Rot>
1.8163

> <Gold.Chemscore.Internal.Correction>
   9.000000E+99

> <Gold.Chemscore.Hbond.Weighted>
-0.0000

> <Gold.Chemscore.Metal.Weighted>
-0.0000

> <Gold.Chemscore.Lipo.Weighted>
-15.1841

> <Gold.Chemscore.Internal_Hbond.Weighted>
0.0000

> <Gold.Chemscore.DEClash.Weighted>
0.6759

> <Gold.Chemscore.DEInternal.Weighted>
2.2774

> <Gold.Chemscore.Rot.Weighted>
4.6497

> <Gold.Chemscore.Internal.Correction.Weighted>
   9.000000E+99

> <Gold.Protein.RotatedTorsions>
[ 6907 6896 6895 6894 ] final   11.79 input  -60.11 | X-H torsion
[ 7974 7965 7964 7962 ] final   12.30 input  175.53 | X-H torsion
[ 8008 7997 7996 7995 ] final   -8.92 input   59.86 | X-H torsion
[ 10167 10162 10161 10158 ] final   97.83 input  -65.29 | X-H torsion
[ 10718 10713 10712 10709 ] final  -98.44 input   66.30 | X-H torsion
[ 10763 10752 10751 10750 ] final  130.06 input  -60.55 | X-H torsion
[ 11005 11000 10999 10996 ] final    9.86 input  -57.11 | X-H torsion

> <Gold.Protein.ActiveResidues>
 VAL166  LYS551  ARG553  GLY616  TRP617  ASP618  TYR619  PRO620  LYS621  CYS622 
 ASP623  PHE694  ASN695  SER759  ASP760  ASP761  ALA762  ILE779  LEU786  VAL792 
 PHE793  MET794  SER795  GLU796  ALA797  LYS798  CYS799  TRP800  GLU811  SER814 

> <Gold.Protein.RotatedAtoms>
  151.7599  135.0812  160.0343 H   0  0  0  0  0  0  0  0  0  0  0  0  # atno 6907 bound_to 6896
  152.3360  133.6008  159.5851 H   0  0  0  0  0  0  0  0  0  0  0  0  # atno 6908 bound_to 6896
  150.7450  133.9711  159.3588 H   0  0  0  0  0  0  0  0  0  0  0  0  # atno 6909 bound_to 6896
  146.2354  139.9358  142.8490 H   0  0  0  0  0  0  0  0  0  0  0  0  # atno 7974 bound_to 7965
  154.5695  140.2368  155.8212 H   0  0  0  0  0  0  0  0  0  0  0  0  # atno 8008 bound_to 7997
  156.2095  140.3030  155.9660 H   0  0  0  0  0  0  0  0  0  0  0  0  # atno 8009 bound_to 7997
  155.2738  140.0419  157.3000 H   0  0  0  0  0  0  0  0  0  0  0  0  # atno 8010 bound_to 7997
  139.7765  144.6904  151.0082 H   0  0  0  0  0  0  0  0  0  0  0  0  # atno 10167 bound_to 10162
  156.0108  130.5238  150.6523 H   0  0  0  0  0  0  0  0  0  0  0  0  # atno 10718 bound_to 10713
  153.7519  135.3208  155.3322 H   0  0  0  0  0  0  0  0  0  0  0  0  # atno 10763 bound_to 10752
  154.8260  135.4569  154.0924 H   0  0  0  0  0  0  0  0  0  0  0  0  # atno 10764 bound_to 10752
  153.2129  135.6938  153.8175 H   0  0  0  0  0  0  0  0  0  0  0  0  # atno 10765 bound_to 10752
  140.5210  134.0559  155.7845 H   0  0  0  0  0  0  0  0  0  0  0  0  # atno 11005 bound_to 11000
  145.2001  140.9850  143.4161 LP  0  0  0  0  0  0  0  0  0  0  0  0  # atno 17320 bound_to 7965
  144.9781  139.3811  143.6275 LP  0  0  0  0  0  0  0  0  0  0  0  0  # atno 17321 bound_to 7965
  140.7816  143.4530  151.0385 LP  0  0  0  0  0  0  0  0  0  0  0  0  # atno 17342 bound_to 10162
  139.8212  143.7817  152.3177 LP  0  0  0  0  0  0  0  0  0  0  0  0  # atno 17343 bound_to 10162
  157.4282  131.0846  151.1064 LP  0  0  0  0  0  0  0  0  0  0  0  0  # atno 17370 bound_to 10713
  157.1645  130.6240  149.5621 LP  0  0  0  0  0  0  0  0  0  0  0  0  # atno 17371 bound_to 10713
  141.1334  133.9263  157.2486 LP  0  0  0  0  0  0  0  0  0  0  0  0  # atno 17394 bound_to 11000
  139.9606  135.0155  156.9250 LP  0  0  0  0  0  0  0  0  0  0  0  0  # atno 17395 bound_to 11000

$$$$
