#       Name:                AV-unprocessed.smi:2339
#       Creating user name   scv26
#       Creation time:       Fri Mar 27 12:56:01 2020


#       File generated by GOLD software.
#

@<TRIPOS>MOLECULE
AV-unprocessed.smi:2339
    55    58     1
SMALL
NO_CHARGES


@<TRIPOS>ATOM
      1 ****        -4.8312   3.7135  -2.7545 C.3            1 S1                 0.0000
      2 ****        -4.5518   2.2830  -3.2288 C.3            1 S1                 0.0000
      3 ****        -3.1318   1.9660  -3.1818 N.pl3          1 S1                 0.0000
      4 ****        -2.3203   2.1022  -4.3034 C.2            1 S1                 0.0000
      5 ****        -1.0181   1.7589  -4.3391 C.2            1 S1                 0.0000
      6 ****        -0.3842   1.1979  -3.1289 C.2            1 S1                 0.0000
      7 ****         0.8029   0.8710  -3.1257 O.2            1 S1                 0.0000
      8 ****        -1.2519   1.0520  -1.9309 C.2            1 S1                 0.0000
      9 ****        -0.6361   0.5337  -0.7814 N.am           1 S1                 0.0000
     10 ****        -1.1831   0.1596   0.3932 C.2            1 S1                 0.0000
     11 ****        -2.3816   0.1869   0.6631 O.2            1 S1                 0.0000
     12 ****        -0.2840  -0.2915   1.2844 N.am           1 S1                 0.0000
     13 ****        -0.5469  -0.7739   2.6500 C.3            1 S1                 0.0000
     14 ****        -0.6941   0.3389   3.6944 C.3            1 S1                 0.0000
     15 ****        -1.0107   1.7911   3.6643 C.3            1 S1                 0.0000
     16 ****         0.0489   2.2458   4.7026 C.3            1 S1                 0.0000
     17 ****         0.8932   1.0915   4.9423 O.3            1 S1                 0.0000
     18 ****         0.8193   0.3520   3.7385 C.3            1 S1                 0.0000
     19 ****         0.7472  -1.1683   3.4610 C.3            1 S1                 0.0000
     20 ****         0.5794  -2.0936   4.6834 C.3            1 S1                 0.0000
     21 ****         1.5269  -3.2822   4.5199 C.3            1 S1                 0.0000
     22 ****         2.6350  -2.7579   3.6188 C.3            1 S1                 0.0000
     23 ****         1.9141  -1.7917   2.6832 C.3            1 S1                 0.0000
     24 ****        -2.5489   1.4394  -2.0312 C.2            1 S1                 0.0000
     25 ****        -5.8993   3.9290  -2.7836 H              1 S1                 0.0000
     26 ****        -4.3254   4.4448  -3.3855 H              1 S1                 0.0000
     27 ****        -4.4908   3.8618  -1.7293 H              1 S1                 0.0000
     28 ****        -5.1014   1.5732  -2.6094 H              1 S1                 0.0000
     29 ****        -4.9224   2.1511  -4.2459 H              1 S1                 0.0000
     30 ****        -2.8194   2.5190  -5.1663 H              1 S1                 0.0000
     31 ****        -0.4258   1.8848  -5.2335 H              1 S1                 0.0000
     32 ****         0.3628   0.4094  -0.8636 H              1 S1                 0.0000
     33 ****         0.6758  -0.3434   0.9745 H              1 S1                 0.0000
     34 ****        -1.3289  -1.5331   2.7048 H              1 S1                 0.0000
     35 ****        -1.1306  -0.0997   4.5976 H              1 S1                 0.0000
     36 ****        -0.8351   2.2335   2.6830 H              1 S1                 0.0000
     37 ****        -2.0316   2.0091   3.9789 H              1 S1                 0.0000
     38 ****         0.6416   3.0750   4.3143 H              1 S1                 0.0000
     39 ****        -0.4083   2.5657   5.6394 H              1 S1                 0.0000
     40 ****         1.2894   0.9079   2.9207 H              1 S1                 0.0000
     41 ****         0.8379  -1.5572   5.5973 H              1 S1                 0.0000
     42 ****        -0.4479  -2.4383   4.8057 H              1 S1                 0.0000
     43 ****         1.9000  -3.6593   5.4725 H              1 S1                 0.0000
     44 ****         1.0058  -4.0991   4.0185 H              1 S1                 0.0000
     45 ****         3.3678  -2.2141   4.2164 H              1 S1                 0.0000
     46 ****         3.1587  -3.5518   3.0854 H              1 S1                 0.0000
     47 ****         1.5345  -2.3490   1.8260 H              1 S1                 0.0000
     48 ****         2.6014  -1.0417   2.2907 H              1 S1                 0.0000
     49 ****        -3.2435   1.3878  -1.2083 H              1 S1                 0.0000
     50 ****         1.3548   0.9838  -3.9520 LP             1 S1                 0.0000
     51 ****         1.2152   0.4928  -2.2969 LP             1 S1                 0.0000
     52 ****        -3.0403   0.5069  -0.0179 LP             1 S1                 0.0000
     53 ****        -2.6982  -0.1107   1.5637 LP             1 S1                 0.0000
     54 ****         0.5482   0.5531   5.7111 LP             1 S1                 0.0000
     55 ****         1.8345   1.3731   5.1284 LP             1 S1                 0.0000
@<TRIPOS>BOND
    1    1    2 1     
    2    1   25 1     
    3    1   26 1     
    4    1   27 1     
    5    2    3 1     
    6    2   28 1     
    7    2   29 1     
    8    3   24 1     
    9    3    4 1     
   10    4    5 2     
   11    4   30 1     
   12    5    6 1     
   13    5   31 1     
   14    6    7 2     
   15    6    8 1     
   16    8    9 1     
   17    8   24 2     
   18    9   10 am    
   19    9   32 1     
   20   10   11 2     
   21   10   12 am    
   22   12   13 1     
   23   12   33 1     
   24   13   19 1     
   25   13   14 1     
   26   13   34 1     
   27   14   18 1     
   28   14   15 1     
   29   14   35 1     
   30   15   16 1     
   31   15   36 1     
   32   15   37 1     
   33   16   17 1     
   34   16   38 1     
   35   16   39 1     
   36   17   18 1     
   37   18   19 1     
   38   18   40 1     
   39   19   23 1     
   40   19   20 1     
   41   20   21 1     
   42   20   41 1     
   43   20   42 1     
   44   21   22 1     
   45   21   43 1     
   46   21   44 1     
   47   22   23 1     
   48   22   45 1     
   49   22   46 1     
   50   23   47 1     
   51   23   48 1     
   52   24   49 1     
   53    7   50 1     
   54    7   51 1     
   55   11   52 1     
   56   11   53 1     
   57   17   54 1     
   58   17   55 1     
@<TRIPOS>SUBSTRUCTURE
      1 S1             1
@<TRIPOS>SET
LONE_PAIRS      STATIC     ATOMS    <user>   **** ""
6 50 51 52 53 54 55
DONOR_HYDROGENS      STATIC     ATOMS    <user>   **** ""
2 32 33
ATOM$BLUE        STATIC     ATOMS    COLORGROUP SYSTEM
6 50 51 52 53 54 55
ATOM$RED        STATIC     ATOMS    COLORGROUP SYSTEM
2 32 33
