AV-unprocessed.smi:19|AV-procd|sdf|110|dock2
  -GOLD-   2262015273D 1   1.00000     0.00000
 Structure written by MMmdl.
 57 60  0  0  0  0  0  0  0  0  1 V2000
  150.8819  145.3554  159.9840 C   0  0  0  0  0  0  0  0  0  0  0  0
  152.1814  145.1315  159.4663 O   0  0  0  0  0  0  0  0  0  0  0  0
  152.1660  144.3622  158.2752 C   0  0  0  0  0  0  0  0  0  0  0  0
  151.8770  142.8971  158.6259 C   0  0  1  0  0  0  0  0  0  0  0  0
  151.5678  142.0597  157.3705 C   0  0  0  0  0  0  0  0  0  0  0  0
  151.4080  140.6538  157.7274 N   0  0  0  0  0  0  0  0  0  0  0  0
  150.8626  139.8757  156.7575 C   0  0  0  0  0  0  0  0  0  0  0  0
  150.9048  140.2791  155.4590 N   0  0  0  0  0  0  0  0  0  0  0  0
  150.3583  139.5271  154.4994 C   0  0  0  0  0  0  0  0  0  0  0  0
  149.7353  138.3532  154.6134 N   0  0  0  0  0  0  0  0  0  0  0  0
  149.7011  137.9334  155.9102 C   0  0  0  0  0  0  0  0  0  0  0  0
  150.2325  138.6289  157.0337 C   0  0  0  0  0  0  0  0  0  0  0  0
  150.0111  137.8923  158.1913 N   0  0  0  0  0  0  0  0  0  0  0  0
  149.3740  136.8316  157.7780 C   0  0  0  0  0  0  0  0  0  0  0  0
  149.1601  136.7643  156.4193 N   0  0  0  0  0  0  0  0  0  0  0  0
  148.4786  135.6977  155.6970 C   0  0  0  0  0  0  0  0  0  0  0  0
  149.0999  134.2797  155.8750 C   0  0  0  0  0  0  0  0  0  0  0  0
  148.7106  133.3579  154.6843 C   0  0  0  0  0  0  0  0  0  0  0  0
  149.2009  133.8417  153.4503 O   0  0  0  0  0  0  0  0  0  0  0  0
  150.6443  134.3847  155.9638 C   0  0  0  0  0  0  0  0  0  0  0  0
  151.3131  133.0899  156.4630 C   0  0  0  0  0  0  0  0  0  0  0  0
  150.7628  132.7028  157.7149 O   0  0  0  0  0  0  0  0  0  0  0  0
  149.3705  132.4268  157.6423 C   0  0  0  0  0  0  0  0  0  0  0  0
  148.6097  133.6973  157.2249 C   0  0  0  0  0  0  0  0  0  0  0  0
  152.5443  140.1225  158.4757 C   0  0  0  0  0  0  0  0  0  0  0  0
  152.8378  141.0115  159.6977 C   0  0  1  0  0  0  0  0  0  0  0  0
  154.0964  140.5627  160.4475 C   0  0  0  0  0  0  0  0  0  0  0  0
  153.0334  142.3525  159.2578 O   0  0  0  0  0  0  0  0  0  0  0  0
  150.9484  145.9454  160.8980 H   0  0  0  0  0  0  0  0  0  0  0  0
  150.3853  144.4146  160.2255 H   0  0  0  0  0  0  0  0  0  0  0  0
  150.2639  145.9049  159.2728 H   0  0  0  0  0  0  0  0  0  0  0  0
  151.3841  144.7454  157.6174 H   0  0  0  0  0  0  0  0  0  0  0  0
  153.1144  144.4478  157.7422 H   0  0  0  0  0  0  0  0  0  0  0  0
  151.0259  142.8554  159.3080 H   0  0  0  0  0  0  0  0  0  0  0  0
  150.6745  142.4512  156.8855 H   0  0  0  0  0  0  0  0  0  0  0  0
  152.3825  142.1491  156.6503 H   0  0  0  0  0  0  0  0  0  0  0  0
  150.4295  139.9232  153.4972 H   0  0  0  0  0  0  0  0  0  0  0  0
  149.0474  136.0589  158.4586 H   0  0  0  0  0  0  0  0  0  0  0  0
  147.4396  135.6935  156.0293 H   0  0  0  0  0  0  0  0  0  0  0  0
  148.4443  135.9686  154.6411 H   0  0  0  0  0  0  0  0  0  0  0  0
  149.0902  132.3473  154.8355 H   0  0  0  0  0  0  0  0  0  0  0  0
  147.6310  133.2593  154.5868 H   0  0  0  0  0  0  0  0  0  0  0  0
  148.8518  134.7080  153.3067 H   0  0  0  0  0  0  0  0  0  0  0  0
  151.0680  134.6551  154.9965 H   0  0  0  0  0  0  0  0  0  0  0  0
  150.9134  135.1888  156.6500 H   0  0  0  0  0  0  0  0  0  0  0  0
  151.2119  132.2796  155.7408 H   0  0  0  0  0  0  0  0  0  0  0  0
  152.3828  133.2552  156.5920 H   0  0  0  0  0  0  0  0  0  0  0  0
  149.1811  131.6004  156.9564 H   0  0  0  0  0  0  0  0  0  0  0  0
  149.0310  132.0993  158.6249 H   0  0  0  0  0  0  0  0  0  0  0  0
  148.7468  134.4410  158.0109 H   0  0  0  0  0  0  0  0  0  0  0  0
  147.5389  133.4948  157.1953 H   0  0  0  0  0  0  0  0  0  0  0  0
  152.3322  139.1041  158.8043 H   0  0  0  0  0  0  0  0  0  0  0  0
  153.4190  140.0810  157.8248 H   0  0  0  0  0  0  0  0  0  0  0  0
  151.9921  140.9804  160.3870 H   0  0  0  0  0  0  0  0  0  0  0  0
  153.9912  139.5416  160.8145 H   0  0  0  0  0  0  0  0  0  0  0  0
  154.2886  141.2069  161.3057 H   0  0  0  0  0  0  0  0  0  0  0  0
  154.9741  140.5976  159.8014 H   0  0  0  0  0  0  0  0  0  0  0  0
  1  2  1  0  0  0  0
  1 29  1  0  0  0  0
  1 30  1  0  0  0  0
  1 31  1  0  0  0  0
  2  3  1  0  0  0  0
  3  4  1  0  0  0  0
  3 32  1  0  0  0  0
  3 33  1  0  0  0  0
  4 28  1  0  0  0  0
  4  5  1  0  0  0  0
  4 34  1  0  0  0  0
  5  6  1  0  0  0  0
  5 35  1  0  0  0  0
  5 36  1  0  0  0  0
  6  7  1  0  0  0  0
  6 25  1  0  0  0  0
  7 12  1  0  0  0  0
  7  8  2  0  0  0  0
  8  9  1  0  0  0  0
  9 10  2  0  0  0  0
  9 37  1  0  0  0  0
 10 11  1  0  0  0  0
 11 15  1  0  0  0  0
 11 12  2  0  0  0  0
 12 13  1  0  0  0  0
 13 14  2  0  0  0  0
 14 15  1  0  0  0  0
 14 38  1  0  0  0  0
 15 16  1  0  0  0  0
 16 17  1  0  0  0  0
 16 39  1  0  0  0  0
 16 40  1  0  0  0  0
 17 24  1  0  0  0  0
 17 18  1  0  0  0  0
 17 20  1  0  0  0  0
 18 19  1  0  0  0  0
 18 41  1  0  0  0  0
 18 42  1  0  0  0  0
 19 43  1  0  0  0  0
 20 21  1  0  0  0  0
 20 44  1  0  0  0  0
 20 45  1  0  0  0  0
 21 22  1  0  0  0  0
 21 46  1  0  0  0  0
 21 47  1  0  0  0  0
 22 23  1  0  0  0  0
 23 24  1  0  0  0  0
 23 48  1  0  0  0  0
 23 49  1  0  0  0  0
 24 50  1  0  0  0  0
 24 51  1  0  0  0  0
 25 26  1  0  0  0  0
 25 52  1  0  0  0  0
 25 53  1  0  0  0  0
 26 27  1  0  0  0  0
 26 28  1  0  0  0  0
 26 54  1  0  0  0  0
 27 55  1  0  0  0  0
 27 56  1  0  0  0  0
 27 57  1  0  0  0  0
M  END
> <s_m_source_file>
AV-unprocessed.smi

> <i_m_source_file_index>
19

> <i_lp_mmshare_version>
43012

> <i_f3d_flags>
0

> <s_epik_input>
W0NIM11PW0NIMl1bQ0BASF0xW0NIMl1OKFtDSDJdW0NASF0oTzEpW0NIM10pYyhuW2NIXW4yKWMoYzIzKW5bY0hdbjNbQ0gyXUM0KFtDSDJdW09IXSlbQ0gyXVtDSDJdT1tDSDJdW0NIMl00

> <s_epik_cmdline>
J2VwaWtfcHl0aG9uJywgJy1waCcsICc3LjAnLCAnLXRuJywgJzgnLCAnLW1hJywgJzIwMCcsICctbWV0YWxfYmluZGluZycsICctaW1hZScsICc8aW5maWxlLm1hZT4nLCAnLW9tYWUnLCAnPG91dGZpbGUubWFlPic=

> <r_lp_tautomer_probability>
1

> <r_epik_Ionization_Penalty>
6.20357e-05

> <r_epik_Ionization_Penalty_Charging>
0

> <r_epik_Ionization_Penalty_Neutral>
6.20357e-05

> <r_epik_State_Penalty>
-0

> <r_epik_Charging_Adjusted_Penalty>
0

> <i_epik_Tot_Q>
0

> <i_epik_Tot_abs_Q>
0

> <r_epik_Metal_State_Penalty>
-0

> <b_epik_Metal_Only>
0

> <s_lp_Force_Field>
OPLS_2005

> <r_lp_Energy>
35.6446

> <b_lp_Chiralities_Consistent>
1

> <s_lp_Variant>
AV-unprocessed.smi:19-2

> <Gold.Version>
5.8.1

> <Gold.Id.Protein>
6NUR|6NUR_protein|mol2

> <Gold.PLP.Fitness>
43.6928

> <Gold.PLP.PLP>
-36.6925

> <Gold.PLP.part.hbond>
-2.7592

> <Gold.PLP.part.metal>
0.0000

> <Gold.PLP.part.buried>
-6.0659

> <Gold.PLP.part.nonpolar>
-28.1833

> <Gold.PLP.part.repulsive>
0.2693

> <Gold.PLP.ligand.clash>
0.0000

> <Gold.PLP.ligand.torsion>
0.7888

> <Gold.PLP.Chemscore.Hbond>
1.7176

> <Gold.PLP.Chemscore.CHOScore>
1.0000

> <Gold.PLP.Chemscore.Metal>
0.0000

> <Gold.Chemscore.Hbonds>
donor molecule, donor type, donor heavy atom, donor atom, acceptor molecule, acceptor atom, score
      L1  H    19    43       P1  7948  0.65
      P1  H  6896  6909       L1    22  1.00
      L1  C     9    37       P1  7957  1.00

> <Gold.PLP.Chemscore.Internal.Correction>
0.4252

> <Gold.Rescore>
     Score         DG    S(hbond)    S(metal)    S(lipo)     H(rot)  DE(clash)    DE(int)     intcor
     11.69     -12.55       1.00        0.00      94.74       2.87       0.06       0.81       ----

> <Gold.Chemscore.Fitness>
11.6869

> <Gold.Chemscore.DG>
-12.5537

> <Gold.Chemscore.ZeroCoef>
-5.4800

> <Gold.Chemscore.Hbond>
1.0011

> <Gold.Chemscore.Metal>
0.0000

> <Gold.Chemscore.Lipo>
94.7393

> <Gold.Chemscore.Internal_Hbond>
0.0000

> <Gold.Chemscore.DEClash>
0.0559

> <Gold.Chemscore.DEInternal>
0.8109

> <Gold.Chemscore.Rot>
2.8729

> <Gold.Chemscore.Internal.Correction>
   9.000000E+99

> <Gold.Chemscore.Hbonds>
donor molecule, donor type, donor heavy atom, donor atom, acceptor molecule, acceptor atom, score
      L1  H    19    43       P1  7948  0.14
      P1  H  6896  6909       L1    22  0.91

> <Gold.Chemscore.Hbond.Weighted>
-3.3438

> <Gold.Chemscore.Metal.Weighted>
-0.0000

> <Gold.Chemscore.Lipo.Weighted>
-11.0845

> <Gold.Chemscore.Internal_Hbond.Weighted>
0.0000

> <Gold.Chemscore.DEClash.Weighted>
0.0559

> <Gold.Chemscore.DEInternal.Weighted>
0.8109

> <Gold.Chemscore.Rot.Weighted>
7.3546

> <Gold.Chemscore.Internal.Correction.Weighted>
   9.000000E+99

> <Gold.Protein.RotatedTorsions>
[ 6907 6896 6895 6894 ] final  -46.28 input  -60.11 | X-H torsion
[ 7974 7965 7964 7962 ] final -171.86 input  175.53 | X-H torsion
[ 8008 7997 7996 7995 ] final  107.66 input   59.86 | X-H torsion
[ 10167 10162 10161 10158 ] final  -90.65 input  -65.29 | X-H torsion
[ 10718 10713 10712 10709 ] final  119.52 input   66.30 | X-H torsion
[ 10763 10752 10751 10750 ] final  -25.78 input  -60.55 | X-H torsion
[ 11005 11000 10999 10996 ] final  -78.74 input  -57.11 | X-H torsion

> <Gold.Protein.ActiveResidues>
 VAL166  LYS551  ARG553  GLY616  TRP617  ASP618  TYR619  PRO620  LYS621  CYS622 
 ASP623  PHE694  ASN695  SER759  ASP760  ASP761  ALA762  ILE779  LEU786  VAL792 
 PHE793  MET794  SER795  GLU796  ALA797  LYS798  CYS799  TRP800  GLU811  SER814 

> <Gold.Protein.RotatedAtoms>
  150.9130  134.8547  159.7437 H   0  0  0  0  0  0  0  0  0  0  0  0  # atno 6907 bound_to 6896
  152.4954  134.4331  159.9529 H   0  0  0  0  0  0  0  0  0  0  0  0  # atno 6908 bound_to 6896
  151.4372  133.3614  159.2812 H   0  0  0  0  0  0  0  0  0  0  0  0  # atno 6909 bound_to 6896
  144.7152  140.1858  143.6353 H   0  0  0  0  0  0  0  0  0  0  0  0  # atno 7974 bound_to 7965
  156.1842  140.3090  155.9206 H   0  0  0  0  0  0  0  0  0  0  0  0  # atno 8008 bound_to 7997
  155.3318  140.0461  157.3060 H   0  0  0  0  0  0  0  0  0  0  0  0  # atno 8009 bound_to 7997
  154.5377  140.2251  155.8705 H   0  0  0  0  0  0  0  0  0  0  0  0  # atno 8010 bound_to 7997
  140.3528  143.2882  151.9706 H   0  0  0  0  0  0  0  0  0  0  0  0  # atno 10167 bound_to 10162
  157.5956  131.1058  150.7907 H   0  0  0  0  0  0  0  0  0  0  0  0  # atno 10718 bound_to 10713
  153.7053  135.6954  153.5052 H   0  0  0  0  0  0  0  0  0  0  0  0  # atno 10763 bound_to 10752
  153.2312  135.4337  155.0596 H   0  0  0  0  0  0  0  0  0  0  0  0  # atno 10764 bound_to 10752
  154.8331  135.3484  154.6592 H   0  0  0  0  0  0  0  0  0  0  0  0  # atno 10765 bound_to 10752
  141.1666  133.7076  156.8018 H   0  0  0  0  0  0  0  0  0  0  0  0  # atno 11005 bound_to 11000
  145.8814  139.2325  143.1603 LP  0  0  0  0  0  0  0  0  0  0  0  0  # atno 17320 bound_to 7965
  145.9991  140.8536  143.0027 LP  0  0  0  0  0  0  0  0  0  0  0  0  # atno 17321 bound_to 7965
  139.4824  144.6061  151.7519 LP  0  0  0  0  0  0  0  0  0  0  0  0  # atno 17342 bound_to 10162
  140.5202  144.0890  150.6020 LP  0  0  0  0  0  0  0  0  0  0  0  0  # atno 17343 bound_to 10162
  156.8319  130.5018  149.5330 LP  0  0  0  0  0  0  0  0  0  0  0  0  # atno 17370 bound_to 10713
  156.1018  130.5974  150.9906 LP  0  0  0  0  0  0  0  0  0  0  0  0  # atno 17371 bound_to 10713
  140.2251  134.8728  157.3418 LP  0  0  0  0  0  0  0  0  0  0  0  0  # atno 17394 bound_to 11000
  140.1948  134.4327  155.7695 LP  0  0  0  0  0  0  0  0  0  0  0  0  # atno 17395 bound_to 11000

$$$$
