#       Name:                AV-unprocessed.smi:1683
#       Creating user name   scv26
#       Creation time:       Fri Mar 27 07:50:20 2020


#       File generated by GOLD software.
#

@<TRIPOS>MOLECULE
AV-unprocessed.smi:1683
    40    41     1
SMALL
NO_CHARGES


@<TRIPOS>ATOM
      1 ****        -2.1841   0.0577   0.5701 O.2            1 S1                 0.0000
      2 ****        -2.0591   0.6316  -0.5122 C.2            1 S1                 0.0000
      3 ****        -1.4120   0.1054  -1.5621 N.am           1 S1                 0.0000
      4 ****        -0.7742  -1.2074  -1.5935 C.3            1 S1                 0.0000
      5 ****         0.7467  -1.1127  -1.3695 C.3            1 S1                 0.0000
      6 ****         1.4656  -2.4601  -1.4545 C.3            1 S1                 0.0000
      7 ****         2.4028  -2.4863  -0.2434 C.3            1 S1                 0.0000
      8 ****         2.5129  -1.0900   0.1626 N.3            1 S1                 0.0000
      9 ****         2.9840  -0.9166   1.5354 C.3            1 S1                 0.0000
     10 ****         4.4755  -1.2628   1.7130 C.3            1 S1                 0.0000
     11 ****         4.8513  -0.9056   2.9404 F              1 S1                 0.0000
     12 ****         4.6953  -2.5703   1.5758 F              1 S1                 0.0000
     13 ****         5.2194  -0.5944   0.8311 F              1 S1                 0.0000
     14 ****         1.1587  -0.5801   0.0052 C.3            1 S1                 0.0000
     15 ****        -2.5395   1.8530  -0.7977 N.am           1 S1                 0.0000
     16 ****        -3.2963   2.7007   0.0507 C.2            1 S1                 0.0000
     17 ****        -3.7631   3.9949  -0.3063 C.2            1 S1                 0.0000
     18 ****        -4.4465   4.5528   0.6829 N.2            1 S1                 0.0000
     19 ****        -4.4209   3.6266   1.6678 N.pl3          1 S1                 0.0000
     20 ****        -3.7324   2.4830   1.3276 C.2            1 S1                 0.0000
     21 ****        -4.8740   3.7873   2.5562 H              1 S1                 0.0000
     22 ****        -1.3580   0.6540  -2.4080 H              1 S1                 0.0000
     23 ****        -1.2273  -1.8808  -0.8638 H              1 S1                 0.0000
     24 ****        -0.9703  -1.6456  -2.5724 H              1 S1                 0.0000
     25 ****         1.1741  -0.4551  -2.1288 H              1 S1                 0.0000
     26 ****         0.7767  -3.3048  -1.4192 H              1 S1                 0.0000
     27 ****         2.0270  -2.5328  -2.3867 H              1 S1                 0.0000
     28 ****         1.9526  -3.0747   0.5581 H              1 S1                 0.0000
     29 ****         3.3728  -2.9211  -0.4851 H              1 S1                 0.0000
     30 ****         2.8446   0.1314   1.8042 H              1 S1                 0.0000
     31 ****         2.3715  -1.4985   2.2258 H              1 S1                 0.0000
     32 ****         1.1245   0.5086   0.0598 H              1 S1                 0.0000
     33 ****         0.5102  -0.9857   0.7841 H              1 S1                 0.0000
     34 ****        -2.3514   2.2119  -1.7224 H              1 S1                 0.0000
     35 ****        -3.6323   4.5369  -1.2313 H              1 S1                 0.0000
     36 ****        -3.6240   1.6496   2.0060 H              1 S1                 0.0000
     37 ****        -1.7913  -0.8524   0.7017 LP             1 S1                 0.0000
     38 ****        -2.6785   0.5018   1.3174 LP             1 S1                 0.0000
     39 ****         3.1926  -0.6042  -0.3869 LP             1 S1                 0.0000
     40 ****        -4.8817   5.4530   0.6975 LP             1 S1                 0.0000
@<TRIPOS>BOND
    1    1    2 2     
    2    2    3 am    
    3    2   15 am    
    4    3    4 1     
    5    3   22 1     
    6    4    5 1     
    7    4   23 1     
    8    4   24 1     
    9    5   14 1     
   10    5    6 1     
   11    5   25 1     
   12    6    7 1     
   13    6   26 1     
   14    6   27 1     
   15    7    8 1     
   16    7   28 1     
   17    7   29 1     
   18    8    9 1     
   19    8   14 1     
   20    9   10 1     
   21    9   30 1     
   22    9   31 1     
   23   10   11 1     
   24   10   12 1     
   25   10   13 1     
   26   14   32 1     
   27   14   33 1     
   28   15   16 1     
   29   15   34 1     
   30   16   20 2     
   31   16   17 1     
   32   17   18 2     
   33   17   35 1     
   34   18   19 1     
   35   19   21 1     
   36   19   20 1     
   37   20   36 1     
   38    1   37 1     
   39    1   38 1     
   40    8   39 1     
   41   18   40 1     
@<TRIPOS>SUBSTRUCTURE
      1 S1             1
@<TRIPOS>SET
LONE_PAIRS      STATIC     ATOMS    <user>   **** ""
4 37 38 39 40
DONOR_HYDROGENS      STATIC     ATOMS    <user>   **** ""
3 22 34 21
ATOM$BLUE        STATIC     ATOMS    COLORGROUP SYSTEM
4 37 38 39 40
ATOM$RED        STATIC     ATOMS    COLORGROUP SYSTEM
3 22 34 21
