AV-unprocessed.smi:95|AV-procd|sdf|856|dock1
  -GOLD-   2262017303D 1   1.00000     0.00000
 Structure written by MMmdl.
 41 44  0  0  0  0  0  0  0  0  1 V2000
  152.6117  140.3735  155.1312 O   0  0  0  0  0  0  0  0  0  0  0  0
  151.5108  140.0771  155.5992 C   0  0  0  0  0  0  0  0  0  0  0  0
  150.9296  138.7424  155.5053 C   0  0  0  0  0  0  0  0  0  0  0  0
  151.6014  137.7686  154.8678 F   0  0  0  0  0  0  0  0  0  0  0  0
  149.7255  138.4650  156.0510 C   0  0  0  0  0  0  0  0  0  0  0  0
  148.9660  139.4074  156.7259 N   0  0  0  0  0  0  0  0  0  0  0  0
  147.6275  139.0676  157.3483 C   0  0  1  0  0  0  0  0  0  0  0  0
  146.7208  138.3497  156.3295 C   0  0  0  0  0  0  0  0  0  0  0  0
  146.2886  137.1066  157.0816 C   0  0  0  0  0  0  0  0  0  0  0  0
  147.4716  136.8714  158.0084 C   0  0  0  0  0  0  0  0  0  0  0  0
  147.8099  138.1884  158.4217 O   0  0  0  0  0  0  0  0  0  0  0  0
  149.4563  140.7235  156.8744 C   0  0  0  0  0  0  0  0  0  0  0  0
  148.8097  141.5680  157.4990 O   0  0  0  0  0  0  0  0  0  0  0  0
  150.7102  141.0194  156.2887 N   0  0  0  0  0  0  0  0  0  0  0  0
  151.2518  142.3607  156.4496 C   0  0  0  0  0  0  0  0  0  0  0  0
  151.5824  142.7713  157.8803 C   0  0  0  0  0  0  0  0  0  0  0  0
  151.0336  143.9540  158.4145 C   0  0  0  0  0  0  0  0  0  0  0  0
  151.3458  144.2995  159.7417 C   0  0  0  0  0  0  0  0  0  0  0  0
  152.1891  143.4496  160.4858 C   0  0  0  0  0  0  0  0  0  0  0  0
  152.5211  143.7688  161.8187 C   0  0  0  0  0  0  0  0  0  0  0  0
  153.3636  142.9171  162.5563 C   0  0  0  0  0  0  0  0  0  0  0  0
  153.8721  141.7482  161.9611 C   0  0  0  0  0  0  0  0  0  0  0  0
  153.5380  141.4314  160.6300 C   0  0  0  0  0  0  0  0  0  0  0  0
  152.6950  142.2712  159.8713 C   0  0  0  0  0  0  0  0  0  0  0  0
  152.3859  141.9496  158.5949 N   0  0  0  0  0  0  0  0  0  0  0  0
  149.3594  137.4552  155.9472 H   0  0  0  0  0  0  0  0  0  0  0  0
  147.2258  140.0132  157.7172 H   0  0  0  0  0  0  0  0  0  0  0  0
  145.8858  138.9850  156.0328 H   0  0  0  0  0  0  0  0  0  0  0  0
  147.2917  138.0765  155.4405 H   0  0  0  0  0  0  0  0  0  0  0  0
  145.3914  137.3143  157.6662 H   0  0  0  0  0  0  0  0  0  0  0  0
  146.0834  136.2597  156.4264 H   0  0  0  0  0  0  0  0  0  0  0  0
  147.2249  136.2342  158.8577 H   0  0  0  0  0  0  0  0  0  0  0  0
  148.3048  136.4199  157.4682 H   0  0  0  0  0  0  0  0  0  0  0  0
  152.1388  142.4195  155.8159 H   0  0  0  0  0  0  0  0  0  0  0  0
  150.5544  143.0741  156.0098 H   0  0  0  0  0  0  0  0  0  0  0  0
  150.3887  144.5851  157.8206 H   0  0  0  0  0  0  0  0  0  0  0  0
  150.9427  145.2017  160.1777 H   0  0  0  0  0  0  0  0  0  0  0  0
  152.1322  144.6654  162.2791 H   0  0  0  0  0  0  0  0  0  0  0  0
  153.6194  143.1601  163.5772 H   0  0  0  0  0  0  0  0  0  0  0  0
  154.5191  141.0930  162.5255 H   0  0  0  0  0  0  0  0  0  0  0  0
  153.9354  140.5308  160.1853 H   0  0  0  0  0  0  0  0  0  0  0  0
  1  2  2  0  0  0  0
  2 14  1  0  0  0  0
  2  3  1  0  0  0  0
  3  4  1  0  0  0  0
  3  5  2  0  0  0  0
  5  6  1  0  0  0  0
  5 26  1  0  0  0  0
  6  7  1  0  0  0  0
  6 12  1  0  0  0  0
  7 11  1  0  0  0  0
  7  8  1  0  0  0  0
  7 27  1  0  0  0  0
  8  9  1  0  0  0  0
  8 28  1  0  0  0  0
  8 29  1  0  0  0  0
  9 10  1  0  0  0  0
  9 30  1  0  0  0  0
  9 31  1  0  0  0  0
 10 11  1  0  0  0  0
 10 32  1  0  0  0  0
 10 33  1  0  0  0  0
 12 13  2  0  0  0  0
 12 14  1  0  0  0  0
 14 15  1  0  0  0  0
 15 16  1  0  0  0  0
 15 34  1  0  0  0  0
 15 35  1  0  0  0  0
 16 25  1  0  0  0  0
 16 17  2  0  0  0  0
 17 18  1  0  0  0  0
 17 36  1  0  0  0  0
 18 19  2  0  0  0  0
 18 37  1  0  0  0  0
 19 24  1  0  0  0  0
 19 20  1  0  0  0  0
 20 21  2  0  0  0  0
 20 38  1  0  0  0  0
 21 22  1  0  0  0  0
 21 39  1  0  0  0  0
 22 23  2  0  0  0  0
 22 40  1  0  0  0  0
 23 24  1  0  0  0  0
 23 41  1  0  0  0  0
 24 25  2  0  0  0  0
M  END
> <s_m_source_file>
AV-unprocessed.smi

> <i_m_source_file_index>
95

> <i_lp_mmshare_version>
43012

> <i_f3d_flags>
0

> <s_epik_input>
TzFbQ0gyXVtDSDJdW0NIMl1bQ0BIXTFuKFtjSF1jKEYpYzI9TyljKD1PKW4yW0NIMl1jKFtjSF1bY0hdMyluYyhjMzQpW2NIXVtjSF1bY0hdW2NIXTQ=

> <s_epik_cmdline>
J2VwaWtfcHl0aG9uJywgJy1waCcsICc3LjAnLCAnLXRuJywgJzgnLCAnLW1hJywgJzIwMCcsICctbWV0YWxfYmluZGluZycsICctaW1hZScsICc8aW5maWxlLm1hZT4nLCAnLW9tYWUnLCAnPG91dGZpbGUubWFlPic=

> <r_lp_tautomer_probability>
1

> <r_epik_Ionization_Penalty>
0.0274176

> <r_epik_Ionization_Penalty_Charging>
1.11818e-08

> <r_epik_Ionization_Penalty_Neutral>
0.0274176

> <r_epik_State_Penalty>
0.0224396

> <r_epik_Charging_Adjusted_Penalty>
0.0224396

> <i_epik_Tot_Q>
0

> <i_epik_Tot_abs_Q>
0

> <r_epik_Metal_State_Penalty>
2.28695e-05

> <b_epik_Metal_Only>
0

> <s_epik_Chemistry_Notes>
This compound contains an acetal/aminal-like group ( X-CH(R)-Y where X, Y are N, S, or O) that may be acid/base labile, releasing an aldehyde.

> <s_lp_Force_Field>
OPLS_2005

> <r_lp_Energy>
34.6925

> <b_lp_Chiralities_Consistent>
1

> <s_lp_Variant>
AV-unprocessed.smi:95-2

> <Gold.Version>
5.8.1

> <Gold.Id.Protein>
6NUR|6NUR_protein|mol2

> <Gold.PLP.Fitness>
49.3832

> <Gold.PLP.PLP>
-45.9899

> <Gold.PLP.part.hbond>
-3.0000

> <Gold.PLP.part.metal>
0.0000

> <Gold.PLP.part.buried>
-5.4411

> <Gold.PLP.part.nonpolar>
-36.7691

> <Gold.PLP.part.repulsive>
0.1243

> <Gold.PLP.ligand.clash>
0.0000

> <Gold.PLP.ligand.torsion>
0.2319

> <Gold.PLP.Chemscore.Hbond>
1.2741

> <Gold.PLP.Chemscore.CHOScore>
0.0000

> <Gold.PLP.Chemscore.Metal>
0.0000

> <Gold.Chemscore.Hbonds>
donor molecule, donor type, donor heavy atom, donor atom, acceptor molecule, acceptor atom, score
      P1  H  7989  7998       L1     1  0.17
      P1  H  7997  8009       L1     1  1.00

> <Gold.PLP.Chemscore.Internal.Correction>
0.0349

> <Gold.Rescore>
     Score         DG    S(hbond)    S(metal)    S(lipo)     H(rot)  DE(clash)    DE(int)     intcor
     18.37     -19.80       1.51        0.00     112.12       1.50       0.34       1.09       ----

> <Gold.Chemscore.Fitness>
18.3670

> <Gold.Chemscore.DG>
-19.7978

> <Gold.Chemscore.ZeroCoef>
-5.4800

> <Gold.Chemscore.Hbond>
1.5079

> <Gold.Chemscore.Metal>
0.0000

> <Gold.Chemscore.Lipo>
112.1154

> <Gold.Chemscore.Internal_Hbond>
0.0000

> <Gold.Chemscore.DEClash>
0.3443

> <Gold.Chemscore.DEInternal>
1.0865

> <Gold.Chemscore.Rot>
1.4985

> <Gold.Chemscore.Internal.Correction>
   9.000000E+99

> <Gold.Chemscore.Hbonds>
donor molecule, donor type, donor heavy atom, donor atom, acceptor molecule, acceptor atom, score
      P1  H  7997  8009       L1     1  0.95

> <Gold.Chemscore.Hbond.Weighted>
-5.0365

> <Gold.Chemscore.Metal.Weighted>
-0.0000

> <Gold.Chemscore.Lipo.Weighted>
-13.1175

> <Gold.Chemscore.Internal_Hbond.Weighted>
0.0000

> <Gold.Chemscore.DEClash.Weighted>
0.3443

> <Gold.Chemscore.DEInternal.Weighted>
1.0865

> <Gold.Chemscore.Rot.Weighted>
3.8362

> <Gold.Chemscore.Internal.Correction.Weighted>
   9.000000E+99

> <Gold.Protein.RotatedTorsions>
[ 6907 6896 6895 6894 ] final -129.53 input  -60.11 | X-H torsion
[ 7974 7965 7964 7962 ] final -129.89 input  175.53 | X-H torsion
[ 8008 7997 7996 7995 ] final -143.14 input   59.86 | X-H torsion
[ 10167 10162 10161 10158 ] final   30.20 input  -65.29 | X-H torsion
[ 10718 10713 10712 10709 ] final -170.89 input   66.30 | X-H torsion
[ 10763 10752 10751 10750 ] final   20.13 input  -60.55 | X-H torsion
[ 11005 11000 10999 10996 ] final   73.43 input  -57.11 | X-H torsion

> <Gold.Protein.ActiveResidues>
 VAL166  LYS551  ARG553  GLY616  TRP617  ASP618  TYR619  PRO620  LYS621  CYS622 
 ASP623  PHE694  ASN695  SER759  ASP760  ASP761  ALA762  ILE779  LEU786  VAL792 
 PHE793  MET794  SER795  GLU796  ALA797  LYS798  CYS799  TRP800  GLU811  SER814 

> <Gold.Protein.RotatedAtoms>
  150.9297  133.6781  159.2813 H   0  0  0  0  0  0  0  0  0  0  0  0  # atno 6907 bound_to 6896
  151.4207  135.0996  159.9623 H   0  0  0  0  0  0  0  0  0  0  0  0  # atno 6908 bound_to 6896
  152.5020  133.8750  159.7372 H   0  0  0  0  0  0  0  0  0  0  0  0  # atno 6909 bound_to 6896
  144.9527  140.7362  143.4777 H   0  0  0  0  0  0  0  0  0  0  0  0  # atno 7974 bound_to 7965
  155.5056  140.0579  157.2932 H   0  0  0  0  0  0  0  0  0  0  0  0  # atno 8008 bound_to 7997
  154.4570  140.1978  156.0299 H   0  0  0  0  0  0  0  0  0  0  0  0  # atno 8009 bound_to 7997
  156.0819  140.3246  155.7708 H   0  0  0  0  0  0  0  0  0  0  0  0  # atno 8010 bound_to 7997
  140.4698  144.0779  150.6234 H   0  0  0  0  0  0  0  0  0  0  0  0  # atno 10167 bound_to 10162
  156.7328  130.9313  151.3105 H   0  0  0  0  0  0  0  0  0  0  0  0  # atno 10718 bound_to 10713
  153.1104  135.6695  153.9511 H   0  0  0  0  0  0  0  0  0  0  0  0  # atno 10763 bound_to 10752
  153.9056  135.3031  155.3450 H   0  0  0  0  0  0  0  0  0  0  0  0  # atno 10764 bound_to 10752
  154.7523  135.5028  153.9389 H   0  0  0  0  0  0  0  0  0  0  0  0  # atno 10765 bound_to 10752
  139.9440  134.7346  156.1026 H   0  0  0  0  0  0  0  0  0  0  0  0  # atno 11005 bound_to 11000
  145.2819  139.1915  143.4786 LP  0  0  0  0  0  0  0  0  0  0  0  0  # atno 17320 bound_to 7965
  146.3327  140.2782  142.8609 LP  0  0  0  0  0  0  0  0  0  0  0  0  # atno 17321 bound_to 7965
  140.3990  143.2713  151.9970 LP  0  0  0  0  0  0  0  0  0  0  0  0  # atno 17342 bound_to 10162
  139.4817  144.6013  151.7600 LP  0  0  0  0  0  0  0  0  0  0  0  0  # atno 17343 bound_to 10162
  157.6851  130.9178  150.0367 LP  0  0  0  0  0  0  0  0  0  0  0  0  # atno 17370 bound_to 10713
  156.1517  130.3642  149.9428 LP  0  0  0  0  0  0  0  0  0  0  0  0  # atno 17371 bound_to 10713
  141.1085  133.6651  156.2921 LP  0  0  0  0  0  0  0  0  0  0  0  0  # atno 17394 bound_to 11000
  140.5880  134.5679  157.5493 LP  0  0  0  0  0  0  0  0  0  0  0  0  # atno 17395 bound_to 11000

$$$$
