AV-unprocessed.smi:1084|AV-procd|sdf|4716|dock5
  -GOLD-   22720 3243D 1   1.00000     0.00000
 Structure written by MMmdl.
 52 54  0  0  0  0  0  0  0  0  1 V2000
  147.8361  131.2070  153.2703 C   0  0  0  0  0  0  0  0  0  0  0  0
  147.5886  132.7129  152.9974 C   0  0  2  0  0  0  0  0  0  0  0  0
  147.8342  133.5053  154.3108 C   0  0  0  0  0  0  0  0  0  0  0  0
  148.3972  134.8287  154.0646 N   0  0  0  0  0  0  0  0  0  0  0  0
  148.7849  135.6836  155.0197 C   0  0  0  0  0  0  0  0  0  0  0  0
  148.6803  135.4510  156.2239 O   0  0  0  0  0  0  0  0  0  0  0  0
  149.2727  136.8172  154.4879 N   0  0  0  0  0  0  0  0  0  0  0  0
  149.8667  137.9181  155.1605 C   0  0  0  0  0  0  0  0  0  0  0  0
  149.9528  137.8717  156.5663 C   0  0  0  0  0  0  0  0  0  0  0  0
  150.5113  138.9642  157.2561 C   0  0  0  0  0  0  0  0  0  0  0  0
  150.9579  140.0798  156.5111 C   0  0  0  0  0  0  0  0  0  0  0  0
  151.5173  141.2034  157.1336 N   0  0  0  0  0  0  0  0  0  0  0  0
  151.9637  140.9463  158.4962 C   0  0  0  0  0  0  0  0  0  0  0  0
  152.6825  142.1862  159.0559 C   0  0  0  0  0  0  0  0  0  0  0  0
  151.8232  143.3196  158.9657 O   0  0  0  0  0  0  0  0  0  0  0  0
  151.4551  143.6070  157.6192 C   0  0  0  0  0  0  0  0  0  0  0  0
  150.7009  142.4054  157.0247 C   0  0  0  0  0  0  0  0  0  0  0  0
  150.8699  140.1365  155.1651 N   0  0  0  0  0  0  0  0  0  0  0  0
  150.3350  139.0848  154.5091 C   0  0  0  0  0  0  0  0  0  0  0  0
  146.2592  132.9731  152.3979 N   0  0  0  0  0  0  0  0  0  0  0  0
  146.0728  132.2796  151.1180 C   0  0  0  0  0  0  0  0  0  0  0  0
  144.7026  132.5624  150.4787 C   0  0  0  0  0  0  0  0  0  0  0  0
  144.5385  133.9624  150.3007 O   0  0  0  0  0  0  0  0  0  0  0  0
  144.6347  134.6703  151.5287 C   0  0  0  0  0  0  0  0  0  0  0  0
  146.0030  134.4014  152.1788 C   0  0  0  0  0  0  0  0  0  0  0  0
  148.7885  131.0214  153.7652 H   0  0  0  0  0  0  0  0  0  0  0  0
  147.8765  130.6216  152.3527 H   0  0  0  0  0  0  0  0  0  0  0  0
  147.0528  130.7886  153.9034 H   0  0  0  0  0  0  0  0  0  0  0  0
  148.3477  133.0369  152.2836 H   0  0  0  0  0  0  0  0  0  0  0  0
  146.9088  133.6810  154.8567 H   0  0  0  0  0  0  0  0  0  0  0  0
  148.4900  132.9303  154.9675 H   0  0  0  0  0  0  0  0  0  0  0  0
  148.5128  135.1033  153.1002 H   0  0  0  0  0  0  0  0  0  0  0  0
  149.1899  136.9132  153.4864 H   0  0  0  0  0  0  0  0  0  0  0  0
  149.5986  137.0097  157.1128 H   0  0  0  0  0  0  0  0  0  0  0  0
  150.5917  138.9417  158.3331 H   0  0  0  0  0  0  0  0  0  0  0  0
  151.1069  140.6991  159.1244 H   0  0  0  0  0  0  0  0  0  0  0  0
  152.6341  140.0860  158.5097 H   0  0  0  0  0  0  0  0  0  0  0  0
  152.9517  142.0258  160.0999 H   0  0  0  0  0  0  0  0  0  0  0  0
  153.6098  142.3758  158.5126 H   0  0  0  0  0  0  0  0  0  0  0  0
  150.8214  144.4938  157.6047 H   0  0  0  0  0  0  0  0  0  0  0  0
  152.3433  143.8393  157.0291 H   0  0  0  0  0  0  0  0  0  0  0  0
  150.4591  142.5941  155.9780 H   0  0  0  0  0  0  0  0  0  0  0  0
  149.7584  142.2650  157.5549 H   0  0  0  0  0  0  0  0  0  0  0  0
  150.2655  139.2080  153.4395 H   0  0  0  0  0  0  0  0  0  0  0  0
  146.8625  132.5683  150.4227 H   0  0  0  0  0  0  0  0  0  0  0  0
  146.1448  131.2017  151.2504 H   0  0  0  0  0  0  0  0  0  0  0  0
  144.6282  132.0695  149.5093 H   0  0  0  0  0  0  0  0  0  0  0  0
  143.8973  132.1678  151.1003 H   0  0  0  0  0  0  0  0  0  0  0  0
  144.5113  135.7360  151.3352 H   0  0  0  0  0  0  0  0  0  0  0  0
  143.8253  134.3703  152.1963 H   0  0  0  0  0  0  0  0  0  0  0  0
  146.0147  134.9452  153.1209 H   0  0  0  0  0  0  0  0  0  0  0  0
  146.7903  134.8274  151.5549 H   0  0  0  0  0  0  0  0  0  0  0  0
  1  2  1  0  0  0  0
  1 26  1  0  0  0  0
  1 27  1  0  0  0  0
  1 28  1  0  0  0  0
  2  3  1  0  0  0  0
  2 20  1  0  0  0  0
  2 29  1  0  0  0  0
  3  4  1  0  0  0  0
  3 30  1  0  0  0  0
  3 31  1  0  0  0  0
  4  5  1  0  0  0  0
  4 32  1  0  0  0  0
  5  6  2  0  0  0  0
  5  7  1  0  0  0  0
  7  8  1  0  0  0  0
  7 33  1  0  0  0  0
  8 19  1  0  0  0  0
  8  9  2  0  0  0  0
  9 10  1  0  0  0  0
  9 34  1  0  0  0  0
 10 11  2  0  0  0  0
 10 35  1  0  0  0  0
 11 12  1  0  0  0  0
 11 18  1  0  0  0  0
 12 17  1  0  0  0  0
 12 13  1  0  0  0  0
 13 14  1  0  0  0  0
 13 36  1  0  0  0  0
 13 37  1  0  0  0  0
 14 15  1  0  0  0  0
 14 38  1  0  0  0  0
 14 39  1  0  0  0  0
 15 16  1  0  0  0  0
 16 17  1  0  0  0  0
 16 40  1  0  0  0  0
 16 41  1  0  0  0  0
 17 42  1  0  0  0  0
 17 43  1  0  0  0  0
 18 19  2  0  0  0  0
 19 44  1  0  0  0  0
 20 25  1  0  0  0  0
 20 21  1  0  0  0  0
 21 22  1  0  0  0  0
 21 45  1  0  0  0  0
 21 46  1  0  0  0  0
 22 23  1  0  0  0  0
 22 47  1  0  0  0  0
 22 48  1  0  0  0  0
 23 24  1  0  0  0  0
 24 25  1  0  0  0  0
 24 49  1  0  0  0  0
 24 50  1  0  0  0  0
 25 51  1  0  0  0  0
 25 52  1  0  0  0  0
M  END
> <s_m_source_file>
AV-unprocessed.smi

> <i_m_source_file_index>
1084

> <i_lp_mmshare_version>
43012

> <i_f3d_flags>
0

> <s_epik_input>
W0NIMl0xW0NIMl1PW0NIMl1bQ0gyXU4xW0NASF0oW0NIM10pW0NIMl1bTkhdQyg9TylbTkhdYzJbY0hdW2NIXWMobltjSF0yKU4zW0NIMl1bQ0gyXU9bQ0gyXVtDSDJdMw==

> <s_epik_cmdline>
J2VwaWtfcHl0aG9uJywgJy1waCcsICc3LjAnLCAnLXRuJywgJzgnLCAnLW1hJywgJzIwMCcsICctbWV0YWxfYmluZGluZycsICctaW1hZScsICc8aW5maWxlLm1hZT4nLCAnLW9tYWUnLCAnPG91dGZpbGUubWFlPic=

> <r_lp_tautomer_probability>
1

> <r_epik_Ionization_Penalty>
0.268053

> <r_epik_Ionization_Penalty_Charging>
0

> <r_epik_Ionization_Penalty_Neutral>
0.268053

> <r_epik_State_Penalty>
0.269834

> <r_epik_Charging_Adjusted_Penalty>
0.269834

> <i_epik_Tot_Q>
0

> <i_epik_Tot_abs_Q>
0

> <r_epik_Metal_State_Penalty>
0.268436

> <b_epik_Metal_Only>
0

> <s_lp_Force_Field>
OPLS_2005

> <r_lp_Energy>
46.8762

> <b_lp_Chiralities_Consistent>
1

> <s_lp_Variant>
AV-unprocessed.smi:1084-1

> <Gold.Version>
5.8.1

> <Gold.Id.Protein>
6NUR|6NUR_protein|mol2

> <Gold.PLP.Fitness>
46.0573

> <Gold.PLP.PLP>
-36.5193

> <Gold.PLP.part.hbond>
-3.0000

> <Gold.PLP.part.metal>
0.0000

> <Gold.PLP.part.buried>
-5.8902

> <Gold.PLP.part.nonpolar>
-28.9343

> <Gold.PLP.part.repulsive>
0.9081

> <Gold.PLP.ligand.clash>
0.0000

> <Gold.PLP.ligand.torsion>
0.7031

> <Gold.PLP.Chemscore.Hbond>
2.6000

> <Gold.PLP.Chemscore.CHOScore>
1.0000

> <Gold.PLP.Chemscore.Metal>
0.0000

> <Gold.Chemscore.Hbonds>
donor molecule, donor type, donor heavy atom, donor atom, acceptor molecule, acceptor atom, score
      L1  H     4    32       P1  7948  1.00
      L1  H     7    33       P1  7948  1.00
      P1  H  7989  7998       L1    18  0.60
      L1  C    19    44       P1  7957  1.00

> <Gold.PLP.Chemscore.Internal.Correction>
0.1441

> <Gold.Rescore>
     Score         DG    S(hbond)    S(metal)    S(lipo)     H(rot)  DE(clash)    DE(int)     intcor
     16.70     -18.84       1.93        0.00      94.60       1.62       0.06       2.09       ----

> <Gold.Chemscore.Fitness>
16.6957

> <Gold.Chemscore.DG>
-18.8442

> <Gold.Chemscore.ZeroCoef>
-5.4800

> <Gold.Chemscore.Hbond>
1.9301

> <Gold.Chemscore.Metal>
0.0000

> <Gold.Chemscore.Lipo>
94.5972

> <Gold.Chemscore.Internal_Hbond>
0.0000

> <Gold.Chemscore.DEClash>
0.0598

> <Gold.Chemscore.DEInternal>
2.0887

> <Gold.Chemscore.Rot>
1.6211

> <Gold.Chemscore.Internal.Correction>
   9.000000E+99

> <Gold.Chemscore.Hbonds>
donor molecule, donor type, donor heavy atom, donor atom, acceptor molecule, acceptor atom, score
      L1  H     4    32       P1  7948  0.77
      L1  H     7    33       P1  7948  0.95
      P1  H  7989  7998       L1    18  0.04

> <Gold.Chemscore.Hbond.Weighted>
-6.4464

> <Gold.Chemscore.Metal.Weighted>
-0.0000

> <Gold.Chemscore.Lipo.Weighted>
-11.0679

> <Gold.Chemscore.Internal_Hbond.Weighted>
0.0000

> <Gold.Chemscore.DEClash.Weighted>
0.0598

> <Gold.Chemscore.DEInternal.Weighted>
2.0887

> <Gold.Chemscore.Rot.Weighted>
4.1501

> <Gold.Chemscore.Internal.Correction.Weighted>
   9.000000E+99

> <Gold.Protein.RotatedTorsions>
[ 6907 6896 6895 6894 ] final   53.22 input  -60.11 | X-H torsion
[ 7974 7965 7964 7962 ] final -113.42 input  175.53 | X-H torsion
[ 8008 7997 7996 7995 ] final   92.96 input   59.86 | X-H torsion
[ 10167 10162 10161 10158 ] final   11.21 input  -65.29 | X-H torsion
[ 10718 10713 10712 10709 ] final -111.06 input   66.30 | X-H torsion
[ 10763 10752 10751 10750 ] final  -23.38 input  -60.55 | X-H torsion
[ 11005 11000 10999 10996 ] final  -56.76 input  -57.11 | X-H torsion

> <Gold.Protein.ActiveResidues>
 VAL166  LYS551  ARG553  GLY616  TRP617  ASP618  TYR619  PRO620  LYS621  CYS622 
 ASP623  PHE694  ASN695  SER759  ASP760  ASP761  ALA762  ILE779  LEU786  VAL792 
 PHE793  MET794  SER795  GLU796  ALA797  LYS798  CYS799  TRP800  GLU811  SER814 

> <Gold.Protein.RotatedAtoms>
  152.3315  134.7253  160.0288 H   0  0  0  0  0  0  0  0  0  0  0  0  # atno 6907 bound_to 6896
  151.7668  133.3332  159.3441 H   0  0  0  0  0  0  0  0  0  0  0  0  # atno 6908 bound_to 6896
  150.7425  134.5987  159.6069 H   0  0  0  0  0  0  0  0  0  0  0  0  # atno 6909 bound_to 6896
  145.1322  140.8731  143.3751 H   0  0  0  0  0  0  0  0  0  0  0  0  # atno 7974 bound_to 7965
  156.0413  140.3319  155.7247 H   0  0  0  0  0  0  0  0  0  0  0  0  # atno 8008 bound_to 7997
  155.5739  140.0630  157.2817 H   0  0  0  0  0  0  0  0  0  0  0  0  # atno 8009 bound_to 7997
  154.4394  140.1856  156.0896 H   0  0  0  0  0  0  0  0  0  0  0  0  # atno 8010 bound_to 7997
  140.6146  143.8335  150.7104 H   0  0  0  0  0  0  0  0  0  0  0  0  # atno 10167 bound_to 10162
  156.0626  130.5848  150.8323 H   0  0  0  0  0  0  0  0  0  0  0  0  # atno 10718 bound_to 10713
  153.6669  135.6973  153.5159 H   0  0  0  0  0  0  0  0  0  0  0  0  # atno 10763 bound_to 10752
  153.2588  135.4251  155.0872 H   0  0  0  0  0  0  0  0  0  0  0  0  # atno 10764 bound_to 10752
  154.8437  135.3550  154.6213 H   0  0  0  0  0  0  0  0  0  0  0  0  # atno 10765 bound_to 10752
  141.1134  133.6610  156.4667 H   0  0  0  0  0  0  0  0  0  0  0  0  # atno 11005 bound_to 11000
  145.0623  139.3096  143.5874 LP  0  0  0  0  0  0  0  0  0  0  0  0  # atno 17320 bound_to 7965
  146.3513  140.0069  142.8671 LP  0  0  0  0  0  0  0  0  0  0  0  0  # atno 17321 bound_to 7965
  140.1911  143.4035  152.1862 LP  0  0  0  0  0  0  0  0  0  0  0  0  # atno 17342 bound_to 10162
  139.5388  144.7236  151.4802 LP  0  0  0  0  0  0  0  0  0  0  0  0  # atno 17343 bound_to 10162
  157.5645  131.0946  150.9510 LP  0  0  0  0  0  0  0  0  0  0  0  0  # atno 17370 bound_to 10713
  156.9740  130.5501  149.5292 LP  0  0  0  0  0  0  0  0  0  0  0  0  # atno 17371 bound_to 10713
  140.4712  134.6751  157.5130 LP  0  0  0  0  0  0  0  0  0  0  0  0  # atno 17394 bound_to 11000
  140.0042  134.6790  155.9482 LP  0  0  0  0  0  0  0  0  0  0  0  0  # atno 17395 bound_to 11000

$$$$
