#       Name:                AV-unprocessed.smi:117
#       Creating user name   scv26
#       Creation time:       Thu Mar 26 18:25:53 2020


#       File generated by GOLD software.
#

@<TRIPOS>MOLECULE
AV-unprocessed.smi:117
    63    65     1
SMALL
NO_CHARGES


@<TRIPOS>ATOM
      1 ****        -3.9129  -2.4377   0.1834 C.3            1 S1                 0.0000
      2 ****        -3.4289  -1.1255  -0.4097 C.ar           1 S1                 0.0000
      3 ****        -4.2870  -0.0074  -0.3762 C.ar           1 S1                 0.0000
      4 ****        -3.8670   1.2262  -0.9006 C.ar           1 S1                 0.0000
      5 ****        -2.5857   1.3489  -1.4637 C.ar           1 S1                 0.0000
      6 ****        -1.7163   0.2346  -1.5192 C.ar           1 S1                 0.0000
      7 ****        -0.3983   0.3714  -2.0300 N.am           1 S1                 0.0000
      8 ****         0.0182   1.1069  -3.0795 C.2            1 S1                 0.0000
      9 ****        -0.7382   1.7526  -3.8041 O.2            1 S1                 0.0000
     10 ****         1.5261   1.1244  -3.3826 C.3            1 S1                 0.0000
     11 ****         2.3445   0.5459  -2.3180 N.am           1 S1                 0.0000
     12 ****         2.7271  -0.7394  -2.2228 C.2            1 S1                 0.0000
     13 ****         2.5069  -1.5684  -3.1044 O.2            1 S1                 0.0000
     14 ****         3.4166  -1.1896  -0.9217 C.3            1 S1                 0.0000
     15 ****         3.3115  -0.2224   0.1974 N.am           1 S1                 0.0000
     16 ****         4.4025   0.6397   0.4686 C.2            1 S1                 0.0000
     17 ****         5.4306   0.6027  -0.2082 O.2            1 S1                 0.0000
     18 ****         4.2136   1.5612   1.5835 C.2            1 S1                 0.0000
     19 ****         5.2075   2.3950   1.9337 F              1 S1                 0.0000
     20 ****         3.0520   1.5942   2.2688 C.2            1 S1                 0.0000
     21 ****         1.9780   0.7806   1.9656 N.am           1 S1                 0.0000
     22 ****         0.7114   0.8982   2.7857 C.3            1 S1                 0.0000
     23 ****        -0.5086   1.3348   1.9619 C.3            1 S1                 0.0000
     24 ****        -1.6174   0.5731   2.6534 C.3            1 S1                 0.0000
     25 ****        -0.9153  -0.7236   3.0410 C.3            1 S1                 0.0000
     26 ****         0.4184  -0.3387   3.3699 O.3            1 S1                 0.0000
     27 ****         2.1025  -0.1777   0.9340 C.2            1 S1                 0.0000
     28 ****         1.1818  -0.9506   0.6695 O.2            1 S1                 0.0000
     29 ****        -2.1362  -1.0127  -0.9829 C.ar           1 S1                 0.0000
     30 ****        -1.2296  -2.2407  -1.0217 C.3            1 S1                 0.0000
     31 ****        -4.9155  -2.3401   0.6002 H              1 S1                 0.0000
     32 ****        -3.2499  -2.7621   0.9858 H              1 S1                 0.0000
     33 ****        -3.9438  -3.2156  -0.5796 H              1 S1                 0.0000
     34 ****        -5.2719  -0.0887   0.0600 H              1 S1                 0.0000
     35 ****        -4.5245   2.0821  -0.8625 H              1 S1                 0.0000
     36 ****        -2.2741   2.3139  -1.8347 H              1 S1                 0.0000
     37 ****         0.2993  -0.2178  -1.5985 H              1 S1                 0.0000
     38 ****         1.7066   0.6162  -4.3311 H              1 S1                 0.0000
     39 ****         1.8391   2.1595  -3.5221 H              1 S1                 0.0000
     40 ****         2.5757   1.1579  -1.5491 H              1 S1                 0.0000
     41 ****         2.9896  -2.1486  -0.6223 H              1 S1                 0.0000
     42 ****         4.4541  -1.4280  -1.1590 H              1 S1                 0.0000
     43 ****         2.9635   2.2976   3.0841 H              1 S1                 0.0000
     44 ****         0.9346   1.6044   3.5863 H              1 S1                 0.0000
     45 ****        -0.6359   2.4171   1.9916 H              1 S1                 0.0000
     46 ****        -0.4196   1.0220   0.9231 H              1 S1                 0.0000
     47 ****        -1.9372   1.1077   3.5487 H              1 S1                 0.0000
     48 ****        -2.4894   0.4143   2.0192 H              1 S1                 0.0000
     49 ****        -1.4010  -1.2277   3.8765 H              1 S1                 0.0000
     50 ****        -0.8983  -1.4140   2.1978 H              1 S1                 0.0000
     51 ****        -1.7230  -3.0548  -1.5529 H              1 S1                 0.0000
     52 ****        -1.0107  -2.5802  -0.0095 H              1 S1                 0.0000
     53 ****        -0.2766  -2.0706  -1.5205 H              1 S1                 0.0000
     54 ****        -1.7225   1.7499  -3.6280 LP             1 S1                 0.0000
     55 ****        -0.3685   2.2800  -4.5691 LP             1 S1                 0.0000
     56 ****         2.0238  -1.2968  -3.9368 LP             1 S1                 0.0000
     57 ****         2.8110  -2.5140  -2.9888 LP             1 S1                 0.0000
     58 ****         5.5071  -0.0449  -0.9664 LP             1 S1                 0.0000
     59 ****         6.1890   1.2202   0.0003 LP             1 S1                 0.0000
     60 ****         0.5079  -0.2664   4.3632 LP             1 S1                 0.0000
     61 ****         1.0571  -1.0276   3.0270 LP             1 S1                 0.0000
     62 ****         1.2844  -1.6161  -0.0699 LP             1 S1                 0.0000
     63 ****         0.3312  -0.9131   1.1939 LP             1 S1                 0.0000
@<TRIPOS>BOND
    1    1    2 1     
    2    1   31 1     
    3    1   32 1     
    4    1   33 1     
    5    2   29 ar    
    6    2    3 ar    
    7    3    4 ar    
    8    3   34 1     
    9    4    5 ar    
   10    4   35 1     
   11    5    6 ar    
   12    5   36 1     
   13    6    7 1     
   14    6   29 ar    
   15    7    8 am    
   16    7   37 1     
   17    8    9 2     
   18    8   10 1     
   19   10   11 1     
   20   10   38 1     
   21   10   39 1     
   22   11   12 am    
   23   11   40 1     
   24   12   13 2     
   25   12   14 1     
   26   14   15 1     
   27   14   41 1     
   28   14   42 1     
   29   15   27 am    
   30   15   16 am    
   31   16   17 2     
   32   16   18 1     
   33   18   19 1     
   34   18   20 2     
   35   20   21 1     
   36   20   43 1     
   37   21   22 1     
   38   21   27 am    
   39   22   26 1     
   40   22   23 1     
   41   22   44 1     
   42   23   24 1     
   43   23   45 1     
   44   23   46 1     
   45   24   25 1     
   46   24   47 1     
   47   24   48 1     
   48   25   26 1     
   49   25   49 1     
   50   25   50 1     
   51   27   28 2     
   52   29   30 1     
   53   30   51 1     
   54   30   52 1     
   55   30   53 1     
   56    9   54 1     
   57    9   55 1     
   58   13   56 1     
   59   13   57 1     
   60   17   58 1     
   61   17   59 1     
   62   26   60 1     
   63   26   61 1     
   64   28   62 1     
   65   28   63 1     
@<TRIPOS>SUBSTRUCTURE
      1 S1             1
@<TRIPOS>SET
LONE_PAIRS      STATIC     ATOMS    <user>   **** ""
10 54 55 56 57 58 59 60 61 62 63
DONOR_HYDROGENS      STATIC     ATOMS    <user>   **** ""
2 37 40
ATOM$BLUE        STATIC     ATOMS    COLORGROUP SYSTEM
10 54 55 56 57 58 59 60 61 62 63
ATOM$RED        STATIC     ATOMS    COLORGROUP SYSTEM
2 37 40
