AV-unprocessed.smi:2932|AV-procd|sdf|11251|dock1
  -GOLD-   2272016143D 1   1.00000     0.00000
 Structure written by MMmdl.
 30 30  0  0  0  0  0  0  0  0  2 V2000
  151.6184  143.9144  157.2571 C   0  0  0  0  0  0  0  0  0  0  0  0
  152.0909  143.3775  158.5768 C   0  0  0  0  0  0  0  0  0  0  0  0
  152.5735  142.1470  158.6561 N   0  0  0  0  0  0  0  0  0  0  0  0
  152.8945  141.9678  159.9630 N   0  0  0  0  0  0  0  0  0  0  0  0
  153.4446  140.6869  160.3837 C   0  0  0  0  0  0  0  0  0  0  0  0
  153.4687  139.6770  159.2338 C   0  0  0  0  0  0  0  0  0  0  0  0
  154.5374  139.3874  158.6956 O   0  0  0  0  0  0  0  0  0  0  0  0
  152.2889  139.1483  158.8728 N   0  0  0  0  0  0  0  0  0  0  0  0
  152.0794  138.1577  157.8215 C   0  0  1  0  0  0  0  0  0  0  0  0
  152.1683  138.8101  156.4316 C   0  0  0  0  0  0  0  0  0  0  0  0
  153.0385  136.9789  158.0092 C   0  0  0  0  0  0  0  0  0  0  0  0
  153.6550  136.5734  156.9997 O   0  0  0  0  0  0  0  0  0  0  0  0
  153.1401  136.5006  159.1611 O   0  5  0  0  0  0  0  0  0  0  0  0
  152.6251  143.0932  160.7266 C   0  0  0  0  0  0  0  0  0  0  0  0
  152.8825  143.1709  162.1968 C   0  0  0  0  0  0  0  0  0  0  0  0
  152.1070  144.0011  159.8513 C   0  0  0  0  0  0  0  0  0  0  0  0
  151.5691  145.5989  160.2217 Cl  0  0  0  0  0  0  0  0  0  0  0  0
  151.0693  137.7579  157.9323 H   0  0  0  0  0  0  0  0  0  0  0  0
  151.5590  145.0027  157.2710 H   0  0  0  0  0  0  0  0  0  0  0  0
  150.6279  143.5304  157.0128 H   0  0  0  0  0  0  0  0  0  0  0  0
  152.2944  143.6316  156.4497 H   0  0  0  0  0  0  0  0  0  0  0  0
  154.4577  140.8281  160.7634 H   0  0  0  0  0  0  0  0  0  0  0  0
  152.8458  140.3022  161.2101 H   0  0  0  0  0  0  0  0  0  0  0  0
  151.4619  139.4516  159.3679 H   0  0  0  0  0  0  0  0  0  0  0  0
  152.0201  138.0725  155.6422 H   0  0  0  0  0  0  0  0  0  0  0  0
  153.1415  139.2763  156.2731 H   0  0  0  0  0  0  0  0  0  0  0  0
  151.4071  139.5805  156.3067 H   0  0  0  0  0  0  0  0  0  0  0  0
  152.7181  144.1810  162.5718 H   0  0  0  0  0  0  0  0  0  0  0  0
  153.9105  142.8924  162.4283 H   0  0  0  0  0  0  0  0  0  0  0  0
  152.2181  142.5001  162.7416 H   0  0  0  0  0  0  0  0  0  0  0  0
  1  2  1  0  0  0  0
  1 19  1  0  0  0  0
  1 20  1  0  0  0  0
  1 21  1  0  0  0  0
  2 16  1  0  0  0  0
  2  3  2  0  0  0  0
  3  4  1  0  0  0  0
  4  5  1  0  0  0  0
  4 14  1  0  0  0  0
  5  6  1  0  0  0  0
  5 22  1  0  0  0  0
  5 23  1  0  0  0  0
  6  7  2  0  0  0  0
  6  8  1  0  0  0  0
  8  9  1  0  0  0  0
  8 24  1  0  0  0  0
  9 18  1  0  0  0  0
  9 10  1  0  0  0  0
  9 11  1  0  0  0  0
 10 25  1  0  0  0  0
 10 26  1  0  0  0  0
 10 27  1  0  0  0  0
 11 12  2  0  0  0  0
 11 13  1  0  0  0  0
 14 15  1  0  0  0  0
 14 16  2  0  0  0  0
 15 28  1  0  0  0  0
 15 29  1  0  0  0  0
 15 30  1  0  0  0  0
 16 17  1  0  0  0  0
M  CHG  1  13  -1
M  END
> <s_m_source_file>
AV-unprocessed.smi

> <i_m_source_file_index>
2932

> <i_lp_mmshare_version>
43012

> <i_f3d_flags>
0

> <s_epik_input>
W0NIM11jMW5uKGMoW0NIM10pYzFDbClbQ0gyXUMoPU8pW05IXVtDQEhdKFtDSDNdKUMoPU8pW09IXQ==

> <s_epik_cmdline>
J2VwaWtfcHl0aG9uJywgJy1waCcsICc3LjAnLCAnLXRuJywgJzgnLCAnLW1hJywgJzIwMCcsICctbWV0YWxfYmluZGluZycsICctaW1hZScsICc8aW5maWxlLm1hZT4nLCAnLW9tYWUnLCAnPG91dGZpbGUubWFlPic=

> <r_lp_tautomer_probability>
1

> <r_epik_Ionization_Penalty>
0.000148999

> <r_epik_Ionization_Penalty_Charging>
0.000144005

> <r_epik_Ionization_Penalty_Neutral>
4.99331e-06

> <r_epik_State_Penalty>
-0

> <r_epik_Charging_Adjusted_Penalty>
0.000144005

> <i_epik_Tot_Q>
-1

> <i_epik_Tot_abs_Q>
1

> <r_epik_Metal_State_Penalty>
-0

> <b_epik_Metal_Only>
0

> <s_lp_Force_Field>
OPLS_2005

> <r_lp_Energy>
1.5608

> <b_lp_Chiralities_Consistent>
1

> <s_lp_Variant>
AV-unprocessed.smi:2932-2

> <Gold.Version>
5.8.1

> <Gold.Id.Protein>
6NUR|6NUR_protein|mol2

> <Gold.PLP.Fitness>
51.6697

> <Gold.PLP.PLP>
-37.7412

> <Gold.PLP.part.hbond>
-3.0000

> <Gold.PLP.part.metal>
0.0000

> <Gold.PLP.part.buried>
-4.3158

> <Gold.PLP.part.nonpolar>
-30.7961

> <Gold.PLP.part.repulsive>
0.0918

> <Gold.PLP.ligand.clash>
0.0000

> <Gold.PLP.ligand.torsion>
0.5569

> <Gold.PLP.Chemscore.Hbond>
4.9840

> <Gold.PLP.Chemscore.CHOScore>
0.0000

> <Gold.PLP.Chemscore.Metal>
0.0000

> <Gold.Chemscore.Hbonds>
donor molecule, donor type, donor heavy atom, donor atom, acceptor molecule, acceptor atom, score
      P1  H  6896  6907       L1    13  1.98
      P1  H  7997  8010       L1     7  1.00
      P1  H 10752 10765       L1    12  2.00

> <Gold.PLP.Chemscore.Internal.Correction>
0.0904

> <Gold.Rescore>
     Score         DG    S(hbond)    S(metal)    S(lipo)     H(rot)  DE(clash)    DE(int)     intcor
     19.77     -20.42       2.90        0.00      92.08       2.15       0.03       0.62       ----

> <Gold.Chemscore.Fitness>
19.7700

> <Gold.Chemscore.DG>
-20.4237

> <Gold.Chemscore.ZeroCoef>
-5.4800

> <Gold.Chemscore.Hbond>
2.8998

> <Gold.Chemscore.Metal>
0.0000

> <Gold.Chemscore.Lipo>
92.0762

> <Gold.Chemscore.Internal_Hbond>
0.0000

> <Gold.Chemscore.DEClash>
0.0320

> <Gold.Chemscore.DEInternal>
0.6216

> <Gold.Chemscore.Rot>
2.1542

> <Gold.Chemscore.Internal.Correction>
   9.000000E+99

> <Gold.Chemscore.Hbonds>
donor molecule, donor type, donor heavy atom, donor atom, acceptor molecule, acceptor atom, score
      P1  H  6896  6907       L1    13  0.89
      P1  H  7997  8010       L1     7  0.99
      P1  H 10752 10765       L1    12  0.89

> <Gold.Chemscore.Hbond.Weighted>
-9.6854

> <Gold.Chemscore.Metal.Weighted>
-0.0000

> <Gold.Chemscore.Lipo.Weighted>
-10.7729

> <Gold.Chemscore.Internal_Hbond.Weighted>
0.0000

> <Gold.Chemscore.DEClash.Weighted>
0.0320

> <Gold.Chemscore.DEInternal.Weighted>
0.6216

> <Gold.Chemscore.Rot.Weighted>
5.5146

> <Gold.Chemscore.Internal.Correction.Weighted>
   9.000000E+99

> <Gold.Protein.RotatedTorsions>
[ 6907 6896 6895 6894 ] final   34.43 input  -60.11 | X-H torsion
[ 7974 7965 7964 7962 ] final -159.75 input  175.53 | X-H torsion
[ 8008 7997 7996 7995 ] final   -7.90 input   59.86 | X-H torsion
[ 10167 10162 10161 10158 ] final -146.55 input  -65.29 | X-H torsion
[ 10718 10713 10712 10709 ] final   86.45 input   66.30 | X-H torsion
[ 10763 10752 10751 10750 ] final -101.42 input  -60.55 | X-H torsion
[ 11005 11000 10999 10996 ] final -104.54 input  -57.11 | X-H torsion

> <Gold.Protein.ActiveResidues>
 VAL166  LYS551  ARG553  GLY616  TRP617  ASP618  TYR619  PRO620  LYS621  CYS622 
 ASP623  PHE694  ASN695  SER759  ASP760  ASP761  ALA762  ILE779  LEU786  VAL792 
 PHE793  MET794  SER795  GLU796  ALA797  LYS798  CYS799  TRP800  GLU811  SER814 

> <Gold.Protein.RotatedAtoms>
  152.1022  134.9333  160.0569 H   0  0  0  0  0  0  0  0  0  0  0  0  # atno 6907 bound_to 6896
  152.0543  133.4028  159.4399 H   0  0  0  0  0  0  0  0  0  0  0  0  # atno 6908 bound_to 6896
  150.6840  134.3193  159.4823 H   0  0  0  0  0  0  0  0  0  0  0  0  # atno 6909 bound_to 6896
  144.7453  140.3640  143.6090 H   0  0  0  0  0  0  0  0  0  0  0  0  # atno 7974 bound_to 7965
  154.5793  140.2395  155.8076 H   0  0  0  0  0  0  0  0  0  0  0  0  # atno 8008 bound_to 7997
  156.2167  140.3010  155.9813 H   0  0  0  0  0  0  0  0  0  0  0  0  # atno 8009 bound_to 7997
  155.2569  140.0413  157.2983 H   0  0  0  0  0  0  0  0  0  0  0  0  # atno 8010 bound_to 7997
  139.7703  143.8247  152.2623 H   0  0  0  0  0  0  0  0  0  0  0  0  # atno 10167 bound_to 10162
  157.6929  131.0216  150.2975 H   0  0  0  0  0  0  0  0  0  0  0  0  # atno 10718 bound_to 10713
  154.7656  135.4898  153.9548 H   0  0  0  0  0  0  0  0  0  0  0  0  # atno 10763 bound_to 10752
  153.1304  135.6751  153.9195 H   0  0  0  0  0  0  0  0  0  0  0  0  # atno 10764 bound_to 10752
  153.8901  135.3122  155.3426 H   0  0  0  0  0  0  0  0  0  0  0  0  # atno 10765 bound_to 10752
  141.1095  133.8732  157.1624 H   0  0  0  0  0  0  0  0  0  0  0  0  # atno 11005 bound_to 11000
  145.7147  139.1694  143.2518 LP  0  0  0  0  0  0  0  0  0  0  0  0  # atno 17320 bound_to 7965
  146.1321  140.7172  142.9407 LP  0  0  0  0  0  0  0  0  0  0  0  0  # atno 17321 bound_to 7965
  139.8279  144.7267  150.9487 LP  0  0  0  0  0  0  0  0  0  0  0  0  # atno 17342 bound_to 10162
  140.7813  143.4097  151.1013 LP  0  0  0  0  0  0  0  0  0  0  0  0  # atno 17343 bound_to 10162
  156.3496  130.3829  149.7340 LP  0  0  0  0  0  0  0  0  0  0  0  0  # atno 17370 bound_to 10713
  156.4822  130.8046  151.3060 LP  0  0  0  0  0  0  0  0  0  0  0  0  # atno 17371 bound_to 10713
  139.9982  135.0038  157.0130 LP  0  0  0  0  0  0  0  0  0  0  0  0  # atno 17394 bound_to 11000
  140.4812  134.1287  155.7217 LP  0  0  0  0  0  0  0  0  0  0  0  0  # atno 17395 bound_to 11000

$$$$
