AV-unprocessed.smi:3152|AV-procd|sdf|12017|dock5
  -GOLD-   2272017423D 1   1.00000     0.00000
 Structure written by MMmdl.
 41 42  0  0  0  0  0  0  0  0  2 V2000
  144.0497  132.1349  148.9836 C   0  0  0  0  0  0  0  0  0  0  0  0
  144.7617  133.0203  149.9654 C   0  0  0  0  0  0  0  0  0  0  0  0
  146.0992  132.8995  150.4383 C   0  0  0  0  0  0  0  0  0  0  0  0
  146.4269  133.8473  151.3015 N   0  0  0  0  0  0  0  0  0  0  0  0
  145.3153  134.6050  151.4086 N   0  0  0  0  0  0  0  0  0  0  0  0
  145.3168  135.7593  152.2860 C   0  0  0  0  0  0  0  0  0  0  0  0
  146.0507  135.4667  153.6024 C   0  0  0  0  0  0  0  0  0  0  0  0
  147.1514  136.4238  153.8233 N   0  3  0  0  0  0  0  0  0  0  0  0
  146.7005  137.7818  154.1951 C   0  0  0  0  0  0  0  0  0  0  0  0
  147.7213  138.8724  153.8011 C   0  0  0  0  0  0  0  0  0  0  0  0
  148.0311  138.6833  152.4317 O   0  0  0  0  0  0  0  0  0  0  0  0
  147.1535  140.2983  154.0107 C   0  0  0  0  0  0  0  0  0  0  0  0
  148.1961  141.4026  153.7604 C   0  0  0  0  0  0  0  0  0  0  0  0
  149.4554  141.1892  154.6116 C   0  0  0  0  0  0  0  0  0  0  0  0
  150.0580  139.8002  154.3610 C   0  0  0  0  0  0  0  0  0  0  0  0
  149.0242  138.6884  154.6154 C   0  0  0  0  0  0  0  0  0  0  0  0
  144.2936  134.1276  150.6150 C   0  0  0  0  0  0  0  0  0  0  0  0
  144.3774  131.0982  149.0629 H   0  0  0  0  0  0  0  0  0  0  0  0
  144.2291  132.4510  147.9561 H   0  0  0  0  0  0  0  0  0  0  0  0
  142.9705  132.1423  149.1392 H   0  0  0  0  0  0  0  0  0  0  0  0
  146.8380  132.1549  150.1804 H   0  0  0  0  0  0  0  0  0  0  0  0
  145.7878  136.5933  151.7638 H   0  0  0  0  0  0  0  0  0  0  0  0
  144.2826  136.0482  152.4789 H   0  0  0  0  0  0  0  0  0  0  0  0
  145.3559  135.5270  154.4414 H   0  0  0  0  0  0  0  0  0  0  0  0
  146.4521  134.4525  153.5878 H   0  0  0  0  0  0  0  0  0  0  0  0
  147.7448  136.0747  154.5626 H   0  0  0  0  0  0  0  0  0  0  0  0
  145.7435  137.9790  153.7094 H   0  0  0  0  0  0  0  0  0  0  0  0
  146.5180  137.8086  155.2706 H   0  0  0  0  0  0  0  0  0  0  0  0
  148.3762  137.8099  152.3205 H   0  0  0  0  0  0  0  0  0  0  0  0
  146.2908  140.4681  153.3653 H   0  0  0  0  0  0  0  0  0  0  0  0
  146.7875  140.3910  155.0343 H   0  0  0  0  0  0  0  0  0  0  0  0
  148.4676  141.4226  152.7042 H   0  0  0  0  0  0  0  0  0  0  0  0
  147.7615  142.3776  153.9827 H   0  0  0  0  0  0  0  0  0  0  0  0
  150.1923  141.9611  154.3869 H   0  0  0  0  0  0  0  0  0  0  0  0
  149.2072  141.2965  155.6684 H   0  0  0  0  0  0  0  0  0  0  0  0
  150.4260  139.7389  153.3363 H   0  0  0  0  0  0  0  0  0  0  0  0
  150.9248  139.6523  155.0059 H   0  0  0  0  0  0  0  0  0  0  0  0
  148.7836  138.6788  155.6795 H   0  0  0  0  0  0  0  0  0  0  0  0
  149.4719  137.7169  154.4006 H   0  0  0  0  0  0  0  0  0  0  0  0
  143.3284  134.6107  150.5760 H   0  0  0  0  0  0  0  0  0  0  0  0
  147.6969  136.4887  152.9758 H   0  0  0  0  0  0  0  0  0  0  0  0
  1  2  1  0  0  0  0
  1 18  1  0  0  0  0
  1 19  1  0  0  0  0
  1 20  1  0  0  0  0
  2 17  2  0  0  0  0
  2  3  1  0  0  0  0
  3  4  2  0  0  0  0
  3 21  1  0  0  0  0
  4  5  1  0  0  0  0
  5  6  1  0  0  0  0
  5 17  1  0  0  0  0
  6  7  1  0  0  0  0
  6 22  1  0  0  0  0
  6 23  1  0  0  0  0
  7  8  1  0  0  0  0
  7 24  1  0  0  0  0
  7 25  1  0  0  0  0
  8  9  1  0  0  0  0
  8 26  1  0  0  0  0
  8 41  1  0  0  0  0
  9 10  1  0  0  0  0
  9 27  1  0  0  0  0
  9 28  1  0  0  0  0
 10 16  1  0  0  0  0
 10 11  1  0  0  0  0
 10 12  1  0  0  0  0
 11 29  1  0  0  0  0
 12 13  1  0  0  0  0
 12 30  1  0  0  0  0
 12 31  1  0  0  0  0
 13 14  1  0  0  0  0
 13 32  1  0  0  0  0
 13 33  1  0  0  0  0
 14 15  1  0  0  0  0
 14 34  1  0  0  0  0
 14 35  1  0  0  0  0
 15 16  1  0  0  0  0
 15 36  1  0  0  0  0
 15 37  1  0  0  0  0
 16 38  1  0  0  0  0
 16 39  1  0  0  0  0
 17 40  1  0  0  0  0
M  CHG  1   8   1
M  END
> <s_m_source_file>
AV-unprocessed.smi

> <i_m_source_file_index>
3152

> <i_lp_mmshare_version>
43012

> <i_f3d_flags>
0

> <s_epik_input>
W0NIM11jMVtjSF1ubihbY0hdMSlbQ0gyXVtDSDJdW05IXVtDSDJdQzIoW09IXSlbQ0gyXVtDSDJdW0NIMl1bQ0gyXVtDSDJdMg==

> <s_epik_cmdline>
J2VwaWtfcHl0aG9uJywgJy1waCcsICc3LjAnLCAnLXRuJywgJzgnLCAnLW1hJywgJzIwMCcsICctbWV0YWxfYmluZGluZycsICctaW1hZScsICc8aW5maWxlLm1hZT4nLCAnLW9tYWUnLCAnPG91dGZpbGUubWFlPic=

> <r_lp_tautomer_probability>
1

> <r_epik_Ionization_Penalty>
0.0240188

> <r_epik_Ionization_Penalty_Charging>
0.0240119

> <r_epik_Ionization_Penalty_Neutral>
6.9154e-06

> <r_epik_State_Penalty>
0.0194671

> <r_epik_Charging_Adjusted_Penalty>
0.043479

> <i_epik_Tot_Q>
1

> <i_epik_Tot_abs_Q>
1

> <r_epik_Metal_State_Penalty>
0.0195537

> <b_epik_Metal_Only>
0

> <s_lp_Force_Field>
OPLS_2005

> <r_lp_Energy>
14.7618

> <b_lp_Chiralities_Consistent>
1

> <s_lp_Variant>
AV-unprocessed.smi:3152-1

> <Gold.Version>
5.8.1

> <Gold.Id.Protein>
6NUR|6NUR_protein|mol2

> <Gold.PLP.Fitness>
44.0808

> <Gold.PLP.PLP>
-30.8465

> <Gold.PLP.part.hbond>
-2.5961

> <Gold.PLP.part.metal>
0.0000

> <Gold.PLP.part.buried>
0.8054

> <Gold.PLP.part.nonpolar>
-27.4906

> <Gold.PLP.part.repulsive>
0.2005

> <Gold.PLP.ligand.clash>
0.0000

> <Gold.PLP.ligand.torsion>
0.8779

> <Gold.PLP.Chemscore.Hbond>
3.0000

> <Gold.PLP.Chemscore.CHOScore>
1.9942

> <Gold.PLP.Chemscore.Metal>
0.0000

> <Gold.Chemscore.Hbonds>
donor molecule, donor type, donor heavy atom, donor atom, acceptor molecule, acceptor atom, score
      L1  H     8    41       P1  7948  2.00
      L1  H    11    29       P1  7948  1.00
      L1  C     3    21       P1 10747  1.00
      L1  C    17    40       P1 10186  0.99

> <Gold.PLP.Chemscore.Internal.Correction>
0.0075

> <Gold.Rescore>
     Score         DG    S(hbond)    S(metal)    S(lipo)     H(rot)  DE(clash)    DE(int)     intcor
     15.02     -16.35       1.99        0.00      83.66       2.17       0.54       0.79       ----

> <Gold.Chemscore.Fitness>
15.0164

> <Gold.Chemscore.DG>
-16.3530

> <Gold.Chemscore.ZeroCoef>
-5.4800

> <Gold.Chemscore.Hbond>
1.9870

> <Gold.Chemscore.Metal>
0.0000

> <Gold.Chemscore.Lipo>
83.6572

> <Gold.Chemscore.Internal_Hbond>
0.0000

> <Gold.Chemscore.DEClash>
0.5439

> <Gold.Chemscore.DEInternal>
0.7927

> <Gold.Chemscore.Rot>
2.1685

> <Gold.Chemscore.Internal.Correction>
   9.000000E+99

> <Gold.Chemscore.Hbonds>
donor molecule, donor type, donor heavy atom, donor atom, acceptor molecule, acceptor atom, score
      L1  H     8    41       P1  7948  1.00
      L1  H    11    29       P1  7948  1.00

> <Gold.Chemscore.Hbond.Weighted>
-6.6366

> <Gold.Chemscore.Metal.Weighted>
-0.0000

> <Gold.Chemscore.Lipo.Weighted>
-9.7879

> <Gold.Chemscore.Internal_Hbond.Weighted>
0.0000

> <Gold.Chemscore.DEClash.Weighted>
0.5439

> <Gold.Chemscore.DEInternal.Weighted>
0.7927

> <Gold.Chemscore.Rot.Weighted>
5.5514

> <Gold.Chemscore.Internal.Correction.Weighted>
   9.000000E+99

> <Gold.Protein.RotatedTorsions>
[ 6907 6896 6895 6894 ] final  173.99 input  -60.11 | X-H torsion
[ 7974 7965 7964 7962 ] final   -8.67 input  175.53 | X-H torsion
[ 8008 7997 7996 7995 ] final  129.86 input   59.86 | X-H torsion
[ 10167 10162 10161 10158 ] final   -0.67 input  -65.29 | X-H torsion
[ 10718 10713 10712 10709 ] final -100.78 input   66.30 | X-H torsion
[ 10763 10752 10751 10750 ] final   -8.45 input  -60.55 | X-H torsion
[ 11005 11000 10999 10996 ] final  -43.66 input  -57.11 | X-H torsion

> <Gold.Protein.ActiveResidues>
 VAL166  LYS551  ARG553  GLY616  TRP617  ASP618  TYR619  PRO620  LYS621  CYS622 
 ASP623  PHE694  ASN695  SER759  ASP760  ASP761  ALA762  ILE779  LEU786  VAL792 
 PHE793  MET794  SER795  GLU796  ALA797  LYS798  CYS799  TRP800  GLU811  SER814 

> <Gold.Protein.RotatedAtoms>
  151.7594  133.3332  159.3413 H   0  0  0  0  0  0  0  0  0  0  0  0  # atno 6907 bound_to 6896
  150.7504  134.6119  159.6100 H   0  0  0  0  0  0  0  0  0  0  0  0  # atno 6908 bound_to 6896
  152.3415  134.7130  160.0314 H   0  0  0  0  0  0  0  0  0  0  0  0  # atno 6909 bound_to 6896
  146.2274  140.2502  142.8347 H   0  0  0  0  0  0  0  0  0  0  0  0  # atno 7974 bound_to 7965
  156.2944  140.2610  156.2668 H   0  0  0  0  0  0  0  0  0  0  0  0  # atno 8008 bound_to 7997
  154.9734  140.0390  157.2263 H   0  0  0  0  0  0  0  0  0  0  0  0  # atno 8009 bound_to 7997
  154.7837  140.2799  155.6048 H   0  0  0  0  0  0  0  0  0  0  0  0  # atno 8010 bound_to 7997
  140.6777  143.6866  150.8061 H   0  0  0  0  0  0  0  0  0  0  0  0  # atno 10167 bound_to 10162
  156.0174  130.5343  150.6867 H   0  0  0  0  0  0  0  0  0  0  0  0  # atno 10718 bound_to 10713
  153.4407  135.7013  153.6171 H   0  0  0  0  0  0  0  0  0  0  0  0  # atno 10763 bound_to 10752
  153.4547  135.3750  155.2304 H   0  0  0  0  0  0  0  0  0  0  0  0  # atno 10764 bound_to 10752
  154.8727  135.4005  154.3805 H   0  0  0  0  0  0  0  0  0  0  0  0  # atno 10765 bound_to 10752
  141.0398  133.6784  156.2763 H   0  0  0  0  0  0  0  0  0  0  0  0  # atno 11005 bound_to 11000
  144.9417  140.8085  143.5626 LP  0  0  0  0  0  0  0  0  0  0  0  0  # atno 17320 bound_to 7965
  145.2455  139.2054  143.4970 LP  0  0  0  0  0  0  0  0  0  0  0  0  # atno 17321 bound_to 7965
  140.0562  143.5200  152.2650 LP  0  0  0  0  0  0  0  0  0  0  0  0  # atno 17342 bound_to 10162
  139.6080  144.7601  151.3017 LP  0  0  0  0  0  0  0  0  0  0  0  0  # atno 17343 bound_to 10162
  157.4557  131.0877  151.0798 LP  0  0  0  0  0  0  0  0  0  0  0  0  # atno 17370 bound_to 10713
  157.1301  130.6098  149.5527 LP  0  0  0  0  0  0  0  0  0  0  0  0  # atno 17371 bound_to 10713
  140.6255  134.5318  157.5553 LP  0  0  0  0  0  0  0  0  0  0  0  0  # atno 17394 bound_to 11000
  139.9267  134.8041  156.1047 LP  0  0  0  0  0  0  0  0  0  0  0  0  # atno 17395 bound_to 11000

$$$$
