AV-unprocessed.smi:2771|AV-procd|sdf|10663|dock3
  -GOLD-   2272015113D 1   1.00000     0.00000
 Structure written by MMmdl.
 43 44  0  0  0  0  0  0  0  0  1 V2000
  144.4718  132.4612  150.0628 C   0  0  0  0  0  0  0  0  0  0  0  0
  145.4323  132.1232  151.1835 C   0  0  0  0  0  0  0  0  0  0  0  0
  145.4422  130.8422  151.7694 C   0  0  0  0  0  0  0  0  0  0  0  0
  146.3592  130.5950  152.8064 C   0  0  0  0  0  0  0  0  0  0  0  0
  147.2232  131.6306  153.2115 C   0  0  0  0  0  0  0  0  0  0  0  0
  147.1504  132.8873  152.5694 C   0  0  0  0  0  0  0  0  0  0  0  0
  148.0688  133.8605  153.0453 N   0  0  0  0  0  0  0  0  0  0  0  0
  148.6935  133.9026  154.2355 C   0  0  0  0  0  0  0  0  0  0  0  0
  148.5998  133.0529  155.1217 O   0  0  0  0  0  0  0  0  0  0  0  0
  149.4463  135.0053  154.3470 N   0  0  0  0  0  0  0  0  0  0  0  0
  150.2201  135.3672  155.5296 C   0  0  0  0  0  0  0  0  0  0  0  0
  151.2630  136.4523  155.1875 C   0  0  1  0  0  0  0  0  0  0  0  0
  151.6296  136.2391  153.8364 O   0  0  0  0  0  0  0  0  0  0  0  0
  150.7455  137.9107  155.3227 C   0  0  0  0  0  0  0  0  0  0  0  0
  149.5907  138.1952  154.3289 C   0  0  0  0  0  0  0  0  0  0  0  0
  149.0595  139.6323  154.4452 C   0  0  0  0  0  0  0  0  0  0  0  0
  150.1827  140.6556  154.2391 C   0  0  0  0  0  0  0  0  0  0  0  0
  151.3305  140.4043  155.2254 C   0  0  0  0  0  0  0  0  0  0  0  0
  151.8611  138.9647  155.1169 C   0  0  0  0  0  0  0  0  0  0  0  0
  146.2611  133.1164  151.5711 N   0  0  0  0  0  0  0  0  0  0  0  0
  143.8433  131.6071  149.8092 H   0  0  0  0  0  0  0  0  0  0  0  0
  145.0215  132.7565  149.1685 H   0  0  0  0  0  0  0  0  0  0  0  0
  143.8227  133.2869  150.3555 H   0  0  0  0  0  0  0  0  0  0  0  0
  144.7670  130.0681  151.4353 H   0  0  0  0  0  0  0  0  0  0  0  0
  146.4013  129.6271  153.2837 H   0  0  0  0  0  0  0  0  0  0  0  0
  147.9343  131.4559  154.0058 H   0  0  0  0  0  0  0  0  0  0  0  0
  148.2528  134.6269  152.4153 H   0  0  0  0  0  0  0  0  0  0  0  0
  149.4746  135.6477  153.5687 H   0  0  0  0  0  0  0  0  0  0  0  0
  149.5697  135.7052  156.3387 H   0  0  0  0  0  0  0  0  0  0  0  0
  150.7015  134.4523  155.8712 H   0  0  0  0  0  0  0  0  0  0  0  0
  152.1468  136.3240  155.8143 H   0  0  0  0  0  0  0  0  0  0  0  0
  150.8727  136.3936  153.2925 H   0  0  0  0  0  0  0  0  0  0  0  0
  150.3557  138.0356  156.3345 H   0  0  0  0  0  0  0  0  0  0  0  0
  149.9333  138.0179  153.3085 H   0  0  0  0  0  0  0  0  0  0  0  0
  148.7606  137.5086  154.4953 H   0  0  0  0  0  0  0  0  0  0  0  0
  148.2688  139.7962  153.7125 H   0  0  0  0  0  0  0  0  0  0  0  0
  148.6061  139.7768  155.4268 H   0  0  0  0  0  0  0  0  0  0  0  0
  150.5554  140.5914  153.2161 H   0  0  0  0  0  0  0  0  0  0  0  0
  149.7946  141.6667  154.3660 H   0  0  0  0  0  0  0  0  0  0  0  0
  152.1386  141.1128  155.0411 H   0  0  0  0  0  0  0  0  0  0  0  0
  150.9844  140.5897  156.2431 H   0  0  0  0  0  0  0  0  0  0  0  0
  152.6492  138.8454  155.8585 H   0  0  0  0  0  0  0  0  0  0  0  0
  152.3283  138.8212  154.1418 H   0  0  0  0  0  0  0  0  0  0  0  0
  1  2  1  0  0  0  0
  1 21  1  0  0  0  0
  1 22  1  0  0  0  0
  1 23  1  0  0  0  0
  2 20  1  0  0  0  0
  2  3  2  0  0  0  0
  3  4  1  0  0  0  0
  3 24  1  0  0  0  0
  4  5  2  0  0  0  0
  4 25  1  0  0  0  0
  5  6  1  0  0  0  0
  5 26  1  0  0  0  0
  6  7  1  0  0  0  0
  6 20  2  0  0  0  0
  7  8  1  0  0  0  0
  7 27  1  0  0  0  0
  8  9  2  0  0  0  0
  8 10  1  0  0  0  0
 10 11  1  0  0  0  0
 10 28  1  0  0  0  0
 11 12  1  0  0  0  0
 11 29  1  0  0  0  0
 11 30  1  0  0  0  0
 12 13  1  0  0  0  0
 12 14  1  0  0  0  0
 12 31  1  0  0  0  0
 13 32  1  0  0  0  0
 14 19  1  0  0  0  0
 14 15  1  0  0  0  0
 14 33  1  0  0  0  0
 15 16  1  0  0  0  0
 15 34  1  0  0  0  0
 15 35  1  0  0  0  0
 16 17  1  0  0  0  0
 16 36  1  0  0  0  0
 16 37  1  0  0  0  0
 17 18  1  0  0  0  0
 17 38  1  0  0  0  0
 17 39  1  0  0  0  0
 18 19  1  0  0  0  0
 18 40  1  0  0  0  0
 18 41  1  0  0  0  0
 19 42  1  0  0  0  0
 19 43  1  0  0  0  0
M  END
> <s_m_source_file>
AV-unprocessed.smi

> <i_m_source_file_index>
2771

> <i_lp_mmshare_version>
43012

> <i_f3d_flags>
0

> <s_epik_input>
W0NIM11jMVtjSF1bY0hdW2NIXWMobjEpW05IXUMoPU8pW05IXVtDSDJdW0NASF0oW09IXSlbQ0hdMltDSDJdW0NIMl1bQ0gyXVtDSDJdW0NIMl0y

> <s_epik_cmdline>
J2VwaWtfcHl0aG9uJywgJy1waCcsICc3LjAnLCAnLXRuJywgJzgnLCAnLW1hJywgJzIwMCcsICctbWV0YWxfYmluZGluZycsICctaW1hZScsICc8aW5maWxlLm1hZT4nLCAnLW9tYWUnLCAnPG91dGZpbGUubWFlPic=

> <r_lp_tautomer_probability>
1

> <r_epik_Ionization_Penalty>
8.92802e-05

> <r_epik_Ionization_Penalty_Charging>
0

> <r_epik_Ionization_Penalty_Neutral>
8.92802e-05

> <r_epik_State_Penalty>
-0

> <r_epik_Charging_Adjusted_Penalty>
0

> <i_epik_Tot_Q>
0

> <i_epik_Tot_abs_Q>
0

> <r_epik_Metal_State_Penalty>
-0

> <b_epik_Metal_Only>
0

> <s_lp_Force_Field>
OPLS_2005

> <r_lp_Energy>
17.4783

> <b_lp_Chiralities_Consistent>
1

> <s_lp_Variant>
AV-unprocessed.smi:2771-2

> <Gold.Version>
5.8.1

> <Gold.Id.Protein>
6NUR|6NUR_protein|mol2

> <Gold.PLP.Fitness>
44.4708

> <Gold.PLP.PLP>
-36.2168

> <Gold.PLP.part.hbond>
-4.5747

> <Gold.PLP.part.metal>
0.0000

> <Gold.PLP.part.buried>
-3.1167

> <Gold.PLP.part.nonpolar>
-28.9189

> <Gold.PLP.part.repulsive>
0.2026

> <Gold.PLP.ligand.clash>
0.0000

> <Gold.PLP.ligand.torsion>
0.5945

> <Gold.PLP.Chemscore.Hbond>
3.1365

> <Gold.PLP.Chemscore.CHOScore>
0.0000

> <Gold.PLP.Chemscore.Metal>
0.0000

> <Gold.Chemscore.Hbonds>
donor molecule, donor type, donor heavy atom, donor atom, acceptor molecule, acceptor atom, score
      L1  H     7    27       P1  7948  1.00
      L1  H    10    28       P1  7948  1.00
      L1  H    13    32       P1  7949  0.20
      P1  H 10752 10764       L1    13  0.61

> <Gold.PLP.Chemscore.Internal.Correction>
0.0335

> <Gold.Rescore>
     Score         DG    S(hbond)    S(metal)    S(lipo)     H(rot)  DE(clash)    DE(int)     intcor
     17.07     -19.16       2.65        0.00      84.14       1.95       0.06       2.04       ----

> <Gold.Chemscore.Fitness>
17.0687

> <Gold.Chemscore.DG>
-19.1627

> <Gold.Chemscore.ZeroCoef>
-5.4800

> <Gold.Chemscore.Hbond>
2.6467

> <Gold.Chemscore.Metal>
0.0000

> <Gold.Chemscore.Lipo>
84.1354

> <Gold.Chemscore.Internal_Hbond>
0.0000

> <Gold.Chemscore.DEClash>
0.0580

> <Gold.Chemscore.DEInternal>
2.0360

> <Gold.Chemscore.Rot>
1.9536

> <Gold.Chemscore.Internal.Correction>
   9.000000E+99

> <Gold.Chemscore.Hbonds>
donor molecule, donor type, donor heavy atom, donor atom, acceptor molecule, acceptor atom, score
      L1  H     7    27       P1  7948  0.25
      L1  H    10    28       P1  7948  0.25
      L1  H    13    32       P1  7949  0.02
      P1  H 10752 10764       L1    13  0.06

> <Gold.Chemscore.Hbond.Weighted>
-8.8401

> <Gold.Chemscore.Metal.Weighted>
-0.0000

> <Gold.Chemscore.Lipo.Weighted>
-9.8438

> <Gold.Chemscore.Internal_Hbond.Weighted>
0.0000

> <Gold.Chemscore.DEClash.Weighted>
0.0580

> <Gold.Chemscore.DEInternal.Weighted>
2.0360

> <Gold.Chemscore.Rot.Weighted>
5.0013

> <Gold.Chemscore.Internal.Correction.Weighted>
   9.000000E+99

> <Gold.Protein.RotatedTorsions>
[ 6907 6896 6895 6894 ] final   94.05 input  -60.11 | X-H torsion
[ 7974 7965 7964 7962 ] final -135.03 input  175.53 | X-H torsion
[ 8008 7997 7996 7995 ] final  116.66 input   59.86 | X-H torsion
[ 10167 10162 10161 10158 ] final   25.86 input  -65.29 | X-H torsion
[ 10718 10713 10712 10709 ] final   95.62 input   66.30 | X-H torsion
[ 10763 10752 10751 10750 ] final  -82.66 input  -60.55 | X-H torsion
[ 11005 11000 10999 10996 ] final  -50.73 input  -57.11 | X-H torsion

> <Gold.Protein.ActiveResidues>
 VAL166  LYS551  ARG553  GLY616  TRP617  ASP618  TYR619  PRO620  LYS621  CYS622 
 ASP623  PHE694  ASN695  SER759  ASP760  ASP761  ALA762  ILE779  LEU786  VAL792 
 PHE793  MET794  SER795  GLU796  ALA797  LYS798  CYS799  TRP800  GLU811  SER814 

> <Gold.Protein.RotatedAtoms>
  152.5451  134.1253  159.8415 H   0  0  0  0  0  0  0  0  0  0  0  0  # atno 6907 bound_to 6896
  151.1304  133.5033  159.2607 H   0  0  0  0  0  0  0  0  0  0  0  0  # atno 6908 bound_to 6896
  151.1681  135.0315  159.8794 H   0  0  0  0  0  0  0  0  0  0  0  0  # atno 6909 bound_to 6896
  144.9050  140.6821  143.5061 H   0  0  0  0  0  0  0  0  0  0  0  0  # atno 7974 bound_to 7965
  156.2452  140.2913  156.0558 H   0  0  0  0  0  0  0  0  0  0  0  0  # atno 8008 bound_to 7997
  155.1830  140.0405  157.2903 H   0  0  0  0  0  0  0  0  0  0  0  0  # atno 8009 bound_to 7997
  154.6246  140.2484  155.7514 H   0  0  0  0  0  0  0  0  0  0  0  0  # atno 8010 bound_to 7997
  140.5071  144.0221  150.6356 H   0  0  0  0  0  0  0  0  0  0  0  0  # atno 10167 bound_to 10162
  157.6936  131.0551  150.4366 H   0  0  0  0  0  0  0  0  0  0  0  0  # atno 10718 bound_to 10713
  154.5785  135.5583  153.7162 H   0  0  0  0  0  0  0  0  0  0  0  0  # atno 10763 bound_to 10752
  153.0073  135.6314  154.2016 H   0  0  0  0  0  0  0  0  0  0  0  0  # atno 10764 bound_to 10752
  154.1956  135.2880  155.2987 H   0  0  0  0  0  0  0  0  0  0  0  0  # atno 10765 bound_to 10752
  141.0832  133.6648  156.3774 H   0  0  0  0  0  0  0  0  0  0  0  0  # atno 11005 bound_to 11000
  145.3551  139.1696  143.4413 LP  0  0  0  0  0  0  0  0  0  0  0  0  # atno 17320 bound_to 7965
  146.3129  140.3608  142.8664 LP  0  0  0  0  0  0  0  0  0  0  0  0  # atno 17321 bound_to 7965
  140.3533  143.2950  152.0463 LP  0  0  0  0  0  0  0  0  0  0  0  0  # atno 17342 bound_to 10162
  139.4886  144.6357  151.6980 LP  0  0  0  0  0  0  0  0  0  0  0  0  # atno 17343 bound_to 10162
  156.4728  130.4056  149.6507 LP  0  0  0  0  0  0  0  0  0  0  0  0  # atno 17370 bound_to 10713
  156.3581  130.7467  151.2436 LP  0  0  0  0  0  0  0  0  0  0  0  0  # atno 17371 bound_to 10713
  140.5421  134.6110  157.5383 LP  0  0  0  0  0  0  0  0  0  0  0  0  # atno 17394 bound_to 11000
  139.9648  134.7392  156.0162 LP  0  0  0  0  0  0  0  0  0  0  0  0  # atno 17395 bound_to 11000

$$$$
