AV-unprocessed.smi:2393|AV-procd|sdf|9488|dock7
  -GOLD-   2272013113D 1   1.00000     0.00000
 Structure written by MMmdl.
 43 44  0  0  0  0  0  0  0  0  1 V2000
  145.8985  131.7953  149.3974 C   0  0  0  0  0  0  0  0  0  0  0  0
  145.3219  132.8206  150.3510 C   0  0  0  0  0  0  0  0  0  0  0  0
  143.9903  132.7238  150.7987 C   0  0  0  0  0  0  0  0  0  0  0  0
  143.5149  133.7077  151.6878 C   0  0  0  0  0  0  0  0  0  0  0  0
  142.0933  133.6661  152.2086 C   0  0  0  0  0  0  0  0  0  0  0  0
  144.2767  134.7311  152.1295 N   0  0  0  0  0  0  0  0  0  0  0  0
  145.5608  134.8341  151.7054 C   0  0  0  0  0  0  0  0  0  0  0  0
  146.4398  135.8764  152.1028 N   0  0  0  0  0  0  0  0  0  0  0  0
  146.1277  137.0485  152.6833 C   0  0  0  0  0  0  0  0  0  0  0  0
  144.9976  137.3915  153.0324 O   0  0  0  0  0  0  0  0  0  0  0  0
  147.2169  137.8128  152.8519 N   0  0  0  0  0  0  0  0  0  0  0  0
  147.2230  139.1417  153.4573 C   0  0  2  0  0  0  0  0  0  0  0  0
  147.0761  140.2136  152.3713 C   0  0  0  0  0  0  0  0  0  0  0  0
  147.1892  141.6165  152.9840 C   0  0  0  0  0  0  0  0  0  0  0  0
  148.4225  141.7557  153.6870 O   0  0  0  0  0  0  0  0  0  0  0  0
  148.6500  140.8335  154.7584 C   0  0  0  0  0  0  0  0  0  0  0  0
  150.0918  141.1037  155.2192 C   0  0  0  0  0  0  0  0  0  0  0  0
  147.6880  141.1093  155.9345 C   0  0  0  0  0  0  0  0  0  0  0  0
  148.5321  139.3833  154.2298 C   0  0  0  0  0  0  0  0  0  0  0  0
  146.1144  133.8920  150.8097 C   0  0  0  0  0  0  0  0  0  0  0  0
  145.1334  131.0978  149.0547 H   0  0  0  0  0  0  0  0  0  0  0  0
  146.6858  131.2246  149.8903 H   0  0  0  0  0  0  0  0  0  0  0  0
  146.3259  132.2876  148.5237 H   0  0  0  0  0  0  0  0  0  0  0  0
  143.3505  131.9177  150.4698 H   0  0  0  0  0  0  0  0  0  0  0  0
  141.5055  132.9067  151.6922 H   0  0  0  0  0  0  0  0  0  0  0  0
  141.6044  134.6298  152.0630 H   0  0  0  0  0  0  0  0  0  0  0  0
  142.0887  133.4358  153.2742 H   0  0  0  0  0  0  0  0  0  0  0  0
  147.4174  135.7164  151.9101 H   0  0  0  0  0  0  0  0  0  0  0  0
  148.1059  137.4524  152.5375 H   0  0  0  0  0  0  0  0  0  0  0  0
  146.3744  139.2256  154.1380 H   0  0  0  0  0  0  0  0  0  0  0  0
  147.8524  140.0881  151.6149 H   0  0  0  0  0  0  0  0  0  0  0  0
  146.1192  140.1069  151.8592 H   0  0  0  0  0  0  0  0  0  0  0  0
  147.1579  142.3673  152.1946 H   0  0  0  0  0  0  0  0  0  0  0  0
  146.3433  141.8259  153.6387 H   0  0  0  0  0  0  0  0  0  0  0  0
  150.3807  140.4361  156.0316 H   0  0  0  0  0  0  0  0  0  0  0  0
  150.2072  142.1281  155.5751 H   0  0  0  0  0  0  0  0  0  0  0  0
  150.8023  140.9600  154.4045 H   0  0  0  0  0  0  0  0  0  0  0  0
  147.9250  140.4735  156.7883 H   0  0  0  0  0  0  0  0  0  0  0  0
  146.6455  140.9227  155.6811 H   0  0  0  0  0  0  0  0  0  0  0  0
  147.7623  142.1454  156.2663 H   0  0  0  0  0  0  0  0  0  0  0  0
  148.6218  138.6752  155.0549 H   0  0  0  0  0  0  0  0  0  0  0  0
  149.3713  139.1776  153.5633 H   0  0  0  0  0  0  0  0  0  0  0  0
  147.1386  133.9860  150.4783 H   0  0  0  0  0  0  0  0  0  0  0  0
  1  2  1  0  0  0  0
  1 21  1  0  0  0  0
  1 22  1  0  0  0  0
  1 23  1  0  0  0  0
  2 20  1  0  0  0  0
  2  3  2  0  0  0  0
  3  4  1  0  0  0  0
  3 24  1  0  0  0  0
  4  5  1  0  0  0  0
  4  6  2  0  0  0  0
  5 25  1  0  0  0  0
  5 26  1  0  0  0  0
  5 27  1  0  0  0  0
  6  7  1  0  0  0  0
  7  8  1  0  0  0  0
  7 20  2  0  0  0  0
  8  9  1  0  0  0  0
  8 28  1  0  0  0  0
  9 10  2  0  0  0  0
  9 11  1  0  0  0  0
 11 12  1  0  0  0  0
 11 29  1  0  0  0  0
 12 19  1  0  0  0  0
 12 13  1  0  0  0  0
 12 30  1  0  0  0  0
 13 14  1  0  0  0  0
 13 31  1  0  0  0  0
 13 32  1  0  0  0  0
 14 15  1  0  0  0  0
 14 33  1  0  0  0  0
 14 34  1  0  0  0  0
 15 16  1  0  0  0  0
 16 17  1  0  0  0  0
 16 18  1  0  0  0  0
 16 19  1  0  0  0  0
 17 35  1  0  0  0  0
 17 36  1  0  0  0  0
 17 37  1  0  0  0  0
 18 38  1  0  0  0  0
 18 39  1  0  0  0  0
 18 40  1  0  0  0  0
 19 41  1  0  0  0  0
 19 42  1  0  0  0  0
 20 43  1  0  0  0  0
M  END
> <s_m_source_file>
AV-unprocessed.smi

> <i_m_source_file_index>
2393

> <i_lp_mmshare_version>
43012

> <i_f3d_flags>
0

> <s_epik_input>
W0NIM11jMVtjSF1jKFtDSDNdKW5jKFtjSF0xKVtOSF1DKD1PKVtOSF1bQ0BASF0oW0NIMl0yKVtDSDJdW0NIMl1PQzIoW0NIM10pW0NIM10=

> <s_epik_cmdline>
J2VwaWtfcHl0aG9uJywgJy1waCcsICc3LjAnLCAnLXRuJywgJzgnLCAnLW1hJywgJzIwMCcsICctbWV0YWxfYmluZGluZycsICctaW1hZScsICc8aW5maWxlLm1hZT4nLCAnLW9tYWUnLCAnPG91dGZpbGUubWFlPic=

> <r_lp_tautomer_probability>
1

> <r_epik_Ionization_Penalty>
0.000261351

> <r_epik_Ionization_Penalty_Charging>
0

> <r_epik_Ionization_Penalty_Neutral>
0.000261351

> <r_epik_State_Penalty>
-0

> <r_epik_Charging_Adjusted_Penalty>
0

> <i_epik_Tot_Q>
0

> <i_epik_Tot_abs_Q>
0

> <r_epik_Metal_State_Penalty>
-0

> <b_epik_Metal_Only>
0

> <s_lp_Force_Field>
OPLS_2005

> <r_lp_Energy>
12.7135

> <b_lp_Chiralities_Consistent>
1

> <s_lp_Variant>
AV-unprocessed.smi:2393-1

> <Gold.Version>
5.8.1

> <Gold.Id.Protein>
6NUR|6NUR_protein|mol2

> <Gold.PLP.Fitness>
38.3894

> <Gold.PLP.PLP>
-31.8815

> <Gold.PLP.part.hbond>
-2.9829

> <Gold.PLP.part.metal>
0.0000

> <Gold.PLP.part.buried>
0.5770

> <Gold.PLP.part.nonpolar>
-28.6792

> <Gold.PLP.part.repulsive>
0.5533

> <Gold.PLP.ligand.clash>
0.0000

> <Gold.PLP.ligand.torsion>
0.4222

> <Gold.PLP.Chemscore.Hbond>
2.4506

> <Gold.PLP.Chemscore.CHOScore>
0.0000

> <Gold.PLP.Chemscore.Metal>
0.0000

> <Gold.Chemscore.Hbonds>
donor molecule, donor type, donor heavy atom, donor atom, acceptor molecule, acceptor atom, score
      L1  H     8    28       P1  7948  1.00
      L1  H    11    29       P1  7948  0.99
      P1  H  8011  8017       L1    15  0.56

> <Gold.PLP.Chemscore.Internal.Correction>
0.0004

> <Gold.Rescore>
     Score         DG    S(hbond)    S(metal)    S(lipo)     H(rot)  DE(clash)    DE(int)     intcor
     17.60     -21.12       2.17        0.00      93.56       1.00       1.83       1.69       ----

> <Gold.Chemscore.Fitness>
17.5989

> <Gold.Chemscore.DG>
-21.1215

> <Gold.Chemscore.ZeroCoef>
-5.4800

> <Gold.Chemscore.Hbond>
2.1720

> <Gold.Chemscore.Metal>
0.0000

> <Gold.Chemscore.Lipo>
93.5639

> <Gold.Chemscore.Internal_Hbond>
0.0000

> <Gold.Chemscore.DEClash>
1.8341

> <Gold.Chemscore.DEInternal>
1.6885

> <Gold.Chemscore.Rot>
1.0000

> <Gold.Chemscore.Internal.Correction>
   9.000000E+99

> <Gold.Chemscore.Hbonds>
donor molecule, donor type, donor heavy atom, donor atom, acceptor molecule, acceptor atom, score
      L1  H     8    28       P1  7948  0.95
      L1  H    11    29       P1  7948  0.93
      P1  H  8011  8017       L1    15  0.29

> <Gold.Chemscore.Hbond.Weighted>
-7.2545

> <Gold.Chemscore.Metal.Weighted>
-0.0000

> <Gold.Chemscore.Lipo.Weighted>
-10.9470

> <Gold.Chemscore.Internal_Hbond.Weighted>
0.0000

> <Gold.Chemscore.DEClash.Weighted>
1.8341

> <Gold.Chemscore.DEInternal.Weighted>
1.6885

> <Gold.Chemscore.Rot.Weighted>
2.5600

> <Gold.Chemscore.Internal.Correction.Weighted>
   9.000000E+99

> <Gold.Protein.RotatedTorsions>
[ 6907 6896 6895 6894 ] final   -3.95 input  -60.11 | X-H torsion
[ 7974 7965 7964 7962 ] final  -14.99 input  175.53 | X-H torsion
[ 8008 7997 7996 7995 ] final   85.69 input   59.86 | X-H torsion
[ 10167 10162 10161 10158 ] final -115.21 input  -65.29 | X-H torsion
[ 10718 10713 10712 10709 ] final -175.34 input   66.30 | X-H torsion
[ 10763 10752 10751 10750 ] final   16.27 input  -60.55 | X-H torsion
[ 11005 11000 10999 10996 ] final  -11.23 input  -57.11 | X-H torsion

> <Gold.Protein.ActiveResidues>
 VAL166  LYS551  ARG553  GLY616  TRP617  ASP618  TYR619  PRO620  LYS621  CYS622 
 ASP623  PHE694  ASN695  SER759  ASP760  ASP761  ALA762  ILE779  LEU786  VAL792 
 PHE793  MET794  SER795  GLU796  ALA797  LYS798  CYS799  TRP800  GLU811  SER814 

> <Gold.Protein.RotatedAtoms>
  151.5056  135.1063  159.9840 H   0  0  0  0  0  0  0  0  0  0  0  0  # atno 6907 bound_to 6896
  152.4683  133.7969  159.6942 H   0  0  0  0  0  0  0  0  0  0  0  0  # atno 6908 bound_to 6896
  150.8679  133.7485  159.2996 H   0  0  0  0  0  0  0  0  0  0  0  0  # atno 6909 bound_to 6896
  146.2051  140.3428  142.8410 H   0  0  0  0  0  0  0  0  0  0  0  0  # atno 7974 bound_to 7965
  155.9533  140.3399  155.6426 H   0  0  0  0  0  0  0  0  0  0  0  0  # atno 8008 bound_to 7997
  155.6892  140.0747  157.2473 H   0  0  0  0  0  0  0  0  0  0  0  0  # atno 8009 bound_to 7997
  154.4126  140.1660  156.2055 H   0  0  0  0  0  0  0  0  0  0  0  0  # atno 8010 bound_to 7997
  140.0926  143.4686  152.1861 H   0  0  0  0  0  0  0  0  0  0  0  0  # atno 10167 bound_to 10162
  156.7984  130.9543  151.3119 H   0  0  0  0  0  0  0  0  0  0  0  0  # atno 10718 bound_to 10713
  153.1447  135.6767  153.8973 H   0  0  0  0  0  0  0  0  0  0  0  0  # atno 10763 bound_to 10752
  153.8419  135.3104  155.3428 H   0  0  0  0  0  0  0  0  0  0  0  0  # atno 10764 bound_to 10752
  154.7815  135.4885  153.9940 H   0  0  0  0  0  0  0  0  0  0  0  0  # atno 10765 bound_to 10752
  140.7531  133.8576  155.9062 H   0  0  0  0  0  0  0  0  0  0  0  0  # atno 11005 bound_to 11000
  144.8773  140.7354  143.6009 LP  0  0  0  0  0  0  0  0  0  0  0  0  # atno 17320 bound_to 7965
  145.3348  139.1749  143.4517 LP  0  0  0  0  0  0  0  0  0  0  0  0  # atno 17321 bound_to 7965
  139.5716  144.7466  151.3875 LP  0  0  0  0  0  0  0  0  0  0  0  0  # atno 17342 bound_to 10162
  140.7021  143.7607  150.7419 LP  0  0  0  0  0  0  0  0  0  0  0  0  # atno 17343 bound_to 10162
  157.6566  130.8930  149.9742 LP  0  0  0  0  0  0  0  0  0  0  0  0  # atno 17370 bound_to 10713
  156.1116  130.3649  150.0039 LP  0  0  0  0  0  0  0  0  0  0  0  0  # atno 17371 bound_to 10713
  140.9732  134.1503  157.4558 LP  0  0  0  0  0  0  0  0  0  0  0  0  # atno 17394 bound_to 11000
  139.8784  134.9986  156.5907 LP  0  0  0  0  0  0  0  0  0  0  0  0  # atno 17395 bound_to 11000

$$$$
