AV-unprocessed.smi:1196|AV-procd|sdf|5002|dock10
  -GOLD-   22720 4 13D 1   1.00000     0.00000
 Structure written by MMmdl.
 36 37  0  0  0  0  0  0  0  0  2 V2000
  149.4819  140.2988  155.4592 C   0  0  0  0  0  0  0  0  0  0  0  0
  150.1993  140.7837  156.7287 C   0  0  2  0  0  0  0  0  0  0  0  0
  150.9996  142.0741  156.4650 C   0  0  0  0  0  0  0  0  0  0  0  0
  151.4330  142.7170  157.6931 N   0  0  0  0  0  0  0  0  0  0  0  0
  151.3986  144.0567  158.0177 C   0  0  0  0  0  0  0  0  0  0  0  0
  151.9205  144.1843  159.2728 C   0  0  0  0  0  0  0  0  0  0  0  0
  152.2508  142.8494  159.6383 C   0  0  0  0  0  0  0  0  0  0  0  0
  151.9567  141.9732  158.6914 N   0  0  0  0  0  0  0  0  0  0  0  0
  151.0886  139.7386  157.2318 N   0  0  0  0  0  0  0  0  0  0  0  0
  150.7846  138.8517  158.1912 C   0  0  0  0  0  0  0  0  0  0  0  0
  149.6826  138.8031  158.7394 O   0  0  0  0  0  0  0  0  0  0  0  0
  151.9057  137.8813  158.5760 C   0  0  0  0  0  0  0  0  0  0  0  0
  152.3818  138.0296  160.0348 C   0  0  0  0  0  0  0  0  0  0  0  0
  153.7380  137.3425  160.2995 C   0  0  1  0  0  0  0  0  0  0  0  0
  153.7242  135.9547  159.8701 N   0  5  0  0  0  0  0  0  0  0  0  0
  154.6942  135.7828  158.9413 C   0  0  0  0  0  0  0  0  0  0  0  0
  154.9935  134.7481  158.3498 O   0  0  0  0  0  0  0  0  0  0  0  0
  155.3386  136.9317  158.7119 N   0  0  0  0  0  0  0  0  0  0  0  0
  154.8509  137.9242  159.4489 C   0  0  0  0  0  0  0  0  0  0  0  0
  155.2166  139.0988  159.4576 O   0  0  0  0  0  0  0  0  0  0  0  0
  148.8043  141.0628  155.0777 H   0  0  0  0  0  0  0  0  0  0  0  0
  148.8881  139.4056  155.6560 H   0  0  0  0  0  0  0  0  0  0  0  0
  150.1929  140.0587  154.6679 H   0  0  0  0  0  0  0  0  0  0  0  0
  149.4417  141.0034  157.4836 H   0  0  0  0  0  0  0  0  0  0  0  0
  151.8769  141.8648  155.8511 H   0  0  0  0  0  0  0  0  0  0  0  0
  150.3918  142.7859  155.9044 H   0  0  0  0  0  0  0  0  0  0  0  0
  151.0140  144.7992  157.3343 H   0  0  0  0  0  0  0  0  0  0  0  0
  152.0491  145.0930  159.8419 H   0  0  0  0  0  0  0  0  0  0  0  0
  152.6925  142.4938  160.5574 H   0  0  0  0  0  0  0  0  0  0  0  0
  152.0169  139.7020  156.8365 H   0  0  0  0  0  0  0  0  0  0  0  0
  151.5570  136.8626  158.4037 H   0  0  0  0  0  0  0  0  0  0  0  0
  152.7436  138.0444  157.8968 H   0  0  0  0  0  0  0  0  0  0  0  0
  152.4415  139.0868  160.3010 H   0  0  0  0  0  0  0  0  0  0  0  0
  151.6289  137.5941  160.6941 H   0  0  0  0  0  0  0  0  0  0  0  0
  154.0156  137.4525  161.3487 H   0  0  0  0  0  0  0  0  0  0  0  0
  156.0943  137.0342  158.0513 H   0  0  0  0  0  0  0  0  0  0  0  0
  1  2  1  0  0  0  0
  1 21  1  0  0  0  0
  1 22  1  0  0  0  0
  1 23  1  0  0  0  0
  2  3  1  0  0  0  0
  2  9  1  0  0  0  0
  2 24  1  0  0  0  0
  3  4  1  0  0  0  0
  3 25  1  0  0  0  0
  3 26  1  0  0  0  0
  4  8  1  0  0  0  0
  4  5  1  0  0  0  0
  5  6  2  0  0  0  0
  5 27  1  0  0  0  0
  6  7  1  0  0  0  0
  6 28  1  0  0  0  0
  7  8  2  0  0  0  0
  7 29  1  0  0  0  0
  9 10  1  0  0  0  0
  9 30  1  0  0  0  0
 10 11  2  0  0  0  0
 10 12  1  0  0  0  0
 12 13  1  0  0  0  0
 12 31  1  0  0  0  0
 12 32  1  0  0  0  0
 13 14  1  0  0  0  0
 13 33  1  0  0  0  0
 13 34  1  0  0  0  0
 14 19  1  0  0  0  0
 14 15  1  0  0  0  0
 14 35  1  0  0  0  0
 15 16  1  0  0  0  0
 16 17  2  0  0  0  0
 16 18  1  0  0  0  0
 18 19  1  0  0  0  0
 18 36  1  0  0  0  0
 19 20  2  0  0  0  0
M  CHG  1  15  -1
M  END
> <s_m_source_file>
AV-unprocessed.smi

> <i_m_source_file_index>
1196

> <i_lp_mmshare_version>
43012

> <i_f3d_flags>
0

> <s_epik_input>
bjFbY0hdW2NIXVtjSF1uMVtDSDJdW0NAQEhdKFtDSDNdKVtOSF1DKD1PKVtDSDJdW0NIMl1bQ0BASF0yW05IXUMoPU8pW05IXUMyPU8=

> <s_epik_cmdline>
J2VwaWtfcHl0aG9uJywgJy1waCcsICc3LjAnLCAnLXRuJywgJzgnLCAnLW1hJywgJzIwMCcsICctbWV0YWxfYmluZGluZycsICctaW1hZScsICc8aW5maWxlLm1hZT4nLCAnLW9tYWUnLCAnPG91dGZpbGUubWFlPic=

> <r_lp_tautomer_probability>
1

> <r_epik_Ionization_Penalty>
5.79547

> <r_epik_Ionization_Penalty_Charging>
5.79516

> <r_epik_Ionization_Penalty_Neutral>
0.000313087

> <r_epik_State_Penalty>
5.80096

> <r_epik_Charging_Adjusted_Penalty>
11.5961

> <i_epik_Tot_Q>
-1

> <i_epik_Tot_abs_Q>
1

> <r_epik_Metal_State_Penalty>
2.14443

> <b_epik_Metal_Only>
1

> <s_lp_Force_Field>
OPLS_2005

> <r_lp_Energy>
10.7967

> <b_lp_Chiralities_Consistent>
1

> <s_lp_Variant>
AV-unprocessed.smi:1196-7

> <Gold.Version>
5.8.1

> <Gold.Id.Protein>
6NUR|6NUR_protein|mol2

> <Gold.PLP.Fitness>
39.2930

> <Gold.PLP.PLP>
-28.6232

> <Gold.PLP.part.hbond>
-3.1433

> <Gold.PLP.part.metal>
0.0000

> <Gold.PLP.part.buried>
-3.8358

> <Gold.PLP.part.nonpolar>
-22.5906

> <Gold.PLP.part.repulsive>
0.1257

> <Gold.PLP.ligand.clash>
0.0000

> <Gold.PLP.ligand.torsion>
0.6884

> <Gold.PLP.Chemscore.Hbond>
3.0000

> <Gold.PLP.Chemscore.CHOScore>
1.0000

> <Gold.PLP.Chemscore.Metal>
0.0000

> <Gold.Chemscore.Hbonds>
donor molecule, donor type, donor heavy atom, donor atom, acceptor molecule, acceptor atom, score
      P1  H  6896  6907       L1    15  2.00
      P1  H  7997  8009       L1    20  0.36
      L1  C     5    27       P1  8028  0.66

> <Gold.PLP.Chemscore.Internal.Correction>
0.0466

> <Gold.Rescore>
     Score         DG    S(hbond)    S(metal)    S(lipo)     H(rot)  DE(clash)    DE(int)     intcor
     12.51     -12.91       1.98        0.00      70.34       2.89       0.01       0.39       ----

> <Gold.Chemscore.Fitness>
12.5055

> <Gold.Chemscore.DG>
-12.9056

> <Gold.Chemscore.ZeroCoef>
-5.4800

> <Gold.Chemscore.Hbond>
1.9778

> <Gold.Chemscore.Metal>
0.0000

> <Gold.Chemscore.Lipo>
70.3405

> <Gold.Chemscore.Internal_Hbond>
0.0000

> <Gold.Chemscore.DEClash>
0.0075

> <Gold.Chemscore.DEInternal>
0.3927

> <Gold.Chemscore.Rot>
2.8946

> <Gold.Chemscore.Internal.Correction>
   9.000000E+99

> <Gold.Chemscore.Hbonds>
donor molecule, donor type, donor heavy atom, donor atom, acceptor molecule, acceptor atom, score
      P1  H  6896  6907       L1    15  0.96
      P1  H  7997  8009       L1    20  0.32

> <Gold.Chemscore.Hbond.Weighted>
-6.6059

> <Gold.Chemscore.Metal.Weighted>
-0.0000

> <Gold.Chemscore.Lipo.Weighted>
-8.2298

> <Gold.Chemscore.Internal_Hbond.Weighted>
0.0000

> <Gold.Chemscore.DEClash.Weighted>
0.0075

> <Gold.Chemscore.DEInternal.Weighted>
0.3927

> <Gold.Chemscore.Rot.Weighted>
7.4101

> <Gold.Chemscore.Internal.Correction.Weighted>
   9.000000E+99

> <Gold.Protein.RotatedTorsions>
[ 6907 6896 6895 6894 ] final   60.26 input  -60.11 | X-H torsion
[ 7974 7965 7964 7962 ] final  114.14 input  175.53 | X-H torsion
[ 8008 7997 7996 7995 ] final  106.23 input   59.86 | X-H torsion
[ 10167 10162 10161 10158 ] final -114.13 input  -65.29 | X-H torsion
[ 10718 10713 10712 10709 ] final -158.95 input   66.30 | X-H torsion
[ 10763 10752 10751 10750 ] final  120.01 input  -60.55 | X-H torsion
[ 11005 11000 10999 10996 ] final  141.26 input  -57.11 | X-H torsion

> <Gold.Protein.ActiveResidues>
 VAL166  LYS551  ARG553  GLY616  TRP617  ASP618  TYR619  PRO620  LYS621  CYS622 
 ASP623  PHE694  ASN695  SER759  ASP760  ASP761  ALA762  ILE779  LEU786  VAL792 
 PHE793  MET794  SER795  GLU796  ALA797  LYS798  CYS799  TRP800  GLU811  SER814 

> <Gold.Protein.RotatedAtoms>
  152.3987  134.6322  160.0078 H   0  0  0  0  0  0  0  0  0  0  0  0  # atno 6907 bound_to 6896
  151.6533  133.3314  159.3165 H   0  0  0  0  0  0  0  0  0  0  0  0  # atno 6908 bound_to 6896
  150.7891  134.6943  159.6559 H   0  0  0  0  0  0  0  0  0  0  0  0  # atno 6909 bound_to 6896
  145.2081  139.2919  143.4283 H   0  0  0  0  0  0  0  0  0  0  0  0  # atno 7974 bound_to 7965
  156.1725  140.3116  155.9000 H   0  0  0  0  0  0  0  0  0  0  0  0  # atno 8008 bound_to 7997
  155.3556  140.0473  157.3063 H   0  0  0  0  0  0  0  0  0  0  0  0  # atno 8009 bound_to 7997
  154.5256  140.2213  155.8906 H   0  0  0  0  0  0  0  0  0  0  0  0  # atno 8010 bound_to 7997
  140.1044  143.4584  152.1792 H   0  0  0  0  0  0  0  0  0  0  0  0  # atno 10167 bound_to 10162
  156.5613  130.8648  151.2810 H   0  0  0  0  0  0  0  0  0  0  0  0  # atno 10718 bound_to 10713
  153.5919  135.3464  155.2914 H   0  0  0  0  0  0  0  0  0  0  0  0  # atno 10763 bound_to 10752
  154.8651  135.4207  154.2507 H   0  0  0  0  0  0  0  0  0  0  0  0  # atno 10764 bound_to 10752
  153.3316  135.7044  153.7014 H   0  0  0  0  0  0  0  0  0  0  0  0  # atno 10765 bound_to 10752
  140.0388  134.9315  157.0804 H   0  0  0  0  0  0  0  0  0  0  0  0  # atno 11005 bound_to 11000
  146.3403  140.2348  142.8594 LP  0  0  0  0  0  0  0  0  0  0  0  0  # atno 17320 bound_to 7965
  144.9882  140.8523  143.5355 LP  0  0  0  0  0  0  0  0  0  0  0  0  # atno 17321 bound_to 7965
  139.5654  144.7431  151.4038 LP  0  0  0  0  0  0  0  0  0  0  0  0  # atno 17342 bound_to 10162
  140.6960  143.7747  150.7328 LP  0  0  0  0  0  0  0  0  0  0  0  0  # atno 17343 bound_to 10162
  157.7368  130.9784  150.2156 LP  0  0  0  0  0  0  0  0  0  0  0  0  # atno 17370 bound_to 10713
  156.2796  130.3732  149.7948 LP  0  0  0  0  0  0  0  0  0  0  0  0  # atno 17371 bound_to 10713
  140.4103  134.1988  155.7163 LP  0  0  0  0  0  0  0  0  0  0  0  0  # atno 17394 bound_to 11000
  141.1872  133.8286  157.1041 LP  0  0  0  0  0  0  0  0  0  0  0  0  # atno 17395 bound_to 11000

$$$$
