#       Name:                AV-unprocessed.smi:805
#       Creating user name   scv26
#       Creation time:       Fri Mar 27 01:23:35 2020


#       File generated by GOLD software.
#

@<TRIPOS>MOLECULE
AV-unprocessed.smi:805
    45    46     1
SMALL
NO_CHARGES


@<TRIPOS>ATOM
      1 ****        -5.6345   1.9005   0.1659 C.3            1 S1                 0.0000
      2 ****        -4.1079   1.9621   0.0815 C.3            1 S1                 0.0000
      3 ****        -3.5884   0.6517   0.2309 O.3            1 S1                 0.0000
      4 ****        -2.1706   0.6096   0.1878 C.3            1 S1                 0.0000
      5 ****        -1.4809   1.0539   1.4810 C.3            1 S1                 0.0000
      6 ****        -0.5203  -0.1251   1.2920 C.3            1 S1                 0.0000
      7 ****         0.6822   0.2914   0.5688 N.am           1 S1                 0.0000
      8 ****         1.8102  -0.4274   0.4904 C.2            1 S1                 0.0000
      9 ****         1.9511  -1.5270   1.0247 O.2            1 S1                 0.0000
     10 ****         2.7323   0.1994  -0.2599 N.am           1 S1                 0.0000
     11 ****         4.0356  -0.2435  -0.6121 C.ar           1 S1                 0.0000
     12 ****         4.6491   0.3415  -1.7388 C.ar           1 S1                 0.0000
     13 ****         5.9458  -0.0670  -2.1041 C.ar           1 S1                 0.0000
     14 ****         6.5862  -1.0440  -1.3175 C.ar           1 S1                 0.0000
     15 ****         6.0206  -1.6029  -0.2271 N.ar           1 S1                 0.0000
     16 ****         4.7755  -1.2080   0.1165 C.ar           1 S1                 0.0000
     17 ****        -1.5966  -0.8116   0.4011 C.3            1 S1                 0.0000
     18 ****        -2.5031  -1.7894   1.1615 C.3            1 S1                 0.0000
     19 ****        -1.1364  -1.5435  -0.8654 C.3            1 S1                 0.0000
     20 ****        -6.0714   2.8925   0.0509 H              1 S1                 0.0000
     21 ****        -5.9568   1.5026   1.1285 H              1 S1                 0.0000
     22 ****        -6.0441   1.2607  -0.6160 H              1 S1                 0.0000
     23 ****        -3.8038   2.3783  -0.8801 H              1 S1                 0.0000
     24 ****        -3.7207   2.6174   0.8629 H              1 S1                 0.0000
     25 ****        -1.7534   1.0935  -0.6982 H              1 S1                 0.0000
     26 ****        -1.0245   2.0435   1.4372 H              1 S1                 0.0000
     27 ****        -2.1151   0.9457   2.3623 H              1 S1                 0.0000
     28 ****        -0.3158  -0.6541   2.2245 H              1 S1                 0.0000
     29 ****         0.6478   1.1830   0.0967 H              1 S1                 0.0000
     30 ****         2.4394   1.0648  -0.6889 H              1 S1                 0.0000
     31 ****         4.1325   1.0906  -2.3211 H              1 S1                 0.0000
     32 ****         6.4381   0.3588  -2.9657 H              1 S1                 0.0000
     33 ****         7.5813  -1.3813  -1.5676 H              1 S1                 0.0000
     34 ****         4.3881  -1.6717   1.0101 H              1 S1                 0.0000
     35 ****        -1.9688  -2.7018   1.4282 H              1 S1                 0.0000
     36 ****        -3.3701  -2.0790   0.5667 H              1 S1                 0.0000
     37 ****        -2.8814  -1.3582   2.0886 H              1 S1                 0.0000
     38 ****        -0.5071  -2.4007  -0.6236 H              1 S1                 0.0000
     39 ****        -0.5620  -0.8949  -1.5270 H              1 S1                 0.0000
     40 ****        -1.9837  -1.9105  -1.4455 H              1 S1                 0.0000
     41 ****        -3.9468   0.0806  -0.5076 LP             1 S1                 0.0000
     42 ****        -3.8915   0.2871   1.1113 LP             1 S1                 0.0000
     43 ****         1.2005  -1.9274   1.5503 LP             1 S1                 0.0000
     44 ****         2.8163  -2.0202   0.9333 LP             1 S1                 0.0000
     45 ****         6.5093  -2.2897   0.3110 LP             1 S1                 0.0000
@<TRIPOS>BOND
    1    1    2 1     
    2    1   20 1     
    3    1   21 1     
    4    1   22 1     
    5    2    3 1     
    6    2   23 1     
    7    2   24 1     
    8    3    4 1     
    9    4   17 1     
   10    4    5 1     
   11    4   25 1     
   12    5    6 1     
   13    5   26 1     
   14    5   27 1     
   15    6    7 1     
   16    6   17 1     
   17    6   28 1     
   18    7    8 am    
   19    7   29 1     
   20    8    9 2     
   21    8   10 am    
   22   10   11 1     
   23   10   30 1     
   24   11   16 ar    
   25   11   12 ar    
   26   12   13 ar    
   27   12   31 1     
   28   13   14 ar    
   29   13   32 1     
   30   14   15 ar    
   31   14   33 1     
   32   15   16 ar    
   33   16   34 1     
   34   17   18 1     
   35   17   19 1     
   36   18   35 1     
   37   18   36 1     
   38   18   37 1     
   39   19   38 1     
   40   19   39 1     
   41   19   40 1     
   42    3   41 1     
   43    3   42 1     
   44    9   43 1     
   45    9   44 1     
   46   15   45 1     
@<TRIPOS>SUBSTRUCTURE
      1 S1             1
@<TRIPOS>SET
LONE_PAIRS      STATIC     ATOMS    <user>   **** ""
5 41 42 43 44 45
DONOR_HYDROGENS      STATIC     ATOMS    <user>   **** ""
2 29 30
ATOM$BLUE        STATIC     ATOMS    COLORGROUP SYSTEM
5 41 42 43 44 45
ATOM$RED        STATIC     ATOMS    COLORGROUP SYSTEM
2 29 30
