AV-unprocessed.smi:522|AV-procd|sdf|2801|dock7
  -GOLD-   2262023273D 1   1.00000     0.00000
 Structure written by MMmdl.
 41 42  0  0  0  0  0  0  0  0  1 V2000
  150.7650  138.3401  154.4426 C   0  0  0  0  0  0  0  0  0  0  0  0
  150.9380  139.7308  154.6507 O   0  0  0  0  0  0  0  0  0  0  0  0
  151.7992  140.0052  155.7441 C   0  0  0  0  0  0  0  0  0  0  0  0
  150.9901  140.1036  157.0444 C   0  0  0  0  0  0  0  0  0  0  0  0
  151.7508  140.7317  158.1147 N   0  0  0  0  0  0  0  0  0  0  0  0
  152.5182  140.1381  159.0624 C   0  0  0  0  0  0  0  0  0  0  0  0
  152.7195  138.3828  159.1304 S   0  0  0  0  0  0  0  0  0  0  0  0
  153.2424  138.1905  160.8625 C   0  0  0  0  0  0  0  0  0  0  0  0
  153.6081  136.7386  161.1793 C   0  0  0  0  0  0  0  0  0  0  0  0
  153.4595  135.9056  160.2844 O   0  0  0  0  0  0  0  0  0  0  0  0
  154.1154  136.4362  162.5462 C   0  0  0  0  0  0  0  0  0  0  0  0
  154.4868  137.4852  163.4422 C   0  0  0  0  0  0  0  0  0  0  0  0
  154.7942  138.3447  164.1546 N   0  0  0  0  0  0  0  0  0  0  0  0
  154.2453  135.1629  163.0063 C   0  0  0  0  0  0  0  0  0  0  0  0
  154.7649  134.8594  164.4035 C   0  0  0  0  0  0  0  0  0  0  0  0
  153.9365  134.0125  162.2992 N   0  0  0  0  0  0  0  0  0  0  0  0
  153.1133  140.9683  159.9210 N   0  0  0  0  0  0  0  0  0  0  0  0
  152.6761  142.2095  159.5042 C   0  0  0  0  0  0  0  0  0  0  0  0
  152.9460  143.4988  160.0159 C   0  0  0  0  0  0  0  0  0  0  0  0
  152.3749  144.6391  159.4138 C   0  0  0  0  0  0  0  0  0  0  0  0
  151.5292  144.5069  158.2933 C   0  0  0  0  0  0  0  0  0  0  0  0
  151.2486  143.2310  157.7674 C   0  0  0  0  0  0  0  0  0  0  0  0
  151.8204  142.0963  158.3734 C   0  0  0  0  0  0  0  0  0  0  0  0
  150.0874  138.1722  153.6072 H   0  0  0  0  0  0  0  0  0  0  0  0
  150.3355  137.8595  155.3223 H   0  0  0  0  0  0  0  0  0  0  0  0
  151.7138  137.8564  154.2065 H   0  0  0  0  0  0  0  0  0  0  0  0
  152.5464  139.2157  155.8365 H   0  0  0  0  0  0  0  0  0  0  0  0
  152.3348  140.9399  155.5701 H   0  0  0  0  0  0  0  0  0  0  0  0
  150.0638  140.6523  156.8768 H   0  0  0  0  0  0  0  0  0  0  0  0
  150.6948  139.1064  157.3721 H   0  0  0  0  0  0  0  0  0  0  0  0
  154.1099  138.8259  161.0412 H   0  0  0  0  0  0  0  0  0  0  0  0
  152.4570  138.5373  161.5340 H   0  0  0  0  0  0  0  0  0  0  0  0
  155.7732  135.2557  164.5286 H   0  0  0  0  0  0  0  0  0  0  0  0
  154.8029  133.7873  164.6029 H   0  0  0  0  0  0  0  0  0  0  0  0
  154.1211  135.3148  165.1568 H   0  0  0  0  0  0  0  0  0  0  0  0
  153.5792  134.0431  161.3550 H   0  0  0  0  0  0  0  0  0  0  0  0
  154.0455  133.0942  162.7078 H   0  0  0  0  0  0  0  0  0  0  0  0
  153.5929  143.6107  160.8733 H   0  0  0  0  0  0  0  0  0  0  0  0
  152.5869  145.6199  159.8135 H   0  0  0  0  0  0  0  0  0  0  0  0
  151.0960  145.3855  157.8381 H   0  0  0  0  0  0  0  0  0  0  0  0
  150.6008  143.1257  156.9098 H   0  0  0  0  0  0  0  0  0  0  0  0
  1  2  1  0  0  0  0
  1 24  1  0  0  0  0
  1 25  1  0  0  0  0
  1 26  1  0  0  0  0
  2  3  1  0  0  0  0
  3  4  1  0  0  0  0
  3 27  1  0  0  0  0
  3 28  1  0  0  0  0
  4  5  1  0  0  0  0
  4 29  1  0  0  0  0
  4 30  1  0  0  0  0
  5 23  1  0  0  0  0
  5  6  1  0  0  0  0
  6  7  1  0  0  0  0
  6 17  2  0  0  0  0
  7  8  1  0  0  0  0
  8  9  1  0  0  0  0
  8 31  1  0  0  0  0
  8 32  1  0  0  0  0
  9 10  2  0  0  0  0
  9 11  1  0  0  0  0
 11 12  1  0  0  0  0
 11 14  2  0  0  0  0
 12 13  3  0  0  0  0
 14 15  1  0  0  0  0
 14 16  1  0  0  0  0
 15 33  1  0  0  0  0
 15 34  1  0  0  0  0
 15 35  1  0  0  0  0
 16 36  1  0  0  0  0
 16 37  1  0  0  0  0
 17 18  1  0  0  0  0
 18 23  2  0  0  0  0
 18 19  1  0  0  0  0
 19 20  2  0  0  0  0
 19 38  1  0  0  0  0
 20 21  1  0  0  0  0
 20 39  1  0  0  0  0
 21 22  2  0  0  0  0
 21 40  1  0  0  0  0
 22 23  1  0  0  0  0
 22 41  1  0  0  0  0
M  END
> <s_m_source_file>
AV-unprocessed.smi

> <i_m_source_file_index>
522

> <i_lp_mmshare_version>
43012

> <i_f3d_flags>
0

> <s_epik_input>
W2NIXTFbY0hdW2NIXVtjSF1jKGMxMiluKFtDSDJdW0NIMl1PW0NIM10pYyhuMilTW0NIMl1DKD1PKS9DKEMjTik9QygvW0NIM10pW05IMl0=

> <s_epik_cmdline>
J2VwaWtfcHl0aG9uJywgJy1waCcsICc3LjAnLCAnLXRuJywgJzgnLCAnLW1hJywgJzIwMCcsICctbWV0YWxfYmluZGluZycsICctaW1hZScsICc8aW5maWxlLm1hZT4nLCAnLW9tYWUnLCAnPG91dGZpbGUubWFlPic=

> <r_lp_tautomer_probability>
0.5

> <r_epik_Ionization_Penalty>
0.0129021

> <r_epik_Ionization_Penalty_Charging>
0

> <r_epik_Ionization_Penalty_Neutral>
0.0129021

> <r_epik_State_Penalty>
0.42069

> <r_epik_Charging_Adjusted_Penalty>
0.42069

> <i_epik_Tot_Q>
0

> <i_epik_Tot_abs_Q>
0

> <r_epik_Metal_State_Penalty>
0.41068

> <b_epik_Metal_Only>
0

> <s_lp_Force_Field>
OPLS_2005

> <r_lp_Energy>
14.5632

> <b_lp_Chiralities_Consistent>
1

> <s_lp_Variant>
AV-unprocessed.smi:522-1

> <Gold.Version>
5.8.1

> <Gold.Id.Protein>
6NUR|6NUR_protein|mol2

> <Gold.PLP.Fitness>
51.5844

> <Gold.PLP.PLP>
-47.5144

> <Gold.PLP.part.hbond>
-2.0000

> <Gold.PLP.part.metal>
0.0000

> <Gold.PLP.part.buried>
-6.5818

> <Gold.PLP.part.nonpolar>
-39.0330

> <Gold.PLP.part.repulsive>
0.1766

> <Gold.PLP.ligand.clash>
0.0000

> <Gold.PLP.ligand.torsion>
0.9874

> <Gold.PLP.Chemscore.Hbond>
1.9913

> <Gold.PLP.Chemscore.CHOScore>
0.0000

> <Gold.PLP.Chemscore.Metal>
0.0000

> <Gold.Chemscore.Hbonds>
donor molecule, donor type, donor heavy atom, donor atom, acceptor molecule, acceptor atom, score
      P1  H  6896  6908       L1    10  1.00
      P1  H  7989  7998       L1     2  0.90

> <Gold.PLP.Chemscore.Internal.Correction>
0.0711

> <Gold.Rescore>
     Score         DG    S(hbond)    S(metal)    S(lipo)     H(rot)  DE(clash)    DE(int)     intcor
     16.67     -17.39       1.00        0.00     124.20       2.33       0.11       0.61       ----

> <Gold.Chemscore.Fitness>
16.6704

> <Gold.Chemscore.DG>
-17.3922

> <Gold.Chemscore.ZeroCoef>
-5.4800

> <Gold.Chemscore.Hbond>
1.0000

> <Gold.Chemscore.Metal>
0.0000

> <Gold.Chemscore.Lipo>
124.2039

> <Gold.Chemscore.Internal_Hbond>
0.0000

> <Gold.Chemscore.DEClash>
0.1104

> <Gold.Chemscore.DEInternal>
0.6114

> <Gold.Chemscore.Rot>
2.3280

> <Gold.Chemscore.Internal.Correction>
   9.000000E+99

> <Gold.Chemscore.Hbonds>
donor molecule, donor type, donor heavy atom, donor atom, acceptor molecule, acceptor atom, score
      P1  H  6896  6908       L1    10  0.98
      P1  H  7989  7998       L1     2  0.18

> <Gold.Chemscore.Hbond.Weighted>
-3.3401

> <Gold.Chemscore.Metal.Weighted>
-0.0000

> <Gold.Chemscore.Lipo.Weighted>
-14.5319

> <Gold.Chemscore.Internal_Hbond.Weighted>
0.0000

> <Gold.Chemscore.DEClash.Weighted>
0.1104

> <Gold.Chemscore.DEInternal.Weighted>
0.6114

> <Gold.Chemscore.Rot.Weighted>
5.9598

> <Gold.Chemscore.Internal.Correction.Weighted>
   9.000000E+99

> <Gold.Protein.RotatedTorsions>
[ 6907 6896 6895 6894 ] final  -83.60 input  -60.11 | X-H torsion
[ 7974 7965 7964 7962 ] final  -37.77 input  175.53 | X-H torsion
[ 8008 7997 7996 7995 ] final -144.55 input   59.86 | X-H torsion
[ 10167 10162 10161 10158 ] final   11.87 input  -65.29 | X-H torsion
[ 10718 10713 10712 10709 ] final -170.28 input   66.30 | X-H torsion
[ 10763 10752 10751 10750 ] final  -35.98 input  -60.55 | X-H torsion
[ 11005 11000 10999 10996 ] final  -91.71 input  -57.11 | X-H torsion

> <Gold.Protein.ActiveResidues>
 VAL166  LYS551  ARG553  GLY616  TRP617  ASP618  TYR619  PRO620  LYS621  CYS622 
 ASP623  PHE694  ASN695  SER759  ASP760  ASP761  ALA762  ILE779  LEU786  VAL792 
 PHE793  MET794  SER795  GLU796  ALA797  LYS798  CYS799  TRP800  GLU811  SER814 

> <Gold.Protein.RotatedAtoms>
  150.6884  134.3486  159.4898 H   0  0  0  0  0  0  0  0  0  0  0  0  # atno 6907 bound_to 6896
  152.1330  134.9118  160.0567 H   0  0  0  0  0  0  0  0  0  0  0  0  # atno 6908 bound_to 6896
  152.0280  133.3891  159.4322 H   0  0  0  0  0  0  0  0  0  0  0  0  # atno 6909 bound_to 6896
  146.0546  140.6434  142.9026 H   0  0  0  0  0  0  0  0  0  0  0  0  # atno 7974 bound_to 7965
  155.5288  140.0598  157.2893 H   0  0  0  0  0  0  0  0  0  0  0  0  # atno 8008 bound_to 7997
  154.4492  140.1939  156.0518 H   0  0  0  0  0  0  0  0  0  0  0  0  # atno 8009 bound_to 7997
  156.0667  140.3265  155.7530 H   0  0  0  0  0  0  0  0  0  0  0  0  # atno 8010 bound_to 7997
  140.6105  143.8419  150.7060 H   0  0  0  0  0  0  0  0  0  0  0  0  # atno 10167 bound_to 10162
  156.7239  130.9281  151.3099 H   0  0  0  0  0  0  0  0  0  0  0  0  # atno 10718 bound_to 10713
  153.8721  135.6830  153.4773 H   0  0  0  0  0  0  0  0  0  0  0  0  # atno 10763 bound_to 10752
  153.1281  135.4710  154.9303 H   0  0  0  0  0  0  0  0  0  0  0  0  # atno 10764 bound_to 10752
  154.7709  135.3238  154.8142 H   0  0  0  0  0  0  0  0  0  0  0  0  # atno 10765 bound_to 10752
  141.1538  133.7773  156.9918 H   0  0  0  0  0  0  0  0  0  0  0  0  # atno 11005 bound_to 11000
  144.7141  140.4145  143.7058 LP  0  0  0  0  0  0  0  0  0  0  0  0  # atno 17320 bound_to 7965
  145.6666  139.1591  143.2778 LP  0  0  0  0  0  0  0  0  0  0  0  0  # atno 17321 bound_to 7965
  140.1986  143.3978  152.1809 LP  0  0  0  0  0  0  0  0  0  0  0  0  # atno 17342 bound_to 10162
  139.5357  144.7207  151.4901 LP  0  0  0  0  0  0  0  0  0  0  0  0  # atno 17343 bound_to 10162
  157.6886  130.9211  150.0454 LP  0  0  0  0  0  0  0  0  0  0  0  0  # atno 17370 bound_to 10713
  156.1575  130.3643  149.9347 LP  0  0  0  0  0  0  0  0  0  0  0  0  # atno 17371 bound_to 10713
  140.0998  134.9542  157.1905 LP  0  0  0  0  0  0  0  0  0  0  0  0  # atno 17394 bound_to 11000
  140.3334  134.2784  155.7224 LP  0  0  0  0  0  0  0  0  0  0  0  0  # atno 17395 bound_to 11000

$$$$
