#       Name:                AV-unprocessed.smi:1572
#       Creating user name   scv26
#       Creation time:       Fri Mar 27 06:54:17 2020


#       File generated by GOLD software.
#

@<TRIPOS>MOLECULE
AV-unprocessed.smi:1572
    48    49     1
SMALL
NO_CHARGES


@<TRIPOS>ATOM
      1 ****        -0.1799  -2.7326   3.6917 C.3            1 S1                 0.0000
      2 ****        -1.5079  -2.3921   3.1927 N.3            1 S1                 0.0000
      3 ****        -1.7442  -0.9505   3.1216 C.3            1 S1                 0.0000
      4 ****        -0.9431  -0.2798   1.9858 C.3            1 S1                 0.0000
      5 ****        -1.2718  -0.9010   0.6706 N.4            1 S1                 1.0000
      6 ****        -0.7252  -0.1966  -0.5447 C.3            1 S1                 0.0000
      7 ****        -1.2817  -0.8588  -1.8304 C.3            1 S1                 0.0000
      8 ****        -1.2348   1.2670  -0.5645 C.3            1 S1                 0.0000
      9 ****         0.8327  -0.2361  -0.5677 C.3            1 S1                 0.0000
     10 ****         1.4108   0.4102  -1.7450 N.am           1 S1                 0.0000
     11 ****         1.9193   1.6493  -1.8051 C.2            1 S1                 0.0000
     12 ****         1.9313   2.3614  -0.7985 O.2            1 S1                 0.0000
     13 ****         2.3727   1.9886  -3.0323 N.pl3          1 S1                -1.0000
     14 ****         2.8998   3.2067  -3.2392 C.2            1 S1                 0.0000
     15 ****         4.2247   3.4232  -3.2518 N.2            1 S1                 0.0000
     16 ****         4.5587   4.7508  -3.4823 N.2            1 S1                 0.0000
     17 ****         3.4714   5.5032  -3.6496 C.2            1 S1                 0.0000
     18 ****         1.9415   4.6589  -3.5404 S.3            1 S1                 0.0000
     19 ****        -1.0118  -2.3670   0.7459 C.3            1 S1                 0.0000
     20 ****        -1.8128  -3.0044   1.9002 C.3            1 S1                 0.0000
     21 ****        -0.0296  -2.3048   4.6833 H              1 S1                 0.0000
     22 ****         0.6186  -2.3708   3.0450 H              1 S1                 0.0000
     23 ****        -0.0770  -3.8145   3.7806 H              1 S1                 0.0000
     24 ****        -2.8102  -0.7812   2.9638 H              1 S1                 0.0000
     25 ****        -1.4990  -0.4928   4.0809 H              1 S1                 0.0000
     26 ****        -1.1992   0.7774   1.9969 H              1 S1                 0.0000
     27 ****         0.1260  -0.3416   2.1863 H              1 S1                 0.0000
     28 ****        -1.0723  -0.2577  -2.7161 H              1 S1                 0.0000
     29 ****        -2.3639  -0.9833  -1.7784 H              1 S1                 0.0000
     30 ****        -0.8380  -1.8358  -2.0206 H              1 S1                 0.0000
     31 ****        -1.0462   1.7489  -1.5243 H              1 S1                 0.0000
     32 ****        -0.7437   1.8877   0.1845 H              1 S1                 0.0000
     33 ****        -2.3104   1.3167  -0.3915 H              1 S1                 0.0000
     34 ****         1.2526   0.2038   0.3369 H              1 S1                 0.0000
     35 ****         1.1863  -1.2663  -0.5856 H              1 S1                 0.0000
     36 ****         1.4262  -0.1305  -2.5974 H              1 S1                 0.0000
     37 ****         3.5706   6.5615  -3.8390 H              1 S1                 0.0000
     38 ****        -1.3201  -2.8684  -0.1688 H              1 S1                 0.0000
     39 ****         0.0530  -2.5655   0.8655 H              1 S1                 0.0000
     40 ****        -1.6204  -4.0768   1.9496 H              1 S1                 0.0000
     41 ****        -2.8805  -2.8921   1.7064 H              1 S1                 0.0000
     42 ****        -2.2741  -0.8158   0.5837 H              1 S1                 0.0000
     43 ****        -2.1309  -2.7768   3.8738 LP             1 S1                 0.0000
     44 ****         1.5616   2.0149   0.0636 LP             1 S1                 0.0000
     45 ****         2.3108   3.2855  -0.8442 LP             1 S1                 0.0000
     46 ****         2.3159   1.3334  -3.7856 LP             1 S1                 0.0000
     47 ****         4.9022   2.7015  -3.1096 LP             1 S1                 0.0000
     48 ****         5.4957   5.0983  -3.5182 LP             1 S1                 0.0000
@<TRIPOS>BOND
    1    1    2 1     
    2    1   21 1     
    3    1   22 1     
    4    1   23 1     
    5    2   20 1     
    6    2    3 1     
    7    3    4 1     
    8    3   24 1     
    9    3   25 1     
   10    4    5 1     
   11    4   26 1     
   12    4   27 1     
   13    5    6 1     
   14    5   19 1     
   15    5   42 1     
   16    6    7 1     
   17    6    8 1     
   18    6    9 1     
   19    7   28 1     
   20    7   29 1     
   21    7   30 1     
   22    8   31 1     
   23    8   32 1     
   24    8   33 1     
   25    9   10 1     
   26    9   34 1     
   27    9   35 1     
   28   10   11 am    
   29   10   36 1     
   30   11   12 2     
   31   11   13 1     
   32   13   14 1     
   33   14   18 1     
   34   14   15 2     
   35   15   16 1     
   36   16   17 2     
   37   17   18 1     
   38   17   37 1     
   39   19   20 1     
   40   19   38 1     
   41   19   39 1     
   42   20   40 1     
   43   20   41 1     
   44    2   43 1     
   45   12   44 1     
   46   12   45 1     
   47   13   46 1     
   48   15   47 1     
   49   16   48 1     
@<TRIPOS>SUBSTRUCTURE
      1 S1             1
@<TRIPOS>SET
LONE_PAIRS      STATIC     ATOMS    <user>   **** ""
6 43 44 45 46 47 48
DONOR_HYDROGENS      STATIC     ATOMS    <user>   **** ""
2 42 36
ATOM$BLUE        STATIC     ATOMS    COLORGROUP SYSTEM
6 43 44 45 46 47 48
ATOM$RED        STATIC     ATOMS    COLORGROUP SYSTEM
2 42 36
