AV-unprocessed.smi:1080|AV-procd|sdf|4708|dock1
  -GOLD-   22720 3233D 1   1.00000     0.00000
 Structure written by MMmdl.
 49 51  0  0  0  0  0  0  0  0  2 V2000
  150.8245  140.8131  156.6181 O   0  0  0  0  0  0  0  0  0  0  0  0
  150.2572  141.8956  156.4727 C   0  0  0  0  0  0  0  0  0  0  0  0
  150.4201  142.9709  157.2632 N   0  0  0  0  0  0  0  0  0  0  0  0
  151.2241  143.1049  158.4284 C   0  0  0  0  0  0  0  0  0  0  0  0
  152.0554  142.0163  158.7746 C   0  0  0  0  0  0  0  0  0  0  0  0
  152.8827  142.1060  159.9125 C   0  0  0  0  0  0  0  0  0  0  0  0
  152.8819  143.2321  160.6573 N   0  3  0  0  0  0  0  0  0  0  0  0
  152.1158  144.3033  160.3594 C   0  0  0  0  0  0  0  0  0  0  0  0
  151.2684  144.2724  159.2331 C   0  0  0  0  0  0  0  0  0  0  0  0
  149.4000  142.1529  155.4740 N   0  0  0  0  0  0  0  0  0  0  0  0
  149.0001  141.2024  154.4403 C   0  0  2  0  0  0  0  0  0  0  0  0
  147.7240  141.6819  153.7191 C   0  0  0  0  0  0  0  0  0  0  0  0
  147.2436  140.6535  152.6822 C   0  0  0  0  0  0  0  0  0  0  0  0
  147.0104  139.2702  153.3243 C   0  0  1  0  0  0  0  0  0  0  0  0
  146.5223  138.2552  152.2671 C   0  0  0  0  0  0  0  0  0  0  0  0
  146.7777  138.4800  151.0827 O   0  0  0  0  0  0  0  0  0  0  0  0
  145.8600  137.1356  152.6547 N   0  0  0  0  0  0  0  0  0  0  0  0
  145.3842  136.9440  154.0306 C   0  0  0  0  0  0  0  0  0  0  0  0
  143.8777  137.2523  154.0831 C   0  0  0  0  0  0  0  0  0  0  0  0
  142.9342  136.1132  153.0201 S   0  0  0  0  0  0  0  0  0  0  0  0
  143.9058  136.2428  151.4855 C   0  0  0  0  0  0  0  0  0  0  0  0
  145.4043  136.0548  151.7720 C   0  0  0  0  0  0  0  0  0  0  0  0
  148.3032  138.7947  154.0256 C   0  0  0  0  0  0  0  0  0  0  0  0
  148.7789  139.8156  155.0716 C   0  0  0  0  0  0  0  0  0  0  0  0
  149.9469  143.8116  156.9656 H   0  0  0  0  0  0  0  0  0  0  0  0
  152.0581  141.1155  158.1778 H   0  0  0  0  0  0  0  0  0  0  0  0
  153.5414  141.3173  160.2457 H   0  0  0  0  0  0  0  0  0  0  0  0
  152.2070  145.1509  161.0230 H   0  0  0  0  0  0  0  0  0  0  0  0
  150.6807  145.1482  159.0048 H   0  0  0  0  0  0  0  0  0  0  0  0
  148.9850  143.0719  155.4267 H   0  0  0  0  0  0  0  0  0  0  0  0
  149.8061  141.1148  153.7089 H   0  0  0  0  0  0  0  0  0  0  0  0
  146.9309  141.8580  154.4471 H   0  0  0  0  0  0  0  0  0  0  0  0
  147.9063  142.6367  153.2248 H   0  0  0  0  0  0  0  0  0  0  0  0
  146.3269  141.0144  152.2143 H   0  0  0  0  0  0  0  0  0  0  0  0
  147.9834  140.5742  151.8839 H   0  0  0  0  0  0  0  0  0  0  0  0
  146.2662  139.3618  154.1141 H   0  0  0  0  0  0  0  0  0  0  0  0
  145.5719  135.9202  154.3574 H   0  0  0  0  0  0  0  0  0  0  0  0
  145.9142  137.5755  154.7447 H   0  0  0  0  0  0  0  0  0  0  0  0
  143.5068  137.1660  155.1045 H   0  0  0  0  0  0  0  0  0  0  0  0
  143.6892  138.2770  153.7608 H   0  0  0  0  0  0  0  0  0  0  0  0
  143.5536  135.4866  150.7839 H   0  0  0  0  0  0  0  0  0  0  0  0
  143.7225  137.2155  151.0275 H   0  0  0  0  0  0  0  0  0  0  0  0
  145.9730  135.9957  150.8454 H   0  0  0  0  0  0  0  0  0  0  0  0
  145.5684  135.0892  152.2527 H   0  0  0  0  0  0  0  0  0  0  0  0
  148.1355  137.8307  154.5078 H   0  0  0  0  0  0  0  0  0  0  0  0
  149.1005  138.6415  153.2963 H   0  0  0  0  0  0  0  0  0  0  0  0
  149.7023  139.4633  155.5327 H   0  0  0  0  0  0  0  0  0  0  0  0
  148.0403  139.8843  155.8717 H   0  0  0  0  0  0  0  0  0  0  0  0
  153.4889  143.2775  161.4764 H   0  0  0  0  0  0  0  0  0  0  0  0
  1  2  2  0  0  0  0
  2  3  1  0  0  0  0
  2 10  1  0  0  0  0
  3  4  1  0  0  0  0
  3 25  1  0  0  0  0
  4  9  1  0  0  0  0
  4  5  2  0  0  0  0
  5  6  1  0  0  0  0
  5 26  1  0  0  0  0
  6  7  2  0  0  0  0
  6 27  1  0  0  0  0
  7  8  1  0  0  0  0
  7 49  1  0  0  0  0
  8  9  2  0  0  0  0
  8 28  1  0  0  0  0
  9 29  1  0  0  0  0
 10 11  1  0  0  0  0
 10 30  1  0  0  0  0
 11 24  1  0  0  0  0
 11 12  1  0  0  0  0
 11 31  1  0  0  0  0
 12 13  1  0  0  0  0
 12 32  1  0  0  0  0
 12 33  1  0  0  0  0
 13 14  1  0  0  0  0
 13 34  1  0  0  0  0
 13 35  1  0  0  0  0
 14 15  1  0  0  0  0
 14 23  1  0  0  0  0
 14 36  1  0  0  0  0
 15 16  2  0  0  0  0
 15 17  1  0  0  0  0
 17 22  1  0  0  0  0
 17 18  1  0  0  0  0
 18 19  1  0  0  0  0
 18 37  1  0  0  0  0
 18 38  1  0  0  0  0
 19 20  1  0  0  0  0
 19 39  1  0  0  0  0
 19 40  1  0  0  0  0
 20 21  1  0  0  0  0
 21 22  1  0  0  0  0
 21 41  1  0  0  0  0
 21 42  1  0  0  0  0
 22 43  1  0  0  0  0
 22 44  1  0  0  0  0
 23 24  1  0  0  0  0
 23 45  1  0  0  0  0
 23 46  1  0  0  0  0
 24 47  1  0  0  0  0
 24 48  1  0  0  0  0
M  CHG  1   7   1
M  END
> <s_m_source_file>
AV-unprocessed.smi

> <i_m_source_file_index>
1080

> <i_lp_mmshare_version>
43012

> <i_f3d_flags>
0

> <s_epik_input>
W2NIXTFbY0hdbltjSF1bY0hdYzFbTkhdQyg9TylbTkhdW0NAQEhdMltDSDJdW0NIMl1bQ0BIXShbQ0gyXVtDSDJdMilDKD1PKU4zW0NIMl1bQ0gyXVNbQ0gyXVtDSDJdMw==

> <s_epik_cmdline>
J2VwaWtfcHl0aG9uJywgJy1waCcsICc3LjAnLCAnLXRuJywgJzgnLCAnLW1hJywgJzIwMCcsICctbWV0YWxfYmluZGluZycsICctaW1hZScsICc8aW5maWxlLm1hZT4nLCAnLW9tYWUnLCAnPG91dGZpbGUubWFlPic=

> <r_epik_Ionization_Penalty>
1.01281

> <r_epik_Ionization_Penalty_Charging>
1.01278

> <r_epik_Ionization_Penalty_Neutral>
2.07681e-05

> <r_epik_State_Penalty>
1.06237

> <r_epik_Charging_Adjusted_Penalty>
2.07515

> <i_epik_Tot_Q>
1

> <i_epik_Tot_abs_Q>
1

> <r_epik_Metal_State_Penalty>
1.16243

> <b_epik_Metal_Only>
0

> <s_lp_Force_Field>
OPLS_2005

> <r_lp_Energy>
38.1228

> <b_lp_Chiralities_Consistent>
1

> <s_lp_Variant>
AV-unprocessed.smi:1080-3

> <Gold.Version>
5.8.1

> <Gold.Id.Protein>
6NUR|6NUR_protein|mol2

> <Gold.PLP.Fitness>
50.5998

> <Gold.PLP.PLP>
-43.2365

> <Gold.PLP.part.hbond>
-3.0000

> <Gold.PLP.part.metal>
0.0000

> <Gold.PLP.part.buried>
-3.8575

> <Gold.PLP.part.nonpolar>
-37.1694

> <Gold.PLP.part.repulsive>
0.7903

> <Gold.PLP.ligand.clash>
0.0000

> <Gold.PLP.ligand.torsion>
0.8424

> <Gold.PLP.Chemscore.Hbond>
2.9920

> <Gold.PLP.Chemscore.CHOScore>
0.0000

> <Gold.PLP.Chemscore.Metal>
0.0000

> <Gold.Chemscore.Hbonds>
donor molecule, donor type, donor heavy atom, donor atom, acceptor molecule, acceptor atom, score
      L1  H     3    25       P1  8028  1.00
      L1  H    10    30       P1  8028  1.00
      P1  H  7954  7966       L1    16  1.00

> <Gold.PLP.Chemscore.Internal.Correction>
0.0721

> <Gold.Rescore>
     Score         DG    S(hbond)    S(metal)    S(lipo)     H(rot)  DE(clash)    DE(int)     intcor
     20.01     -25.27       2.93        0.00     112.93       1.25       1.40       3.86       ----

> <Gold.Chemscore.Fitness>
20.0121

> <Gold.Chemscore.DG>
-25.2714

> <Gold.Chemscore.ZeroCoef>
-5.4800

> <Gold.Chemscore.Hbond>
2.9268

> <Gold.Chemscore.Metal>
0.0000

> <Gold.Chemscore.Lipo>
112.9255

> <Gold.Chemscore.Internal_Hbond>
0.0000

> <Gold.Chemscore.DEClash>
1.4043

> <Gold.Chemscore.DEInternal>
3.8550

> <Gold.Chemscore.Rot>
1.2486

> <Gold.Chemscore.Internal.Correction>
   9.000000E+99

> <Gold.Chemscore.Hbonds>
donor molecule, donor type, donor heavy atom, donor atom, acceptor molecule, acceptor atom, score
      L1  H     3    25       P1  8028  0.91
      L1  H    10    30       P1  8028  0.99
      P1  H  7954  7966       L1    16  0.97

> <Gold.Chemscore.Hbond.Weighted>
-9.7754

> <Gold.Chemscore.Metal.Weighted>
-0.0000

> <Gold.Chemscore.Lipo.Weighted>
-13.2123

> <Gold.Chemscore.Internal_Hbond.Weighted>
0.0000

> <Gold.Chemscore.DEClash.Weighted>
1.4043

> <Gold.Chemscore.DEInternal.Weighted>
3.8550

> <Gold.Chemscore.Rot.Weighted>
3.1963

> <Gold.Chemscore.Internal.Correction.Weighted>
   9.000000E+99

> <Gold.Protein.RotatedTorsions>
[ 6907 6896 6895 6894 ] final -113.77 input  -60.11 | X-H torsion
[ 7974 7965 7964 7962 ] final    9.31 input  175.53 | X-H torsion
[ 8008 7997 7996 7995 ] final  -87.26 input   59.86 | X-H torsion
[ 10167 10162 10161 10158 ] final   47.64 input  -65.29 | X-H torsion
[ 10718 10713 10712 10709 ] final   98.03 input   66.30 | X-H torsion
[ 10763 10752 10751 10750 ] final    5.19 input  -60.55 | X-H torsion
[ 11005 11000 10999 10996 ] final   46.34 input  -57.11 | X-H torsion

> <Gold.Protein.ActiveResidues>
 VAL166  LYS551  ARG553  GLY616  TRP617  ASP618  TYR619  PRO620  LYS621  CYS622 
 ASP623  PHE694  ASN695  SER759  ASP760  ASP761  ALA762  ILE779  LEU786  VAL792 
 PHE793  MET794  SER795  GLU796  ALA797  LYS798  CYS799  TRP800  GLU811  SER814 

> <Gold.Protein.RotatedAtoms>
  150.7853  133.8897  159.3309 H   0  0  0  0  0  0  0  0  0  0  0  0  # atno 6907 bound_to 6896
  151.6749  135.0969  160.0214 H   0  0  0  0  0  0  0  0  0  0  0  0  # atno 6908 bound_to 6896
  152.3915  133.6647  159.6277 H   0  0  0  0  0  0  0  0  0  0  0  0  # atno 6909 bound_to 6896
  146.2405  139.9802  142.8437 H   0  0  0  0  0  0  0  0  0  0  0  0  # atno 7974 bound_to 7965
  154.6613  140.0568  157.0065 H   0  0  0  0  0  0  0  0  0  0  0  0  # atno 8008 bound_to 7997
  155.1225  140.3249  155.4475 H   0  0  0  0  0  0  0  0  0  0  0  0  # atno 8009 bound_to 7997
  156.2619  140.1995  156.6346 H   0  0  0  0  0  0  0  0  0  0  0  0  # atno 8010 bound_to 7997
  140.3015  144.2928  150.6218 H   0  0  0  0  0  0  0  0  0  0  0  0  # atno 10167 bound_to 10162
  157.6902  131.0628  150.4735 H   0  0  0  0  0  0  0  0  0  0  0  0  # atno 10718 bound_to 10713
  153.2623  135.6924  153.7566 H   0  0  0  0  0  0  0  0  0  0  0  0  # atno 10763 bound_to 10752
  153.6620  135.3359  155.3130 H   0  0  0  0  0  0  0  0  0  0  0  0  # atno 10764 bound_to 10752
  154.8435  135.4479  154.1618 H   0  0  0  0  0  0  0  0  0  0  0  0  # atno 10765 bound_to 10752
  140.1378  134.4623  155.8473 H   0  0  0  0  0  0  0  0  0  0  0  0  # atno 11005 bound_to 11000
  145.1599  140.9667  143.4383 LP  0  0  0  0  0  0  0  0  0  0  0  0  # atno 17320 bound_to 7965
  145.0126  139.3496  143.6112 LP  0  0  0  0  0  0  0  0  0  0  0  0  # atno 17321 bound_to 7965
  140.5647  143.2187  151.7704 LP  0  0  0  0  0  0  0  0  0  0  0  0  # atno 17342 bound_to 10162
  139.4914  144.4300  151.9882 LP  0  0  0  0  0  0  0  0  0  0  0  0  # atno 17343 bound_to 10162
  156.5071  130.4130  149.6321 LP  0  0  0  0  0  0  0  0  0  0  0  0  # atno 17370 bound_to 10713
  156.3274  130.7313  151.2237 LP  0  0  0  0  0  0  0  0  0  0  0  0  # atno 17371 bound_to 10713
  141.2181  133.6821  156.7189 LP  0  0  0  0  0  0  0  0  0  0  0  0  # atno 17394 bound_to 11000
  140.2761  134.8354  157.3891 LP  0  0  0  0  0  0  0  0  0  0  0  0  # atno 17395 bound_to 11000

$$$$
