AV-unprocessed.smi:101|AV-procd|sdf|943|dock9
  -GOLD-   2262017463D 1   1.00000     0.00000
 Structure written by MMmdl.
 43 45  0  0  0  0  0  0  0  0  2 V2000
  159.3626  134.6145  162.3807 C   0  0  0  0  0  0  0  0  0  0  0  0
  158.1350  134.4519  163.2595 C   0  0  0  0  0  0  0  0  0  0  0  0
  157.2044  135.4238  163.3857 C   0  0  0  0  0  0  0  0  0  0  0  0
  156.0898  135.2728  164.1913 N   0  0  0  0  0  0  0  0  0  0  0  0
  155.0721  136.3879  164.3099 C   0  0  2  0  0  0  0  0  0  0  0  0
  154.6165  136.7165  163.0311 O   0  0  0  0  0  0  0  0  0  0  0  0
  154.5421  138.1310  162.8981 C   0  0  2  0  0  0  0  0  0  0  0  0
  154.5938  138.5488  161.4217 C   0  0  0  0  0  0  0  0  0  0  0  0
  154.3679  139.9453  161.3238 O   0  0  0  0  0  0  0  0  0  0  0  0
  153.9656  140.4823  160.1561 C   0  0  0  0  0  0  0  0  0  0  0  0
  154.2621  140.0173  159.0534 O   0  0  0  0  0  0  0  0  0  0  0  0
  153.1243  141.7007  160.3365 C   0  0  0  0  0  0  0  0  0  0  0  0
  152.9894  142.2652  161.6266 C   0  0  0  0  0  0  0  0  0  0  0  0
  152.2024  143.4158  161.8273 C   0  0  0  0  0  0  0  0  0  0  0  0
  151.5409  144.0164  160.7403 C   0  0  0  0  0  0  0  0  0  0  0  0
  151.6671  143.4648  159.4520 C   0  0  0  0  0  0  0  0  0  0  0  0
  152.4537  142.3140  159.2493 C   0  0  0  0  0  0  0  0  0  0  0  0
  155.6914  138.6439  163.7745 C   0  0  2  0  0  0  0  0  0  0  0  0
  156.9203  138.6053  163.0668 O   0  0  0  0  0  0  0  0  0  0  0  0
  155.6528  137.6689  164.9473 C   0  0  2  0  0  0  0  0  0  0  0  0
  156.9024  137.5271  165.6016 O   0  0  0  0  0  0  0  0  0  0  0  0
  155.9172  134.0758  164.9343 C   0  0  0  0  0  0  0  0  0  0  0  0
  154.9389  133.9891  165.6770 O   0  0  0  0  0  0  0  0  0  0  0  0
  156.8450  133.0853  164.8053 N   0  5  0  0  0  0  0  0  0  0  0  0
  157.9449  133.2026  164.0067 C   0  0  0  0  0  0  0  0  0  0  0  0
  158.7733  132.2989  163.8981 O   0  0  0  0  0  0  0  0  0  0  0  0
  159.3641  135.5816  161.8773 H   0  0  0  0  0  0  0  0  0  0  0  0
  159.3918  133.8363  161.6173 H   0  0  0  0  0  0  0  0  0  0  0  0
  160.2704  134.5441  162.9804 H   0  0  0  0  0  0  0  0  0  0  0  0
  157.3414  136.3478  162.8439 H   0  0  0  0  0  0  0  0  0  0  0  0
  154.2288  135.9817  164.8698 H   0  0  0  0  0  0  0  0  0  0  0  0
  153.6010  138.4626  163.3414 H   0  0  0  0  0  0  0  0  0  0  0  0
  155.5766  138.3219  161.0064 H   0  0  0  0  0  0  0  0  0  0  0  0
  153.8523  137.9985  160.8406 H   0  0  0  0  0  0  0  0  0  0  0  0
  153.4878  141.8216  162.4765 H   0  0  0  0  0  0  0  0  0  0  0  0
  152.1067  143.8380  162.8168 H   0  0  0  0  0  0  0  0  0  0  0  0
  150.9376  144.8989  160.8945 H   0  0  0  0  0  0  0  0  0  0  0  0
  151.1600  143.9248  158.6168 H   0  0  0  0  0  0  0  0  0  0  0  0
  152.5301  141.9170  158.2475 H   0  0  0  0  0  0  0  0  0  0  0  0
  155.5222  139.6705  164.1009 H   0  0  0  0  0  0  0  0  0  0  0  0
  157.4178  137.8603  163.3660 H   0  0  0  0  0  0  0  0  0  0  0  0
  154.9213  138.0187  165.6768 H   0  0  0  0  0  0  0  0  0  0  0  0
  157.5783  137.8469  165.0230 H   0  0  0  0  0  0  0  0  0  0  0  0
  1  2  1  0  0  0  0
  1 27  1  0  0  0  0
  1 28  1  0  0  0  0
  1 29  1  0  0  0  0
  2 25  1  0  0  0  0
  2  3  2  0  0  0  0
  3  4  1  0  0  0  0
  3 30  1  0  0  0  0
  4  5  1  0  0  0  0
  4 22  1  0  0  0  0
  5 20  1  0  0  0  0
  5  6  1  0  0  0  0
  5 31  1  0  0  0  0
  6  7  1  0  0  0  0
  7  8  1  0  0  0  0
  7 18  1  0  0  0  0
  7 32  1  0  0  0  0
  8  9  1  0  0  0  0
  8 33  1  0  0  0  0
  8 34  1  0  0  0  0
  9 10  1  0  0  0  0
 10 11  2  0  0  0  0
 10 12  1  0  0  0  0
 12 17  1  0  0  0  0
 12 13  2  0  0  0  0
 13 14  1  0  0  0  0
 13 35  1  0  0  0  0
 14 15  2  0  0  0  0
 14 36  1  0  0  0  0
 15 16  1  0  0  0  0
 15 37  1  0  0  0  0
 16 17  2  0  0  0  0
 16 38  1  0  0  0  0
 17 39  1  0  0  0  0
 18 19  1  0  0  0  0
 18 20  1  0  0  0  0
 18 40  1  0  0  0  0
 19 41  1  0  0  0  0
 20 21  1  0  0  0  0
 20 42  1  0  0  0  0
 21 43  1  0  0  0  0
 22 23  2  0  0  0  0
 22 24  1  0  0  0  0
 24 25  1  0  0  0  0
 25 26  2  0  0  0  0
M  CHG  1  24  -1
M  END
> <s_m_source_file>
AV-unprocessed.smi

> <i_m_source_file_index>
101

> <i_lp_mmshare_version>
43012

> <i_f3d_flags>
0

> <s_epik_input>
Tz1jMVtuSF1jKD1PKW4oW2NIXWMxW0NIM10pW0NAQEhdMk9bQ0BIXShbQ0BASF0oW09IXSlbQ0BIXTJbT0hdKVtDSDJdT0MoPU8pYzNbY0hdW2NIXVtjSF1bY0hdW2NIXTM=

> <s_epik_cmdline>
J2VwaWtfcHl0aG9uJywgJy1waCcsICc3LjAnLCAnLXRuJywgJzgnLCAnLW1hJywgJzIwMCcsICctbWV0YWxfYmluZGluZycsICctaW1hZScsICc8aW5maWxlLm1hZT4nLCAnLW9tYWUnLCAnPG91dGZpbGUubWFlPic=

> <r_lp_tautomer_probability>
0.999537

> <r_epik_Ionization_Penalty>
3.21006

> <r_epik_Ionization_Penalty_Charging>
5.75142e-08

> <r_epik_Ionization_Penalty_Neutral>
3.21006

> <r_epik_State_Penalty>
3.20925

> <r_epik_Charging_Adjusted_Penalty>
3.20925

> <i_epik_Tot_Q>
-1

> <i_epik_Tot_abs_Q>
1

> <r_epik_Metal_State_Penalty>
0.119957

> <b_epik_Metal_Only>
1

> <s_epik_Chemistry_Notes>
This compound has an ester and may undergo hydrolysis at high or low pH. This compound contains an acetal/aminal-like group ( X-CH(R)-Y where X, Y are N, S, or O) that may be acid/base labile, releasing an aldehyde.

> <s_lp_Force_Field>
OPLS_2005

> <r_lp_Energy>
51.0672

> <b_lp_Chiralities_Consistent>
1

> <s_lp_Variant>
AV-unprocessed.smi:101-31

> <Gold.Version>
5.8.1

> <Gold.Id.Protein>
6NUR|6NUR_protein|mol2

> <Gold.PLP.Fitness>
46.9270

> <Gold.PLP.PLP>
-45.0786

> <Gold.PLP.part.hbond>
-2.0000

> <Gold.PLP.part.metal>
0.0000

> <Gold.PLP.part.buried>
-4.8126

> <Gold.PLP.part.nonpolar>
-38.4350

> <Gold.PLP.part.repulsive>
0.1268

> <Gold.PLP.ligand.clash>
0.0000

> <Gold.PLP.ligand.torsion>
0.5753

> <Gold.PLP.Chemscore.Hbond>
0.9920

> <Gold.PLP.Chemscore.CHOScore>
0.0000

> <Gold.PLP.Chemscore.Metal>
0.0000

> <Gold.Chemscore.Hbonds>
donor molecule, donor type, donor heavy atom, donor atom, acceptor molecule, acceptor atom, score
      P1  H  7997  8010       L1    11  0.99

> <Gold.PLP.Chemscore.Internal.Correction>
0.0229

> <Gold.Rescore>
     Score         DG    S(hbond)    S(metal)    S(lipo)     H(rot)  DE(clash)    DE(int)     intcor
     10.91     -11.94       0.96        0.00      99.18       3.27       0.28       0.75       ----

> <Gold.Chemscore.Fitness>
10.9088

> <Gold.Chemscore.DG>
-11.9369

> <Gold.Chemscore.ZeroCoef>
-5.4800

> <Gold.Chemscore.Hbond>
0.9618

> <Gold.Chemscore.Metal>
0.0000

> <Gold.Chemscore.Lipo>
99.1821

> <Gold.Chemscore.Internal_Hbond>
0.0000

> <Gold.Chemscore.DEClash>
0.2806

> <Gold.Chemscore.DEInternal>
0.7475

> <Gold.Chemscore.Rot>
3.2656

> <Gold.Chemscore.Internal.Correction>
   9.000000E+99

> <Gold.Chemscore.Hbonds>
donor molecule, donor type, donor heavy atom, donor atom, acceptor molecule, acceptor atom, score
      P1  H  7997  8010       L1    11  0.94

> <Gold.Chemscore.Hbond.Weighted>
-3.2124

> <Gold.Chemscore.Metal.Weighted>
-0.0000

> <Gold.Chemscore.Lipo.Weighted>
-11.6043

> <Gold.Chemscore.Internal_Hbond.Weighted>
0.0000

> <Gold.Chemscore.DEClash.Weighted>
0.2806

> <Gold.Chemscore.DEInternal.Weighted>
0.7475

> <Gold.Chemscore.Rot.Weighted>
8.3598

> <Gold.Chemscore.Internal.Correction.Weighted>
   9.000000E+99

> <Gold.Protein.RotatedTorsions>
[ 6907 6896 6895 6894 ] final  140.71 input  -60.11 | X-H torsion
[ 7974 7965 7964 7962 ] final  -66.24 input  175.53 | X-H torsion
[ 8008 7997 7996 7995 ] final    0.68 input   59.86 | X-H torsion
[ 10167 10162 10161 10158 ] final    5.87 input  -65.29 | X-H torsion
[ 10718 10713 10712 10709 ] final  170.89 input   66.30 | X-H torsion
[ 10763 10752 10751 10750 ] final -148.92 input  -60.55 | X-H torsion
[ 11005 11000 10999 10996 ] final   78.51 input  -57.11 | X-H torsion

> <Gold.Protein.ActiveResidues>
 VAL166  LYS551  ARG553  GLY616  TRP617  ASP618  TYR619  PRO620  LYS621  CYS622 
 ASP623  PHE694  ASN695  SER759  ASP760  ASP761  ALA762  ILE779  LEU786  VAL792 
 PHE793  MET794  SER795  GLU796  ALA797  LYS798  CYS799  TRP800  GLU811  SER814 

> <Gold.Protein.RotatedAtoms>
  152.2398  133.5126  159.5263 H   0  0  0  0  0  0  0  0  0  0  0  0  # atno 6907 bound_to 6896
  150.7061  134.1105  159.4007 H   0  0  0  0  0  0  0  0  0  0  0  0  # atno 6908 bound_to 6896
  151.9026  135.0372  160.0558 H   0  0  0  0  0  0  0  0  0  0  0  0  # atno 6909 bound_to 6896
  145.7442  140.8939  143.0514 H   0  0  0  0  0  0  0  0  0  0  0  0  # atno 7974 bound_to 7965
  154.6708  140.2611  155.7009 H   0  0  0  0  0  0  0  0  0  0  0  0  # atno 8008 bound_to 7997
  156.2658  140.2829  156.1139 H   0  0  0  0  0  0  0  0  0  0  0  0  # atno 8009 bound_to 7997
  155.1171  140.0376  157.2730 H   0  0  0  0  0  0  0  0  0  0  0  0  # atno 8010 bound_to 7997
  140.6458  143.7664  150.7497 H   0  0  0  0  0  0  0  0  0  0  0  0  # atno 10167 bound_to 10162
  157.0015  131.0177  151.2829 H   0  0  0  0  0  0  0  0  0  0  0  0  # atno 10718 bound_to 10713
  154.8206  135.3322  154.7049 H   0  0  0  0  0  0  0  0  0  0  0  0  # atno 10763 bound_to 10752
  153.7682  135.6927  153.4916 H   0  0  0  0  0  0  0  0  0  0  0  0  # atno 10764 bound_to 10752
  153.2063  135.4498  155.0275 H   0  0  0  0  0  0  0  0  0  0  0  0  # atno 10765 bound_to 10752
  139.9210  134.7769  156.1658 H   0  0  0  0  0  0  0  0  0  0  0  0  # atno 11005 bound_to 11000
  144.6864  139.9503  143.7478 LP  0  0  0  0  0  0  0  0  0  0  0  0  # atno 17320 bound_to 7965
  146.0418  139.3429  143.0692 LP  0  0  0  0  0  0  0  0  0  0  0  0  # atno 17321 bound_to 7965
  140.1305  143.4530  152.2257 LP  0  0  0  0  0  0  0  0  0  0  0  0  # atno 17342 bound_to 10162
  139.5669  144.7440  151.3997 LP  0  0  0  0  0  0  0  0  0  0  0  0  # atno 17343 bound_to 10162
  157.5387  130.8105  149.8002 LP  0  0  0  0  0  0  0  0  0  0  0  0  # atno 17370 bound_to 10713
  156.0169  130.3810  150.2082 LP  0  0  0  0  0  0  0  0  0  0  0  0  # atno 17371 bound_to 10713
  141.0730  133.6788  156.2179 LP  0  0  0  0  0  0  0  0  0  0  0  0  # atno 17394 bound_to 11000
  140.6475  134.5101  157.5575 LP  0  0  0  0  0  0  0  0  0  0  0  0  # atno 17395 bound_to 11000

$$$$
