AV-unprocessed.smi:611|AV-procd|sdf|3061|dock3
  -GOLD-   2262023583D 1   1.00000     0.00000
 Structure written by MMmdl.
 41 42  0  0  0  0  0  0  0  0  1 V2000
  143.1154  132.6873  148.8693 C   0  0  0  0  0  0  0  0  0  0  0  0
  144.3038  132.6344  149.8583 C   0  0  0  0  0  0  0  0  0  0  0  0
  144.0343  131.5634  150.9311 C   0  0  0  0  0  0  0  0  0  0  0  0
  145.5390  132.2278  149.0202 C   0  0  0  0  0  0  0  0  0  0  0  0
  144.5210  133.9988  150.5359 C   0  0  0  0  0  0  0  0  0  0  0  0
  143.6176  134.3774  151.4501 N   0  0  0  0  0  0  0  0  0  0  0  0
  143.8519  135.5182  152.1335 C   0  0  0  0  0  0  0  0  0  0  0  0
  145.0243  136.2821  151.9217 C   0  0  0  0  0  0  0  0  0  0  0  0
  145.3557  137.4840  152.6019 N   0  0  0  0  0  0  0  0  0  0  0  0
  146.1668  138.4817  152.1995 C   0  0  0  0  0  0  0  0  0  0  0  0
  146.7630  138.5096  151.1255 O   0  0  0  0  0  0  0  0  0  0  0  0
  146.3051  139.4741  153.0976 N   0  0  0  0  0  0  0  0  0  0  0  0
  147.1045  140.6968  152.9823 C   0  0  0  0  0  0  0  0  0  0  0  0
  148.6051  140.3814  153.1380 C   0  0  0  0  0  0  0  0  0  0  0  0
  149.1542  141.4035  154.1346 C   0  0  0  0  0  0  0  0  0  0  0  0
  147.9684  141.7199  155.0396 C   0  0  0  0  0  0  0  0  0  0  0  0
  146.7657  141.7094  154.0964 C   0  0  0  0  0  0  0  0  0  0  0  0
  145.9329  135.7602  150.9800 C   0  0  0  0  0  0  0  0  0  0  0  0
  145.6854  134.6191  150.3034 N   0  0  0  0  0  0  0  0  0  0  0  0
  142.9903  131.7382  148.3470 H   0  0  0  0  0  0  0  0  0  0  0  0
  143.2618  133.4601  148.1138 H   0  0  0  0  0  0  0  0  0  0  0  0
  142.1712  132.8940  149.3747 H   0  0  0  0  0  0  0  0  0  0  0  0
  143.1469  131.8044  151.5176 H   0  0  0  0  0  0  0  0  0  0  0  0
  144.8724  131.4769  151.6234 H   0  0  0  0  0  0  0  0  0  0  0  0
  143.8757  130.5822  150.4826 H   0  0  0  0  0  0  0  0  0  0  0  0
  145.3717  131.2855  148.4973 H   0  0  0  0  0  0  0  0  0  0  0  0
  146.4256  132.0891  149.6399 H   0  0  0  0  0  0  0  0  0  0  0  0
  145.7753  132.9823  148.2688 H   0  0  0  0  0  0  0  0  0  0  0  0
  143.1009  135.7866  152.8597 H   0  0  0  0  0  0  0  0  0  0  0  0
  144.9832  137.5700  153.5364 H   0  0  0  0  0  0  0  0  0  0  0  0
  145.8080  139.3599  153.9690 H   0  0  0  0  0  0  0  0  0  0  0  0
  146.9385  141.1563  152.0062 H   0  0  0  0  0  0  0  0  0  0  0  0
  148.7476  139.3795  153.5465 H   0  0  0  0  0  0  0  0  0  0  0  0
  149.1347  140.4174  152.1856 H   0  0  0  0  0  0  0  0  0  0  0  0
  150.0177  141.0310  154.6864 H   0  0  0  0  0  0  0  0  0  0  0  0
  149.4616  142.3060  153.6047 H   0  0  0  0  0  0  0  0  0  0  0  0
  147.8566  140.9336  155.7874 H   0  0  0  0  0  0  0  0  0  0  0  0
  148.0814  142.6682  155.5656 H   0  0  0  0  0  0  0  0  0  0  0  0
  146.6485  142.6997  153.6545 H   0  0  0  0  0  0  0  0  0  0  0  0
  145.8384  141.4847  154.6251 H   0  0  0  0  0  0  0  0  0  0  0  0
  146.8671  136.2590  150.7665 H   0  0  0  0  0  0  0  0  0  0  0  0
  1  2  1  0  0  0  0
  1 20  1  0  0  0  0
  1 21  1  0  0  0  0
  1 22  1  0  0  0  0
  2  3  1  0  0  0  0
  2  4  1  0  0  0  0
  2  5  1  0  0  0  0
  3 23  1  0  0  0  0
  3 24  1  0  0  0  0
  3 25  1  0  0  0  0
  4 26  1  0  0  0  0
  4 27  1  0  0  0  0
  4 28  1  0  0  0  0
  5 19  1  0  0  0  0
  5  6  2  0  0  0  0
  6  7  1  0  0  0  0
  7  8  2  0  0  0  0
  7 29  1  0  0  0  0
  8  9  1  0  0  0  0
  8 18  1  0  0  0  0
  9 10  1  0  0  0  0
  9 30  1  0  0  0  0
 10 11  2  0  0  0  0
 10 12  1  0  0  0  0
 12 13  1  0  0  0  0
 12 31  1  0  0  0  0
 13 17  1  0  0  0  0
 13 14  1  0  0  0  0
 13 32  1  0  0  0  0
 14 15  1  0  0  0  0
 14 33  1  0  0  0  0
 14 34  1  0  0  0  0
 15 16  1  0  0  0  0
 15 35  1  0  0  0  0
 15 36  1  0  0  0  0
 16 17  1  0  0  0  0
 16 37  1  0  0  0  0
 16 38  1  0  0  0  0
 17 39  1  0  0  0  0
 17 40  1  0  0  0  0
 18 19  2  0  0  0  0
 18 41  1  0  0  0  0
M  END
> <s_m_source_file>
AV-unprocessed.smi

> <i_m_source_file_index>
611

> <i_lp_mmshare_version>
43012

> <i_f3d_flags>
0

> <s_epik_input>
W0NIM11DKFtDSDNdKShbQ0gzXSljMW5bY0hdYyhbY0hdbjEpW05IXUMoPU8pW05IXVtDSF0yW0NIMl1bQ0gyXVtDSDJdW0NIMl0y

> <s_epik_cmdline>
J2VwaWtfcHl0aG9uJywgJy1waCcsICc3LjAnLCAnLXRuJywgJzgnLCAnLW1hJywgJzIwMCcsICctbWV0YWxfYmluZGluZycsICctaW1hZScsICc8aW5maWxlLm1hZT4nLCAnLW9tYWUnLCAnPG91dGZpbGUubWFlPic=

> <r_lp_tautomer_probability>
1

> <r_epik_Ionization_Penalty>
2.83035e-05

> <r_epik_Ionization_Penalty_Charging>
0

> <r_epik_Ionization_Penalty_Neutral>
2.83035e-05

> <r_epik_State_Penalty>
-0

> <r_epik_Charging_Adjusted_Penalty>
0

> <i_epik_Tot_Q>
0

> <i_epik_Tot_abs_Q>
0

> <r_epik_Metal_State_Penalty>
-0

> <b_epik_Metal_Only>
0

> <s_lp_Force_Field>
OPLS_2005

> <r_lp_Energy>
27.5905

> <b_lp_Chiralities_Consistent>
1

> <s_lp_Variant>
AV-unprocessed.smi:611-1

> <Gold.Version>
5.8.1

> <Gold.Id.Protein>
6NUR|6NUR_protein|mol2

> <Gold.PLP.Fitness>
39.9890

> <Gold.PLP.PLP>
-34.7820

> <Gold.PLP.part.hbond>
-2.6859

> <Gold.PLP.part.metal>
0.0000

> <Gold.PLP.part.buried>
0.7499

> <Gold.PLP.part.nonpolar>
-37.2166

> <Gold.PLP.part.repulsive>
5.0100

> <Gold.PLP.ligand.clash>
0.0000

> <Gold.PLP.ligand.torsion>
0.4562

> <Gold.PLP.Chemscore.Hbond>
1.0000

> <Gold.PLP.Chemscore.CHOScore>
0.9950

> <Gold.PLP.Chemscore.Metal>
0.0000

> <Gold.Chemscore.Hbonds>
donor molecule, donor type, donor heavy atom, donor atom, acceptor molecule, acceptor atom, score
      P1  H  7954  7966       L1    11  1.00
      L1  C    18    41       P1  7948  1.00

> <Gold.PLP.Chemscore.Internal.Correction>
0.1346

> <Gold.Rescore>
     Score         DG    S(hbond)    S(metal)    S(lipo)     H(rot)  DE(clash)    DE(int)     intcor
     11.85     -17.15       0.97        0.00      97.55       1.16       3.19       2.12       ----

> <Gold.Chemscore.Fitness>
11.8492

> <Gold.Chemscore.DG>
-17.1549

> <Gold.Chemscore.ZeroCoef>
-5.4800

> <Gold.Chemscore.Hbond>
0.9703

> <Gold.Chemscore.Metal>
0.0000

> <Gold.Chemscore.Lipo>
97.5478

> <Gold.Chemscore.Internal_Hbond>
0.0000

> <Gold.Chemscore.DEClash>
3.1852

> <Gold.Chemscore.DEInternal>
2.1205

> <Gold.Chemscore.Rot>
1.1637

> <Gold.Chemscore.Internal.Correction>
   9.000000E+99

> <Gold.Chemscore.Hbonds>
donor molecule, donor type, donor heavy atom, donor atom, acceptor molecule, acceptor atom, score
      P1  H  7954  7966       L1    11  0.96

> <Gold.Chemscore.Hbond.Weighted>
-3.2409

> <Gold.Chemscore.Metal.Weighted>
-0.0000

> <Gold.Chemscore.Lipo.Weighted>
-11.4131

> <Gold.Chemscore.Internal_Hbond.Weighted>
0.0000

> <Gold.Chemscore.DEClash.Weighted>
3.1852

> <Gold.Chemscore.DEInternal.Weighted>
2.1205

> <Gold.Chemscore.Rot.Weighted>
2.9790

> <Gold.Chemscore.Internal.Correction.Weighted>
   9.000000E+99

> <Gold.Protein.RotatedTorsions>
[ 6907 6896 6895 6894 ] final   -2.38 input  -60.11 | X-H torsion
[ 7974 7965 7964 7962 ] final   55.58 input  175.53 | X-H torsion
[ 8008 7997 7996 7995 ] final -115.19 input   59.86 | X-H torsion
[ 10167 10162 10161 10158 ] final    3.30 input  -65.29 | X-H torsion
[ 10718 10713 10712 10709 ] final -176.73 input   66.30 | X-H torsion
[ 10763 10752 10751 10750 ] final   38.98 input  -60.55 | X-H torsion
[ 11005 11000 10999 10996 ] final   30.39 input  -57.11 | X-H torsion

> <Gold.Protein.ActiveResidues>
 VAL166  LYS551  ARG553  GLY616  TRP617  ASP618  TYR619  PRO620  LYS621  CYS622 
 ASP623  PHE694  ASN695  SER759  ASP760  ASP761  ALA762  ILE779  LEU786  VAL792 
 PHE793  MET794  SER795  GLU796  ALA797  LYS798  CYS799  TRP800  GLU811  SER814 

> <Gold.Protein.RotatedAtoms>
  151.5309  135.1068  159.9902 H   0  0  0  0  0  0  0  0  0  0  0  0  # atno 6907 bound_to 6896
  152.4579  133.7756  159.6833 H   0  0  0  0  0  0  0  0  0  0  0  0  # atno 6908 bound_to 6896
  150.8529  133.7694  159.3044 H   0  0  0  0  0  0  0  0  0  0  0  0  # atno 6909 bound_to 6896
  145.9489  139.3954  143.0318 H   0  0  0  0  0  0  0  0  0  0  0  0  # atno 7974 bound_to 7965
  155.0482  140.0392  157.2534 H   0  0  0  0  0  0  0  0  0  0  0  0  # atno 8008 bound_to 7997
  154.7159  140.2702  155.6562 H   0  0  0  0  0  0  0  0  0  0  0  0  # atno 8009 bound_to 7997
  156.2803  140.2712  156.1816 H   0  0  0  0  0  0  0  0  0  0  0  0  # atno 8010 bound_to 7997
  140.6592  143.7347  150.7709 H   0  0  0  0  0  0  0  0  0  0  0  0  # atno 10167 bound_to 10162
  156.8190  130.9613  151.3112 H   0  0  0  0  0  0  0  0  0  0  0  0  # atno 10718 bound_to 10713
  152.9982  135.6233  154.2392 H   0  0  0  0  0  0  0  0  0  0  0  0  # atno 10763 bound_to 10752
  154.2133  135.2799  155.2952 H   0  0  0  0  0  0  0  0  0  0  0  0  # atno 10764 bound_to 10752
  154.5589  135.5711  153.7047 H   0  0  0  0  0  0  0  0  0  0  0  0  # atno 10765 bound_to 10752
  140.2949  134.2822  155.7767 H   0  0  0  0  0  0  0  0  0  0  0  0  # atno 11005 bound_to 11000
  145.8199  140.9684  143.0904 LP  0  0  0  0  0  0  0  0  0  0  0  0  # atno 17320 bound_to 7965
  144.6792  140.0028  143.7484 LP  0  0  0  0  0  0  0  0  0  0  0  0  # atno 17321 bound_to 7965
  140.1012  143.4786  152.2424 LP  0  0  0  0  0  0  0  0  0  0  0  0  # atno 17342 bound_to 10162
  139.5822  144.7515  151.3610 LP  0  0  0  0  0  0  0  0  0  0  0  0  # atno 17343 bound_to 10162
  157.6466  130.8850  149.9551 LP  0  0  0  0  0  0  0  0  0  0  0  0  # atno 17370 bound_to 10713
  156.0999  130.3656  150.0236 LP  0  0  0  0  0  0  0  0  0  0  0  0  # atno 17371 bound_to 10713
  141.2139  133.7608  156.9680 LP  0  0  0  0  0  0  0  0  0  0  0  0  # atno 17394 bound_to 11000
  140.1162  134.9446  157.2137 LP  0  0  0  0  0  0  0  0  0  0  0  0  # atno 17395 bound_to 11000

$$$$
