AV-unprocessed.smi:3129|AV-procd|sdf|11925|dock7
  -GOLD-   2272017313D 1   1.00000     0.00000
 Structure written by MMmdl.
 39 39  0  0  0  0  0  0  0  0  1 V2000
  152.6086  138.7572  154.6867 C   0  0  0  0  0  0  0  0  0  0  0  0
  151.1017  138.7210  154.3758 C   0  0  0  0  0  0  0  0  0  0  0  0
  150.3908  139.9136  155.0320 C   0  0  0  0  0  0  0  0  0  0  0  0
  150.4321  137.3947  154.7948 C   0  0  0  0  0  0  0  0  0  0  0  0
  149.0313  137.3232  154.3886 N   0  0  0  0  0  0  0  0  0  0  0  0
  147.9745  137.3866  155.2137 C   0  0  0  0  0  0  0  0  0  0  0  0
  148.0740  137.5178  156.4345 O   0  0  0  0  0  0  0  0  0  0  0  0
  146.5863  137.2892  154.5601 C   0  0  1  0  0  0  0  0  0  0  0  0
  145.8129  138.6000  154.7699 C   0  0  0  0  0  0  0  0  0  0  0  0
  146.6325  136.9610  153.1237 N   0  0  0  0  0  0  0  0  0  0  0  0
  145.4900  136.1873  152.6507 C   0  0  0  0  0  0  0  0  0  0  0  0
  145.6032  135.9946  151.1319 C   0  0  0  0  0  0  0  0  0  0  0  0
  145.4772  134.5988  150.7600 N   0  0  0  0  0  0  0  0  0  0  0  0
  144.4119  133.9663  150.1546 C   0  0  0  0  0  0  0  0  0  0  0  0
  144.7540  132.6534  149.9996 C   0  0  0  0  0  0  0  0  0  0  0  0
  146.0653  132.5790  150.5476 C   0  0  0  0  0  0  0  0  0  0  0  0
  146.4960  133.7455  151.0006 N   0  0  0  0  0  0  0  0  0  0  0  0
  152.7966  138.6057  155.7500 H   0  0  0  0  0  0  0  0  0  0  0  0
  153.0444  139.7162  154.4056 H   0  0  0  0  0  0  0  0  0  0  0  0
  153.1512  137.9874  154.1384 H   0  0  0  0  0  0  0  0  0  0  0  0
  150.9858  138.8291  153.2966 H   0  0  0  0  0  0  0  0  0  0  0  0
  150.4589  139.8653  156.1195 H   0  0  0  0  0  0  0  0  0  0  0  0
  149.3341  139.9377  154.7648 H   0  0  0  0  0  0  0  0  0  0  0  0
  150.8303  140.8590  154.7127 H   0  0  0  0  0  0  0  0  0  0  0  0
  150.9963  136.5441  154.4080 H   0  0  0  0  0  0  0  0  0  0  0  0
  150.4569  137.3012  155.8808 H   0  0  0  0  0  0  0  0  0  0  0  0
  148.8505  137.2162  153.4010 H   0  0  0  0  0  0  0  0  0  0  0  0
  146.0286  136.4965  155.0621 H   0  0  0  0  0  0  0  0  0  0  0  0
  145.7453  138.8562  155.8282 H   0  0  0  0  0  0  0  0  0  0  0  0
  144.7944  138.5173  154.3894 H   0  0  0  0  0  0  0  0  0  0  0  0
  146.2910  139.4351  154.2560 H   0  0  0  0  0  0  0  0  0  0  0  0
  147.4909  136.4874  152.8801 H   0  0  0  0  0  0  0  0  0  0  0  0
  145.4555  135.2121  153.1378 H   0  0  0  0  0  0  0  0  0  0  0  0
  144.5645  136.7104  152.8951 H   0  0  0  0  0  0  0  0  0  0  0  0
  144.8319  136.5657  150.6121 H   0  0  0  0  0  0  0  0  0  0  0  0
  146.5657  136.3612  150.7719 H   0  0  0  0  0  0  0  0  0  0  0  0
  143.5100  134.4971  149.8867 H   0  0  0  0  0  0  0  0  0  0  0  0
  144.1586  131.8662  149.5614 H   0  0  0  0  0  0  0  0  0  0  0  0
  146.7129  131.7183  150.6284 H   0  0  0  0  0  0  0  0  0  0  0  0
  1  2  1  0  0  0  0
  1 18  1  0  0  0  0
  1 19  1  0  0  0  0
  1 20  1  0  0  0  0
  2  3  1  0  0  0  0
  2  4  1  0  0  0  0
  2 21  1  0  0  0  0
  3 22  1  0  0  0  0
  3 23  1  0  0  0  0
  3 24  1  0  0  0  0
  4  5  1  0  0  0  0
  4 25  1  0  0  0  0
  4 26  1  0  0  0  0
  5  6  1  0  0  0  0
  5 27  1  0  0  0  0
  6  7  2  0  0  0  0
  6  8  1  0  0  0  0
  8  9  1  0  0  0  0
  8 10  1  0  0  0  0
  8 28  1  0  0  0  0
  9 29  1  0  0  0  0
  9 30  1  0  0  0  0
  9 31  1  0  0  0  0
 10 11  1  0  0  0  0
 10 32  1  0  0  0  0
 11 12  1  0  0  0  0
 11 33  1  0  0  0  0
 11 34  1  0  0  0  0
 12 13  1  0  0  0  0
 12 35  1  0  0  0  0
 12 36  1  0  0  0  0
 13 17  1  0  0  0  0
 13 14  1  0  0  0  0
 14 15  2  0  0  0  0
 14 37  1  0  0  0  0
 15 16  1  0  0  0  0
 15 38  1  0  0  0  0
 16 17  2  0  0  0  0
 16 39  1  0  0  0  0
M  END
> <s_m_source_file>
AV-unprocessed.smi

> <i_m_source_file_index>
3129

> <i_lp_mmshare_version>
43012

> <i_f3d_flags>
0

> <s_epik_input>
W0NIM11bQ0hdKFtDSDNdKVtDSDJdW05IXUMoPU8pW0NASF0oW0NIM10pW05IXVtDSDJdW0NIMl1uMVtjSF1bY0hdW2NIXW4x

> <s_epik_cmdline>
J2VwaWtfcHl0aG9uJywgJy1waCcsICc3LjAnLCAnLXRuJywgJzgnLCAnLW1hJywgJzIwMCcsICctbWV0YWxfYmluZGluZycsICctaW1hZScsICc8aW5maWxlLm1hZT4nLCAnLW9tYWUnLCAnPG91dGZpbGUubWFlPic=

> <r_lp_tautomer_probability>
1

> <r_epik_Ionization_Penalty>
0.724007

> <r_epik_Ionization_Penalty_Charging>
0

> <r_epik_Ionization_Penalty_Neutral>
0.724007

> <r_epik_State_Penalty>
0.74758

> <r_epik_Charging_Adjusted_Penalty>
0.74758

> <i_epik_Tot_Q>
0

> <i_epik_Tot_abs_Q>
0

> <r_epik_Metal_State_Penalty>
0.746851

> <b_epik_Metal_Only>
0

> <s_lp_Force_Field>
OPLS_2005

> <r_lp_Energy>
5.77618

> <b_lp_Chiralities_Consistent>
1

> <s_lp_Variant>
AV-unprocessed.smi:3129-4

> <Gold.Version>
5.8.1

> <Gold.Id.Protein>
6NUR|6NUR_protein|mol2

> <Gold.PLP.Fitness>
40.1711

> <Gold.PLP.PLP>
-30.0914

> <Gold.PLP.part.hbond>
-2.0000

> <Gold.PLP.part.metal>
0.0000

> <Gold.PLP.part.buried>
-3.8751

> <Gold.PLP.part.nonpolar>
-23.6149

> <Gold.PLP.part.repulsive>
0.2124

> <Gold.PLP.ligand.clash>
0.0000

> <Gold.PLP.ligand.torsion>
1.0259

> <Gold.PLP.Chemscore.Hbond>
2.0000

> <Gold.PLP.Chemscore.CHOScore>
2.0000

> <Gold.PLP.Chemscore.Metal>
0.0000

> <Gold.Chemscore.Hbonds>
donor molecule, donor type, donor heavy atom, donor atom, acceptor molecule, acceptor atom, score
      L1  H     5    27       P1  7948  1.00
      L1  H    10    32       P1  7948  1.00
      L1  C    14    37       P1 10186  1.00
      L1  C    16    39       P1 10747  1.00

> <Gold.PLP.Chemscore.Internal.Correction>
0.1314

> <Gold.Rescore>
     Score         DG    S(hbond)    S(metal)    S(lipo)     H(rot)  DE(clash)    DE(int)     intcor
     13.69     -14.63       1.96        0.00      69.07       2.13       0.03       0.91       ----

> <Gold.Chemscore.Fitness>
13.6878

> <Gold.Chemscore.DG>
-14.6308

> <Gold.Chemscore.ZeroCoef>
-5.4800

> <Gold.Chemscore.Hbond>
1.9562

> <Gold.Chemscore.Metal>
0.0000

> <Gold.Chemscore.Lipo>
69.0725

> <Gold.Chemscore.Internal_Hbond>
0.0000

> <Gold.Chemscore.DEClash>
0.0308

> <Gold.Chemscore.DEInternal>
0.9122

> <Gold.Chemscore.Rot>
2.1345

> <Gold.Chemscore.Internal.Correction>
   9.000000E+99

> <Gold.Chemscore.Hbonds>
donor molecule, donor type, donor heavy atom, donor atom, acceptor molecule, acceptor atom, score
      L1  H     5    27       P1  7948  0.94
      L1  H    10    32       P1  7948  0.97

> <Gold.Chemscore.Hbond.Weighted>
-6.5336

> <Gold.Chemscore.Metal.Weighted>
-0.0000

> <Gold.Chemscore.Lipo.Weighted>
-8.0815

> <Gold.Chemscore.Internal_Hbond.Weighted>
0.0000

> <Gold.Chemscore.DEClash.Weighted>
0.0308

> <Gold.Chemscore.DEInternal.Weighted>
0.9122

> <Gold.Chemscore.Rot.Weighted>
5.4642

> <Gold.Chemscore.Internal.Correction.Weighted>
   9.000000E+99

> <Gold.Protein.RotatedTorsions>
[ 6907 6896 6895 6894 ] final   25.29 input  -60.11 | X-H torsion
[ 7974 7965 7964 7962 ] final   53.86 input  175.53 | X-H torsion
[ 8008 7997 7996 7995 ] final   30.48 input   59.86 | X-H torsion
[ 10167 10162 10161 10158 ] final -101.85 input  -65.29 | X-H torsion
[ 10718 10713 10712 10709 ] final  -31.09 input   66.30 | X-H torsion
[ 10763 10752 10751 10750 ] final  135.73 input  -60.55 | X-H torsion
[ 11005 11000 10999 10996 ] final  -44.56 input  -57.11 | X-H torsion

> <Gold.Protein.ActiveResidues>
 VAL166  LYS551  ARG553  GLY616  TRP617  ASP618  TYR619  PRO620  LYS621  CYS622 
 ASP623  PHE694  ASN695  SER759  ASP760  ASP761  ALA762  ILE779  LEU786  VAL792 
 PHE793  MET794  SER795  GLU796  ALA797  LYS798  CYS799  TRP800  GLU811  SER814 

> <Gold.Protein.RotatedAtoms>
  151.9704  135.0079  160.0552 H   0  0  0  0  0  0  0  0  0  0  0  0  # atno 6907 bound_to 6896
  152.1788  133.4689  159.4956 H   0  0  0  0  0  0  0  0  0  0  0  0  # atno 6908 bound_to 6896
  150.6914  134.1777  159.4279 H   0  0  0  0  0  0  0  0  0  0  0  0  # atno 6909 bound_to 6896
  145.9669  139.4111  143.0214 H   0  0  0  0  0  0  0  0  0  0  0  0  # atno 7974 bound_to 7965
  155.0911  140.3220  155.4573 H   0  0  0  0  0  0  0  0  0  0  0  0  # atno 8008 bound_to 7997
  156.2742  140.2078  156.5985 H   0  0  0  0  0  0  0  0  0  0  0  0  # atno 8009 bound_to 7997
  154.6902  140.0517  157.0343 H   0  0  0  0  0  0  0  0  0  0  0  0  # atno 8010 bound_to 7997
  140.2370  143.3566  152.0836 H   0  0  0  0  0  0  0  0  0  0  0  0  # atno 10167 bound_to 10162
  156.3916  130.4374  149.7390 H   0  0  0  0  0  0  0  0  0  0  0  0  # atno 10718 bound_to 10713
  153.8448  135.3087  155.3428 H   0  0  0  0  0  0  0  0  0  0  0  0  # atno 10763 bound_to 10752
  154.7917  135.4779  154.0071 H   0  0  0  0  0  0  0  0  0  0  0  0  # atno 10764 bound_to 10752
  153.1554  135.6851  153.8913 H   0  0  0  0  0  0  0  0  0  0  0  0  # atno 10765 bound_to 10752
  141.0459  133.6761  156.2890 H   0  0  0  0  0  0  0  0  0  0  0  0  # atno 11005 bound_to 11000
  145.7962  140.9792  143.1023 LP  0  0  0  0  0  0  0  0  0  0  0  0  # atno 17320 bound_to 7965
  144.6827  139.9744  143.7482 LP  0  0  0  0  0  0  0  0  0  0  0  0  # atno 17321 bound_to 7965
  139.5090  144.6860  151.5885 LP  0  0  0  0  0  0  0  0  0  0  0  0  # atno 17342 bound_to 10162
  140.6143  143.9379  150.6476 LP  0  0  0  0  0  0  0  0  0  0  0  0  # atno 17343 bound_to 10162
  156.4441  130.7875  151.2896 LP  0  0  0  0  0  0  0  0  0  0  0  0  # atno 17370 bound_to 10713
  157.7499  131.0115  150.3350 LP  0  0  0  0  0  0  0  0  0  0  0  0  # atno 17371 bound_to 10713
  140.6148  134.5422  157.5539 LP  0  0  0  0  0  0  0  0  0  0  0  0  # atno 17394 bound_to 11000
  139.9311  134.7962  156.0928 LP  0  0  0  0  0  0  0  0  0  0  0  0  # atno 17395 bound_to 11000

$$$$
