AV-unprocessed.smi:2787|AV-procd|sdf|10758|dock5
  -GOLD-   2272015193D 1   1.00000     0.00000
 Structure written by MMmdl.
 36 37  0  0  0  0  0  0  0  0  2 V2000
  148.8522  139.6960  153.5468 O   0  0  0  0  0  0  0  0  0  0  0  0
  148.2533  140.9350  153.8618 C   0  0  0  0  0  0  0  0  0  0  0  0
  148.6827  141.3983  155.2615 C   0  0  0  0  0  0  0  0  0  0  0  0
  150.1429  141.0393  155.5930 C   0  0  0  0  0  0  0  0  0  0  0  0
  150.6903  141.7916  156.7674 C   0  0  0  0  0  0  0  0  0  0  0  0
  150.7786  143.1463  156.9068 N   0  3  0  0  0  0  0  0  0  0  0  0
  151.3525  143.4609  158.1387 C   0  0  0  0  0  0  0  0  0  0  0  0
  151.6410  144.6912  158.7214 C   0  0  0  0  0  0  0  0  0  0  0  0
  152.2294  144.6620  160.0026 C   0  0  0  0  0  0  0  0  0  0  0  0
  152.5080  143.4433  160.6547 C   0  0  0  0  0  0  0  0  0  0  0  0
  152.2121  142.2024  160.0529 C   0  0  0  0  0  0  0  0  0  0  0  0
  151.6317  142.2394  158.7850 C   0  0  0  0  0  0  0  0  0  0  0  0
  151.2095  141.2383  157.9012 N   0  0  0  0  0  0  0  0  0  0  0  0
  151.3715  139.8220  158.2701 C   0  0  0  0  0  0  0  0  0  0  0  0
  152.7943  139.2894  158.0028 C   0  0  2  0  0  0  0  0  0  0  0  0
  153.0560  139.3004  156.6126 O   0  0  0  0  0  0  0  0  0  0  0  0
  153.0136  137.8662  158.5516 C   0  0  0  0  0  0  0  0  0  0  0  0
  152.2168  137.0032  157.9208 F   0  0  0  0  0  0  0  0  0  0  0  0
  154.2754  137.4962  158.3328 F   0  0  0  0  0  0  0  0  0  0  0  0
  152.7766  137.8184  159.8632 F   0  0  0  0  0  0  0  0  0  0  0  0
  149.0870  139.6984  152.6310 H   0  0  0  0  0  0  0  0  0  0  0  0
  148.5242  141.6736  153.1068 H   0  0  0  0  0  0  0  0  0  0  0  0
  147.1703  140.8151  153.8223 H   0  0  0  0  0  0  0  0  0  0  0  0
  148.5598  142.4806  155.3185 H   0  0  0  0  0  0  0  0  0  0  0  0
  148.0115  140.9713  156.0081 H   0  0  0  0  0  0  0  0  0  0  0  0
  150.2242  139.9721  155.8014 H   0  0  0  0  0  0  0  0  0  0  0  0
  150.7775  141.2388  154.7290 H   0  0  0  0  0  0  0  0  0  0  0  0
  151.4284  145.6264  158.2240 H   0  0  0  0  0  0  0  0  0  0  0  0
  152.4716  145.5927  160.4952 H   0  0  0  0  0  0  0  0  0  0  0  0
  152.9577  143.4598  161.6370 H   0  0  0  0  0  0  0  0  0  0  0  0
  152.4266  141.2760  160.5651 H   0  0  0  0  0  0  0  0  0  0  0  0
  151.1360  139.7374  159.3311 H   0  0  0  0  0  0  0  0  0  0  0  0
  150.6214  139.2266  157.7495 H   0  0  0  0  0  0  0  0  0  0  0  0
  153.5170  139.9579  158.4727 H   0  0  0  0  0  0  0  0  0  0  0  0
  152.5568  138.6070  156.2095 H   0  0  0  0  0  0  0  0  0  0  0  0
  150.4664  143.8061  156.2060 H   0  0  0  0  0  0  0  0  0  0  0  0
  1  2  1  0  0  0  0
  1 21  1  0  0  0  0
  2  3  1  0  0  0  0
  2 22  1  0  0  0  0
  2 23  1  0  0  0  0
  3  4  1  0  0  0  0
  3 24  1  0  0  0  0
  3 25  1  0  0  0  0
  4  5  1  0  0  0  0
  4 26  1  0  0  0  0
  4 27  1  0  0  0  0
  5 13  1  0  0  0  0
  5  6  2  0  0  0  0
  6  7  1  0  0  0  0
  6 36  1  0  0  0  0
  7 12  2  0  0  0  0
  7  8  1  0  0  0  0
  8  9  2  0  0  0  0
  8 28  1  0  0  0  0
  9 10  1  0  0  0  0
  9 29  1  0  0  0  0
 10 11  2  0  0  0  0
 10 30  1  0  0  0  0
 11 12  1  0  0  0  0
 11 31  1  0  0  0  0
 12 13  1  0  0  0  0
 13 14  1  0  0  0  0
 14 15  1  0  0  0  0
 14 32  1  0  0  0  0
 14 33  1  0  0  0  0
 15 16  1  0  0  0  0
 15 17  1  0  0  0  0
 15 34  1  0  0  0  0
 16 35  1  0  0  0  0
 17 18  1  0  0  0  0
 17 19  1  0  0  0  0
 17 20  1  0  0  0  0
M  CHG  1   6   1
M  END
> <s_m_source_file>
AV-unprocessed.smi

> <i_m_source_file_index>
2787

> <i_lp_mmshare_version>
43012

> <i_f3d_flags>
0

> <s_epik_input>
W09IXVtDSDJdW0NIMl1bQ0gyXWMobjEpbihbQ0gyXVtDQEhdKFtPSF0pQyhGKShGKUYpYyhjMTIpW2NIXVtjSF1bY0hdW2NIXTI=

> <s_epik_cmdline>
J2VwaWtfcHl0aG9uJywgJy1waCcsICc3LjAnLCAnLXRuJywgJzgnLCAnLW1hJywgJzIwMCcsICctbWV0YWxfYmluZGluZycsICctaW1hZScsICc8aW5maWxlLm1hZT4nLCAnLW9tYWUnLCAnPG91dGZpbGUubWFlPic=

> <r_epik_Ionization_Penalty>
0.964009

> <r_epik_Ionization_Penalty_Charging>
0.952215

> <r_epik_Ionization_Penalty_Neutral>
0.0117938

> <r_epik_State_Penalty>
1.09527

> <r_epik_Charging_Adjusted_Penalty>
2.04749

> <i_epik_Tot_Q>
1

> <i_epik_Tot_abs_Q>
1

> <r_epik_Metal_State_Penalty>
5.08046

> <b_epik_Metal_Only>
0

> <s_lp_Force_Field>
OPLS_2005

> <r_lp_Energy>
17.2873

> <b_lp_Chiralities_Consistent>
1

> <s_lp_Variant>
AV-unprocessed.smi:2787-3

> <Gold.Version>
5.8.1

> <Gold.Id.Protein>
6NUR|6NUR_protein|mol2

> <Gold.PLP.Fitness>
52.9676

> <Gold.PLP.PLP>
-42.9836

> <Gold.PLP.part.hbond>
-2.9841

> <Gold.PLP.part.metal>
0.0000

> <Gold.PLP.part.buried>
-6.0525

> <Gold.PLP.part.nonpolar>
-34.6897

> <Gold.PLP.part.repulsive>
0.0269

> <Gold.PLP.ligand.clash>
0.0000

> <Gold.PLP.ligand.torsion>
0.5313

> <Gold.PLP.Chemscore.Hbond>
3.6553

> <Gold.PLP.Chemscore.CHOScore>
0.0000

> <Gold.PLP.Chemscore.Metal>
0.0000

> <Gold.Chemscore.Hbonds>
donor molecule, donor type, donor heavy atom, donor atom, acceptor molecule, acceptor atom, score
      L1  H     1    21       P1  7957  1.00
      L1  H     6    36       P1  8028  1.63
      P1  H  7997  8008       L1    16  0.99

> <Gold.PLP.Chemscore.Internal.Correction>
0.0809

> <Gold.Rescore>
     Score         DG    S(hbond)    S(metal)    S(lipo)     H(rot)  DE(clash)    DE(int)     intcor
     17.01     -17.51       2.81        0.00      99.33       3.51       0.01       0.49       ----

> <Gold.Chemscore.Fitness>
17.0056

> <Gold.Chemscore.DG>
-17.5068

> <Gold.Chemscore.ZeroCoef>
-5.4800

> <Gold.Chemscore.Hbond>
2.8149

> <Gold.Chemscore.Metal>
0.0000

> <Gold.Chemscore.Lipo>
99.3307

> <Gold.Chemscore.Internal_Hbond>
0.0000

> <Gold.Chemscore.DEClash>
0.0068

> <Gold.Chemscore.DEInternal>
0.4943

> <Gold.Chemscore.Rot>
3.5143

> <Gold.Chemscore.Internal.Correction>
   9.000000E+99

> <Gold.Chemscore.Hbonds>
donor molecule, donor type, donor heavy atom, donor atom, acceptor molecule, acceptor atom, score
      L1  H     1    21       P1  7957  0.98
      L1  H     6    36       P1  8028  0.81
      P1  H  7997  8008       L1    16  0.24

> <Gold.Chemscore.Hbond.Weighted>
-9.4018

> <Gold.Chemscore.Metal.Weighted>
-0.0000

> <Gold.Chemscore.Lipo.Weighted>
-11.6217

> <Gold.Chemscore.Internal_Hbond.Weighted>
0.0000

> <Gold.Chemscore.DEClash.Weighted>
0.0068

> <Gold.Chemscore.DEInternal.Weighted>
0.4943

> <Gold.Chemscore.Rot.Weighted>
8.9967

> <Gold.Chemscore.Internal.Correction.Weighted>
   9.000000E+99

> <Gold.Protein.RotatedTorsions>
[ 6907 6896 6895 6894 ] final  -49.70 input  -60.11 | X-H torsion
[ 7974 7965 7964 7962 ] final   63.29 input  175.53 | X-H torsion
[ 8008 7997 7996 7995 ] final  -58.30 input   59.86 | X-H torsion
[ 10167 10162 10161 10158 ] final   60.56 input  -65.29 | X-H torsion
[ 10718 10713 10712 10709 ] final  -85.55 input   66.30 | X-H torsion
[ 10763 10752 10751 10750 ] final  -87.70 input  -60.55 | X-H torsion
[ 11005 11000 10999 10996 ] final  -45.87 input  -57.11 | X-H torsion

> <Gold.Protein.ActiveResidues>
 VAL166  LYS551  ARG553  GLY616  TRP617  ASP618  TYR619  PRO620  LYS621  CYS622 
 ASP623  PHE694  ASN695  SER759  ASP760  ASP761  ALA762  ILE779  LEU786  VAL792 
 PHE793  MET794  SER795  GLU796  ALA797  LYS798  CYS799  TRP800  GLU811  SER814 

> <Gold.Protein.RotatedAtoms>
  150.8780  134.8166  159.7203 H   0  0  0  0  0  0  0  0  0  0  0  0  # atno 6907 bound_to 6896
  152.4759  134.4841  159.9685 H   0  0  0  0  0  0  0  0  0  0  0  0  # atno 6908 bound_to 6896
  151.4920  133.3484  159.2890 H   0  0  0  0  0  0  0  0  0  0  0  0  # atno 6909 bound_to 6896
  145.8635  139.3330  143.0805 H   0  0  0  0  0  0  0  0  0  0  0  0  # atno 7974 bound_to 7965
  154.4303  140.1087  156.5935 H   0  0  0  0  0  0  0  0  0  0  0  0  # atno 8008 bound_to 7997
  155.5986  140.3493  155.4568 H   0  0  0  0  0  0  0  0  0  0  0  0  # atno 8009 bound_to 7997
  156.0191  140.1235  157.0366 H   0  0  0  0  0  0  0  0  0  0  0  0  # atno 8010 bound_to 7997
  140.1642  144.4340  150.6694 H   0  0  0  0  0  0  0  0  0  0  0  0  # atno 10167 bound_to 10162
  155.9996  130.4735  150.4579 H   0  0  0  0  0  0  0  0  0  0  0  0  # atno 10718 bound_to 10713
  154.6365  135.5403  153.7740 H   0  0  0  0  0  0  0  0  0  0  0  0  # atno 10763 bound_to 10752
  153.0311  135.6449  154.1223 H   0  0  0  0  0  0  0  0  0  0  0  0  # atno 10764 bound_to 10752
  154.1150  135.2924  155.3201 H   0  0  0  0  0  0  0  0  0  0  0  0  # atno 10765 bound_to 10752
  141.0543  133.6731  156.3075 H   0  0  0  0  0  0  0  0  0  0  0  0  # atno 11005 bound_to 11000
  145.9220  140.9108  143.0400 LP  0  0  0  0  0  0  0  0  0  0  0  0  # atno 17320 bound_to 7965
  144.6726  140.1302  143.7444 LP  0  0  0  0  0  0  0  0  0  0  0  0  # atno 17321 bound_to 7965
  140.6623  143.2256  151.5825 LP  0  0  0  0  0  0  0  0  0  0  0  0  # atno 17342 bound_to 10162
  139.5367  144.2761  152.1266 LP  0  0  0  0  0  0  0  0  0  0  0  0  # atno 17343 bound_to 10162
  157.2606  131.0566  151.2323 LP  0  0  0  0  0  0  0  0  0  0  0  0  # atno 17370 bound_to 10713
  157.3439  130.7047  149.6398 LP  0  0  0  0  0  0  0  0  0  0  0  0  # atno 17371 bound_to 10713
  140.5994  134.5570  157.5515 LP  0  0  0  0  0  0  0  0  0  0  0  0  # atno 17394 bound_to 11000
  139.9377  134.7845  156.0760 LP  0  0  0  0  0  0  0  0  0  0  0  0  # atno 17395 bound_to 11000

$$$$
