AV-unprocessed.smi:1019|AV-procd|sdf|4446|dock2
  -GOLD-   22720 2413D 1   1.00000     0.00000
 Structure written by MMmdl.
 44 46  0  0  0  0  0  0  0  0  2 V2000
  146.9462  139.2327  151.2143 C   0  0  0  0  0  0  0  0  0  0  0  0
  146.6424  138.2068  152.2376 N   0  3  2  0  0  0  0  0  0  0  0  0
  145.3929  137.4666  151.9345 C   0  0  0  0  0  0  0  0  0  0  0  0
  145.6186  135.9641  151.9378 C   0  0  0  0  0  0  0  0  0  0  0  0
  146.1909  135.3407  153.0671 C   0  0  0  0  0  0  0  0  0  0  0  0
  146.3872  133.9462  153.0827 C   0  0  0  0  0  0  0  0  0  0  0  0
  146.0167  133.1700  151.9676 C   0  0  0  0  0  0  0  0  0  0  0  0
  145.4515  133.7888  150.8359 C   0  0  0  0  0  0  0  0  0  0  0  0
  145.2534  135.1831  150.8203 C   0  0  0  0  0  0  0  0  0  0  0  0
  146.6996  138.7462  153.6218 C   0  0  0  0  0  0  0  0  0  0  0  0
  148.1293  138.6944  154.1910 C   0  0  1  0  0  0  0  0  0  0  0  0
  148.5144  137.3387  154.3010 O   0  0  0  0  0  0  0  0  0  0  0  0
  149.1435  139.4491  153.3062 C   0  0  0  0  0  0  0  0  0  0  0  0
  150.0476  140.2796  154.0803 N   0  0  0  0  0  0  0  0  0  0  0  0
  151.3668  140.0818  154.2662 C   0  0  0  0  0  0  0  0  0  0  0  0
  152.0168  140.9664  155.0161 N   0  0  0  0  0  0  0  0  0  0  0  0
  151.0007  141.8419  155.3590 C   0  0  0  0  0  0  0  0  0  0  0  0
  151.0276  143.0120  156.1509 C   0  0  0  0  0  0  0  0  0  0  0  0
  149.8487  143.7555  156.3669 C   0  0  0  0  0  0  0  0  0  0  0  0
  148.6276  143.3416  155.7959 C   0  0  0  0  0  0  0  0  0  0  0  0
  148.5758  142.1791  155.0028 C   0  0  0  0  0  0  0  0  0  0  0  0
  149.7543  141.4397  154.7900 C   0  0  0  0  0  0  0  0  0  0  0  0
  146.1647  139.9927  151.1792 H   0  0  0  0  0  0  0  0  0  0  0  0
  147.0252  138.7788  150.2259 H   0  0  0  0  0  0  0  0  0  0  0  0
  147.8947  139.7275  151.4248 H   0  0  0  0  0  0  0  0  0  0  0  0
  144.6104  137.7447  152.6425 H   0  0  0  0  0  0  0  0  0  0  0  0
  145.0299  137.7417  150.9432 H   0  0  0  0  0  0  0  0  0  0  0  0
  146.4758  135.9291  153.9271 H   0  0  0  0  0  0  0  0  0  0  0  0
  146.8220  133.4711  153.9500 H   0  0  0  0  0  0  0  0  0  0  0  0
  146.1671  132.1002  151.9794 H   0  0  0  0  0  0  0  0  0  0  0  0
  145.1694  133.1931  149.9801 H   0  0  0  0  0  0  0  0  0  0  0  0
  144.8167  135.6491  149.9489 H   0  0  0  0  0  0  0  0  0  0  0  0
  146.3187  139.7693  153.6257 H   0  0  0  0  0  0  0  0  0  0  0  0
  146.0424  138.1879  154.2884 H   0  0  0  0  0  0  0  0  0  0  0  0
  148.1403  139.1123  155.1982 H   0  0  0  0  0  0  0  0  0  0  0  0
  148.6817  136.9972  153.4355 H   0  0  0  0  0  0  0  0  0  0  0  0
  149.7312  138.7489  152.7109 H   0  0  0  0  0  0  0  0  0  0  0  0
  148.6231  140.0936  152.5968 H   0  0  0  0  0  0  0  0  0  0  0  0
  151.8801  139.2406  153.8238 H   0  0  0  0  0  0  0  0  0  0  0  0
  151.9574  143.3384  156.5928 H   0  0  0  0  0  0  0  0  0  0  0  0
  149.8820  144.6483  156.9740 H   0  0  0  0  0  0  0  0  0  0  0  0
  147.7304  143.9181  155.9674 H   0  0  0  0  0  0  0  0  0  0  0  0
  147.6416  141.8617  154.5642 H   0  0  0  0  0  0  0  0  0  0  0  0
  147.3791  137.5188  152.1737 H   0  0  0  0  0  0  0  0  0  0  0  0
  1  2  1  0  0  0  0
  1 23  1  0  0  0  0
  1 24  1  0  0  0  0
  1 25  1  0  0  0  0
  2  3  1  0  0  0  0
  2 10  1  0  0  0  0
  2 44  1  0  0  0  0
  3  4  1  0  0  0  0
  3 26  1  0  0  0  0
  3 27  1  0  0  0  0
  4  9  1  0  0  0  0
  4  5  2  0  0  0  0
  5  6  1  0  0  0  0
  5 28  1  0  0  0  0
  6  7  2  0  0  0  0
  6 29  1  0  0  0  0
  7  8  1  0  0  0  0
  7 30  1  0  0  0  0
  8  9  2  0  0  0  0
  8 31  1  0  0  0  0
  9 32  1  0  0  0  0
 10 11  1  0  0  0  0
 10 33  1  0  0  0  0
 10 34  1  0  0  0  0
 11 12  1  0  0  0  0
 11 13  1  0  0  0  0
 11 35  1  0  0  0  0
 12 36  1  0  0  0  0
 13 14  1  0  0  0  0
 13 37  1  0  0  0  0
 13 38  1  0  0  0  0
 14 22  1  0  0  0  0
 14 15  1  0  0  0  0
 15 16  2  0  0  0  0
 15 39  1  0  0  0  0
 16 17  1  0  0  0  0
 17 22  2  0  0  0  0
 17 18  1  0  0  0  0
 18 19  2  0  0  0  0
 18 40  1  0  0  0  0
 19 20  1  0  0  0  0
 19 41  1  0  0  0  0
 20 21  2  0  0  0  0
 20 42  1  0  0  0  0
 21 22  1  0  0  0  0
 21 43  1  0  0  0  0
M  CHG  1   2   1
M  END
> <s_m_source_file>
AV-unprocessed.smi

> <i_m_source_file_index>
1019

> <i_lp_mmshare_version>
43012

> <i_f3d_flags>
0

> <s_epik_input>
W2NIXTFbY0hdW2NIXVtjSF1bY0hdYzFbQ0gyXU4oW0NIM10pW0NIMl1bQ0BIXShbT0hdKVtDSDJdbihbY0hdbjIpYyhjMjMpW2NIXVtjSF1bY0hdW2NIXTM=

> <s_epik_cmdline>
J2VwaWtfcHl0aG9uJywgJy1waCcsICc3LjAnLCAnLXRuJywgJzgnLCAnLW1hJywgJzIwMCcsICctbWV0YWxfYmluZGluZycsICctaW1hZScsICc8aW5maWxlLm1hZT4nLCAnLW9tYWUnLCAnPG91dGZpbGUubWFlPic=

> <r_epik_Ionization_Penalty>
0.0996557

> <r_epik_Ionization_Penalty_Charging>
0.0475377

> <r_epik_Ionization_Penalty_Neutral>
0.0521179

> <r_epik_State_Penalty>
0.0851777

> <r_epik_Charging_Adjusted_Penalty>
0.132715

> <i_epik_Tot_Q>
1

> <i_epik_Tot_abs_Q>
1

> <r_epik_Metal_State_Penalty>
0.0423478

> <b_epik_Metal_Only>
0

> <s_lp_Force_Field>
OPLS_2005

> <r_lp_Energy>
16.6774

> <b_lp_Chiralities_Consistent>
1

> <s_lp_Variant>
AV-unprocessed.smi:1019-4

> <Gold.Version>
5.8.1

> <Gold.Id.Protein>
6NUR|6NUR_protein|mol2

> <Gold.PLP.Fitness>
46.2159

> <Gold.PLP.PLP>
-37.2349

> <Gold.PLP.part.hbond>
-3.0000

> <Gold.PLP.part.metal>
0.0000

> <Gold.PLP.part.buried>
-1.0730

> <Gold.PLP.part.nonpolar>
-32.7809

> <Gold.PLP.part.repulsive>
0.0327

> <Gold.PLP.ligand.clash>
0.0000

> <Gold.PLP.ligand.torsion>
1.8170

> <Gold.PLP.Chemscore.Hbond>
4.0000

> <Gold.PLP.Chemscore.CHOScore>
0.0000

> <Gold.PLP.Chemscore.Metal>
0.0000

> <Gold.Chemscore.Hbonds>
donor molecule, donor type, donor heavy atom, donor atom, acceptor molecule, acceptor atom, score
      L1  H     2    44       P1  7948  1.95
      L1  H    12    36       P1  7948  1.00

> <Gold.PLP.Chemscore.Internal.Correction>
0.6149

> <Gold.Rescore>
     Score         DG    S(hbond)    S(metal)    S(lipo)     H(rot)  DE(clash)    DE(int)     intcor
     16.49     -19.92       2.98        0.00      90.12       2.36       1.53       1.90       ----

> <Gold.Chemscore.Fitness>
16.4919

> <Gold.Chemscore.DG>
-19.9160

> <Gold.Chemscore.ZeroCoef>
-5.4800

> <Gold.Chemscore.Hbond>
2.9755

> <Gold.Chemscore.Metal>
0.0000

> <Gold.Chemscore.Lipo>
90.1167

> <Gold.Chemscore.Internal_Hbond>
0.0000

> <Gold.Chemscore.DEClash>
1.5285

> <Gold.Chemscore.DEInternal>
1.8956

> <Gold.Chemscore.Rot>
2.3616

> <Gold.Chemscore.Internal.Correction>
   9.000000E+99

> <Gold.Chemscore.Hbonds>
donor molecule, donor type, donor heavy atom, donor atom, acceptor molecule, acceptor atom, score
      L1  H     2    44       P1  7948  0.92
      L1  H    12    36       P1  7948  1.00

> <Gold.Chemscore.Hbond.Weighted>
-9.9381

> <Gold.Chemscore.Metal.Weighted>
-0.0000

> <Gold.Chemscore.Lipo.Weighted>
-10.5437

> <Gold.Chemscore.Internal_Hbond.Weighted>
0.0000

> <Gold.Chemscore.DEClash.Weighted>
1.5285

> <Gold.Chemscore.DEInternal.Weighted>
1.8956

> <Gold.Chemscore.Rot.Weighted>
6.0457

> <Gold.Chemscore.Internal.Correction.Weighted>
   9.000000E+99

> <Gold.Protein.RotatedTorsions>
[ 6907 6896 6895 6894 ] final   23.24 input  -60.11 | X-H torsion
[ 7974 7965 7964 7962 ] final -178.27 input  175.53 | X-H torsion
[ 8008 7997 7996 7995 ] final  -34.41 input   59.86 | X-H torsion
[ 10167 10162 10161 10158 ] final  128.93 input  -65.29 | X-H torsion
[ 10718 10713 10712 10709 ] final -161.76 input   66.30 | X-H torsion
[ 10763 10752 10751 10750 ] final  -10.60 input  -60.55 | X-H torsion
[ 11005 11000 10999 10996 ] final  -41.10 input  -57.11 | X-H torsion

> <Gold.Protein.ActiveResidues>
 VAL166  LYS551  ARG553  GLY616  TRP617  ASP618  TYR619  PRO620  LYS621  CYS622 
 ASP623  PHE694  ASN695  SER759  ASP760  ASP761  ALA762  ILE779  LEU786  VAL792 
 PHE793  MET794  SER795  GLU796  ALA797  LYS798  CYS799  TRP800  GLU811  SER814 

> <Gold.Protein.RotatedAtoms>
  151.9393  135.0221  160.0534 H   0  0  0  0  0  0  0  0  0  0  0  0  # atno 6907 bound_to 6896
  152.2050  133.4864  159.5087 H   0  0  0  0  0  0  0  0  0  0  0  0  # atno 6908 bound_to 6896
  150.6963  134.1458  159.4164 H   0  0  0  0  0  0  0  0  0  0  0  0  # atno 6909 bound_to 6896
  144.7130  140.0894  143.6422 H   0  0  0  0  0  0  0  0  0  0  0  0  # atno 7974 bound_to 7965
  154.4121  140.1684  156.2045 H   0  0  0  0  0  0  0  0  0  0  0  0  # atno 8008 bound_to 7997
  155.9496  140.3402  155.6373 H   0  0  0  0  0  0  0  0  0  0  0  0  # atno 8009 bound_to 7997
  155.6886  140.0731  157.2447 H   0  0  0  0  0  0  0  0  0  0  0  0  # atno 8010 bound_to 7997
  139.5502  144.6807  151.4346 H   0  0  0  0  0  0  0  0  0  0  0  0  # atno 10167 bound_to 10162
  156.6008  130.8810  151.2913 H   0  0  0  0  0  0  0  0  0  0  0  0  # atno 10718 bound_to 10713
  153.4716  135.7017  153.5990 H   0  0  0  0  0  0  0  0  0  0  0  0  # atno 10763 bound_to 10752
  153.4242  135.3818  155.2130 H   0  0  0  0  0  0  0  0  0  0  0  0  # atno 10764 bound_to 10752
  154.8725  135.3935  154.4154 H   0  0  0  0  0  0  0  0  0  0  0  0  # atno 10765 bound_to 10752
  141.0222  133.6857  156.2411 H   0  0  0  0  0  0  0  0  0  0  0  0  # atno 11005 bound_to 11000
  145.9634  139.2817  143.1142 LP  0  0  0  0  0  0  0  0  0  0  0  0  # atno 17320 bound_to 7965
  145.9196  140.9124  143.0412 LP  0  0  0  0  0  0  0  0  0  0  0  0  # atno 17321 bound_to 7965
  140.6763  143.8183  150.7062 LP  0  0  0  0  0  0  0  0  0  0  0  0  # atno 17342 bound_to 10162
  140.1622  143.4265  152.2059 LP  0  0  0  0  0  0  0  0  0  0  0  0  # atno 17343 bound_to 10162
  157.7280  130.9650  150.1722 LP  0  0  0  0  0  0  0  0  0  0  0  0  # atno 17370 bound_to 10713
  156.2470  130.3696  149.8274 LP  0  0  0  0  0  0  0  0  0  0  0  0  # atno 17371 bound_to 10713
  140.6553  134.5024  157.5580 LP  0  0  0  0  0  0  0  0  0  0  0  0  # atno 17394 bound_to 11000
  139.9153  134.8259  156.1387 LP  0  0  0  0  0  0  0  0  0  0  0  0  # atno 17395 bound_to 11000

$$$$
