AV-unprocessed.smi:1|AV-procd|sdf|9|dock7
  -GOLD-   2262015 93D 1   1.00000     0.00000
 Structure written by MMmdl.
 57 62  0  0  0  0  0  0  0  0  1 V2000
  148.8752  132.1149  153.1555 O   0  0  0  0  0  0  0  0  0  0  0  0
  148.1327  133.0558  153.4486 C   0  0  0  0  0  0  0  0  0  0  0  0
  148.0157  133.7295  154.6570 N   0  0  0  0  0  0  0  0  0  0  0  0
  148.8713  134.6531  154.9746 C   0  0  0  0  0  0  0  0  0  0  0  0
  149.9867  135.1801  154.3103 N   0  0  0  0  0  0  0  0  0  0  0  0
  150.8204  136.2042  154.7864 C   0  0  0  0  0  0  0  0  0  0  0  0
  150.6736  136.8159  155.9314 N   0  0  0  0  0  0  0  0  0  0  0  0
  149.5793  136.3277  156.6312 C   0  0  0  0  0  0  0  0  0  0  0  0
  148.6930  135.3351  156.2742 C   0  0  0  0  0  0  0  0  0  0  0  0
  147.7336  135.1506  157.2637 N   0  0  0  0  0  0  0  0  0  0  0  0
  148.0831  136.0503  158.1794 C   0  0  0  0  0  0  0  0  0  0  0  0
  149.1633  136.7969  157.8731 N   0  0  0  0  0  0  0  0  0  0  0  0
  149.8014  137.8889  158.6806 C   0  0  2  0  0  0  0  0  0  0  0  0
  149.9780  139.0062  157.8626 O   0  0  0  0  0  0  0  0  0  0  0  0
  151.3199  139.0511  157.3937 C   0  0  1  0  0  0  0  0  0  0  0  0
  151.6769  140.4693  156.9405 C   0  0  0  0  0  0  0  0  0  0  0  0
  151.7812  141.3000  158.0847 O   0  0  0  0  0  0  0  0  0  0  0  0
  150.7632  142.1123  158.4258 C   0  0  0  0  0  0  0  0  0  0  0  0
  149.6849  142.1425  157.8292 O   0  0  0  0  0  0  0  0  0  0  0  0
  151.0793  142.9745  159.6012 C   0  0  0  0  0  0  0  0  0  0  0  0
  151.9080  142.4678  160.6294 C   0  0  0  0  0  0  0  0  0  0  0  0
  152.2228  143.2580  161.7520 C   0  0  0  0  0  0  0  0  0  0  0  0
  151.7132  144.5651  161.8598 C   0  0  0  0  0  0  0  0  0  0  0  0
  150.8884  145.0811  160.8434 C   0  0  0  0  0  0  0  0  0  0  0  0
  150.5719  144.2922  159.7202 C   0  0  0  0  0  0  0  0  0  0  0  0
  152.1085  138.5767  158.6135 C   0  0  2  0  0  0  0  0  0  0  0  0
  153.3543  138.0065  158.2529 O   0  0  0  0  0  0  0  0  0  0  0  0
  153.1662  136.3546  158.0892 S   0  0  0  0  0  0  0  0  0  0  0  0
  153.1429  136.0317  156.6544 O   0  0  0  0  0  0  0  0  0  0  0  0
  154.0752  135.6915  159.0362 O   0  0  0  0  0  0  0  0  0  0  0  0
  151.6094  136.2216  158.6761 O   0  0  0  0  0  0  0  0  0  0  0  0
  151.1998  137.4806  159.1905 C   0  0  2  0  0  0  0  0  0  0  0  0
  147.2303  133.5934  152.3865 C   0  0  0  0  0  0  0  0  0  0  0  0
  146.5919  134.8389  152.5660 C   0  0  0  0  0  0  0  0  0  0  0  0
  145.7298  135.3405  151.5715 C   0  0  0  0  0  0  0  0  0  0  0  0
  145.5020  134.5982  150.3965 C   0  0  0  0  0  0  0  0  0  0  0  0
  146.1362  133.3537  150.2157 C   0  0  0  0  0  0  0  0  0  0  0  0
  146.9986  132.8504  151.2096 C   0  0  0  0  0  0  0  0  0  0  0  0
  151.6332  136.4658  154.1072 H   0  0  0  0  0  0  0  0  0  0  0  0
  147.5303  136.1657  159.0997 H   0  0  0  0  0  0  0  0  0  0  0  0
  149.0830  138.1007  159.4733 H   0  0  0  0  0  0  0  0  0  0  0  0
  151.4447  138.3433  156.5726 H   0  0  0  0  0  0  0  0  0  0  0  0
  152.6083  140.4669  156.3725 H   0  0  0  0  0  0  0  0  0  0  0  0
  150.8932  140.8611  156.2908 H   0  0  0  0  0  0  0  0  0  0  0  0
  152.3109  141.4670  160.5687 H   0  0  0  0  0  0  0  0  0  0  0  0
  152.8559  142.8598  162.5312 H   0  0  0  0  0  0  0  0  0  0  0  0
  151.9547  145.1714  162.7204 H   0  0  0  0  0  0  0  0  0  0  0  0
  150.4969  146.0844  160.9250 H   0  0  0  0  0  0  0  0  0  0  0  0
  149.9358  144.7192  158.9585 H   0  0  0  0  0  0  0  0  0  0  0  0
  152.2386  139.3850  159.3342 H   0  0  0  0  0  0  0  0  0  0  0  0
  151.2182  137.4610  160.2806 H   0  0  0  0  0  0  0  0  0  0  0  0
  146.7595  135.4123  153.4663 H   0  0  0  0  0  0  0  0  0  0  0  0
  145.2418  136.2936  151.7111 H   0  0  0  0  0  0  0  0  0  0  0  0
  144.8395  134.9828  149.6351 H   0  0  0  0  0  0  0  0  0  0  0  0
  145.9596  132.7836  149.3156 H   0  0  0  0  0  0  0  0  0  0  0  0
  147.4787  131.8932  151.0654 H   0  0  0  0  0  0  0  0  0  0  0  0
  150.2080  134.7887  153.4061 H   0  0  0  0  0  0  0  0  0  0  0  0
  1  2  2  0  0  0  0
  2  3  1  0  0  0  0
  2 33  1  0  0  0  0
  3  4  2  0  0  0  0
  4  9  1  0  0  0  0
  4  5  1  0  0  0  0
  5  6  1  0  0  0  0
  5 57  1  0  0  0  0
  6  7  2  0  0  0  0
  6 39  1  0  0  0  0
  7  8  1  0  0  0  0
  8 12  1  0  0  0  0
  8  9  2  0  0  0  0
  9 10  1  0  0  0  0
 10 11  2  0  0  0  0
 11 12  1  0  0  0  0
 11 40  1  0  0  0  0
 12 13  1  0  0  0  0
 13 32  1  0  0  0  0
 13 14  1  0  0  0  0
 13 41  1  0  0  0  0
 14 15  1  0  0  0  0
 15 16  1  0  0  0  0
 15 26  1  0  0  0  0
 15 42  1  0  0  0  0
 16 17  1  0  0  0  0
 16 43  1  0  0  0  0
 16 44  1  0  0  0  0
 17 18  1  0  0  0  0
 18 19  2  0  0  0  0
 18 20  1  0  0  0  0
 20 25  1  0  0  0  0
 20 21  2  0  0  0  0
 21 22  1  0  0  0  0
 21 45  1  0  0  0  0
 22 23  2  0  0  0  0
 22 46  1  0  0  0  0
 23 24  1  0  0  0  0
 23 47  1  0  0  0  0
 24 25  2  0  0  0  0
 24 48  1  0  0  0  0
 25 49  1  0  0  0  0
 26 32  1  0  0  0  0
 26 27  1  0  0  0  0
 26 50  1  0  0  0  0
 27 28  1  0  0  0  0
 28 29  2  0  0  0  0
 28 30  2  0  0  0  0
 28 31  1  0  0  0  0
 31 32  1  0  0  0  0
 32 51  1  0  0  0  0
 33 38  1  0  0  0  0
 33 34  2  0  0  0  0
 34 35  1  0  0  0  0
 34 52  1  0  0  0  0
 35 36  2  0  0  0  0
 35 53  1  0  0  0  0
 36 37  1  0  0  0  0
 36 54  1  0  0  0  0
 37 38  2  0  0  0  0
 37 55  1  0  0  0  0
 38 56  1  0  0  0  0
M  END
> <s_m_source_file>
AV-unprocessed.smi

> <i_m_source_file_index>
1

> <i_lp_mmshare_version>
43012

> <i_f3d_flags>
0

> <s_epik_input>
W2NIXTFbY0hdW2NIXVtjSF1bY0hdYzFDKD1PKVtOSF1jKG5bY0hdbjIpYyhjMjMpbltjSF1uM1tDQEBIXShbQ0BIXShbQ0BIXTQ1KU9TKE81KSg9Tyk9TylPW0NASF00W0NIMl1PQyg9TyljNltjSF1bY0hdW2NIXVtjSF1bY0hdNg==

> <s_epik_cmdline>
J2VwaWtfcHl0aG9uJywgJy1waCcsICc3LjAnLCAnLXRuJywgJzgnLCAnLW1hJywgJzIwMCcsICctbWV0YWxfYmluZGluZycsICctaW1hZScsICc8aW5maWxlLm1hZT4nLCAnLW9tYWUnLCAnPG91dGZpbGUubWFlPic=

> <r_epik_Ionization_Penalty>
0.122545

> <r_epik_Ionization_Penalty_Charging>
0.122545

> <r_epik_Ionization_Penalty_Neutral>
7.8935e-16

> <r_epik_State_Penalty>
2.69178

> <r_epik_Charging_Adjusted_Penalty>
2.81433

> <i_epik_Tot_Q>
0

> <i_epik_Tot_abs_Q>
0

> <r_epik_Metal_State_Penalty>
3.02665

> <b_epik_Metal_Only>
0

> <s_epik_Chemistry_Notes>
This compound has an ester and may undergo hydrolysis at high or low pH. This compound contains an acetal/aminal-like group ( X-CH(R)-Y where X, Y are N, S, or O) that may be acid/base labile, releasing an aldehyde.

> <s_lp_Force_Field>
OPLS_2005

> <r_lp_Energy>
57.7872

> <b_lp_Chiralities_Consistent>
1

> <s_lp_Variant>
AV-unprocessed.smi:1-9

> <Gold.Version>
5.8.1

> <Gold.Id.Protein>
6NUR|6NUR_protein|mol2

> <Gold.PLP.Fitness>
53.6803

> <Gold.PLP.PLP>
-48.8061

> <Gold.PLP.part.hbond>
-3.6647

> <Gold.PLP.part.metal>
0.0000

> <Gold.PLP.part.buried>
-6.6809

> <Gold.PLP.part.nonpolar>
-40.4587

> <Gold.PLP.part.repulsive>
0.7043

> <Gold.PLP.ligand.clash>
0.0699

> <Gold.PLP.ligand.torsion>
1.8320

> <Gold.PLP.Chemscore.Hbond>
1.9033

> <Gold.PLP.Chemscore.CHOScore>
0.9139

> <Gold.PLP.Chemscore.Metal>
0.0000

> <Gold.Chemscore.Hbonds>
donor molecule, donor type, donor heavy atom, donor atom, acceptor molecule, acceptor atom, score
      P1  H  6896  6907       L1    30  0.52
      P1  H 10752 10765       L1    29  1.00
      L1  C     6    39       P1  7949  0.42

> <Gold.PLP.Chemscore.Internal.Correction>
0.1567

> <Gold.Rescore>
     Score         DG    S(hbond)    S(metal)    S(lipo)     H(rot)  DE(clash)    DE(int)     intcor
      8.04     -17.19       1.15        0.00     113.91       2.13       3.85       5.29       ----

> <Gold.Chemscore.Fitness>
8.0444

> <Gold.Chemscore.DG>
-17.1853

> <Gold.Chemscore.ZeroCoef>
-5.4800

> <Gold.Chemscore.Hbond>
1.1494

> <Gold.Chemscore.Metal>
0.0000

> <Gold.Chemscore.Lipo>
113.9129

> <Gold.Chemscore.Internal_Hbond>
0.0000

> <Gold.Chemscore.DEClash>
3.8521

> <Gold.Chemscore.DEInternal>
5.2889

> <Gold.Chemscore.Rot>
2.1333

> <Gold.Chemscore.Internal.Correction>
   9.000000E+99

> <Gold.Chemscore.Hbonds>
donor molecule, donor type, donor heavy atom, donor atom, acceptor molecule, acceptor atom, score
      P1  H  6896  6907       L1    30  0.06
      P1  H 10752 10765       L1    29  0.94

> <Gold.Chemscore.Hbond.Weighted>
-3.8389

> <Gold.Chemscore.Metal.Weighted>
-0.0000

> <Gold.Chemscore.Lipo.Weighted>
-13.3278

> <Gold.Chemscore.Internal_Hbond.Weighted>
0.0000

> <Gold.Chemscore.DEClash.Weighted>
3.8521

> <Gold.Chemscore.DEInternal.Weighted>
5.2889

> <Gold.Chemscore.Rot.Weighted>
5.4614

> <Gold.Chemscore.Internal.Correction.Weighted>
   9.000000E+99

> <Gold.Protein.RotatedTorsions>
[ 6907 6896 6895 6894 ] final   74.66 input  -60.11 | X-H torsion
[ 7974 7965 7964 7962 ] final   73.99 input  175.53 | X-H torsion
[ 8008 7997 7996 7995 ] final -134.93 input   59.86 | X-H torsion
[ 10167 10162 10161 10158 ] final   47.55 input  -65.29 | X-H torsion
[ 10718 10713 10712 10709 ] final -102.76 input   66.30 | X-H torsion
[ 10763 10752 10751 10750 ] final -107.12 input  -60.55 | X-H torsion
[ 11005 11000 10999 10996 ] final -153.57 input  -57.11 | X-H torsion

> <Gold.Protein.ActiveResidues>
 VAL166  LYS551  ARG553  GLY616  TRP617  ASP618  TYR619  PRO620  LYS621  CYS622 
 ASP623  PHE694  ASN695  SER759  ASP760  ASP761  ALA762  ILE779  LEU786  VAL792 
 PHE793  MET794  SER795  GLU796  ALA797  LYS798  CYS799  TRP800  GLU811  SER814 

> <Gold.Protein.RotatedAtoms>
  152.4987  134.4238  159.9489 H   0  0  0  0  0  0  0  0  0  0  0  0  # atno 6907 bound_to 6896
  151.4212  133.3691  159.2764 H   0  0  0  0  0  0  0  0  0  0  0  0  # atno 6908 bound_to 6896
  150.9221  134.8661  159.7555 H   0  0  0  0  0  0  0  0  0  0  0  0  # atno 6909 bound_to 6896
  145.7339  139.2694  143.1525 H   0  0  0  0  0  0  0  0  0  0  0  0  # atno 7974 bound_to 7965
  155.3702  140.0488  157.3045 H   0  0  0  0  0  0  0  0  0  0  0  0  # atno 8008 bound_to 7997
  154.5133  140.2199  155.9076 H   0  0  0  0  0  0  0  0  0  0  0  0  # atno 8009 bound_to 7997
  156.1608  140.3117  155.8810 H   0  0  0  0  0  0  0  0  0  0  0  0  # atno 8010 bound_to 7997
  140.3025  144.2917  150.6216 H   0  0  0  0  0  0  0  0  0  0  0  0  # atno 10167 bound_to 10162
  156.0240  130.5435  150.7155 H   0  0  0  0  0  0  0  0  0  0  0  0  # atno 10718 bound_to 10713
  154.8055  135.4686  154.0382 H   0  0  0  0  0  0  0  0  0  0  0  0  # atno 10763 bound_to 10752
  153.1854  135.6847  153.8429 H   0  0  0  0  0  0  0  0  0  0  0  0  # atno 10764 bound_to 10752
  153.7965  135.3236  155.3362 H   0  0  0  0  0  0  0  0  0  0  0  0  # atno 10765 bound_to 10752
  140.7067  134.3877  157.5203 H   0  0  0  0  0  0  0  0  0  0  0  0  # atno 11005 bound_to 11000
  146.0512  140.8068  142.9781 LP  0  0  0  0  0  0  0  0  0  0  0  0  # atno 17320 bound_to 7965
  144.6886  140.3055  143.7256 LP  0  0  0  0  0  0  0  0  0  0  0  0  # atno 17321 bound_to 7965
  140.5639  143.2188  151.7718 LP  0  0  0  0  0  0  0  0  0  0  0  0  # atno 17342 bound_to 10162
  139.4912  144.4311  151.9871 LP  0  0  0  0  0  0  0  0  0  0  0  0  # atno 17343 bound_to 10162
  157.4783  131.0900  151.0565 LP  0  0  0  0  0  0  0  0  0  0  0  0  # atno 17370 bound_to 10713
  157.1006  130.5980  149.5459 LP  0  0  0  0  0  0  0  0  0  0  0  0  # atno 17371 bound_to 10713
  139.8882  134.8862  156.2486 LP  0  0  0  0  0  0  0  0  0  0  0  0  # atno 17394 bound_to 11000
  141.0118  133.7091  156.1124 LP  0  0  0  0  0  0  0  0  0  0  0  0  # atno 17395 bound_to 11000

$$$$
