AV-unprocessed.smi:1604|AV-procd|sdf|6447|dock10
  -GOLD-   22720 7103D 1   1.00000     0.00000
 Structure written by MMmdl.
 46 48  0  0  0  0  0  0  0  0  1 V2000
  150.4817  136.5770  159.0341 O   0  0  0  0  0  0  0  0  0  0  0  0
  149.4692  136.8664  158.3960 C   0  0  0  0  0  0  0  0  0  0  0  0
  149.4549  137.5016  157.2127 N   0  0  0  0  0  0  0  0  0  0  0  0
  150.5688  137.9243  156.4349 C   0  0  0  0  0  0  0  0  0  0  0  0
  151.8755  137.4464  156.6987 C   0  0  0  0  0  0  0  0  0  0  0  0
  152.9561  137.9445  155.9510 C   0  0  0  0  0  0  0  0  0  0  0  0
  152.6943  138.9183  154.9732 C   0  0  0  0  0  0  0  0  0  0  0  0
  151.4586  139.3934  154.7195 N   0  0  0  0  0  0  0  0  0  0  0  0
  150.4034  138.9124  155.4222 C   0  0  0  0  0  0  0  0  0  0  0  0
  149.1296  139.4346  155.0991 N   0  0  0  0  0  0  0  0  0  0  0  0
  148.1409  138.5250  154.5262 C   0  0  0  0  0  0  0  0  0  0  0  0
  147.3521  139.3357  153.4923 C   0  0  0  0  0  0  0  0  0  0  0  0
  147.5792  140.7826  153.9191 C   0  0  0  0  0  0  0  0  0  0  0  0
  149.0052  140.7408  154.4606 C   0  0  0  0  0  0  0  0  0  0  0  0
  148.2262  136.5606  158.7934 N   0  0  0  0  0  0  0  0  0  0  0  0
  147.8700  135.8660  160.0302 C   0  0  2  0  0  0  0  0  0  0  0  0
  147.6138  134.3618  159.7554 C   0  0  0  0  0  0  0  0  0  0  0  0
  146.6946  133.6356  160.7596 C   0  0  0  0  0  0  0  0  0  0  0  0
  147.0989  133.7636  162.2420 C   0  0  0  0  0  0  0  0  0  0  0  0
  147.2589  135.1987  162.7989 C   0  0  0  0  0  0  0  0  0  0  0  0
  146.5121  136.2199  162.0649 N   0  0  0  0  0  0  0  0  0  0  0  0
  146.7509  136.5966  160.7969 C   0  0  0  0  0  0  0  0  0  0  0  0
  146.0867  137.4786  160.2539 O   0  0  0  0  0  0  0  0  0  0  0  0
  148.5553  137.5863  156.7625 H   0  0  0  0  0  0  0  0  0  0  0  0
  152.0679  136.7247  157.4780 H   0  0  0  0  0  0  0  0  0  0  0  0
  153.9625  137.5980  156.1328 H   0  0  0  0  0  0  0  0  0  0  0  0
  153.4985  139.3326  154.3833 H   0  0  0  0  0  0  0  0  0  0  0  0
  148.6028  137.6458  154.0743 H   0  0  0  0  0  0  0  0  0  0  0  0
  147.4736  138.1867  155.3192 H   0  0  0  0  0  0  0  0  0  0  0  0
  147.7765  139.1776  152.5000 H   0  0  0  0  0  0  0  0  0  0  0  0
  146.2975  139.0620  153.4540 H   0  0  0  0  0  0  0  0  0  0  0  0
  147.4548  141.4948  153.1032 H   0  0  0  0  0  0  0  0  0  0  0  0
  146.8835  141.0512  154.7153 H   0  0  0  0  0  0  0  0  0  0  0  0
  149.1956  141.5492  155.1671 H   0  0  0  0  0  0  0  0  0  0  0  0
  149.7084  140.8357  153.6322 H   0  0  0  0  0  0  0  0  0  0  0  0
  147.4570  136.8406  158.2022 H   0  0  0  0  0  0  0  0  0  0  0  0
  148.7467  135.9355  160.6757 H   0  0  0  0  0  0  0  0  0  0  0  0
  147.1696  134.2462  158.7658 H   0  0  0  0  0  0  0  0  0  0  0  0
  148.5727  133.8442  159.7076 H   0  0  0  0  0  0  0  0  0  0  0  0
  145.6703  133.9890  160.6338 H   0  0  0  0  0  0  0  0  0  0  0  0
  146.6606  132.5778  160.4975 H   0  0  0  0  0  0  0  0  0  0  0  0
  146.3403  133.2496  162.8333 H   0  0  0  0  0  0  0  0  0  0  0  0
  148.0238  133.2127  162.4159 H   0  0  0  0  0  0  0  0  0  0  0  0
  146.9376  135.2215  163.8405 H   0  0  0  0  0  0  0  0  0  0  0  0
  148.3135  135.4754  162.8195 H   0  0  0  0  0  0  0  0  0  0  0  0
  145.7687  136.6879  162.5628 H   0  0  0  0  0  0  0  0  0  0  0  0
  1  2  2  0  0  0  0
  2  3  1  0  0  0  0
  2 15  1  0  0  0  0
  3  4  1  0  0  0  0
  3 24  1  0  0  0  0
  4  9  1  0  0  0  0
  4  5  2  0  0  0  0
  5  6  1  0  0  0  0
  5 25  1  0  0  0  0
  6  7  2  0  0  0  0
  6 26  1  0  0  0  0
  7  8  1  0  0  0  0
  7 27  1  0  0  0  0
  8  9  2  0  0  0  0
  9 10  1  0  0  0  0
 10 14  1  0  0  0  0
 10 11  1  0  0  0  0
 11 12  1  0  0  0  0
 11 28  1  0  0  0  0
 11 29  1  0  0  0  0
 12 13  1  0  0  0  0
 12 30  1  0  0  0  0
 12 31  1  0  0  0  0
 13 14  1  0  0  0  0
 13 32  1  0  0  0  0
 13 33  1  0  0  0  0
 14 34  1  0  0  0  0
 14 35  1  0  0  0  0
 15 16  1  0  0  0  0
 15 36  1  0  0  0  0
 16 22  1  0  0  0  0
 16 17  1  0  0  0  0
 16 37  1  0  0  0  0
 17 18  1  0  0  0  0
 17 38  1  0  0  0  0
 17 39  1  0  0  0  0
 18 19  1  0  0  0  0
 18 40  1  0  0  0  0
 18 41  1  0  0  0  0
 19 20  1  0  0  0  0
 19 42  1  0  0  0  0
 19 43  1  0  0  0  0
 20 21  1  0  0  0  0
 20 44  1  0  0  0  0
 20 45  1  0  0  0  0
 21 22  1  0  0  0  0
 21 46  1  0  0  0  0
 22 23  2  0  0  0  0
M  END
> <s_m_source_file>
AV-unprocessed.smi

> <i_m_source_file_index>
1604

> <i_lp_mmshare_version>
43012

> <i_f3d_flags>
0

> <s_epik_input>
Tz1DMVtOSF1bQ0gyXVtDSDJdW0NIMl1bQ0gyXVtDQEhdMVtOSF1DKD1PKVtOSF1jMltjSF1bY0hdW2NIXW5jMk4zW0NIMl1bQ0gyXVtDSDJdW0NIMl0z

> <s_epik_cmdline>
J2VwaWtfcHl0aG9uJywgJy1waCcsICc3LjAnLCAnLXRuJywgJzgnLCAnLW1hJywgJzIwMCcsICctbWV0YWxfYmluZGluZycsICctaW1hZScsICc8aW5maWxlLm1hZT4nLCAnLW9tYWUnLCAnPG91dGZpbGUubWFlPic=

> <r_lp_tautomer_probability>
1

> <r_epik_Ionization_Penalty>
0.0837267

> <r_epik_Ionization_Penalty_Charging>
0

> <r_epik_Ionization_Penalty_Neutral>
0.0837267

> <r_epik_State_Penalty>
0.0738331

> <r_epik_Charging_Adjusted_Penalty>
0.0738331

> <i_epik_Tot_Q>
0

> <i_epik_Tot_abs_Q>
0

> <r_epik_Metal_State_Penalty>
0.0646802

> <b_epik_Metal_Only>
0

> <s_lp_Force_Field>
OPLS_2005

> <r_lp_Energy>
41.479

> <b_lp_Chiralities_Consistent>
1

> <s_lp_Variant>
AV-unprocessed.smi:1604-1

> <Gold.Version>
5.8.1

> <Gold.Id.Protein>
6NUR|6NUR_protein|mol2

> <Gold.PLP.Fitness>
43.7575

> <Gold.PLP.PLP>
-35.6312

> <Gold.PLP.part.hbond>
-3.0000

> <Gold.PLP.part.metal>
0.0000

> <Gold.PLP.part.buried>
-5.0927

> <Gold.PLP.part.nonpolar>
-28.8225

> <Gold.PLP.part.repulsive>
0.4183

> <Gold.PLP.ligand.clash>
0.0000

> <Gold.PLP.ligand.torsion>
0.6196

> <Gold.PLP.Chemscore.Hbond>
3.0000

> <Gold.PLP.Chemscore.CHOScore>
0.0000

> <Gold.PLP.Chemscore.Metal>
0.0000

> <Gold.Chemscore.Hbonds>
donor molecule, donor type, donor heavy atom, donor atom, acceptor molecule, acceptor atom, score
      P1  H  6896  6909       L1     1  1.00
      P1  H  6934  6947       L1    23  0.85
      P1  H  7989  7998       L1     8  1.00

> <Gold.PLP.Chemscore.Internal.Correction>
0.3654

> <Gold.Rescore>
     Score         DG    S(hbond)    S(metal)    S(lipo)     H(rot)  DE(clash)    DE(int)     intcor
     18.08     -20.08       2.47        0.00      81.44       1.25       0.03       1.98       ----

> <Gold.Chemscore.Fitness>
18.0797

> <Gold.Chemscore.DG>
-20.0844

> <Gold.Chemscore.ZeroCoef>
-5.4800

> <Gold.Chemscore.Hbond>
2.4749

> <Gold.Chemscore.Metal>
0.0000

> <Gold.Chemscore.Lipo>
81.4369

> <Gold.Chemscore.Internal_Hbond>
0.0000

> <Gold.Chemscore.DEClash>
0.0260

> <Gold.Chemscore.DEInternal>
1.9787

> <Gold.Chemscore.Rot>
1.2461

> <Gold.Chemscore.Internal.Correction>
   9.000000E+99

> <Gold.Chemscore.Hbonds>
donor molecule, donor type, donor heavy atom, donor atom, acceptor molecule, acceptor atom, score
      P1  H  6896  6909       L1     1  1.00
      P1  H  6934  6947       L1    23  0.14
      P1  H  7989  7998       L1     8  0.60

> <Gold.Chemscore.Hbond.Weighted>
-8.2662

> <Gold.Chemscore.Metal.Weighted>
-0.0000

> <Gold.Chemscore.Lipo.Weighted>
-9.5281

> <Gold.Chemscore.Internal_Hbond.Weighted>
0.0000

> <Gold.Chemscore.DEClash.Weighted>
0.0260

> <Gold.Chemscore.DEInternal.Weighted>
1.9787

> <Gold.Chemscore.Rot.Weighted>
3.1899

> <Gold.Chemscore.Internal.Correction.Weighted>
   9.000000E+99

> <Gold.Protein.RotatedTorsions>
[ 6907 6896 6895 6894 ] final   89.87 input  -60.11 | X-H torsion
[ 7974 7965 7964 7962 ] final   80.51 input  175.53 | X-H torsion
[ 8008 7997 7996 7995 ] final   58.74 input   59.86 | X-H torsion
[ 10167 10162 10161 10158 ] final   89.28 input  -65.29 | X-H torsion
[ 10718 10713 10712 10709 ] final   85.05 input   66.30 | X-H torsion
[ 10763 10752 10751 10750 ] final -155.27 input  -60.55 | X-H torsion
[ 11005 11000 10999 10996 ] final   10.10 input  -57.11 | X-H torsion

> <Gold.Protein.ActiveResidues>
 VAL166  LYS551  ARG553  GLY616  TRP617  ASP618  TYR619  PRO620  LYS621  CYS622 
 ASP623  PHE694  ASN695  SER759  ASP760  ASP761  ALA762  ILE779  LEU786  VAL792 
 PHE793  MET794  SER795  GLU796  ALA797  LYS798  CYS799  TRP800  GLU811  SER814 

> <Gold.Protein.RotatedAtoms>
  152.5440  134.1899  159.8669 H   0  0  0  0  0  0  0  0  0  0  0  0  # atno 6907 bound_to 6896
  151.1895  133.4669  159.2602 H   0  0  0  0  0  0  0  0  0  0  0  0  # atno 6908 bound_to 6896
  151.1097  135.0032  159.8544 H   0  0  0  0  0  0  0  0  0  0  0  0  # atno 6909 bound_to 6896
  145.6503  139.2446  143.1981 H   0  0  0  0  0  0  0  0  0  0  0  0  # atno 7974 bound_to 7965
  155.5550  140.3487  155.4477 H   0  0  0  0  0  0  0  0  0  0  0  0  # atno 8008 bound_to 7997
  156.0556  140.1328  157.0026 H   0  0  0  0  0  0  0  0  0  0  0  0  # atno 8009 bound_to 7997
  154.4455  140.0996  156.6425 H   0  0  0  0  0  0  0  0  0  0  0  0  # atno 8010 bound_to 7997
  139.8589  144.6554  150.9082 H   0  0  0  0  0  0  0  0  0  0  0  0  # atno 10167 bound_to 10162
  157.6908  131.0158  150.2764 H   0  0  0  0  0  0  0  0  0  0  0  0  # atno 10718 bound_to 10713
  154.7799  135.3171  154.8012 H   0  0  0  0  0  0  0  0  0  0  0  0  # atno 10763 bound_to 10752
  153.8726  135.6843  153.4777 H   0  0  0  0  0  0  0  0  0  0  0  0  # atno 10764 bound_to 10752
  153.1433  135.4730  154.9465 H   0  0  0  0  0  0  0  0  0  0  0  0  # atno 10765 bound_to 10752
  140.5183  134.0584  155.7837 H   0  0  0  0  0  0  0  0  0  0  0  0  # atno 11005 bound_to 11000
  146.1209  140.7310  142.9458 LP  0  0  0  0  0  0  0  0  0  0  0  0  # atno 17320 bound_to 7965
  144.7125  140.4091  143.7069 LP  0  0  0  0  0  0  0  0  0  0  0  0  # atno 17321 bound_to 7965
  140.7778  143.3762  151.1559 LP  0  0  0  0  0  0  0  0  0  0  0  0  # atno 17342 bound_to 10162
  139.7393  143.8949  152.3045 LP  0  0  0  0  0  0  0  0  0  0  0  0  # atno 17343 bound_to 10162
  156.3318  130.3801  149.7484 LP  0  0  0  0  0  0  0  0  0  0  0  0  # atno 17370 bound_to 10713
  156.5022  130.8134  151.3137 LP  0  0  0  0  0  0  0  0  0  0  0  0  # atno 17371 bound_to 10713
  141.1348  133.9240  157.2458 LP  0  0  0  0  0  0  0  0  0  0  0  0  # atno 17394 bound_to 11000
  139.9620  135.0152  156.9286 LP  0  0  0  0  0  0  0  0  0  0  0  0  # atno 17395 bound_to 11000

$$$$
