AV-unprocessed.smi:2933|AV-procd|sdf|11252|dock1
  -GOLD-   2272016143D 1   1.00000     0.00000
 Structure written by MMmdl.
 49 51  0  0  0  0  0  0  0  0  1 V2000
  150.9468  137.9409  154.4225 C   0  0  0  0  0  0  0  0  0  0  0  0
  150.2053  139.1889  154.8681 C   0  0  0  0  0  0  0  0  0  0  0  0
  150.8554  139.9587  155.7680 N   0  0  0  0  0  0  0  0  0  0  0  0
  150.2681  141.0939  156.2185 C   0  0  0  0  0  0  0  0  0  0  0  0
  150.9650  141.8799  157.1614 N   0  0  0  0  0  0  0  0  0  0  0  0
  152.0196  141.2387  157.9443 C   0  0  0  0  0  0  0  0  0  0  0  0
  152.4494  142.1487  159.1071 C   0  0  0  0  0  0  0  0  0  0  0  0
  152.8413  143.4198  158.5993 O   0  0  0  0  0  0  0  0  0  0  0  0
  151.7685  144.0773  157.9328 C   0  0  0  0  0  0  0  0  0  0  0  0
  151.3027  143.2349  156.7325 C   0  0  0  0  0  0  0  0  0  0  0  0
  148.9887  141.4917  155.7677 C   0  0  0  0  0  0  0  0  0  0  0  0
  148.3092  140.6903  154.8317 C   0  0  0  0  0  0  0  0  0  0  0  0
  148.9178  139.4995  154.3718 C   0  0  0  0  0  0  0  0  0  0  0  0
  148.3122  138.6376  153.4156 N   0  0  0  0  0  0  0  0  0  0  0  0
  147.0061  138.5117  153.1259 C   0  0  0  0  0  0  0  0  0  0  0  0
  146.0970  139.1506  153.6558 O   0  0  0  0  0  0  0  0  0  0  0  0
  146.8053  137.5724  152.1905 N   0  0  0  0  0  0  0  0  0  0  0  0
  145.5048  137.1677  151.6636 C   0  0  2  0  0  0  0  0  0  0  0  0
  144.4873  137.0330  152.8079 C   0  0  0  0  0  0  0  0  0  0  0  0
  145.6633  135.8672  150.8788 C   0  0  0  0  0  0  0  0  0  0  0  0
  144.4193  135.1271  150.3632 C   0  0  0  0  0  0  0  0  0  0  0  0
  145.1532  133.8083  150.6211 C   0  0  0  0  0  0  0  0  0  0  0  0
  146.0401  134.5696  151.6100 C   0  0  0  0  0  0  0  0  0  0  0  0
  150.3657  137.0497  154.6613 H   0  0  0  0  0  0  0  0  0  0  0  0
  151.9159  137.8521  154.9151 H   0  0  0  0  0  0  0  0  0  0  0  0
  151.1171  137.9640  153.3459 H   0  0  0  0  0  0  0  0  0  0  0  0
  151.6689  140.2854  158.3414 H   0  0  0  0  0  0  0  0  0  0  0  0
  152.8735  141.0295  157.2984 H   0  0  0  0  0  0  0  0  0  0  0  0
  151.6396  142.2671  159.8290 H   0  0  0  0  0  0  0  0  0  0  0  0
  153.2891  141.7042  159.6414 H   0  0  0  0  0  0  0  0  0  0  0  0
  150.9457  144.2505  158.6285 H   0  0  0  0  0  0  0  0  0  0  0  0
  152.1086  145.0559  157.5938 H   0  0  0  0  0  0  0  0  0  0  0  0
  152.0961  143.1792  155.9863 H   0  0  0  0  0  0  0  0  0  0  0  0
  150.4572  143.7313  156.2585 H   0  0  0  0  0  0  0  0  0  0  0  0
  148.5167  142.3905  156.1354 H   0  0  0  0  0  0  0  0  0  0  0  0
  147.3406  141.0082  154.4778 H   0  0  0  0  0  0  0  0  0  0  0  0
  148.9337  137.9809  152.9669 H   0  0  0  0  0  0  0  0  0  0  0  0
  147.6126  137.0969  151.8149 H   0  0  0  0  0  0  0  0  0  0  0  0
  145.1454  137.9411  150.9821 H   0  0  0  0  0  0  0  0  0  0  0  0
  143.5040  136.7547  152.4283 H   0  0  0  0  0  0  0  0  0  0  0  0
  144.3731  137.9731  153.3487 H   0  0  0  0  0  0  0  0  0  0  0  0
  144.7950  136.2712  153.5251 H   0  0  0  0  0  0  0  0  0  0  0  0
  146.3554  136.0023  150.0443 H   0  0  0  0  0  0  0  0  0  0  0  0
  143.5495  135.2583  151.0094 H   0  0  0  0  0  0  0  0  0  0  0  0
  144.1758  135.3194  149.3179 H   0  0  0  0  0  0  0  0  0  0  0  0
  144.5412  133.0236  151.0667 H   0  0  0  0  0  0  0  0  0  0  0  0
  145.7018  133.4510  149.7481 H   0  0  0  0  0  0  0  0  0  0  0  0
  147.0990  134.3130  151.5670 H   0  0  0  0  0  0  0  0  0  0  0  0
  145.6585  134.5316  152.6317 H   0  0  0  0  0  0  0  0  0  0  0  0
  1  2  1  0  0  0  0
  1 24  1  0  0  0  0
  1 25  1  0  0  0  0
  1 26  1  0  0  0  0
  2 13  1  0  0  0  0
  2  3  2  0  0  0  0
  3  4  1  0  0  0  0
  4  5  1  0  0  0  0
  4 11  2  0  0  0  0
  5 10  1  0  0  0  0
  5  6  1  0  0  0  0
  6  7  1  0  0  0  0
  6 27  1  0  0  0  0
  6 28  1  0  0  0  0
  7  8  1  0  0  0  0
  7 29  1  0  0  0  0
  7 30  1  0  0  0  0
  8  9  1  0  0  0  0
  9 10  1  0  0  0  0
  9 31  1  0  0  0  0
  9 32  1  0  0  0  0
 10 33  1  0  0  0  0
 10 34  1  0  0  0  0
 11 12  1  0  0  0  0
 11 35  1  0  0  0  0
 12 13  2  0  0  0  0
 12 36  1  0  0  0  0
 13 14  1  0  0  0  0
 14 15  1  0  0  0  0
 14 37  1  0  0  0  0
 15 16  2  0  0  0  0
 15 17  1  0  0  0  0
 17 18  1  0  0  0  0
 17 38  1  0  0  0  0
 18 19  1  0  0  0  0
 18 20  1  0  0  0  0
 18 39  1  0  0  0  0
 19 40  1  0  0  0  0
 19 41  1  0  0  0  0
 19 42  1  0  0  0  0
 20 23  1  0  0  0  0
 20 21  1  0  0  0  0
 20 43  1  0  0  0  0
 21 22  1  0  0  0  0
 21 44  1  0  0  0  0
 21 45  1  0  0  0  0
 22 23  1  0  0  0  0
 22 46  1  0  0  0  0
 22 47  1  0  0  0  0
 23 48  1  0  0  0  0
 23 49  1  0  0  0  0
M  END
> <s_m_source_file>
AV-unprocessed.smi

> <i_m_source_file_index>
2933

> <i_lp_mmshare_version>
43012

> <i_f3d_flags>
0

> <s_epik_input>
W0NIMl0xW0NIMl1PW0NIMl1bQ0gyXU4xYyhuYzJbQ0gzXSlbY0hdW2NIXWMyW05IXUMoPU8pW05IXVtDQEhdKFtDSDNdKVtDSF0zW0NIMl1bQ0gyXVtDSDJdMw==

> <s_epik_cmdline>
J2VwaWtfcHl0aG9uJywgJy1waCcsICc3LjAnLCAnLXRuJywgJzgnLCAnLW1hJywgJzIwMCcsICctbWV0YWxfYmluZGluZycsICctaW1hZScsICc8aW5maWxlLm1hZT4nLCAnLW9tYWUnLCAnPG91dGZpbGUubWFlPic=

> <r_lp_tautomer_probability>
1

> <r_epik_Ionization_Penalty>
0.00789884

> <r_epik_Ionization_Penalty_Charging>
0

> <r_epik_Ionization_Penalty_Neutral>
0.00789884

> <r_epik_State_Penalty>
0.00589145

> <r_epik_Charging_Adjusted_Penalty>
0.00589145

> <i_epik_Tot_Q>
0

> <i_epik_Tot_abs_Q>
0

> <r_epik_Metal_State_Penalty>
-0

> <b_epik_Metal_Only>
0

> <s_lp_Force_Field>
OPLS_2005

> <r_lp_Energy>
30.1585

> <b_lp_Chiralities_Consistent>
1

> <s_lp_Variant>
AV-unprocessed.smi:2933-1

> <Gold.Version>
5.8.1

> <Gold.Id.Protein>
6NUR|6NUR_protein|mol2

> <Gold.PLP.Fitness>
43.9415

> <Gold.PLP.PLP>
-39.2004

> <Gold.PLP.part.hbond>
-2.9553

> <Gold.PLP.part.metal>
0.0000

> <Gold.PLP.part.buried>
-1.8174

> <Gold.PLP.part.nonpolar>
-36.8915

> <Gold.PLP.part.repulsive>
1.1909

> <Gold.PLP.ligand.clash>
0.0000

> <Gold.PLP.ligand.torsion>
0.6639

> <Gold.PLP.Chemscore.Hbond>
1.8564

> <Gold.PLP.Chemscore.CHOScore>
0.0000

> <Gold.PLP.Chemscore.Metal>
0.0000

> <Gold.Chemscore.Hbonds>
donor molecule, donor type, donor heavy atom, donor atom, acceptor molecule, acceptor atom, score
      L1  H    14    37       P1  7948  0.86
      L1  H    17    38       P1  7948  1.00

> <Gold.PLP.Chemscore.Internal.Correction>
0.4995

> <Gold.Rescore>
     Score         DG    S(hbond)    S(metal)    S(lipo)     H(rot)  DE(clash)    DE(int)     intcor
     15.41     -19.95       1.78        0.00     101.78       1.32       1.23       3.32       ----

> <Gold.Chemscore.Fitness>
15.4082

> <Gold.Chemscore.DG>
-19.9508

> <Gold.Chemscore.ZeroCoef>
-5.4800

> <Gold.Chemscore.Hbond>
1.7755

> <Gold.Chemscore.Metal>
0.0000

> <Gold.Chemscore.Lipo>
101.7835

> <Gold.Chemscore.Internal_Hbond>
0.0000

> <Gold.Chemscore.DEClash>
1.2262

> <Gold.Chemscore.DEInternal>
3.3164

> <Gold.Chemscore.Rot>
1.3157

> <Gold.Chemscore.Internal.Correction>
   9.000000E+99

> <Gold.Chemscore.Hbonds>
donor molecule, donor type, donor heavy atom, donor atom, acceptor molecule, acceptor atom, score
      L1  H    14    37       P1  7948  0.79
      L1  H    17    38       P1  7948  0.96

> <Gold.Chemscore.Hbond.Weighted>
-5.9303

> <Gold.Chemscore.Metal.Weighted>
-0.0000

> <Gold.Chemscore.Lipo.Weighted>
-11.9087

> <Gold.Chemscore.Internal_Hbond.Weighted>
0.0000

> <Gold.Chemscore.DEClash.Weighted>
1.2262

> <Gold.Chemscore.DEInternal.Weighted>
3.3164

> <Gold.Chemscore.Rot.Weighted>
3.3682

> <Gold.Chemscore.Internal.Correction.Weighted>
   9.000000E+99

> <Gold.Protein.RotatedTorsions>
[ 6907 6896 6895 6894 ] final  -91.11 input  -60.11 | X-H torsion
[ 7974 7965 7964 7962 ] final   75.84 input  175.53 | X-H torsion
[ 8008 7997 7996 7995 ] final  126.46 input   59.86 | X-H torsion
[ 10167 10162 10161 10158 ] final -153.37 input  -65.29 | X-H torsion
[ 10718 10713 10712 10709 ] final   54.41 input   66.30 | X-H torsion
[ 10763 10752 10751 10750 ] final  151.85 input  -60.55 | X-H torsion
[ 11005 11000 10999 10996 ] final   76.88 input  -57.11 | X-H torsion

> <Gold.Protein.ActiveResidues>
 VAL166  LYS551  ARG553  GLY616  TRP617  ASP618  TYR619  PRO620  LYS621  CYS622 
 ASP623  PHE694  ASN695  SER759  ASP760  ASP761  ALA762  ILE779  LEU786  VAL792 
 PHE793  MET794  SER795  GLU796  ALA797  LYS798  CYS799  TRP800  GLU811  SER814 

> <Gold.Protein.RotatedAtoms>
  150.6889  134.2327  159.4440 H   0  0  0  0  0  0  0  0  0  0  0  0  # atno 6907 bound_to 6896
  152.0277  134.9783  160.0581 H   0  0  0  0  0  0  0  0  0  0  0  0  # atno 6908 bound_to 6896
  152.1335  133.4387  159.4769 H   0  0  0  0  0  0  0  0  0  0  0  0  # atno 6909 bound_to 6896
  145.7105  139.2613  143.1653 H   0  0  0  0  0  0  0  0  0  0  0  0  # atno 7974 bound_to 7965
  156.2864  140.2692  156.2114 H   0  0  0  0  0  0  0  0  0  0  0  0  # atno 8008 bound_to 7997
  155.0260  140.0386  157.2474 H   0  0  0  0  0  0  0  0  0  0  0  0  # atno 8009 bound_to 7997
  154.7395  140.2722  155.6391 H   0  0  0  0  0  0  0  0  0  0  0  0  # atno 8010 bound_to 7997
  139.7103  143.9120  152.2465 H   0  0  0  0  0  0  0  0  0  0  0  0  # atno 10167 bound_to 10162
  157.5254  130.8593  149.8615 H   0  0  0  0  0  0  0  0  0  0  0  0  # atno 10718 bound_to 10713
  154.1104  135.2839  155.3231 H   0  0  0  0  0  0  0  0  0  0  0  0  # atno 10763 bound_to 10752
  154.6493  135.5374  153.7886 H   0  0  0  0  0  0  0  0  0  0  0  0  # atno 10764 bound_to 10752
  153.0347  135.6506  154.1263 H   0  0  0  0  0  0  0  0  0  0  0  0  # atno 10765 bound_to 10752
  139.9279  134.7637  156.1451 H   0  0  0  0  0  0  0  0  0  0  0  0  # atno 11005 bound_to 11000
  146.0717  140.7862  142.9685 LP  0  0  0  0  0  0  0  0  0  0  0  0  # atno 17320 bound_to 7965
  144.6943  140.3352  143.7209 LP  0  0  0  0  0  0  0  0  0  0  0  0  # atno 17321 bound_to 7965
  139.8987  144.6924  150.8689 LP  0  0  0  0  0  0  0  0  0  0  0  0  # atno 17342 bound_to 10162
  140.7731  143.3530  151.1976 LP  0  0  0  0  0  0  0  0  0  0  0  0  # atno 17343 bound_to 10162
  156.0383  130.3745  150.1501 LP  0  0  0  0  0  0  0  0  0  0  0  0  # atno 17370 bound_to 10713
  156.9688  130.9828  151.3463 LP  0  0  0  0  0  0  0  0  0  0  0  0  # atno 17371 bound_to 10713
  141.0849  133.6738  156.2414 LP  0  0  0  0  0  0  0  0  0  0  0  0  # atno 17394 bound_to 11000
  140.6285  134.5289  157.5556 LP  0  0  0  0  0  0  0  0  0  0  0  0  # atno 17395 bound_to 11000

$$$$
