AV-unprocessed.smi:542|AV-procd|sdf|2874|dock2
  -GOLD-   2262023363D 1   1.00000     0.00000
 Structure written by MMmdl.
 45 47  0  0  0  0  0  0  0  0  2 V2000
  148.5518  140.0419  154.9298 C   0  0  0  0  0  0  0  0  0  0  0  0
  149.8895  140.5048  154.8707 O   0  0  0  0  0  0  0  0  0  0  0  0
  150.7903  139.5042  154.4273 C   0  0  0  0  0  0  0  0  0  0  0  0
  151.8194  139.2381  155.5387 C   0  0  0  0  0  0  0  0  0  0  0  0
  151.2054  138.7058  156.7525 N   0  0  0  0  0  0  0  0  0  0  0  0
  151.1685  139.2457  158.0061 C   0  0  0  0  0  0  0  0  0  0  0  0
  151.7743  140.4635  158.3481 N   0  0  0  0  0  0  0  0  0  0  0  0
  151.2780  141.8159  158.0799 C   0  0  0  0  0  0  0  0  0  0  0  0
  151.3130  142.7074  159.3352 C   0  0  0  0  0  0  0  0  0  0  0  0
  152.7402  142.8024  159.8973 C   0  0  0  0  0  0  0  0  0  0  0  0
  152.7919  143.6181  161.1966 C   0  0  0  0  0  0  0  0  0  0  0  0
  153.2985  141.3826  160.0864 C   0  0  0  0  0  0  0  0  0  0  0  0
  153.1669  140.5625  158.7909 C   0  0  0  0  0  0  0  0  0  0  0  0
  150.4695  138.5269  158.8888 N   0  0  0  0  0  0  0  0  0  0  0  0
  150.0401  137.4377  158.1501 C   0  0  0  0  0  0  0  0  0  0  0  0
  150.4583  137.5261  156.8602 C   0  0  0  0  0  0  0  0  0  0  0  0
  150.1222  136.5266  155.8200 C   0  0  0  0  0  0  0  0  0  0  0  0
  150.4964  136.6665  154.6576 O   0  0  0  0  0  0  0  0  0  0  0  0
  149.3747  135.4913  156.3180 N   0  5  0  0  0  0  0  0  0  0  0  0
  148.9397  135.3586  157.6188 C   0  0  0  0  0  0  0  0  0  0  0  0
  148.2699  134.3921  157.9852 O   0  0  0  0  0  0  0  0  0  0  0  0
  149.2531  136.3208  158.5422 N   0  0  0  0  0  0  0  0  0  0  0  0
  148.7973  136.2110  159.9310 C   0  0  0  0  0  0  0  0  0  0  0  0
  147.9001  140.8464  155.2706 H   0  0  0  0  0  0  0  0  0  0  0  0
  148.4532  139.2099  155.6283 H   0  0  0  0  0  0  0  0  0  0  0  0
  148.2027  139.7188  153.9483 H   0  0  0  0  0  0  0  0  0  0  0  0
  150.2424  138.5938  154.1843 H   0  0  0  0  0  0  0  0  0  0  0  0
  151.2814  139.8285  153.5100 H   0  0  0  0  0  0  0  0  0  0  0  0
  152.5928  138.5578  155.1919 H   0  0  0  0  0  0  0  0  0  0  0  0
  152.3514  140.1559  155.7878 H   0  0  0  0  0  0  0  0  0  0  0  0
  151.8940  142.2622  157.2981 H   0  0  0  0  0  0  0  0  0  0  0  0
  150.2728  141.7870  157.6710 H   0  0  0  0  0  0  0  0  0  0  0  0
  150.9417  143.7026  159.0892 H   0  0  0  0  0  0  0  0  0  0  0  0
  150.6419  142.3068  160.0954 H   0  0  0  0  0  0  0  0  0  0  0  0
  153.3605  143.3124  159.1587 H   0  0  0  0  0  0  0  0  0  0  0  0
  152.1866  143.1581  161.9783 H   0  0  0  0  0  0  0  0  0  0  0  0
  152.4191  144.6305  161.0387 H   0  0  0  0  0  0  0  0  0  0  0  0
  153.8133  143.6971  161.5694 H   0  0  0  0  0  0  0  0  0  0  0  0
  154.3454  141.4291  160.3879 H   0  0  0  0  0  0  0  0  0  0  0  0
  152.7655  140.8755  160.8921 H   0  0  0  0  0  0  0  0  0  0  0  0
  153.5747  139.5657  158.9616 H   0  0  0  0  0  0  0  0  0  0  0  0
  153.7673  141.0080  157.9968 H   0  0  0  0  0  0  0  0  0  0  0  0
  147.7091  136.1529  159.9728 H   0  0  0  0  0  0  0  0  0  0  0  0
  149.0997  137.0609  160.5421 H   0  0  0  0  0  0  0  0  0  0  0  0
  149.2054  135.3127  160.3961 H   0  0  0  0  0  0  0  0  0  0  0  0
  1  2  1  0  0  0  0
  1 24  1  0  0  0  0
  1 25  1  0  0  0  0
  1 26  1  0  0  0  0
  2  3  1  0  0  0  0
  3  4  1  0  0  0  0
  3 27  1  0  0  0  0
  3 28  1  0  0  0  0
  4  5  1  0  0  0  0
  4 29  1  0  0  0  0
  4 30  1  0  0  0  0
  5 16  1  0  0  0  0
  5  6  1  0  0  0  0
  6  7  1  0  0  0  0
  6 14  2  0  0  0  0
  7 13  1  0  0  0  0
  7  8  1  0  0  0  0
  8  9  1  0  0  0  0
  8 31  1  0  0  0  0
  8 32  1  0  0  0  0
  9 10  1  0  0  0  0
  9 33  1  0  0  0  0
  9 34  1  0  0  0  0
 10 11  1  0  0  0  0
 10 12  1  0  0  0  0
 10 35  1  0  0  0  0
 11 36  1  0  0  0  0
 11 37  1  0  0  0  0
 11 38  1  0  0  0  0
 12 13  1  0  0  0  0
 12 39  1  0  0  0  0
 12 40  1  0  0  0  0
 13 41  1  0  0  0  0
 13 42  1  0  0  0  0
 14 15  1  0  0  0  0
 15 22  1  0  0  0  0
 15 16  2  0  0  0  0
 16 17  1  0  0  0  0
 17 18  2  0  0  0  0
 17 19  1  0  0  0  0
 19 20  1  0  0  0  0
 20 21  2  0  0  0  0
 20 22  1  0  0  0  0
 22 23  1  0  0  0  0
 23 43  1  0  0  0  0
 23 44  1  0  0  0  0
 23 45  1  0  0  0  0
M  CHG  1  19  -1
M  END
> <s_m_source_file>
AV-unprocessed.smi

> <i_m_source_file_index>
542

> <i_lp_mmshare_version>
43012

> <i_f3d_flags>
0

> <s_epik_input>
W0NIM11uMWMoPU8pW25IXWMoPU8pYyhjMTIpbihbQ0gyXVtDSDJdT1tDSDNdKWMobjIpTjNbQ0gyXVtDSDJdW0NIXShbQ0gzXSlbQ0gyXVtDSDJdMw==

> <s_epik_cmdline>
J2VwaWtfcHl0aG9uJywgJy1waCcsICc3LjAnLCAnLXRuJywgJzgnLCAnLW1hJywgJzIwMCcsICctbWV0YWxfYmluZGluZycsICctaW1hZScsICc8aW5maWxlLm1hZT4nLCAnLW9tYWUnLCAnPG91dGZpbGUubWFlPic=

> <r_lp_tautomer_probability>
1

> <r_epik_Ionization_Penalty>
5.11335

> <r_epik_Ionization_Penalty_Charging>
0.0783784

> <r_epik_Ionization_Penalty_Neutral>
5.03497

> <r_epik_State_Penalty>
5.01923

> <r_epik_Charging_Adjusted_Penalty>
5.09761

> <i_epik_Tot_Q>
-1

> <i_epik_Tot_abs_Q>
1

> <r_epik_Metal_State_Penalty>
1.13361

> <b_epik_Metal_Only>
1

> <s_lp_Force_Field>
OPLS_2005

> <r_lp_Energy>
42.8721

> <b_lp_Chiralities_Consistent>
1

> <s_lp_Variant>
AV-unprocessed.smi:542-2

> <Gold.Version>
5.8.1

> <Gold.Id.Protein>
6NUR|6NUR_protein|mol2

> <Gold.PLP.Fitness>
42.0138

> <Gold.PLP.PLP>
-39.5554

> <Gold.PLP.part.hbond>
-2.5626

> <Gold.PLP.part.metal>
0.0000

> <Gold.PLP.part.buried>
-5.8926

> <Gold.PLP.part.nonpolar>
-31.2040

> <Gold.PLP.part.repulsive>
0.1828

> <Gold.PLP.ligand.clash>
0.0000

> <Gold.PLP.ligand.torsion>
1.8519

> <Gold.PLP.Chemscore.Hbond>
2.0000

> <Gold.PLP.Chemscore.CHOScore>
0.0000

> <Gold.PLP.Chemscore.Metal>
0.0000

> <Gold.PLP.Chemscore.Internal.Correction>
0.1622

> <Gold.Rescore>
     Score         DG    S(hbond)    S(metal)    S(lipo)     H(rot)  DE(clash)    DE(int)     intcor
     15.67     -18.77       1.96        0.00      89.26       1.44       0.07       3.03       ----

> <Gold.Chemscore.Fitness>
15.6734

> <Gold.Chemscore.DG>
-18.7739

> <Gold.Chemscore.ZeroCoef>
-5.4800

> <Gold.Chemscore.Hbond>
1.9552

> <Gold.Chemscore.Metal>
0.0000

> <Gold.Chemscore.Lipo>
89.2568

> <Gold.Chemscore.Internal_Hbond>
0.0000

> <Gold.Chemscore.DEClash>
0.0659

> <Gold.Chemscore.DEInternal>
3.0347

> <Gold.Chemscore.Rot>
1.4372

> <Gold.Chemscore.Internal.Correction>
   9.000000E+99

> <Gold.Chemscore.Hbond.Weighted>
-6.5302

> <Gold.Chemscore.Metal.Weighted>
-0.0000

> <Gold.Chemscore.Lipo.Weighted>
-10.4430

> <Gold.Chemscore.Internal_Hbond.Weighted>
0.0000

> <Gold.Chemscore.DEClash.Weighted>
0.0659

> <Gold.Chemscore.DEInternal.Weighted>
3.0347

> <Gold.Chemscore.Rot.Weighted>
3.6793

> <Gold.Chemscore.Internal.Correction.Weighted>
   9.000000E+99

> <Gold.Protein.RotatedTorsions>
[ 6907 6896 6895 6894 ] final  158.19 input  -60.11 | X-H torsion
[ 7974 7965 7964 7962 ] final -141.56 input  175.53 | X-H torsion
[ 8008 7997 7996 7995 ] final  153.04 input   59.86 | X-H torsion
[ 10167 10162 10161 10158 ] final -114.74 input  -65.29 | X-H torsion
[ 10718 10713 10712 10709 ] final -139.94 input   66.30 | X-H torsion
[ 10763 10752 10751 10750 ] final -161.74 input  -60.55 | X-H torsion
[ 11005 11000 10999 10996 ] final -110.08 input  -57.11 | X-H torsion

> <Gold.Protein.ActiveResidues>
 VAL166  LYS551  ARG553  GLY616  TRP617  ASP618  TYR619  PRO620  LYS621  CYS622 
 ASP623  PHE694  ASN695  SER759  ASP760  ASP761  ALA762  ILE779  LEU786  VAL792 
 PHE793  MET794  SER795  GLU796  ALA797  LYS798  CYS799  TRP800  GLU811  SER814 

> <Gold.Protein.RotatedAtoms>
  152.0041  133.3836  159.4193 H   0  0  0  0  0  0  0  0  0  0  0  0  # atno 6907 bound_to 6896
  150.6906  134.3802  159.5040 H   0  0  0  0  0  0  0  0  0  0  0  0  # atno 6908 bound_to 6896
  152.1553  134.8955  160.0596 H   0  0  0  0  0  0  0  0  0  0  0  0  # atno 6909 bound_to 6896
  144.8510  140.6065  143.5390 H   0  0  0  0  0  0  0  0  0  0  0  0  # atno 7974 bound_to 7965
  156.2600  140.2004  156.6428 H   0  0  0  0  0  0  0  0  0  0  0  0  # atno 8008 bound_to 7997
  154.6596  140.0562  157.0072 H   0  0  0  0  0  0  0  0  0  0  0  0  # atno 8009 bound_to 7997
  155.1296  140.3232  155.4480 H   0  0  0  0  0  0  0  0  0  0  0  0  # atno 8010 bound_to 7997
  140.0977  143.4642  152.1831 H   0  0  0  0  0  0  0  0  0  0  0  0  # atno 10167 bound_to 10162
  156.3166  130.7511  151.1599 H   0  0  0  0  0  0  0  0  0  0  0  0  # atno 10718 bound_to 10713
  154.7277  135.3039  154.8944 H   0  0  0  0  0  0  0  0  0  0  0  0  # atno 10763 bound_to 10752
  153.9796  135.6732  153.4754 H   0  0  0  0  0  0  0  0  0  0  0  0  # atno 10764 bound_to 10752
  153.0889  135.4969  154.8572 H   0  0  0  0  0  0  0  0  0  0  0  0  # atno 10765 bound_to 10752
  141.0812  133.9217  157.2284 H   0  0  0  0  0  0  0  0  0  0  0  0  # atno 11005 bound_to 11000
  145.4500  139.1525  143.3924 LP  0  0  0  0  0  0  0  0  0  0  0  0  # atno 17320 bound_to 7965
  146.2785  140.4625  142.8786 LP  0  0  0  0  0  0  0  0  0  0  0  0  # atno 17321 bound_to 7965
  139.5689  144.7451  151.3946 LP  0  0  0  0  0  0  0  0  0  0  0  0  # atno 17342 bound_to 10162
  140.6995  143.7667  150.7380 LP  0  0  0  0  0  0  0  0  0  0  0  0  # atno 17343 bound_to 10162
  157.7403  131.0519  150.5177 LP  0  0  0  0  0  0  0  0  0  0  0  0  # atno 17370 bound_to 10713
  156.5323  130.4188  149.6195 LP  0  0  0  0  0  0  0  0  0  0  0  0  # atno 17371 bound_to 10713
  139.9626  135.0150  156.9302 LP  0  0  0  0  0  0  0  0  0  0  0  0  # atno 17394 bound_to 11000
  140.5464  134.0670  155.7356 LP  0  0  0  0  0  0  0  0  0  0  0  0  # atno 17395 bound_to 11000

$$$$
