#       Name:                AV-unprocessed.smi:2191
#       Creating user name   scv26
#       Creation time:       Fri Mar 27 12:10:10 2020


#       File generated by GOLD software.
#

@<TRIPOS>MOLECULE
AV-unprocessed.smi:2191
    41    43     1
SMALL
NO_CHARGES


@<TRIPOS>ATOM
      1 ****        -0.5635  -0.6292   1.0308 O.3            1 S1                 0.0000
      2 ****        -0.1130  -0.3165  -0.2728 C.3            1 S1                 0.0000
      3 ****         1.4227  -0.2547  -0.2552 C.3            1 S1                 0.0000
      4 ****         1.9362  -1.5754  -0.3692 O.3            1 S1                 0.0000
      5 ****         3.3040  -1.7445  -0.3969 C.ar           1 S1                 0.0000
      6 ****         3.7825  -3.0618  -0.5558 C.ar           1 S1                 0.0000
      7 ****         5.1649  -3.3273  -0.5967 C.ar           1 S1                 0.0000
      8 ****         6.0875  -2.2718  -0.4761 C.ar           1 S1                 0.0000
      9 ****         5.6245  -0.9527  -0.3152 C.ar           1 S1                 0.0000
     10 ****         4.2417  -0.6872  -0.2763 C.ar           1 S1                 0.0000
     11 ****        -0.7365   1.0201  -0.7216 C.3            1 S1                 0.0000
     12 ****        -2.2063   0.9830  -0.7491 N.pl3          1 S1                 0.0000
     13 ****        -3.0425   0.5052  -1.7102 C.2            1 S1                 0.0000
     14 ****        -4.3193   0.6917  -1.2754 N.pl3          1 S1                 1.0000
     15 ****        -4.2998   1.2971  -0.0173 C.ar           1 S1                 0.0000
     16 ****        -5.3395   1.6819   0.8238 C.ar           1 S1                 0.0000
     17 ****        -4.9750   2.2741   2.0507 C.ar           1 S1                 0.0000
     18 ****        -3.6226   2.4631   2.4017 C.ar           1 S1                 0.0000
     19 ****        -2.5768   2.0697   1.5411 C.ar           1 S1                 0.0000
     20 ****        -2.9448   1.4865   0.3286 C.ar           1 S1                 0.0000
     21 ****        -0.1882  -1.4593   1.2839 H              1 S1                 0.0000
     22 ****        -0.4400  -1.1025  -0.9550 H              1 S1                 0.0000
     23 ****         1.7712   0.3231  -1.1130 H              1 S1                 0.0000
     24 ****         1.7796   0.2428   0.6486 H              1 S1                 0.0000
     25 ****         3.0813  -3.8782  -0.6491 H              1 S1                 0.0000
     26 ****         5.5168  -4.3409  -0.7206 H              1 S1                 0.0000
     27 ****         7.1482  -2.4734  -0.5071 H              1 S1                 0.0000
     28 ****         6.3314  -0.1414  -0.2220 H              1 S1                 0.0000
     29 ****         3.9265   0.3374  -0.1520 H              1 S1                 0.0000
     30 ****        -0.4038   1.8447  -0.0911 H              1 S1                 0.0000
     31 ****        -0.4072   1.2599  -1.7333 H              1 S1                 0.0000
     32 ****        -2.7466   0.0575  -2.6478 H              1 S1                 0.0000
     33 ****        -6.3765   1.5371   0.5583 H              1 S1                 0.0000
     34 ****        -5.7479   2.5882   2.7372 H              1 S1                 0.0000
     35 ****        -3.3817   2.9181   3.3514 H              1 S1                 0.0000
     36 ****        -1.5449   2.2142   1.8247 H              1 S1                 0.0000
     37 ****        -5.1415   0.4228  -1.8006 H              1 S1                 0.0000
     38 ****        -1.5614  -0.6934   1.0372 LP             1 S1                 0.0000
     39 ****        -0.2712   0.0827   1.6693 LP             1 S1                 0.0000
     40 ****         1.5728  -1.9623  -1.2168 LP             1 S1                 0.0000
     41 ****         1.5892  -2.0964   0.4106 LP             1 S1                 0.0000
@<TRIPOS>BOND
    1    1    2 1     
    2    1   21 1     
    3    2    3 1     
    4    2   11 1     
    5    2   22 1     
    6    3    4 1     
    7    3   23 1     
    8    3   24 1     
    9    4    5 1     
   10    5   10 ar    
   11    5    6 ar    
   12    6    7 ar    
   13    6   25 1     
   14    7    8 ar    
   15    7   26 1     
   16    8    9 ar    
   17    8   27 1     
   18    9   10 ar    
   19    9   28 1     
   20   10   29 1     
   21   11   12 1     
   22   11   30 1     
   23   11   31 1     
   24   12   20 1     
   25   12   13 1     
   26   13   14 2     
   27   13   32 1     
   28   14   15 1     
   29   14   37 1     
   30   15   20 ar    
   31   15   16 ar    
   32   16   17 ar    
   33   16   33 1     
   34   17   18 ar    
   35   17   34 1     
   36   18   19 ar    
   37   18   35 1     
   38   19   20 ar    
   39   19   36 1     
   40    1   38 1     
   41    1   39 1     
   42    4   40 1     
   43    4   41 1     
@<TRIPOS>SUBSTRUCTURE
      1 S1             1
@<TRIPOS>SET
LONE_PAIRS      STATIC     ATOMS    <user>   **** ""
4 38 39 40 41
DONOR_HYDROGENS      STATIC     ATOMS    <user>   **** ""
2 21 37
ATOM$BLUE        STATIC     ATOMS    COLORGROUP SYSTEM
4 38 39 40 41
ATOM$RED        STATIC     ATOMS    COLORGROUP SYSTEM
2 21 37
