#       Name:                AV-unprocessed.smi:3039
#       Creating user name   scv26
#       Creation time:       Fri Mar 27 16:57:10 2020


#       File generated by GOLD software.
#

@<TRIPOS>MOLECULE
AV-unprocessed.smi:3039
    45    46     1
SMALL
NO_CHARGES


@<TRIPOS>ATOM
      1 ****        -1.2798   2.1959   0.7961 O.2            1 S1                 0.0000
      2 ****        -1.7401   1.1897   0.2569 C.2            1 S1                 0.0000
      3 ****        -3.2539   0.9992   0.1611 C.3            1 S1                 0.0000
      4 ****        -3.7353   0.1198   1.2832 C.2            1 S1                 0.0000
      5 ****        -3.9984   0.4781   2.6349 C.2            1 S1                 0.0000
      6 ****        -4.4006  -0.6956   3.2039 C.2            1 S1                 0.0000
      7 ****        -4.3938  -1.6953   2.2866 O.3            1 S1                 0.0000
      8 ****        -3.9696  -1.1651   1.0628 N.2            1 S1                 0.0000
      9 ****        -0.9801   0.2147  -0.2676 N.am           1 S1                 0.0000
     10 ****         0.4828   0.1944  -0.2994 C.3            1 S1                 0.0000
     11 ****         1.0118  -0.4286   1.0148 C.3            1 S1                 0.0000
     12 ****         2.3996   0.0989   1.4234 C.3            1 S1                 0.0000
     13 ****         3.5748  -0.4535   0.6062 C.3            1 S1                 0.0000
     14 ****         3.4553  -0.2324  -0.9089 C.3            1 S1                 0.0000
     15 ****         2.3719  -1.1170  -1.5466 C.3            1 S1                 0.0000
     16 ****         0.9532  -0.5043  -1.6108 C.3            1 S1                 0.0000
     17 ****         0.8360   0.4294  -2.8416 C.3            1 S1                 0.0000
     18 ****        -0.5080   0.7056  -3.1781 O.3            1 S1                 0.0000
     19 ****        -3.7422   1.9732   0.2083 H              1 S1                 0.0000
     20 ****        -3.5087   0.5731  -0.8105 H              1 S1                 0.0000
     21 ****        -3.9017   1.4427   3.1105 H              1 S1                 0.0000
     22 ****        -4.7106  -0.9687   4.2019 H              1 S1                 0.0000
     23 ****        -1.4512  -0.5731  -0.6888 H              1 S1                 0.0000
     24 ****         0.8299   1.2286  -0.3353 H              1 S1                 0.0000
     25 ****         0.3329  -0.1701   1.8289 H              1 S1                 0.0000
     26 ****         1.0016  -1.5180   0.9664 H              1 S1                 0.0000
     27 ****         2.4044   1.1888   1.3826 H              1 S1                 0.0000
     28 ****         2.5709  -0.1536   2.4703 H              1 S1                 0.0000
     29 ****         4.4905   0.0228   0.9584 H              1 S1                 0.0000
     30 ****         3.6983  -1.5170   0.8143 H              1 S1                 0.0000
     31 ****         3.2960   0.8209  -1.1420 H              1 S1                 0.0000
     32 ****         4.4143  -0.4949  -1.3570 H              1 S1                 0.0000
     33 ****         2.6882  -1.3847  -2.5554 H              1 S1                 0.0000
     34 ****         2.3305  -2.0708  -1.0191 H              1 S1                 0.0000
     35 ****         0.2928  -1.3542  -1.7938 H              1 S1                 0.0000
     36 ****         1.3639   1.3676  -2.6693 H              1 S1                 0.0000
     37 ****         1.2917  -0.0306  -3.7188 H              1 S1                 0.0000
     38 ****        -0.5174   1.2826  -3.9267 H              1 S1                 0.0000
     39 ****        -1.8960   2.8884   1.1712 LP             1 S1                 0.0000
     40 ****        -0.2896   2.3209   0.8589 LP             1 S1                 0.0000
     41 ****        -5.3149  -2.0726   2.1906 LP             1 S1                 0.0000
     42 ****        -3.7665  -2.4174   2.5779 LP             1 S1                 0.0000
     43 ****        -3.8647  -1.6563   0.1980 LP             1 S1                 0.0000
     44 ****        -0.9651   1.1473  -2.4061 LP             1 S1                 0.0000
     45 ****        -0.9813  -0.1461  -3.4028 LP             1 S1                 0.0000
@<TRIPOS>BOND
    1    1    2 2     
    2    2    3 1     
    3    2    9 am    
    4    3    4 1     
    5    3   19 1     
    6    3   20 1     
    7    4    8 2     
    8    4    5 1     
    9    5    6 2     
   10    5   21 1     
   11    6    7 1     
   12    6   22 1     
   13    7    8 1     
   14    9   10 1     
   15    9   23 1     
   16   10   16 1     
   17   10   11 1     
   18   10   24 1     
   19   11   12 1     
   20   11   25 1     
   21   11   26 1     
   22   12   13 1     
   23   12   27 1     
   24   12   28 1     
   25   13   14 1     
   26   13   29 1     
   27   13   30 1     
   28   14   15 1     
   29   14   31 1     
   30   14   32 1     
   31   15   16 1     
   32   15   33 1     
   33   15   34 1     
   34   16   17 1     
   35   16   35 1     
   36   17   18 1     
   37   17   36 1     
   38   17   37 1     
   39   18   38 1     
   40    1   39 1     
   41    1   40 1     
   42    7   41 1     
   43    7   42 1     
   44    8   43 1     
   45   18   44 1     
   46   18   45 1     
@<TRIPOS>SUBSTRUCTURE
      1 S1             1
@<TRIPOS>SET
LONE_PAIRS      STATIC     ATOMS    <user>   **** ""
7 39 40 41 42 43 44 45
DONOR_HYDROGENS      STATIC     ATOMS    <user>   **** ""
2 23 38
ATOM$BLUE        STATIC     ATOMS    COLORGROUP SYSTEM
7 39 40 41 42 43 44 45
ATOM$RED        STATIC     ATOMS    COLORGROUP SYSTEM
2 23 38
