AV-unprocessed.smi:1744|AV-procd|sdf|7027|dock2
  -GOLD-   22720 8243D 1   1.00000     0.00000
 Structure written by MMmdl.
 43 44  0  0  0  0  0  0  0  0  3 V2000
  153.2110  142.3015  162.3672 C   0  0  0  0  0  0  0  0  0  0  0  0
  153.5580  141.8339  160.9485 C   0  0  0  0  0  0  0  0  0  0  0  0
  152.7556  142.5094  159.9470 N   0  0  0  0  0  0  0  0  0  0  0  0
  151.8717  141.9529  159.0441 C   0  0  0  0  0  0  0  0  0  0  0  0
  151.3669  142.9955  158.3272 C   0  0  0  0  0  0  0  0  0  0  0  0
  150.4166  142.8743  157.2831 N   0  0  0  0  0  0  0  0  0  0  0  0
  149.8659  141.7435  156.8132 C   0  0  0  0  0  0  0  0  0  0  0  0
  150.1194  140.6097  157.2199 O   0  0  0  0  0  0  0  0  0  0  0  0
  148.9989  141.9994  155.8231 N   0  0  0  0  0  0  0  0  0  0  0  0
  148.2452  140.9913  155.0834 C   0  0  2  0  0  0  0  0  0  0  0  0
  149.1940  140.0847  154.2782 C   0  0  0  0  0  0  0  0  0  0  0  0
  148.4099  139.0927  153.4036 C   0  0  0  0  0  0  0  0  0  0  0  0
  147.4698  139.8023  152.5002 N   0  3  1  0  0  0  0  0  0  0  0  0
  146.8091  138.8851  151.5368 C   0  0  0  0  0  0  0  0  0  0  0  0
  145.9438  137.8566  152.2730 C   0  0  0  0  0  0  0  0  0  0  0  0
  144.6599  137.8747  151.8612 N   0  5  0  0  0  0  0  0  0  0  0  0
  146.4515  137.1396  153.1321 O   0  0  0  0  0  0  0  0  0  0  0  0
  146.5120  140.6479  153.2619 C   0  0  0  0  0  0  0  0  0  0  0  0
  147.2542  141.6777  154.1295 C   0  0  0  0  0  0  0  0  0  0  0  0
  151.9952  144.1636  158.8444 C   0  0  0  0  0  0  0  0  0  0  0  0
  152.8337  143.8576  159.8232 N   0  0  0  0  0  0  0  0  0  0  0  0
  153.8029  141.7642  163.1084 H   0  0  0  0  0  0  0  0  0  0  0  0
  152.1583  142.1282  162.5918 H   0  0  0  0  0  0  0  0  0  0  0  0
  153.4102  143.3662  162.4925 H   0  0  0  0  0  0  0  0  0  0  0  0
  154.6122  142.0154  160.7352 H   0  0  0  0  0  0  0  0  0  0  0  0
  153.3964  140.7594  160.8578 H   0  0  0  0  0  0  0  0  0  0  0  0
  151.6822  140.8908  158.9956 H   0  0  0  0  0  0  0  0  0  0  0  0
  150.1348  143.7373  156.8418 H   0  0  0  0  0  0  0  0  0  0  0  0
  148.8555  142.9623  155.5556 H   0  0  0  0  0  0  0  0  0  0  0  0
  147.6761  140.3784  155.7854 H   0  0  0  0  0  0  0  0  0  0  0  0
  149.8385  140.6937  153.6425 H   0  0  0  0  0  0  0  0  0  0  0  0
  149.8542  139.5361  154.9512 H   0  0  0  0  0  0  0  0  0  0  0  0
  149.1137  138.5043  152.8140 H   0  0  0  0  0  0  0  0  0  0  0  0
  147.8556  138.3922  154.0302 H   0  0  0  0  0  0  0  0  0  0  0  0
  146.1629  139.4454  150.8587 H   0  0  0  0  0  0  0  0  0  0  0  0
  147.5543  138.3866  150.9150 H   0  0  0  0  0  0  0  0  0  0  0  0
  144.1762  138.7762  151.7732 H   0  0  0  0  0  0  0  0  0  0  0  0
  145.8459  141.1752  152.5784 H   0  0  0  0  0  0  0  0  0  0  0  0
  145.8823  140.0137  153.8877 H   0  0  0  0  0  0  0  0  0  0  0  0
  146.5340  142.2669  154.6986 H   0  0  0  0  0  0  0  0  0  0  0  0
  147.7839  142.3781  153.4818 H   0  0  0  0  0  0  0  0  0  0  0  0
  151.8835  145.1984  158.5567 H   0  0  0  0  0  0  0  0  0  0  0  0
  148.0292  140.4256  151.9347 H   0  0  0  0  0  0  0  0  0  0  0  0
  1  2  1  0  0  0  0
  1 22  1  0  0  0  0
  1 23  1  0  0  0  0
  1 24  1  0  0  0  0
  2  3  1  0  0  0  0
  2 25  1  0  0  0  0
  2 26  1  0  0  0  0
  3 21  1  0  0  0  0
  3  4  1  0  0  0  0
  4  5  2  0  0  0  0
  4 27  1  0  0  0  0
  5  6  1  0  0  0  0
  5 20  1  0  0  0  0
  6  7  1  0  0  0  0
  6 28  1  0  0  0  0
  7  8  2  0  0  0  0
  7  9  1  0  0  0  0
  9 10  1  0  0  0  0
  9 29  1  0  0  0  0
 10 19  1  0  0  0  0
 10 11  1  0  0  0  0
 10 30  1  0  0  0  0
 11 12  1  0  0  0  0
 11 31  1  0  0  0  0
 11 32  1  0  0  0  0
 12 13  1  0  0  0  0
 12 33  1  0  0  0  0
 12 34  1  0  0  0  0
 13 14  1  0  0  0  0
 13 18  1  0  0  0  0
 13 43  1  0  0  0  0
 14 15  1  0  0  0  0
 14 35  1  0  0  0  0
 14 36  1  0  0  0  0
 15 16  1  0  0  0  0
 15 17  2  0  0  0  0
 16 37  1  0  0  0  0
 18 19  1  0  0  0  0
 18 38  1  0  0  0  0
 18 39  1  0  0  0  0
 19 40  1  0  0  0  0
 19 41  1  0  0  0  0
 20 21  2  0  0  0  0
 20 42  1  0  0  0  0
M  CHG  1  13   1
M  CHG  1  16  -1
M  END
> <s_m_source_file>
AV-unprocessed.smi

> <i_m_source_file_index>
1744

> <i_lp_mmshare_version>
43012

> <i_f3d_flags>
0

> <s_epik_input>
W0NIM11bQ0gyXW4xW2NIXWMoW2NIXW4xKVtOSF1DKD1PKVtOSF1bQ0hdMltDSDJdW0NIMl1OKFtDSDJdW0NIMl0yKVtDSDJdQyg9TylbTkgyXQ==

> <s_epik_cmdline>
J2VwaWtfcHl0aG9uJywgJy1waCcsICc3LjAnLCAnLXRuJywgJzgnLCAnLW1hJywgJzIwMCcsICctbWV0YWxfYmluZGluZycsICctaW1hZScsICc8aW5maWxlLm1hZT4nLCAnLW9tYWUnLCAnPG91dGZpbGUubWFlPic=

> <r_lp_tautomer_probability>
1

> <r_epik_Ionization_Penalty>
5.72895

> <r_epik_Ionization_Penalty_Charging>
5.7288

> <r_epik_Ionization_Penalty_Neutral>
0.000148676

> <r_epik_State_Penalty>
6.54882

> <r_epik_Charging_Adjusted_Penalty>
12.2776

> <i_epik_Tot_Q>
0

> <i_epik_Tot_abs_Q>
2

> <r_epik_Metal_State_Penalty>
2.51309

> <b_epik_Metal_Only>
1

> <s_lp_Force_Field>
OPLS_2005

> <r_lp_Energy>
12.1226

> <b_lp_Chiralities_Consistent>
1

> <s_lp_Variant>
AV-unprocessed.smi:1744-4

> <Gold.Version>
5.8.1

> <Gold.Id.Protein>
6NUR|6NUR_protein|mol2

> <Gold.PLP.Fitness>
55.0313

> <Gold.PLP.PLP>
-43.9043

> <Gold.PLP.part.hbond>
-4.9201

> <Gold.PLP.part.metal>
0.0000

> <Gold.PLP.part.buried>
-1.7430

> <Gold.PLP.part.nonpolar>
-39.1563

> <Gold.PLP.part.repulsive>
0.3496

> <Gold.PLP.ligand.clash>
0.0000

> <Gold.PLP.ligand.torsion>
0.0491

> <Gold.PLP.Chemscore.Hbond>
3.7280

> <Gold.PLP.Chemscore.CHOScore>
0.0000

> <Gold.PLP.Chemscore.Metal>
0.0000

> <Gold.Chemscore.Hbonds>
donor molecule, donor type, donor heavy atom, donor atom, acceptor molecule, acceptor atom, score
      L1  H     6    28       P1  8028  1.00
      L1  H     9    29       P1  8028  1.00
      L1  H    13    43       P1  7957  0.54
      L1  H    16    37       P1 10175  1.00

> <Gold.PLP.Chemscore.Internal.Correction>
0.0412

> <Gold.Rescore>
     Score         DG    S(hbond)    S(metal)    S(lipo)     H(rot)  DE(clash)    DE(int)     intcor
     21.48     -23.82       3.84        0.00      95.04       2.18       0.59       1.76       ----

> <Gold.Chemscore.Fitness>
21.4789

> <Gold.Chemscore.DG>
-23.8238

> <Gold.Chemscore.ZeroCoef>
-5.4800

> <Gold.Chemscore.Hbond>
3.8362

> <Gold.Chemscore.Metal>
0.0000

> <Gold.Chemscore.Lipo>
95.0437

> <Gold.Chemscore.Internal_Hbond>
0.0000

> <Gold.Chemscore.DEClash>
0.5892

> <Gold.Chemscore.DEInternal>
1.7557

> <Gold.Chemscore.Rot>
2.1833

> <Gold.Chemscore.Internal.Correction>
   9.000000E+99

> <Gold.Chemscore.Hbonds>
donor molecule, donor type, donor heavy atom, donor atom, acceptor molecule, acceptor atom, score
      L1  H     6    28       P1  8028  0.93
      L1  H     9    29       P1  8028  1.00
      L1  H    13    43       P1  7957  0.54
      L1  H    16    37       P1 10175  0.96

> <Gold.Chemscore.Hbond.Weighted>
-12.8128

> <Gold.Chemscore.Metal.Weighted>
-0.0000

> <Gold.Chemscore.Lipo.Weighted>
-11.1201

> <Gold.Chemscore.Internal_Hbond.Weighted>
0.0000

> <Gold.Chemscore.DEClash.Weighted>
0.5892

> <Gold.Chemscore.DEInternal.Weighted>
1.7557

> <Gold.Chemscore.Rot.Weighted>
5.5892

> <Gold.Chemscore.Internal.Correction.Weighted>
   9.000000E+99

> <Gold.Protein.RotatedTorsions>
[ 6907 6896 6895 6894 ] final   99.79 input  -60.11 | X-H torsion
[ 7974 7965 7964 7962 ] final  125.04 input  175.53 | X-H torsion
[ 8008 7997 7996 7995 ] final  142.92 input   59.86 | X-H torsion
[ 10167 10162 10161 10158 ] final   43.25 input  -65.29 | X-H torsion
[ 10718 10713 10712 10709 ] final -152.61 input   66.30 | X-H torsion
[ 10763 10752 10751 10750 ] final  169.66 input  -60.55 | X-H torsion
[ 11005 11000 10999 10996 ] final   11.08 input  -57.11 | X-H torsion

> <Gold.Protein.ActiveResidues>
 VAL166  LYS551  ARG553  GLY616  TRP617  ASP618  TYR619  PRO620  LYS621  CYS622 
 ASP623  PHE694  ASN695  SER759  ASP760  ASP761  ALA762  ILE779  LEU786  VAL792 
 PHE793  MET794  SER795  GLU796  ALA797  LYS798  CYS799  TRP800  GLU811  SER814 

> <Gold.Protein.RotatedAtoms>
  152.5385  134.0375  159.8052 H   0  0  0  0  0  0  0  0  0  0  0  0  # atno 6907 bound_to 6896
  151.0536  133.5595  159.2647 H   0  0  0  0  0  0  0  0  0  0  0  0  # atno 6908 bound_to 6896
  151.2520  135.0633  159.9119 H   0  0  0  0  0  0  0  0  0  0  0  0  # atno 6909 bound_to 6896
  145.0775  139.3682  143.4926 H   0  0  0  0  0  0  0  0  0  0  0  0  # atno 7974 bound_to 7965
  156.2940  140.2276  156.4806 H   0  0  0  0  0  0  0  0  0  0  0  0  # atno 8008 bound_to 7997
  154.7856  140.0457  157.1182 H   0  0  0  0  0  0  0  0  0  0  0  0  # atno 8009 bound_to 7997
  154.9706  140.3066  155.4993 H   0  0  0  0  0  0  0  0  0  0  0  0  # atno 8010 bound_to 7997
  140.3463  144.2407  150.6150 H   0  0  0  0  0  0  0  0  0  0  0  0  # atno 10167 bound_to 10162
  156.4748  130.8275  151.2504 H   0  0  0  0  0  0  0  0  0  0  0  0  # atno 10718 bound_to 10713
  154.3863  135.2753  155.2181 H   0  0  0  0  0  0  0  0  0  0  0  0  # atno 10763 bound_to 10752
  154.4266  135.5987  153.6046 H   0  0  0  0  0  0  0  0  0  0  0  0  # atno 10764 bound_to 10752
  152.9833  135.5985  154.4112 H   0  0  0  0  0  0  0  0  0  0  0  0  # atno 10765 bound_to 10752
  140.5072  134.0687  155.7809 H   0  0  0  0  0  0  0  0  0  0  0  0  # atno 11005 bound_to 11000
  146.3530  140.0550  142.8633 LP  0  0  0  0  0  0  0  0  0  0  0  0  # atno 17320 bound_to 7965
  145.1218  140.9467  143.4596 LP  0  0  0  0  0  0  0  0  0  0  0  0  # atno 17321 bound_to 7965
  140.5262  143.2254  151.8312 LP  0  0  0  0  0  0  0  0  0  0  0  0  # atno 17342 bound_to 10162
  139.4833  144.4777  151.9346 LP  0  0  0  0  0  0  0  0  0  0  0  0  # atno 17343 bound_to 10162
  157.7488  131.0064  150.3151 LP  0  0  0  0  0  0  0  0  0  0  0  0  # atno 17370 bound_to 10713
  156.3582  130.3842  149.7273 LP  0  0  0  0  0  0  0  0  0  0  0  0  # atno 17371 bound_to 10713
  141.1404  133.9147  157.2338 LP  0  0  0  0  0  0  0  0  0  0  0  0  # atno 17394 bound_to 11000
  139.9679  135.0136  156.9436 LP  0  0  0  0  0  0  0  0  0  0  0  0  # atno 17395 bound_to 11000

$$$$
