AV-unprocessed.smi:84|AV-procd|sdf|808|dock8
  -GOLD-   2262017203D 1   1.00000     0.00000
 Structure written by MMmdl.
 51 55  0  0  0  0  0  0  0  0  1 V2000
  151.3335  143.5003  157.3200 O   0  0  0  0  0  0  0  0  0  0  0  0
  150.5522  142.5941  157.0407 C   0  0  0  0  0  0  0  0  0  0  0  0
  150.8305  141.5348  155.9869 C   0  0  0  0  0  0  0  0  0  0  0  0
  149.4411  140.9115  155.7493 C   0  0  1  0  0  0  0  0  0  0  0  0
  148.7032  141.5260  154.5450 C   0  0  0  0  0  0  0  0  0  0  0  0
  147.6942  140.4469  154.1556 C   0  0  0  0  0  0  0  0  0  0  0  0
  148.3557  139.1923  154.4800 N   0  0  0  0  0  0  0  0  0  0  0  0
  147.7255  137.9938  154.3756 C   0  0  0  0  0  0  0  0  0  0  0  0
  147.8367  137.1100  155.4027 N   0  0  0  0  0  0  0  0  0  0  0  0
  147.2375  135.9180  155.3414 C   0  0  0  0  0  0  0  0  0  0  0  0
  146.4815  135.4152  154.3651 N   0  0  0  0  0  0  0  0  0  0  0  0
  146.3484  136.3002  153.3366 C   0  0  0  0  0  0  0  0  0  0  0  0
  146.9340  137.5970  153.2570 C   0  0  0  0  0  0  0  0  0  0  0  0
  146.5746  138.1960  152.0540 N   0  0  0  0  0  0  0  0  0  0  0  0
  145.8364  137.3026  151.4547 C   0  0  0  0  0  0  0  0  0  0  0  0
  145.6243  136.1454  152.1675 N   0  0  0  0  0  0  0  0  0  0  0  0
  144.8883  134.9937  151.7355 C   0  0  0  0  0  0  0  0  0  0  0  0
  145.3602  133.5770  152.0722 C   0  0  0  0  0  0  0  0  0  0  0  0
  144.7720  133.0724  150.7347 C   0  0  0  0  0  0  0  0  0  0  0  0
  145.6390  132.0589  149.9695 C   0  0  0  0  0  0  0  0  0  0  0  0
  146.2199  131.1156  150.8472 O   0  0  0  0  0  0  0  0  0  0  0  0
  143.3238  132.5474  150.8081 C   0  0  0  0  0  0  0  0  0  0  0  0
  142.8479  132.1642  149.5340 O   0  0  0  0  0  0  0  0  0  0  0  0
  144.9145  134.5396  150.2741 C   0  0  0  0  0  0  0  0  0  0  0  0
  149.4599  139.4109  155.4044 C   0  0  0  0  0  0  0  0  0  0  0  0
  148.6872  141.2197  157.0653 C   0  0  0  0  0  0  0  0  0  0  0  0
  149.3614  142.3872  157.6003 N   0  0  0  0  0  0  0  0  0  0  0  0
  151.2714  141.9633  155.0862 H   0  0  0  0  0  0  0  0  0  0  0  0
  151.5299  140.8069  156.4002 H   0  0  0  0  0  0  0  0  0  0  0  0
  148.2339  142.4869  154.7601 H   0  0  0  0  0  0  0  0  0  0  0  0
  149.3963  141.6770  153.7161 H   0  0  0  0  0  0  0  0  0  0  0  0
  146.7806  140.5441  154.7436 H   0  0  0  0  0  0  0  0  0  0  0  0
  147.4327  140.5032  153.0984 H   0  0  0  0  0  0  0  0  0  0  0  0
  147.3837  135.2761  156.1977 H   0  0  0  0  0  0  0  0  0  0  0  0
  145.4182  137.4694  150.4725 H   0  0  0  0  0  0  0  0  0  0  0  0
  143.8623  135.1495  152.0734 H   0  0  0  0  0  0  0  0  0  0  0  0
  146.4484  133.4988  152.1137 H   0  0  0  0  0  0  0  0  0  0  0  0
  144.9064  133.1533  152.9687 H   0  0  0  0  0  0  0  0  0  0  0  0
  145.0408  131.5097  149.2415 H   0  0  0  0  0  0  0  0  0  0  0  0
  146.4297  132.5521  149.4040 H   0  0  0  0  0  0  0  0  0  0  0  0
  147.1089  130.9557  150.5695 H   0  0  0  0  0  0  0  0  0  0  0  0
  143.2510  131.6797  151.4639 H   0  0  0  0  0  0  0  0  0  0  0  0
  142.6487  133.2953  151.2244 H   0  0  0  0  0  0  0  0  0  0  0  0
  142.1076  132.7093  149.3143 H   0  0  0  0  0  0  0  0  0  0  0  0
  144.0869  134.9133  149.6702 H   0  0  0  0  0  0  0  0  0  0  0  0
  145.8726  134.7439  149.7916 H   0  0  0  0  0  0  0  0  0  0  0  0
  150.3868  139.1438  154.8959 H   0  0  0  0  0  0  0  0  0  0  0  0
  149.3772  138.7928  156.2989 H   0  0  0  0  0  0  0  0  0  0  0  0
  147.6231  141.4084  156.9183 H   0  0  0  0  0  0  0  0  0  0  0  0
  148.7860  140.4084  157.7877 H   0  0  0  0  0  0  0  0  0  0  0  0
  148.9646  142.9648  158.3274 H   0  0  0  0  0  0  0  0  0  0  0  0
  1  2  2  0  0  0  0
  2 27  1  0  0  0  0
  2  3  1  0  0  0  0
  3  4  1  0  0  0  0
  3 28  1  0  0  0  0
  3 29  1  0  0  0  0
  4 25  1  0  0  0  0
  4  5  1  0  0  0  0
  4 26  1  0  0  0  0
  5  6  1  0  0  0  0
  5 30  1  0  0  0  0
  5 31  1  0  0  0  0
  6  7  1  0  0  0  0
  6 32  1  0  0  0  0
  6 33  1  0  0  0  0
  7  8  1  0  0  0  0
  7 25  1  0  0  0  0
  8 13  1  0  0  0  0
  8  9  2  0  0  0  0
  9 10  1  0  0  0  0
 10 11  2  0  0  0  0
 10 34  1  0  0  0  0
 11 12  1  0  0  0  0
 12 16  1  0  0  0  0
 12 13  2  0  0  0  0
 13 14  1  0  0  0  0
 14 15  2  0  0  0  0
 15 16  1  0  0  0  0
 15 35  1  0  0  0  0
 16 17  1  0  0  0  0
 17 24  1  0  0  0  0
 17 18  1  0  0  0  0
 17 36  1  0  0  0  0
 18 19  1  0  0  0  0
 18 37  1  0  0  0  0
 18 38  1  0  0  0  0
 19 20  1  0  0  0  0
 19 22  1  0  0  0  0
 19 24  1  0  0  0  0
 20 21  1  0  0  0  0
 20 39  1  0  0  0  0
 20 40  1  0  0  0  0
 21 41  1  0  0  0  0
 22 23  1  0  0  0  0
 22 42  1  0  0  0  0
 22 43  1  0  0  0  0
 23 44  1  0  0  0  0
 24 45  1  0  0  0  0
 24 46  1  0  0  0  0
 25 47  1  0  0  0  0
 25 48  1  0  0  0  0
 26 27  1  0  0  0  0
 26 49  1  0  0  0  0
 26 50  1  0  0  0  0
 27 51  1  0  0  0  0
M  END
> <s_m_source_file>
AV-unprocessed.smi

> <i_m_source_file_index>
84

> <i_lp_mmshare_version>
43012

> <i_f3d_flags>
0

> <s_epik_input>
W0NIMl0xW05IXUMoPU8pW0NIMl1bQ0BdMTJbQ0gyXVtDSDJdTihbQ0gyXTIpYyhuW2NIXW4zKWMoYzM0KW5bY0hdbjRbQ0hdKFtDSDJdNSlbQ0gyXUM1KFtDSDJdW09IXSlbQ0gyXVtPSF0=

> <s_epik_cmdline>
J2VwaWtfcHl0aG9uJywgJy1waCcsICc3LjAnLCAnLXRuJywgJzgnLCAnLW1hJywgJzIwMCcsICctbWV0YWxfYmluZGluZycsICctaW1hZScsICc8aW5maWxlLm1hZT4nLCAnLW9tYWUnLCAnPG91dGZpbGUubWFlPic=

> <r_lp_tautomer_probability>
1

> <r_epik_Ionization_Penalty>
0.00201507

> <r_epik_Ionization_Penalty_Charging>
0

> <r_epik_Ionization_Penalty_Neutral>
0.00201507

> <r_epik_State_Penalty>
0.00133787

> <r_epik_Charging_Adjusted_Penalty>
0.00133787

> <i_epik_Tot_Q>
0

> <i_epik_Tot_abs_Q>
0

> <r_epik_Metal_State_Penalty>
-0

> <b_epik_Metal_Only>
0

> <s_lp_Force_Field>
OPLS_2005

> <r_lp_Energy>
65.4538

> <b_lp_Chiralities_Consistent>
1

> <s_lp_Variant>
AV-unprocessed.smi:84-1

> <Gold.Version>
5.8.1

> <Gold.Id.Protein>
6NUR|6NUR_protein|mol2

> <Gold.PLP.Fitness>
41.8612

> <Gold.PLP.PLP>
-34.1070

> <Gold.PLP.part.hbond>
-4.4375

> <Gold.PLP.part.metal>
0.0000

> <Gold.PLP.part.buried>
1.3086

> <Gold.PLP.part.nonpolar>
-33.5861

> <Gold.PLP.part.repulsive>
1.1144

> <Gold.PLP.ligand.clash>
0.0000

> <Gold.PLP.ligand.torsion>
1.8140

> <Gold.PLP.Chemscore.Hbond>
2.5763

> <Gold.PLP.Chemscore.CHOScore>
1.0000

> <Gold.PLP.Chemscore.Metal>
0.0000

> <Gold.Chemscore.Hbonds>
donor molecule, donor type, donor heavy atom, donor atom, acceptor molecule, acceptor atom, score
      L1  H    21    41       P1 10747  1.00
      L1  H    23    44       P1 10186  0.99
      P1  H 10785 10796       L1    23  0.59
      L1  C    15    35       P1 10171  0.95

> <Gold.PLP.Chemscore.Internal.Correction>
0.6536

> <Gold.Rescore>
     Score         DG    S(hbond)    S(metal)    S(lipo)     H(rot)  DE(clash)    DE(int)     intcor
     11.97     -14.63       2.53        0.00      70.95       2.96       0.75       1.90       ----

> <Gold.Chemscore.Fitness>
11.9736

> <Gold.Chemscore.DG>
-14.6291

> <Gold.Chemscore.ZeroCoef>
-5.4800

> <Gold.Chemscore.Hbond>
2.5263

> <Gold.Chemscore.Metal>
0.0000

> <Gold.Chemscore.Lipo>
70.9538

> <Gold.Chemscore.Internal_Hbond>
0.0000

> <Gold.Chemscore.DEClash>
0.7546

> <Gold.Chemscore.DEInternal>
1.9010

> <Gold.Chemscore.Rot>
2.9649

> <Gold.Chemscore.Internal.Correction>
   9.000000E+99

> <Gold.Chemscore.Hbonds>
donor molecule, donor type, donor heavy atom, donor atom, acceptor molecule, acceptor atom, score
      L1  H    21    41       P1 10747  1.00
      L1  H    23    44       P1 10186  0.89
      P1  H 10785 10796       L1    23  0.58

> <Gold.Chemscore.Hbond.Weighted>
-8.4377

> <Gold.Chemscore.Metal.Weighted>
-0.0000

> <Gold.Chemscore.Lipo.Weighted>
-8.3016

> <Gold.Chemscore.Internal_Hbond.Weighted>
0.0000

> <Gold.Chemscore.DEClash.Weighted>
0.7546

> <Gold.Chemscore.DEInternal.Weighted>
1.9010

> <Gold.Chemscore.Rot.Weighted>
7.5902

> <Gold.Chemscore.Internal.Correction.Weighted>
   9.000000E+99

> <Gold.Protein.RotatedTorsions>
[ 6907 6896 6895 6894 ] final  160.61 input  -60.11 | X-H torsion
[ 7974 7965 7964 7962 ] final   72.05 input  175.53 | X-H torsion
[ 8008 7997 7996 7995 ] final  140.48 input   59.86 | X-H torsion
[ 10167 10162 10161 10158 ] final  -21.59 input  -65.29 | X-H torsion
[ 10718 10713 10712 10709 ] final  -46.06 input   66.30 | X-H torsion
[ 10763 10752 10751 10750 ] final   52.47 input  -60.55 | X-H torsion
[ 11005 11000 10999 10996 ] final  -34.49 input  -57.11 | X-H torsion

> <Gold.Protein.ActiveResidues>
 VAL166  LYS551  ARG553  GLY616  TRP617  ASP618  TYR619  PRO620  LYS621  CYS622 
 ASP623  PHE694  ASN695  SER759  ASP760  ASP761  ALA762  ILE779  LEU786  VAL792 
 PHE793  MET794  SER795  GLU796  ALA797  LYS798  CYS799  TRP800  GLU811  SER814 

> <Gold.Protein.RotatedAtoms>
  151.9680  133.3716  159.4060 H   0  0  0  0  0  0  0  0  0  0  0  0  # atno 6907 bound_to 6896
  150.6953  134.4170  159.5197 H   0  0  0  0  0  0  0  0  0  0  0  0  # atno 6908 bound_to 6896
  152.1870  134.8705  160.0572 H   0  0  0  0  0  0  0  0  0  0  0  0  # atno 6909 bound_to 6896
  145.7582  139.2789  143.1392 H   0  0  0  0  0  0  0  0  0  0  0  0  # atno 7974 bound_to 7965
  156.2978  140.2340  156.4407 H   0  0  0  0  0  0  0  0  0  0  0  0  # atno 8008 bound_to 7997
  154.8188  140.0439  157.1416 H   0  0  0  0  0  0  0  0  0  0  0  0  # atno 8009 bound_to 7997
  154.9339  140.3020  155.5158 H   0  0  0  0  0  0  0  0  0  0  0  0  # atno 8010 bound_to 7997
  140.7282  143.4614  151.0375 H   0  0  0  0  0  0  0  0  0  0  0  0  # atno 10167 bound_to 10162
  156.2221  130.4167  149.8980 H   0  0  0  0  0  0  0  0  0  0  0  0  # atno 10718 bound_to 10713
  152.9789  135.5811  154.4584 H   0  0  0  0  0  0  0  0  0  0  0  0  # atno 10763 bound_to 10752
  154.4164  135.2771  155.2006 H   0  0  0  0  0  0  0  0  0  0  0  0  # atno 10764 bound_to 10752
  154.3774  135.6154  153.5826 H   0  0  0  0  0  0  0  0  0  0  0  0  # atno 10765 bound_to 10752
  140.9720  133.7104  156.1539 H   0  0  0  0  0  0  0  0  0  0  0  0  # atno 11005 bound_to 11000
  146.0290  140.8276  142.9885 LP  0  0  0  0  0  0  0  0  0  0  0  0  # atno 17320 bound_to 7965
  144.6836  140.2741  143.7301 LP  0  0  0  0  0  0  0  0  0  0  0  0  # atno 17321 bound_to 7965
  139.8299  143.7706  152.3179 LP  0  0  0  0  0  0  0  0  0  0  0  0  # atno 17342 bound_to 10162
  139.7817  144.7442  151.0078 LP  0  0  0  0  0  0  0  0  0  0  0  0  # atno 17343 bound_to 10162
  156.6623  130.8787  151.3549 LP  0  0  0  0  0  0  0  0  0  0  0  0  # atno 17370 bound_to 10713
  157.7092  130.9421  150.1033 LP  0  0  0  0  0  0  0  0  0  0  0  0  # atno 17371 bound_to 10713
  140.7315  134.4250  157.5565 LP  0  0  0  0  0  0  0  0  0  0  0  0  # atno 17394 bound_to 11000
  139.8916  134.8776  156.2313 LP  0  0  0  0  0  0  0  0  0  0  0  0  # atno 17395 bound_to 11000

$$$$
