AV-unprocessed.smi:2263|AV-procd|sdf|9140|dock8
  -GOLD-   2272012343D 1   1.00000     0.00000
 Structure written by MMmdl.
 40 41  0  0  0  0  0  0  0  0  1 V2000
  150.5582  133.2831  153.7370 C   0  0  0  0  0  0  0  0  0  0  0  0
  150.7215  134.4530  154.7017 C   0  0  0  0  0  0  0  0  0  0  0  0
  151.0903  134.2523  155.8584 O   0  0  0  0  0  0  0  0  0  0  0  0
  150.4407  135.6703  154.2131 N   0  0  0  0  0  0  0  0  0  0  0  0
  150.5214  136.9139  154.9705 C   0  0  0  0  0  0  0  0  0  0  0  0
  150.5700  138.1377  154.0418 C   0  0  0  0  0  0  0  0  0  0  0  0
  150.5650  139.4251  154.7952 C   0  0  0  0  0  0  0  0  0  0  0  0
  151.4175  139.7041  155.7848 N   0  0  0  0  0  0  0  0  0  0  0  0
  151.1883  140.9604  156.3548 C   0  0  0  0  0  0  0  0  0  0  0  0
  152.0601  141.4458  157.4730 C   0  0  0  0  0  0  0  0  0  0  0  0
  151.6130  142.8157  158.0079 C   0  0  0  0  0  0  0  0  0  0  0  0
  152.3597  143.2440  159.2840 C   0  0  0  0  0  0  0  0  0  0  0  0
  152.7563  142.0685  160.1825 C   0  0  0  0  0  0  0  0  0  0  0  0
  152.9524  142.6640  161.5830 C   0  0  0  0  0  0  0  0  0  0  0  0
  152.2701  144.0400  161.5696 C   0  0  0  0  0  0  0  0  0  0  0  0
  151.5487  144.1406  160.2235 C   0  0  0  0  0  0  0  0  0  0  0  0
  150.1348  141.6295  155.7833 C   0  0  0  0  0  0  0  0  0  0  0  0
  149.3880  140.7018  154.5120 S   0  0  0  0  0  0  0  0  0  0  0  0
  149.5474  133.2633  153.3284 H   0  0  0  0  0  0  0  0  0  0  0  0
  150.7390  132.3345  154.2439 H   0  0  0  0  0  0  0  0  0  0  0  0
  151.2645  133.3689  152.9109 H   0  0  0  0  0  0  0  0  0  0  0  0
  150.1456  135.7401  153.2500 H   0  0  0  0  0  0  0  0  0  0  0  0
  149.6779  136.9886  155.6590 H   0  0  0  0  0  0  0  0  0  0  0  0
  151.4213  136.8785  155.5855 H   0  0  0  0  0  0  0  0  0  0  0  0
  151.4628  138.1007  153.4162 H   0  0  0  0  0  0  0  0  0  0  0  0
  149.7150  138.1342  153.3649 H   0  0  0  0  0  0  0  0  0  0  0  0
  152.0540  140.7205  158.2875 H   0  0  0  0  0  0  0  0  0  0  0  0
  153.0946  141.5032  157.1333 H   0  0  0  0  0  0  0  0  0  0  0  0
  151.7393  143.5738  157.2335 H   0  0  0  0  0  0  0  0  0  0  0  0
  150.5443  142.7761  158.2232 H   0  0  0  0  0  0  0  0  0  0  0  0
  153.2714  143.7744  159.0033 H   0  0  0  0  0  0  0  0  0  0  0  0
  151.9481  141.3363  160.2141 H   0  0  0  0  0  0  0  0  0  0  0  0
  153.6482  141.5549  159.8222 H   0  0  0  0  0  0  0  0  0  0  0  0
  152.5218  142.0116  162.3438 H   0  0  0  0  0  0  0  0  0  0  0  0
  154.0133  142.7742  161.8117 H   0  0  0  0  0  0  0  0  0  0  0  0
  151.5857  144.1712  162.4082 H   0  0  0  0  0  0  0  0  0  0  0  0
  153.0267  144.8225  161.6403 H   0  0  0  0  0  0  0  0  0  0  0  0
  151.4785  145.1693  159.8690 H   0  0  0  0  0  0  0  0  0  0  0  0
  150.5334  143.7544  160.3240 H   0  0  0  0  0  0  0  0  0  0  0  0
  149.7524  142.6076  156.0342 H   0  0  0  0  0  0  0  0  0  0  0  0
  1  2  1  0  0  0  0
  1 19  1  0  0  0  0
  1 20  1  0  0  0  0
  1 21  1  0  0  0  0
  2  3  2  0  0  0  0
  2  4  1  0  0  0  0
  4  5  1  0  0  0  0
  4 22  1  0  0  0  0
  5  6  1  0  0  0  0
  5 23  1  0  0  0  0
  5 24  1  0  0  0  0
  6  7  1  0  0  0  0
  6 25  1  0  0  0  0
  6 26  1  0  0  0  0
  7 18  1  0  0  0  0
  7  8  2  0  0  0  0
  8  9  1  0  0  0  0
  9 10  1  0  0  0  0
  9 17  2  0  0  0  0
 10 11  1  0  0  0  0
 10 27  1  0  0  0  0
 10 28  1  0  0  0  0
 11 12  1  0  0  0  0
 11 29  1  0  0  0  0
 11 30  1  0  0  0  0
 12 16  1  0  0  0  0
 12 13  1  0  0  0  0
 12 31  1  0  0  0  0
 13 14  1  0  0  0  0
 13 32  1  0  0  0  0
 13 33  1  0  0  0  0
 14 15  1  0  0  0  0
 14 34  1  0  0  0  0
 14 35  1  0  0  0  0
 15 16  1  0  0  0  0
 15 36  1  0  0  0  0
 15 37  1  0  0  0  0
 16 38  1  0  0  0  0
 16 39  1  0  0  0  0
 17 18  1  0  0  0  0
 17 40  1  0  0  0  0
M  END
> <s_m_source_file>
AV-unprocessed.smi

> <i_m_source_file_index>
2263

> <i_lp_mmshare_version>
43012

> <i_f3d_flags>
0

> <s_epik_input>
W0NIM11DKD1PKVtOSF1bQ0gyXVtDSDJdYzFuYyhbY0hdczEpW0NIMl1bQ0gyXVtDSF0yW0NIMl1bQ0gyXVtDSDJdW0NIMl0y

> <s_epik_cmdline>
J2VwaWtfcHl0aG9uJywgJy1waCcsICc3LjAnLCAnLXRuJywgJzgnLCAnLW1hJywgJzIwMCcsICctbWV0YWxfYmluZGluZycsICctaW1hZScsICc8aW5maWxlLm1hZT4nLCAnLW9tYWUnLCAnPG91dGZpbGUubWFlPic=

> <r_epik_Ionization_Penalty>
0.00116713

> <r_epik_Ionization_Penalty_Charging>
0

> <r_epik_Ionization_Penalty_Neutral>
0.00116713

> <r_epik_State_Penalty>
0.000768465

> <r_epik_Charging_Adjusted_Penalty>
0.000768465

> <i_epik_Tot_Q>
0

> <i_epik_Tot_abs_Q>
0

> <r_epik_Metal_State_Penalty>
-0

> <b_epik_Metal_Only>
0

> <s_lp_Force_Field>
OPLS_2005

> <r_lp_Energy>
10.4461

> <b_lp_Chiralities_Consistent>
1

> <s_lp_Variant>
AV-unprocessed.smi:2263-1

> <Gold.Version>
5.8.1

> <Gold.Id.Protein>
6NUR|6NUR_protein|mol2

> <Gold.PLP.Fitness>
48.1833

> <Gold.PLP.PLP>
-43.2028

> <Gold.PLP.part.hbond>
-1.2324

> <Gold.PLP.part.metal>
0.0000

> <Gold.PLP.part.buried>
-3.7650

> <Gold.PLP.part.nonpolar>
-38.0687

> <Gold.PLP.part.repulsive>
0.0514

> <Gold.PLP.ligand.clash>
0.0000

> <Gold.PLP.ligand.torsion>
0.5423

> <Gold.PLP.Chemscore.Hbond>
1.0000

> <Gold.PLP.Chemscore.CHOScore>
1.0000

> <Gold.PLP.Chemscore.Metal>
0.0000

> <Gold.Chemscore.Hbonds>
donor molecule, donor type, donor heavy atom, donor atom, acceptor molecule, acceptor atom, score
      L1  C    17    40       P1  8028  1.00

> <Gold.PLP.Chemscore.Internal.Correction>
0.0652

> <Gold.Rescore>
     Score         DG    S(hbond)    S(metal)    S(lipo)     H(rot)  DE(clash)    DE(int)     intcor
     16.63     -17.77       0.95        0.00     117.39       1.80       0.32       0.83       ----

> <Gold.Chemscore.Fitness>
16.6263

> <Gold.Chemscore.DG>
-17.7729

> <Gold.Chemscore.ZeroCoef>
-5.4800

> <Gold.Chemscore.Hbond>
0.9460

> <Gold.Chemscore.Metal>
0.0000

> <Gold.Chemscore.Lipo>
117.3856

> <Gold.Chemscore.Internal_Hbond>
0.0000

> <Gold.Chemscore.DEClash>
0.3208

> <Gold.Chemscore.DEInternal>
0.8258

> <Gold.Chemscore.Rot>
1.7972

> <Gold.Chemscore.Internal.Correction>
   9.000000E+99

> <Gold.Chemscore.Hbond.Weighted>
-3.1596

> <Gold.Chemscore.Metal.Weighted>
-0.0000

> <Gold.Chemscore.Lipo.Weighted>
-13.7341

> <Gold.Chemscore.Internal_Hbond.Weighted>
0.0000

> <Gold.Chemscore.DEClash.Weighted>
0.3208

> <Gold.Chemscore.DEInternal.Weighted>
0.8258

> <Gold.Chemscore.Rot.Weighted>
4.6008

> <Gold.Chemscore.Internal.Correction.Weighted>
   9.000000E+99

> <Gold.Protein.RotatedTorsions>
[ 6907 6896 6895 6894 ] final  -93.97 input  -60.11 | X-H torsion
[ 7974 7965 7964 7962 ] final   91.44 input  175.53 | X-H torsion
[ 8008 7997 7996 7995 ] final  115.20 input   59.86 | X-H torsion
[ 10167 10162 10161 10158 ] final -157.07 input  -65.29 | X-H torsion
[ 10718 10713 10712 10709 ] final  -98.16 input   66.30 | X-H torsion
[ 10763 10752 10751 10750 ] final  -70.02 input  -60.55 | X-H torsion
[ 11005 11000 10999 10996 ] final  139.81 input  -57.11 | X-H torsion

> <Gold.Protein.ActiveResidues>
 VAL166  LYS551  ARG553  GLY616  TRP617  ASP618  TYR619  PRO620  LYS621  CYS622 
 ASP623  PHE694  ASN695  SER759  ASP760  ASP761  ALA762  ILE779  LEU786  VAL792 
 PHE793  MET794  SER795  GLU796  ALA797  LYS798  CYS799  TRP800  GLU811  SER814 

> <Gold.Protein.RotatedAtoms>
  150.6932  134.1885  159.4275 H   0  0  0  0  0  0  0  0  0  0  0  0  # atno 6907 bound_to 6896
  151.9856  135.0003  160.0568 H   0  0  0  0  0  0  0  0  0  0  0  0  # atno 6908 bound_to 6896
  152.1715  133.4611  159.4948 H   0  0  0  0  0  0  0  0  0  0  0  0  # atno 6909 bound_to 6896
  145.5056  139.2276  143.2753 H   0  0  0  0  0  0  0  0  0  0  0  0  # atno 7974 bound_to 7965
  156.2367  140.2943  156.0332 H   0  0  0  0  0  0  0  0  0  0  0  0  # atno 8008 bound_to 7997
  155.2070  140.0411  157.2944 H   0  0  0  0  0  0  0  0  0  0  0  0  # atno 8009 bound_to 7997
  154.6092  140.2447  155.7698 H   0  0  0  0  0  0  0  0  0  0  0  0  # atno 8010 bound_to 7997
  139.6800  143.9598  152.2331 H   0  0  0  0  0  0  0  0  0  0  0  0  # atno 10167 bound_to 10162
  156.0101  130.5226  150.6482 H   0  0  0  0  0  0  0  0  0  0  0  0  # atno 10718 bound_to 10713
  154.4118  135.6007  153.5957 H   0  0  0  0  0  0  0  0  0  0  0  0  # atno 10763 bound_to 10752
  152.9790  135.5931  154.4061 H   0  0  0  0  0  0  0  0  0  0  0  0  # atno 10764 bound_to 10752
  154.3874  135.2841  155.2153 H   0  0  0  0  0  0  0  0  0  0  0  0  # atno 10765 bound_to 10752
  140.0282  134.9365  157.0610 H   0  0  0  0  0  0  0  0  0  0  0  0  # atno 11005 bound_to 11000
  146.2198  140.5860  142.9022 LP  0  0  0  0  0  0  0  0  0  0  0  0  # atno 17320 bound_to 7965
  144.7755  140.5731  143.6641 LP  0  0  0  0  0  0  0  0  0  0  0  0  # atno 17321 bound_to 7965
  139.9385  144.6696  150.8290 LP  0  0  0  0  0  0  0  0  0  0  0  0  # atno 17342 bound_to 10162
  140.7649  143.3260  151.2514 LP  0  0  0  0  0  0  0  0  0  0  0  0  # atno 17343 bound_to 10162
  157.4249  131.0841  151.1095 LP  0  0  0  0  0  0  0  0  0  0  0  0  # atno 17370 bound_to 10713
  157.1686  130.6257  149.5633 LP  0  0  0  0  0  0  0  0  0  0  0  0  # atno 17371 bound_to 10713
  140.4271  134.1819  155.7166 LP  0  0  0  0  0  0  0  0  0  0  0  0  # atno 17394 bound_to 11000
  141.1815  133.8404  157.1240 LP  0  0  0  0  0  0  0  0  0  0  0  0  # atno 17395 bound_to 11000

$$$$
