AV-unprocessed.smi:2605|AV-procd|sdf|10193|dock2
  -GOLD-   2272014203D 1   1.00000     0.00000
 Structure written by MMmdl.
 26 27  0  0  0  0  0  0  0  0  2 V2000
  152.4802  143.7778  162.1792 C   0  0  0  0  0  0  0  0  0  0  0  0
  152.1589  143.6575  160.8122 C   0  0  0  0  0  0  0  0  0  0  0  0
  152.6473  142.5424  160.1000 C   0  0  0  0  0  0  0  0  0  0  0  0
  152.3179  142.3691  158.6258 C   0  0  2  0  0  0  0  0  0  0  0  0
  151.2833  143.4168  158.1557 C   0  0  0  0  0  0  0  0  0  0  0  0
  151.0058  143.2596  156.7131 N   0  3  0  0  0  0  0  0  0  0  0  0
  150.5721  141.8833  156.4013 C   0  0  0  0  0  0  0  0  0  0  0  0
  151.6248  140.8750  156.8961 C   0  0  0  0  0  0  0  0  0  0  0  0
  151.8144  141.0267  158.3352 N   0  0  0  0  0  0  0  0  0  0  0  0
  153.4312  141.5946  160.7937 C   0  0  0  0  0  0  0  0  0  0  0  0
  153.6946  141.8092  162.1613 C   0  0  0  0  0  0  0  0  0  0  0  0
  153.2317  142.8763  162.8464 N   0  0  0  0  0  0  0  0  0  0  0  0
  152.1231  144.6210  162.7519 H   0  0  0  0  0  0  0  0  0  0  0  0
  151.5523  144.4081  160.3269 H   0  0  0  0  0  0  0  0  0  0  0  0
  153.2443  142.5070  158.0654 H   0  0  0  0  0  0  0  0  0  0  0  0
  150.3508  143.3208  158.7144 H   0  0  0  0  0  0  0  0  0  0  0  0
  151.6573  144.4260  158.3307 H   0  0  0  0  0  0  0  0  0  0  0  0
  150.2863  143.9116  156.4352 H   0  0  0  0  0  0  0  0  0  0  0  0
  149.6053  141.6901  156.8687 H   0  0  0  0  0  0  0  0  0  0  0  0
  150.4322  141.7889  155.3242 H   0  0  0  0  0  0  0  0  0  0  0  0
  151.2941  139.8569  156.6892 H   0  0  0  0  0  0  0  0  0  0  0  0
  152.5742  141.0147  156.3770 H   0  0  0  0  0  0  0  0  0  0  0  0
  152.4746  140.3387  158.6707 H   0  0  0  0  0  0  0  0  0  0  0  0
  153.8247  140.7219  160.2934 H   0  0  0  0  0  0  0  0  0  0  0  0
  154.2923  141.1040  162.7195 H   0  0  0  0  0  0  0  0  0  0  0  0
  151.8508  143.4574  156.1966 H   0  0  0  0  0  0  0  0  0  0  0  0
  1 12  1  0  0  0  0
  1  2  2  0  0  0  0
  1 13  1  0  0  0  0
  2  3  1  0  0  0  0
  2 14  1  0  0  0  0
  3  4  1  0  0  0  0
  3 10  2  0  0  0  0
  4  9  1  0  0  0  0
  4  5  1  0  0  0  0
  4 15  1  0  0  0  0
  5  6  1  0  0  0  0
  5 16  1  0  0  0  0
  5 17  1  0  0  0  0
  6  7  1  0  0  0  0
  6 18  1  0  0  0  0
  6 26  1  0  0  0  0
  7  8  1  0  0  0  0
  7 19  1  0  0  0  0
  7 20  1  0  0  0  0
  8  9  1  0  0  0  0
  8 21  1  0  0  0  0
  8 22  1  0  0  0  0
  9 23  1  0  0  0  0
 10 11  1  0  0  0  0
 10 24  1  0  0  0  0
 11 12  2  0  0  0  0
 11 25  1  0  0  0  0
M  CHG  1   6   1
M  END
> <s_m_source_file>
AV-unprocessed.smi

> <i_m_source_file_index>
2605

> <i_lp_mmshare_version>
43012

> <i_f3d_flags>
0

> <s_epik_input>
W2NIXTFbY0hdbltjSF1bY0hdYzFbQ0BASF0yW0NIMl1bTkhdW0NIMl1bQ0gyXVtOSF0y

> <s_epik_cmdline>
J2VwaWtfcHl0aG9uJywgJy1waCcsICc3LjAnLCAnLXRuJywgJzgnLCAnLW1hJywgJzIwMCcsICctbWV0YWxfYmluZGluZycsICctaW1hZScsICc8aW5maWxlLm1hZT4nLCAnLW9tYWUnLCAnPG91dGZpbGUubWFlPic=

> <r_epik_Ionization_Penalty>
0.0197506

> <r_epik_Ionization_Penalty_Charging>
0.010317

> <r_epik_Ionization_Penalty_Neutral>
0.00943359

> <r_epik_State_Penalty>
0.319455

> <r_epik_Charging_Adjusted_Penalty>
0.329772

> <i_epik_Tot_Q>
1

> <i_epik_Tot_abs_Q>
1

> <r_epik_Metal_State_Penalty>
0.318246

> <b_epik_Metal_Only>
0

> <s_lp_Force_Field>
OPLS_2005

> <r_lp_Energy>
9.79217

> <b_lp_Chiralities_Consistent>
1

> <s_lp_Variant>
AV-unprocessed.smi:2605-1

> <Gold.Version>
5.8.1

> <Gold.Id.Protein>
6NUR|6NUR_protein|mol2

> <Gold.PLP.Fitness>
36.6142

> <Gold.PLP.PLP>
-30.9419

> <Gold.PLP.part.hbond>
-1.0000

> <Gold.PLP.part.metal>
0.0000

> <Gold.PLP.part.buried>
-4.1352

> <Gold.PLP.part.nonpolar>
-26.1041

> <Gold.PLP.part.repulsive>
0.1494

> <Gold.PLP.ligand.clash>
0.0000

> <Gold.PLP.ligand.torsion>
0.1675

> <Gold.PLP.Chemscore.Hbond>
2.0000

> <Gold.PLP.Chemscore.CHOScore>
0.0000

> <Gold.PLP.Chemscore.Metal>
0.0000

> <Gold.Chemscore.Hbonds>
donor molecule, donor type, donor heavy atom, donor atom, acceptor molecule, acceptor atom, score
      L1  H     6    18       P1  8028  2.00

> <Gold.PLP.Chemscore.Internal.Correction>
0.0074

> <Gold.Rescore>
     Score         DG    S(hbond)    S(metal)    S(lipo)     H(rot)  DE(clash)    DE(int)     intcor
     16.98     -17.05       1.00        0.00      92.24       1.00       0.03       0.05       ----

> <Gold.Chemscore.Fitness>
16.9754

> <Gold.Chemscore.DG>
-17.0473

> <Gold.Chemscore.ZeroCoef>
-5.4800

> <Gold.Chemscore.Hbond>
0.9986

> <Gold.Chemscore.Metal>
0.0000

> <Gold.Chemscore.Lipo>
92.2402

> <Gold.Chemscore.Internal_Hbond>
0.0000

> <Gold.Chemscore.DEClash>
0.0252

> <Gold.Chemscore.DEInternal>
0.0466

> <Gold.Chemscore.Rot>
1.0000

> <Gold.Chemscore.Internal.Correction>
   9.000000E+99

> <Gold.Chemscore.Hbonds>
donor molecule, donor type, donor heavy atom, donor atom, acceptor molecule, acceptor atom, score
      L1  H     6    18       P1  8028  1.00

> <Gold.Chemscore.Hbond.Weighted>
-3.3352

> <Gold.Chemscore.Metal.Weighted>
-0.0000

> <Gold.Chemscore.Lipo.Weighted>
-10.7921

> <Gold.Chemscore.Internal_Hbond.Weighted>
0.0000

> <Gold.Chemscore.DEClash.Weighted>
0.0252

> <Gold.Chemscore.DEInternal.Weighted>
0.0466

> <Gold.Chemscore.Rot.Weighted>
2.5600

> <Gold.Chemscore.Internal.Correction.Weighted>
   9.000000E+99

> <Gold.Protein.RotatedTorsions>
[ 6907 6896 6895 6894 ] final  -30.93 input  -60.11 | X-H torsion
[ 7974 7965 7964 7962 ] final   92.97 input  175.53 | X-H torsion
[ 8008 7997 7996 7995 ] final   12.01 input   59.86 | X-H torsion
[ 10167 10162 10161 10158 ] final -132.99 input  -65.29 | X-H torsion
[ 10718 10713 10712 10709 ] final   49.66 input   66.30 | X-H torsion
[ 10763 10752 10751 10750 ] final  -43.23 input  -60.55 | X-H torsion
[ 11005 11000 10999 10996 ] final -175.64 input  -57.11 | X-H torsion

> <Gold.Protein.ActiveResidues>
 VAL166  LYS551  ARG553  GLY616  TRP617  ASP618  TYR619  PRO620  LYS621  CYS622 
 ASP623  PHE694  ASN695  SER759  ASP760  ASP761  ALA762  ILE779  LEU786  VAL792 
 PHE793  MET794  SER795  GLU796  ALA797  LYS798  CYS799  TRP800  GLU811  SER814 

> <Gold.Protein.RotatedAtoms>
  151.0989  134.9961  159.8438 H   0  0  0  0  0  0  0  0  0  0  0  0  # atno 6907 bound_to 6896
  152.5435  134.1974  159.8708 H   0  0  0  0  0  0  0  0  0  0  0  0  # atno 6908 bound_to 6896
  151.2016  133.4563  159.2629 H   0  0  0  0  0  0  0  0  0  0  0  0  # atno 6909 bound_to 6896
  145.4852  139.2277  143.2860 H   0  0  0  0  0  0  0  0  0  0  0  0  # atno 7974 bound_to 7965
  154.8147  140.2874  155.5828 H   0  0  0  0  0  0  0  0  0  0  0  0  # atno 8008 bound_to 7997
  156.2992  140.2561  156.2972 H   0  0  0  0  0  0  0  0  0  0  0  0  # atno 8009 bound_to 7997
  154.9407  140.0381  157.2084 H   0  0  0  0  0  0  0  0  0  0  0  0  # atno 8010 bound_to 7997
  139.9029  143.6586  152.2591 H   0  0  0  0  0  0  0  0  0  0  0  0  # atno 10167 bound_to 10162
  157.4808  130.8314  149.8091 H   0  0  0  0  0  0  0  0  0  0  0  0  # atno 10718 bound_to 10713
  153.9921  135.6704  153.4754 H   0  0  0  0  0  0  0  0  0  0  0  0  # atno 10763 bound_to 10752
  153.0700  135.4979  154.8281 H   0  0  0  0  0  0  0  0  0  0  0  0  # atno 10764 bound_to 10752
  154.7103  135.3096  154.9170 H   0  0  0  0  0  0  0  0  0  0  0  0  # atno 10765 bound_to 10752
  140.4610  134.6254  157.4842 H   0  0  0  0  0  0  0  0  0  0  0  0  # atno 11005 bound_to 11000
  146.2317  140.5642  142.8972 LP  0  0  0  0  0  0  0  0  0  0  0  0  # atno 17320 bound_to 7965
  144.7865  140.5947  143.6570 LP  0  0  0  0  0  0  0  0  0  0  0  0  # atno 17321 bound_to 7965
  139.7009  144.7635  151.1274 LP  0  0  0  0  0  0  0  0  0  0  0  0  # atno 17342 bound_to 10162
  140.7703  143.5459  150.9259 LP  0  0  0  0  0  0  0  0  0  0  0  0  # atno 17343 bound_to 10162
  156.0121  130.3829  150.2231 LP  0  0  0  0  0  0  0  0  0  0  0  0  # atno 17370 bound_to 10713
  157.0417  131.0037  151.3281 LP  0  0  0  0  0  0  0  0  0  0  0  0  # atno 17371 bound_to 10713
  139.9945  134.6933  155.9633 LP  0  0  0  0  0  0  0  0  0  0  0  0  # atno 17394 bound_to 11000
  141.1621  133.6538  156.4354 LP  0  0  0  0  0  0  0  0  0  0  0  0  # atno 17395 bound_to 11000

$$$$
