AV-unprocessed.smi:2447|AV-procd|sdf|9650|dock7
  -GOLD-   2272013283D 1   1.00000     0.00000
 Structure written by MMmdl.
 29 30  0  0  0  0  0  0  0  0  2 V2000
  150.1760  137.9128  153.8947 N   0  0  0  0  0  0  0  0  0  0  0  0
  151.4028  137.8024  154.4028 C   0  0  0  0  0  0  0  0  0  0  0  0
  151.8777  136.6738  154.5269 O   0  0  0  0  0  0  0  0  0  0  0  0
  151.9744  138.9907  154.7223 N   0  5  0  0  0  0  0  0  0  0  0  0
  151.3982  139.9410  155.4870 C   0  0  0  0  0  0  0  0  0  0  0  0
  150.1233  140.3253  155.1656 N   0  0  0  0  0  0  0  0  0  0  0  0
  149.8978  141.2381  156.0982 C   0  0  0  0  0  0  0  0  0  0  0  0
  150.9209  141.4185  156.9287 N   0  0  0  0  0  0  0  0  0  0  0  0
  151.0649  142.3145  158.0655 C   0  0  0  0  0  0  0  0  0  0  0  0
  150.6914  143.7647  157.6939 C   0  0  0  0  0  0  0  0  0  0  0  0
  150.8352  144.7043  158.9022 C   0  0  0  0  0  0  0  0  0  0  0  0
  152.2514  144.6337  159.4963 C   0  0  0  0  0  0  0  0  0  0  0  0
  152.6290  143.1906  159.8681 C   0  0  0  0  0  0  0  0  0  0  0  0
  152.4867  142.2498  158.6605 C   0  0  0  0  0  0  0  0  0  0  0  0
  151.9125  140.5805  156.5470 N   0  0  0  0  0  0  0  0  0  0  0  0
  149.6673  137.0840  153.6258 H   0  0  0  0  0  0  0  0  0  0  0  0
  149.7662  138.8283  153.7837 H   0  0  0  0  0  0  0  0  0  0  0  0
  148.9691  141.7836  156.1752 H   0  0  0  0  0  0  0  0  0  0  0  0
  150.3647  141.9724  158.8295 H   0  0  0  0  0  0  0  0  0  0  0  0
  151.3313  144.1210  156.8851 H   0  0  0  0  0  0  0  0  0  0  0  0
  149.6687  143.8021  157.3176 H   0  0  0  0  0  0  0  0  0  0  0  0
  150.6070  145.7281  158.6049 H   0  0  0  0  0  0  0  0  0  0  0  0
  150.1041  144.4335  159.6652 H   0  0  0  0  0  0  0  0  0  0  0  0
  152.9693  145.0232  158.7732 H   0  0  0  0  0  0  0  0  0  0  0  0
  152.3188  145.2748  160.3757 H   0  0  0  0  0  0  0  0  0  0  0  0
  153.6520  143.1590  160.2443 H   0  0  0  0  0  0  0  0  0  0  0  0
  151.9898  142.8425  160.6804 H   0  0  0  0  0  0  0  0  0  0  0  0
  152.7198  141.2275  158.9605 H   0  0  0  0  0  0  0  0  0  0  0  0
  153.2228  142.5249  157.9036 H   0  0  0  0  0  0  0  0  0  0  0  0
  1  2  1  0  0  0  0
  1 16  1  0  0  0  0
  1 17  1  0  0  0  0
  2  3  2  0  0  0  0
  2  4  1  0  0  0  0
  4  5  1  0  0  0  0
  5 15  2  0  0  0  0
  5  6  1  0  0  0  0
  6  7  2  0  0  0  0
  7  8  1  0  0  0  0
  7 18  1  0  0  0  0
  8  9  1  0  0  0  0
  8 15  1  0  0  0  0
  9 14  1  0  0  0  0
  9 10  1  0  0  0  0
  9 19  1  0  0  0  0
 10 11  1  0  0  0  0
 10 20  1  0  0  0  0
 10 21  1  0  0  0  0
 11 12  1  0  0  0  0
 11 22  1  0  0  0  0
 11 23  1  0  0  0  0
 12 13  1  0  0  0  0
 12 24  1  0  0  0  0
 12 25  1  0  0  0  0
 13 14  1  0  0  0  0
 13 26  1  0  0  0  0
 13 27  1  0  0  0  0
 14 28  1  0  0  0  0
 14 29  1  0  0  0  0
M  CHG  1   4  -1
M  END
> <s_m_source_file>
AV-unprocessed.smi

> <i_m_source_file_index>
2447

> <i_lp_mmshare_version>
43012

> <i_f3d_flags>
0

> <s_epik_input>
W05IMl1DKD1PKVtOSF1jMW5bY0hdbihuMSlbQ0hdMltDSDJdW0NIMl1bQ0gyXVtDSDJdW0NIMl0y

> <s_epik_cmdline>
J2VwaWtfcHl0aG9uJywgJy1waCcsICc3LjAnLCAnLXRuJywgJzgnLCAnLW1hJywgJzIwMCcsICctbWV0YWxfYmluZGluZycsICctaW1hZScsICc8aW5maWxlLm1hZT4nLCAnLW9tYWUnLCAnPG91dGZpbGUubWFlPic=

> <r_epik_Ionization_Penalty>
6.34251

> <r_epik_Ionization_Penalty_Charging>
2.59949

> <r_epik_Ionization_Penalty_Neutral>
3.74302

> <r_epik_State_Penalty>
2.59208

> <r_epik_Charging_Adjusted_Penalty>
5.19156

> <i_epik_Tot_Q>
-1

> <i_epik_Tot_abs_Q>
1

> <r_epik_Metal_State_Penalty>
0.11953

> <b_epik_Metal_Only>
1

> <s_lp_Force_Field>
OPLS_2005

> <r_lp_Energy>
9.7345

> <b_lp_Chiralities_Consistent>
1

> <s_lp_Variant>
AV-unprocessed.smi:2447-2

> <Gold.Version>
5.8.1

> <Gold.Id.Protein>
6NUR|6NUR_protein|mol2

> <Gold.PLP.Fitness>
45.8784

> <Gold.PLP.PLP>
-35.8659

> <Gold.PLP.part.hbond>
-4.2150

> <Gold.PLP.part.metal>
0.0000

> <Gold.PLP.part.buried>
-4.7064

> <Gold.PLP.part.nonpolar>
-27.4639

> <Gold.PLP.part.repulsive>
0.3631

> <Gold.PLP.ligand.clash>
0.0000

> <Gold.PLP.ligand.torsion>
1.0013

> <Gold.PLP.Chemscore.Hbond>
3.0000

> <Gold.PLP.Chemscore.CHOScore>
0.9980

> <Gold.PLP.Chemscore.Metal>
0.0000

> <Gold.Chemscore.Hbonds>
donor molecule, donor type, donor heavy atom, donor atom, acceptor molecule, acceptor atom, score
      L1  H     1    16       P1  7948  0.68
      P1  H 10752 10765       L1     3  0.88

> <Gold.PLP.Chemscore.Internal.Correction>
0.0211

> <Gold.Rescore>
     Score         DG    S(hbond)    S(metal)    S(lipo)     H(rot)  DE(clash)    DE(int)     intcor
     15.63     -18.48       2.38        0.00      65.02       1.00       0.09       2.76       ----

> <Gold.Chemscore.Fitness>
15.6276

> <Gold.Chemscore.DG>
-18.4845

> <Gold.Chemscore.ZeroCoef>
-5.4800

> <Gold.Chemscore.Hbond>
2.3823

> <Gold.Chemscore.Metal>
0.0000

> <Gold.Chemscore.Lipo>
65.0227

> <Gold.Chemscore.Internal_Hbond>
0.0000

> <Gold.Chemscore.DEClash>
0.0944

> <Gold.Chemscore.DEInternal>
2.7624

> <Gold.Chemscore.Rot>
1.0000

> <Gold.Chemscore.Internal.Correction>
   9.000000E+99

> <Gold.Chemscore.Hbonds>
donor molecule, donor type, donor heavy atom, donor atom, acceptor molecule, acceptor atom, score
      L1  H     1    16       P1  7948  0.48
      P1  H  7997  8008       L1    15  0.02
      P1  H 10752 10765       L1     3  0.85

> <Gold.Chemscore.Hbond.Weighted>
-7.9568

> <Gold.Chemscore.Metal.Weighted>
-0.0000

> <Gold.Chemscore.Lipo.Weighted>
-7.6077

> <Gold.Chemscore.Internal_Hbond.Weighted>
0.0000

> <Gold.Chemscore.DEClash.Weighted>
0.0944

> <Gold.Chemscore.DEInternal.Weighted>
2.7624

> <Gold.Chemscore.Rot.Weighted>
2.5600

> <Gold.Chemscore.Internal.Correction.Weighted>
   9.000000E+99

> <Gold.Protein.RotatedTorsions>
[ 6907 6896 6895 6894 ] final -142.31 input  -60.11 | X-H torsion
[ 7974 7965 7964 7962 ] final  -10.49 input  175.53 | X-H torsion
[ 8008 7997 7996 7995 ] final  -44.41 input   59.86 | X-H torsion
[ 10167 10162 10161 10158 ] final -104.00 input  -65.29 | X-H torsion
[ 10718 10713 10712 10709 ] final  170.25 input   66.30 | X-H torsion
[ 10763 10752 10751 10750 ] final  161.58 input  -60.55 | X-H torsion
[ 11005 11000 10999 10996 ] final  -65.17 input  -57.11 | X-H torsion

> <Gold.Protein.ActiveResidues>
 VAL166  LYS551  ARG553  GLY616  TRP617  ASP618  TYR619  PRO620  LYS621  CYS622 
 ASP623  PHE694  ASN695  SER759  ASP760  ASP761  ALA762  ILE779  LEU786  VAL792 
 PHE793  MET794  SER795  GLU796  ALA797  LYS798  CYS799  TRP800  GLU811  SER814 

> <Gold.Protein.RotatedAtoms>
  151.0853  133.5358  159.2617 H   0  0  0  0  0  0  0  0  0  0  0  0  # atno 6907 bound_to 6896
  151.2245  135.0530  159.8973 H   0  0  0  0  0  0  0  0  0  0  0  0  # atno 6908 bound_to 6896
  152.5428  134.0651  159.8223 H   0  0  0  0  0  0  0  0  0  0  0  0  # atno 6909 bound_to 6896
  146.2219  140.2771  142.8360 H   0  0  0  0  0  0  0  0  0  0  0  0  # atno 7974 bound_to 7965
  154.3997  140.1423  156.3678 H   0  0  0  0  0  0  0  0  0  0  0  0  # atno 8008 bound_to 7997
  155.8121  140.3472  155.5443 H   0  0  0  0  0  0  0  0  0  0  0  0  # atno 8009 bound_to 7997
  155.8376  140.0921  157.1745 H   0  0  0  0  0  0  0  0  0  0  0  0  # atno 8010 bound_to 7997
  140.2140  143.3725  152.1026 H   0  0  0  0  0  0  0  0  0  0  0  0  # atno 10167 bound_to 10162
  157.0108  131.0204  151.2803 H   0  0  0  0  0  0  0  0  0  0  0  0  # atno 10718 bound_to 10713
  154.2652  135.2767  155.2761 H   0  0  0  0  0  0  0  0  0  0  0  0  # atno 10763 bound_to 10752
  154.5350  135.5719  153.6794 H   0  0  0  0  0  0  0  0  0  0  0  0  # atno 10764 bound_to 10752
  152.9955  135.6237  154.2804 H   0  0  0  0  0  0  0  0  0  0  0  0  # atno 10765 bound_to 10752
  141.1446  133.6677  156.5945 H   0  0  0  0  0  0  0  0  0  0  0  0  # atno 11005 bound_to 11000
  144.9224  140.7883  143.5740 LP  0  0  0  0  0  0  0  0  0  0  0  0  # atno 17320 bound_to 7965
  145.2709  139.1955  143.4842 LP  0  0  0  0  0  0  0  0  0  0  0  0  # atno 17321 bound_to 7965
  139.5169  144.6984  151.5564 LP  0  0  0  0  0  0  0  0  0  0  0  0  # atno 17342 bound_to 10162
  140.6303  143.9089  150.6600 LP  0  0  0  0  0  0  0  0  0  0  0  0  # atno 17343 bound_to 10162
  157.5321  130.8065  149.7929 LP  0  0  0  0  0  0  0  0  0  0  0  0  # atno 17370 bound_to 10713
  156.0137  130.3822  150.2181 LP  0  0  0  0  0  0  0  0  0  0  0  0  # atno 17371 bound_to 10713
  140.3737  134.7583  157.4616 LP  0  0  0  0  0  0  0  0  0  0  0  0  # atno 17394 bound_to 11000
  140.0691  134.5888  155.8662 LP  0  0  0  0  0  0  0  0  0  0  0  0  # atno 17395 bound_to 11000

$$$$
