AV-unprocessed.smi:3165|AV-procd|sdf|12085|dock7
  -GOLD-   2272017513D 1   1.00000     0.00000
 Structure written by MMmdl.
 38 39  0  0  0  0  0  0  0  0  2 V2000
  151.8846  139.2108  156.4946 C   0  0  0  0  0  0  0  0  0  0  0  0
  150.6918  140.0600  156.0249 C   0  0  2  0  0  0  0  0  0  0  0  0
  150.4647  139.9613  154.4984 C   0  0  0  0  0  0  0  0  0  0  0  0
  149.2328  140.5974  154.0679 N   0  0  0  0  0  0  0  0  0  0  0  0
  148.8704  141.9250  154.1615 C   0  0  0  0  0  0  0  0  0  0  0  0
  147.6166  142.0412  153.6332 C   0  0  0  0  0  0  0  0  0  0  0  0
  147.2888  140.7126  153.2434 C   0  0  0  0  0  0  0  0  0  0  0  0
  148.2571  139.8504  153.5076 N   0  0  0  0  0  0  0  0  0  0  0  0
  150.8949  141.4646  156.4449 N   0  3  0  0  0  0  0  0  0  0  0  0
  150.8782  141.6954  157.9052 C   0  0  0  0  0  0  0  0  0  0  0  0
  150.9461  143.1945  158.2291 C   0  0  2  0  0  0  0  0  0  0  0  0
  152.3978  143.7126  158.2311 C   0  0  0  0  0  0  0  0  0  0  0  0
  152.4461  145.1849  158.6542 C   0  0  0  0  0  0  0  0  0  0  0  0
  151.7176  145.3611  159.9902 C   0  0  0  0  0  0  0  0  0  0  0  0
  150.3055  144.7605  159.9104 C   0  0  0  0  0  0  0  0  0  0  0  0
  150.3807  143.3910  159.5240 O   0  0  0  0  0  0  0  0  0  0  0  0
  151.7308  138.1517  156.2865 H   0  0  0  0  0  0  0  0  0  0  0  0
  152.0354  139.3073  157.5705 H   0  0  0  0  0  0  0  0  0  0  0  0
  152.8076  139.5158  156.0005 H   0  0  0  0  0  0  0  0  0  0  0  0
  149.8062  139.6844  156.5400 H   0  0  0  0  0  0  0  0  0  0  0  0
  151.2838  140.4256  153.9489 H   0  0  0  0  0  0  0  0  0  0  0  0
  150.4379  138.9156  154.1891 H   0  0  0  0  0  0  0  0  0  0  0  0
  149.5266  142.6687  154.5893 H   0  0  0  0  0  0  0  0  0  0  0  0
  147.0219  142.9379  153.5410 H   0  0  0  0  0  0  0  0  0  0  0  0
  146.3819  140.3512  152.7812 H   0  0  0  0  0  0  0  0  0  0  0  0
  151.8013  141.7558  156.1076 H   0  0  0  0  0  0  0  0  0  0  0  0
  149.9828  141.2610  158.3497 H   0  0  0  0  0  0  0  0  0  0  0  0
  151.7359  141.1872  158.3478 H   0  0  0  0  0  0  0  0  0  0  0  0
  150.3654  143.7484  157.4888 H   0  0  0  0  0  0  0  0  0  0  0  0
  153.0008  143.1171  158.9180 H   0  0  0  0  0  0  0  0  0  0  0  0
  152.8434  143.5955  157.2427 H   0  0  0  0  0  0  0  0  0  0  0  0
  153.4791  145.5243  158.7358 H   0  0  0  0  0  0  0  0  0  0  0  0
  151.9707  145.8031  157.8915 H   0  0  0  0  0  0  0  0  0  0  0  0
  152.2795  144.8657  160.7830 H   0  0  0  0  0  0  0  0  0  0  0  0
  151.6659  146.4172  160.2562 H   0  0  0  0  0  0  0  0  0  0  0  0
  149.8162  144.8257  160.8823 H   0  0  0  0  0  0  0  0  0  0  0  0
  149.6857  145.3155  159.2045 H   0  0  0  0  0  0  0  0  0  0  0  0
  150.1915  142.0440  156.0088 H   0  0  0  0  0  0  0  0  0  0  0  0
  1  2  1  0  0  0  0
  1 17  1  0  0  0  0
  1 18  1  0  0  0  0
  1 19  1  0  0  0  0
  2  3  1  0  0  0  0
  2  9  1  0  0  0  0
  2 20  1  0  0  0  0
  3  4  1  0  0  0  0
  3 21  1  0  0  0  0
  3 22  1  0  0  0  0
  4  8  1  0  0  0  0
  4  5  1  0  0  0  0
  5  6  2  0  0  0  0
  5 23  1  0  0  0  0
  6  7  1  0  0  0  0
  6 24  1  0  0  0  0
  7  8  2  0  0  0  0
  7 25  1  0  0  0  0
  9 10  1  0  0  0  0
  9 26  1  0  0  0  0
  9 38  1  0  0  0  0
 10 11  1  0  0  0  0
 10 27  1  0  0  0  0
 10 28  1  0  0  0  0
 11 16  1  0  0  0  0
 11 12  1  0  0  0  0
 11 29  1  0  0  0  0
 12 13  1  0  0  0  0
 12 30  1  0  0  0  0
 12 31  1  0  0  0  0
 13 14  1  0  0  0  0
 13 32  1  0  0  0  0
 13 33  1  0  0  0  0
 14 15  1  0  0  0  0
 14 34  1  0  0  0  0
 14 35  1  0  0  0  0
 15 16  1  0  0  0  0
 15 36  1  0  0  0  0
 15 37  1  0  0  0  0
M  CHG  1   9   1
M  END
> <s_m_source_file>
AV-unprocessed.smi

> <i_m_source_file_index>
3165

> <i_lp_mmshare_version>
43012

> <i_f3d_flags>
0

> <s_epik_input>
bjFbY0hdW2NIXVtjSF1uMVtDSDJdW0NAQEhdKFtDSDNdKVtOSF1bQ0gyXVtDQEBIXTJbQ0gyXVtDSDJdW0NIMl1bQ0gyXU8y

> <s_epik_cmdline>
J2VwaWtfcHl0aG9uJywgJy1waCcsICc3LjAnLCAnLXRuJywgJzgnLCAnLW1hJywgJzIwMCcsICctbWV0YWxfYmluZGluZycsICctaW1hZScsICc8aW5maWxlLm1hZT4nLCAnLW9tYWUnLCAnPG91dGZpbGUubWFlPic=

> <r_lp_tautomer_probability>
1

> <r_epik_Ionization_Penalty>
0.00849196

> <r_epik_Ionization_Penalty_Charging>
0.00848754

> <r_epik_Ionization_Penalty_Neutral>
4.42049e-06

> <r_epik_State_Penalty>
0.00639836

> <r_epik_Charging_Adjusted_Penalty>
0.0148859

> <i_epik_Tot_Q>
1

> <i_epik_Tot_abs_Q>
1

> <r_epik_Metal_State_Penalty>
0.00639878

> <b_epik_Metal_Only>
0

> <s_lp_Force_Field>
OPLS_2005

> <r_lp_Energy>
12.7964

> <b_lp_Chiralities_Consistent>
1

> <s_lp_Variant>
AV-unprocessed.smi:3165-1

> <Gold.Version>
5.8.1

> <Gold.Id.Protein>
6NUR|6NUR_protein|mol2

> <Gold.PLP.Fitness>
42.3965

> <Gold.PLP.PLP>
-37.0493

> <Gold.PLP.part.hbond>
-1.0000

> <Gold.PLP.part.metal>
0.0000

> <Gold.PLP.part.buried>
-2.3798

> <Gold.PLP.part.nonpolar>
-34.2288

> <Gold.PLP.part.repulsive>
0.3608

> <Gold.PLP.ligand.clash>
0.0000

> <Gold.PLP.ligand.torsion>
0.3386

> <Gold.PLP.Chemscore.Hbond>
0.0000

> <Gold.PLP.Chemscore.CHOScore>
2.0000

> <Gold.PLP.Chemscore.Metal>
0.0000

> <Gold.Chemscore.Hbonds>
donor molecule, donor type, donor heavy atom, donor atom, acceptor molecule, acceptor atom, score
      L1  C     5    23       P1  8028  0.94
      L1  C     7    25       P1 10175  0.55

> <Gold.PLP.Chemscore.Internal.Correction>
0.0244

> <Gold.Rescore>
     Score         DG    S(hbond)    S(metal)    S(lipo)     H(rot)  DE(clash)    DE(int)     intcor
     12.89     -13.02       0.00        0.00     100.45       1.64       0.04       0.10       ----

> <Gold.Chemscore.Fitness>
12.8869

> <Gold.Chemscore.DG>
-13.0234

> <Gold.Chemscore.ZeroCoef>
-5.4800

> <Gold.Chemscore.Hbond>
0.0000

> <Gold.Chemscore.Metal>
0.0000

> <Gold.Chemscore.Lipo>
100.4535

> <Gold.Chemscore.Internal_Hbond>
0.0000

> <Gold.Chemscore.DEClash>
0.0354

> <Gold.Chemscore.DEInternal>
0.1011

> <Gold.Chemscore.Rot>
1.6444

> <Gold.Chemscore.Internal.Correction>
   9.000000E+99

> <Gold.Chemscore.Hbond.Weighted>
-0.0000

> <Gold.Chemscore.Metal.Weighted>
-0.0000

> <Gold.Chemscore.Lipo.Weighted>
-11.7531

> <Gold.Chemscore.Internal_Hbond.Weighted>
0.0000

> <Gold.Chemscore.DEClash.Weighted>
0.0354

> <Gold.Chemscore.DEInternal.Weighted>
0.1011

> <Gold.Chemscore.Rot.Weighted>
4.2097

> <Gold.Chemscore.Internal.Correction.Weighted>
   9.000000E+99

> <Gold.Protein.RotatedTorsions>
[ 6907 6896 6895 6894 ] final  -98.89 input  -60.11 | X-H torsion
[ 7974 7965 7964 7962 ] final  -52.36 input  175.53 | X-H torsion
[ 8008 7997 7996 7995 ] final -158.72 input   59.86 | X-H torsion
[ 10167 10162 10161 10158 ] final -151.64 input  -65.29 | X-H torsion
[ 10718 10713 10712 10709 ] final    9.89 input   66.30 | X-H torsion
[ 10763 10752 10751 10750 ] final   20.90 input  -60.55 | X-H torsion
[ 11005 11000 10999 10996 ] final   64.46 input  -57.11 | X-H torsion

> <Gold.Protein.ActiveResidues>
 VAL166  LYS551  ARG553  GLY616  TRP617  ASP618  TYR619  PRO620  LYS621  CYS622 
 ASP623  PHE694  ASN695  SER759  ASP760  ASP761  ALA762  ILE779  LEU786  VAL792 
 PHE793  MET794  SER795  GLU796  ALA797  LYS798  CYS799  TRP800  GLU811  SER814 

> <Gold.Protein.RotatedAtoms>
  150.7061  134.1125  159.4005 H   0  0  0  0  0  0  0  0  0  0  0  0  # atno 6907 bound_to 6896
  151.9112  135.0336  160.0524 H   0  0  0  0  0  0  0  0  0  0  0  0  # atno 6908 bound_to 6896
  152.2334  133.5041  159.5265 H   0  0  0  0  0  0  0  0  0  0  0  0  # atno 6909 bound_to 6896
  145.9088  140.7933  142.9706 H   0  0  0  0  0  0  0  0  0  0  0  0  # atno 7974 bound_to 7965
  155.7518  140.0827  157.2197 H   0  0  0  0  0  0  0  0  0  0  0  0  # atno 8008 bound_to 7997
  154.4011  140.1559  156.2789 H   0  0  0  0  0  0  0  0  0  0  0  0  # atno 8009 bound_to 7997
  155.8923  140.3414  155.5968 H   0  0  0  0  0  0  0  0  0  0  0  0  # atno 8010 bound_to 7997
  139.7250  143.8898  152.2516 H   0  0  0  0  0  0  0  0  0  0  0  0  # atno 10167 bound_to 10162
  156.9730  130.5976  149.5670 H   0  0  0  0  0  0  0  0  0  0  0  0  # atno 10718 bound_to 10713
  153.1039  135.6679  153.9622 H   0  0  0  0  0  0  0  0  0  0  0  0  # atno 10763 bound_to 10752
  153.9185  135.3017  155.3449 H   0  0  0  0  0  0  0  0  0  0  0  0  # atno 10764 bound_to 10752
  154.7460  135.5057  153.9281 H   0  0  0  0  0  0  0  0  0  0  0  0  # atno 10765 bound_to 10752
  139.9957  134.6520  156.0014 H   0  0  0  0  0  0  0  0  0  0  0  0  # atno 11005 bound_to 11000
  144.6741  140.1793  143.7407 LP  0  0  0  0  0  0  0  0  0  0  0  0  # atno 17320 bound_to 7965
  145.8698  139.2266  143.1668 LP  0  0  0  0  0  0  0  0  0  0  0  0  # atno 17321 bound_to 7965
  139.8804  144.7020  150.8884 LP  0  0  0  0  0  0  0  0  0  0  0  0  # atno 17342 bound_to 10162
  140.7761  143.3665  151.1728 LP  0  0  0  0  0  0  0  0  0  0  0  0  # atno 17343 bound_to 10162
  156.0275  130.5368  150.8446 LP  0  0  0  0  0  0  0  0  0  0  0  0  # atno 17370 bound_to 10713
  157.5579  131.0945  150.9601 LP  0  0  0  0  0  0  0  0  0  0  0  0  # atno 17371 bound_to 10713
  141.1602  133.6539  156.4295 LP  0  0  0  0  0  0  0  0  0  0  0  0  # atno 17394 bound_to 11000
  140.4822  134.6654  157.5176 LP  0  0  0  0  0  0  0  0  0  0  0  0  # atno 17395 bound_to 11000

$$$$
