AV-unprocessed.smi:2267|AV-procd|sdf|9148|dock3
  -GOLD-   2272012353D 1   1.00000     0.00000
 Structure written by MMmdl.
 41 42  0  0  0  0  0  0  0  0  1 V2000
  151.8281  145.2840  158.9351 C   0  0  0  0  0  0  0  0  0  0  0  0
  151.8908  143.7819  158.7502 C   0  0  0  0  0  0  0  0  0  0  0  0
  152.6891  142.9931  159.6025 C   0  0  0  0  0  0  0  0  0  0  0  0
  152.7403  141.5985  159.4247 C   0  0  0  0  0  0  0  0  0  0  0  0
  151.9949  140.9916  158.3962 C   0  0  0  0  0  0  0  0  0  0  0  0
  151.1907  141.7654  157.5345 C   0  0  0  0  0  0  0  0  0  0  0  0
  150.4954  141.0893  156.5548 O   0  0  0  0  0  0  0  0  0  0  0  0
  149.6310  141.8326  155.7055 C   0  0  0  0  0  0  0  0  0  0  0  0
  148.9482  140.8667  154.7219 C   0  0  2  0  0  0  0  0  0  0  0  0
  149.9569  140.3536  153.8736 O   0  0  0  0  0  0  0  0  0  0  0  0
  147.9053  141.5866  153.8369 C   0  0  0  0  0  0  0  0  0  0  0  0
  146.7369  142.0393  154.6112 N   0  0  0  0  0  0  0  0  0  0  0  0
  146.4807  141.3534  155.8099 C   0  0  0  0  0  0  0  0  0  0  0  0
  145.4818  141.6631  156.5699 N   0  0  0  0  0  0  0  0  0  0  0  0
  144.6270  142.7078  156.2067 C   0  0  0  0  0  0  0  0  0  0  0  0
  143.4874  142.9879  157.1704 C   0  0  0  0  0  0  0  0  0  0  0  0
  144.8239  143.4167  155.0617 C   0  0  0  0  0  0  0  0  0  0  0  0
  143.9279  144.5661  154.6170 C   0  0  0  0  0  0  0  0  0  0  0  0
  145.9582  143.0766  154.1874 C   0  0  0  0  0  0  0  0  0  0  0  0
  146.2003  143.6809  153.1406 O   0  0  0  0  0  0  0  0  0  0  0  0
  151.1441  143.1704  157.7218 C   0  0  0  0  0  0  0  0  0  0  0  0
  152.6080  145.6334  159.6122 H   0  0  0  0  0  0  0  0  0  0  0  0
  150.8613  145.5720  159.3482 H   0  0  0  0  0  0  0  0  0  0  0  0
  151.9585  145.7912  157.9787 H   0  0  0  0  0  0  0  0  0  0  0  0
  153.2633  143.4529  160.3936 H   0  0  0  0  0  0  0  0  0  0  0  0
  153.3518  140.9930  160.0773 H   0  0  0  0  0  0  0  0  0  0  0  0
  152.0406  139.9201  158.2669 H   0  0  0  0  0  0  0  0  0  0  0  0
  148.8750  142.3114  156.3301 H   0  0  0  0  0  0  0  0  0  0  0  0
  150.1668  142.6180  155.1692 H   0  0  0  0  0  0  0  0  0  0  0  0
  148.4805  140.0532  155.2782 H   0  0  0  0  0  0  0  0  0  0  0  0
  149.5953  140.2444  153.0075 H   0  0  0  0  0  0  0  0  0  0  0  0
  148.3621  142.4625  153.3726 H   0  0  0  0  0  0  0  0  0  0  0  0
  147.6204  140.9577  152.9906 H   0  0  0  0  0  0  0  0  0  0  0  0
  147.1806  140.5516  156.0513 H   0  0  0  0  0  0  0  0  0  0  0  0
  142.5253  142.8715  156.6706 H   0  0  0  0  0  0  0  0  0  0  0  0
  143.5585  144.0039  157.5603 H   0  0  0  0  0  0  0  0  0  0  0  0
  143.5077  142.3028  158.0190 H   0  0  0  0  0  0  0  0  0  0  0  0
  144.5092  145.4850  154.5357 H   0  0  0  0  0  0  0  0  0  0  0  0
  143.1042  144.7590  155.3022 H   0  0  0  0  0  0  0  0  0  0  0  0
  143.4967  144.3500  153.6390 H   0  0  0  0  0  0  0  0  0  0  0  0
  150.5405  143.8016  157.0876 H   0  0  0  0  0  0  0  0  0  0  0  0
  1  2  1  0  0  0  0
  1 22  1  0  0  0  0
  1 23  1  0  0  0  0
  1 24  1  0  0  0  0
  2 21  1  0  0  0  0
  2  3  2  0  0  0  0
  3  4  1  0  0  0  0
  3 25  1  0  0  0  0
  4  5  2  0  0  0  0
  4 26  1  0  0  0  0
  5  6  1  0  0  0  0
  5 27  1  0  0  0  0
  6  7  1  0  0  0  0
  6 21  2  0  0  0  0
  7  8  1  0  0  0  0
  8  9  1  0  0  0  0
  8 28  1  0  0  0  0
  8 29  1  0  0  0  0
  9 10  1  0  0  0  0
  9 11  1  0  0  0  0
  9 30  1  0  0  0  0
 10 31  1  0  0  0  0
 11 12  1  0  0  0  0
 11 32  1  0  0  0  0
 11 33  1  0  0  0  0
 12 19  1  0  0  0  0
 12 13  1  0  0  0  0
 13 14  2  0  0  0  0
 13 34  1  0  0  0  0
 14 15  1  0  0  0  0
 15 16  1  0  0  0  0
 15 17  2  0  0  0  0
 16 35  1  0  0  0  0
 16 36  1  0  0  0  0
 16 37  1  0  0  0  0
 17 18  1  0  0  0  0
 17 19  1  0  0  0  0
 18 38  1  0  0  0  0
 18 39  1  0  0  0  0
 18 40  1  0  0  0  0
 19 20  2  0  0  0  0
 21 41  1  0  0  0  0
M  END
> <s_m_source_file>
AV-unprocessed.smi

> <i_m_source_file_index>
2267

> <i_lp_mmshare_version>
43012

> <i_f3d_flags>
0

> <s_epik_input>
W0NIM11jMVtjSF1bY0hdW2NIXWMoW2NIXTEpT1tDSDJdW0NASF0oW09IXSlbQ0gyXW4yW2NIXW5jKFtDSDNdKWMoW0NIM10pYzI9Tw==

> <s_epik_cmdline>
J2VwaWtfcHl0aG9uJywgJy1waCcsICc3LjAnLCAnLXRuJywgJzgnLCAnLW1hJywgJzIwMCcsICctbWV0YWxfYmluZGluZycsICctaW1hZScsICc8aW5maWxlLm1hZT4nLCAnLW9tYWUnLCAnPG91dGZpbGUubWFlPic=

> <r_lp_tautomer_probability>
1

> <r_epik_Ionization_Penalty>
3.72236e-05

> <r_epik_Ionization_Penalty_Charging>
8.38864e-08

> <r_epik_Ionization_Penalty_Neutral>
3.71397e-05

> <r_epik_State_Penalty>
-0

> <r_epik_Charging_Adjusted_Penalty>
8.38864e-08

> <i_epik_Tot_Q>
0

> <i_epik_Tot_abs_Q>
0

> <r_epik_Metal_State_Penalty>
-0

> <b_epik_Metal_Only>
0

> <s_lp_Force_Field>
OPLS_2005

> <r_lp_Energy>
23.9214

> <b_lp_Chiralities_Consistent>
1

> <s_lp_Variant>
AV-unprocessed.smi:2267-1

> <Gold.Version>
5.8.1

> <Gold.Id.Protein>
6NUR|6NUR_protein|mol2

> <Gold.PLP.Fitness>
47.7887

> <Gold.PLP.PLP>
-43.7628

> <Gold.PLP.part.hbond>
-3.0000

> <Gold.PLP.part.metal>
0.0000

> <Gold.PLP.part.buried>
-1.9032

> <Gold.PLP.part.nonpolar>
-38.6195

> <Gold.PLP.part.repulsive>
0.3124

> <Gold.PLP.ligand.clash>
0.3514

> <Gold.PLP.ligand.torsion>
0.3883

> <Gold.PLP.Chemscore.Hbond>
1.7040

> <Gold.PLP.Chemscore.CHOScore>
0.0000

> <Gold.PLP.Chemscore.Metal>
0.0000

> <Gold.Chemscore.Hbonds>
donor molecule, donor type, donor heavy atom, donor atom, acceptor molecule, acceptor atom, score
      L1  H    10    31       P1  7957  1.00
      P1  H  7989  7998       L1    10  0.72

> <Gold.PLP.Chemscore.Internal.Correction>
0.0419

> <Gold.Rescore>
     Score         DG    S(hbond)    S(metal)    S(lipo)     H(rot)  DE(clash)    DE(int)     intcor
     16.21     -17.05       1.46        0.00     108.76       2.35       0.36       0.48       ----

> <Gold.Chemscore.Fitness>
16.2087

> <Gold.Chemscore.DG>
-17.0527

> <Gold.Chemscore.ZeroCoef>
-5.4800

> <Gold.Chemscore.Hbond>
1.4555

> <Gold.Chemscore.Metal>
0.0000

> <Gold.Chemscore.Lipo>
108.7591

> <Gold.Chemscore.Internal_Hbond>
0.0000

> <Gold.Chemscore.DEClash>
0.3596

> <Gold.Chemscore.DEInternal>
0.4844

> <Gold.Chemscore.Rot>
2.3490

> <Gold.Chemscore.Internal.Correction>
   9.000000E+99

> <Gold.Chemscore.Hbonds>
donor molecule, donor type, donor heavy atom, donor atom, acceptor molecule, acceptor atom, score
      L1  H    10    31       P1  7957  0.99
      P1  H  7989  7998       L1    10  0.18

> <Gold.Chemscore.Hbond.Weighted>
-4.8614

> <Gold.Chemscore.Metal.Weighted>
-0.0000

> <Gold.Chemscore.Lipo.Weighted>
-12.7248

> <Gold.Chemscore.Internal_Hbond.Weighted>
0.0000

> <Gold.Chemscore.DEClash.Weighted>
0.3596

> <Gold.Chemscore.DEInternal.Weighted>
0.4844

> <Gold.Chemscore.Rot.Weighted>
6.0136

> <Gold.Chemscore.Internal.Correction.Weighted>
   9.000000E+99

> <Gold.Protein.RotatedTorsions>
[ 6907 6896 6895 6894 ] final   42.58 input  -60.11 | X-H torsion
[ 7974 7965 7964 7962 ] final  148.70 input  175.53 | X-H torsion
[ 8008 7997 7996 7995 ] final   99.11 input   59.86 | X-H torsion
[ 10167 10162 10161 10158 ] final  -78.22 input  -65.29 | X-H torsion
[ 10718 10713 10712 10709 ] final  171.02 input   66.30 | X-H torsion
[ 10763 10752 10751 10750 ] final   62.29 input  -60.55 | X-H torsion
[ 11005 11000 10999 10996 ] final  -91.20 input  -57.11 | X-H torsion

> <Gold.Protein.ActiveResidues>
 VAL166  LYS551  ARG553  GLY616  TRP617  ASP618  TYR619  PRO620  LYS621  CYS622 
 ASP623  PHE694  ASN695  SER759  ASP760  ASP761  ALA762  ILE779  LEU786  VAL792 
 PHE793  MET794  SER795  GLU796  ALA797  LYS798  CYS799  TRP800  GLU811  SER814 

> <Gold.Protein.RotatedAtoms>
  152.2097  134.8513  160.0498 H   0  0  0  0  0  0  0  0  0  0  0  0  # atno 6907 bound_to 6896
  151.9336  133.3613  159.3948 H   0  0  0  0  0  0  0  0  0  0  0  0  # atno 6908 bound_to 6896
  150.6973  134.4437  159.5348 H   0  0  0  0  0  0  0  0  0  0  0  0  # atno 6909 bound_to 6896
  144.8494  139.6186  143.5980 H   0  0  0  0  0  0  0  0  0  0  0  0  # atno 7974 bound_to 7965
  156.1072  140.3233  155.8022 H   0  0  0  0  0  0  0  0  0  0  0  0  # atno 8008 bound_to 7997
  155.4736  140.0548  157.2993 H   0  0  0  0  0  0  0  0  0  0  0  0  # atno 8009 bound_to 7997
  154.4735  140.2022  155.9949 H   0  0  0  0  0  0  0  0  0  0  0  0  # atno 8010 bound_to 7997
  140.4702  143.2429  151.8217 H   0  0  0  0  0  0  0  0  0  0  0  0  # atno 10167 bound_to 10162
  156.9996  131.0172  151.2834 H   0  0  0  0  0  0  0  0  0  0  0  0  # atno 10718 bound_to 10713
  152.9978  135.5470  154.6170 H   0  0  0  0  0  0  0  0  0  0  0  0  # atno 10763 bound_to 10752
  154.5478  135.2824  155.1039 H   0  0  0  0  0  0  0  0  0  0  0  0  # atno 10764 bound_to 10752
  154.2290  135.6437  153.5222 H   0  0  0  0  0  0  0  0  0  0  0  0  # atno 10765 bound_to 10752
  141.1550  133.7740  156.9846 H   0  0  0  0  0  0  0  0  0  0  0  0  # atno 11005 bound_to 11000
  146.2772  139.6783  142.9255 LP  0  0  0  0  0  0  0  0  0  0  0  0  # atno 17320 bound_to 7965
  145.4530  141.0429  143.2793 LP  0  0  0  0  0  0  0  0  0  0  0  0  # atno 17321 bound_to 7965
  139.4817  144.4902  151.9195 LP  0  0  0  0  0  0  0  0  0  0  0  0  # atno 17342 bound_to 10162
  140.3987  144.2521  150.5894 LP  0  0  0  0  0  0  0  0  0  0  0  0  # atno 17343 bound_to 10162
  157.5400  130.8113  149.8017 LP  0  0  0  0  0  0  0  0  0  0  0  0  # atno 17370 bound_to 10713
  156.0176  130.3807  150.2062 LP  0  0  0  0  0  0  0  0  0  0  0  0  # atno 17371 bound_to 10713
  140.1043  134.9516  157.1970 LP  0  0  0  0  0  0  0  0  0  0  0  0  # atno 17394 bound_to 11000
  140.3277  134.2845  155.7234 LP  0  0  0  0  0  0  0  0  0  0  0  0  # atno 17395 bound_to 11000

$$$$
