AV-unprocessed.smi:2960|AV-procd|sdf|11311|dock2
  -GOLD-   2272016213D 1   1.00000     0.00000
 Structure written by MMmdl.
 48 50  0  0  0  0  0  0  0  0  1 V2000
  158.6150  138.3385  155.2550 C   0  0  0  0  0  0  0  0  0  0  0  0
  157.5868  137.5344  156.0423 C   0  0  0  0  0  0  0  0  0  0  0  0
  157.0121  136.5817  155.5165 O   0  0  0  0  0  0  0  0  0  0  0  0
  157.3562  137.9371  157.3003 N   0  0  0  0  0  0  0  0  0  0  0  0
  156.4098  137.3124  158.2189 C   0  0  0  0  0  0  0  0  0  0  0  0
  156.1746  138.1444  159.4946 C   0  0  0  0  0  0  0  0  0  0  0  0
  155.6790  137.3377  160.6619 C   0  0  0  0  0  0  0  0  0  0  0  0
  155.5560  136.0119  160.5833 N   0  0  0  0  0  0  0  0  0  0  0  0
  155.0773  135.6739  161.8335 C   0  0  0  0  0  0  0  0  0  0  0  0
  154.7421  134.4136  162.3783 C   0  0  0  0  0  0  0  0  0  0  0  0
  154.2594  134.3128  163.6996 C   0  0  0  0  0  0  0  0  0  0  0  0
  154.1042  135.4682  164.4926 C   0  0  0  0  0  0  0  0  0  0  0  0
  154.4340  136.7331  163.9694 C   0  0  0  0  0  0  0  0  0  0  0  0
  154.9183  136.8282  162.6506 C   0  0  0  0  0  0  0  0  0  0  0  0
  155.3234  137.8922  161.8498 N   0  0  0  0  0  0  0  0  0  0  0  0
  155.3335  139.2953  162.2398 C   0  0  0  0  0  0  0  0  0  0  0  0
  154.7130  140.1987  161.1652 C   0  0  0  0  0  0  0  0  0  0  0  0
  154.0750  141.3048  161.7903 O   0  0  0  0  0  0  0  0  0  0  0  0
  153.4553  142.2395  160.9901 C   0  0  0  0  0  0  0  0  0  0  0  0
  152.6446  143.1958  161.6351 C   0  0  0  0  0  0  0  0  0  0  0  0
  151.9746  144.1895  160.8961 C   0  0  0  0  0  0  0  0  0  0  0  0
  152.1087  144.2393  159.4947 C   0  0  0  0  0  0  0  0  0  0  0  0
  151.3890  145.3124  158.7040 C   0  0  0  0  0  0  0  0  0  0  0  0
  152.9179  143.2895  158.8395 C   0  0  0  0  0  0  0  0  0  0  0  0
  153.5870  142.2953  159.5795 C   0  0  0  0  0  0  0  0  0  0  0  0
  159.5682  138.3621  155.7840 H   0  0  0  0  0  0  0  0  0  0  0  0
  158.2688  139.3633  155.1176 H   0  0  0  0  0  0  0  0  0  0  0  0
  158.7810  137.8984  154.2711 H   0  0  0  0  0  0  0  0  0  0  0  0
  157.8719  138.7331  157.6474 H   0  0  0  0  0  0  0  0  0  0  0  0
  155.4620  137.1191  157.7142 H   0  0  0  0  0  0  0  0  0  0  0  0
  156.8136  136.3371  158.4919 H   0  0  0  0  0  0  0  0  0  0  0  0
  157.0859  138.6779  159.7601 H   0  0  0  0  0  0  0  0  0  0  0  0
  155.4378  138.9200  159.2832 H   0  0  0  0  0  0  0  0  0  0  0  0
  154.8553  133.5230  161.7782 H   0  0  0  0  0  0  0  0  0  0  0  0
  154.0054  133.3447  164.1056 H   0  0  0  0  0  0  0  0  0  0  0  0
  153.7314  135.3831  165.5028 H   0  0  0  0  0  0  0  0  0  0  0  0
  154.3130  137.6198  164.5737 H   0  0  0  0  0  0  0  0  0  0  0  0
  154.7808  139.3996  163.1736 H   0  0  0  0  0  0  0  0  0  0  0  0
  156.3528  139.6072  162.4595 H   0  0  0  0  0  0  0  0  0  0  0  0
  155.4954  140.5457  160.4889 H   0  0  0  0  0  0  0  0  0  0  0  0
  153.9889  139.6306  160.5795 H   0  0  0  0  0  0  0  0  0  0  0  0
  152.5343  143.1662  162.7094 H   0  0  0  0  0  0  0  0  0  0  0  0
  151.3579  144.9137  161.4081 H   0  0  0  0  0  0  0  0  0  0  0  0
  151.4510  145.1246  157.6316 H   0  0  0  0  0  0  0  0  0  0  0  0
  151.8305  146.2885  158.9063 H   0  0  0  0  0  0  0  0  0  0  0  0
  150.3353  145.3472  158.9816 H   0  0  0  0  0  0  0  0  0  0  0  0
  153.0305  143.3190  157.7655 H   0  0  0  0  0  0  0  0  0  0  0  0
  154.1984  141.5876  159.0405 H   0  0  0  0  0  0  0  0  0  0  0  0
  1  2  1  0  0  0  0
  1 26  1  0  0  0  0
  1 27  1  0  0  0  0
  1 28  1  0  0  0  0
  2  3  2  0  0  0  0
  2  4  1  0  0  0  0
  4  5  1  0  0  0  0
  4 29  1  0  0  0  0
  5  6  1  0  0  0  0
  5 30  1  0  0  0  0
  5 31  1  0  0  0  0
  6  7  1  0  0  0  0
  6 32  1  0  0  0  0
  6 33  1  0  0  0  0
  7 15  1  0  0  0  0
  7  8  2  0  0  0  0
  8  9  1  0  0  0  0
  9 14  2  0  0  0  0
  9 10  1  0  0  0  0
 10 11  2  0  0  0  0
 10 34  1  0  0  0  0
 11 12  1  0  0  0  0
 11 35  1  0  0  0  0
 12 13  2  0  0  0  0
 12 36  1  0  0  0  0
 13 14  1  0  0  0  0
 13 37  1  0  0  0  0
 14 15  1  0  0  0  0
 15 16  1  0  0  0  0
 16 17  1  0  0  0  0
 16 38  1  0  0  0  0
 16 39  1  0  0  0  0
 17 18  1  0  0  0  0
 17 40  1  0  0  0  0
 17 41  1  0  0  0  0
 18 19  1  0  0  0  0
 19 25  1  0  0  0  0
 19 20  2  0  0  0  0
 20 21  1  0  0  0  0
 20 42  1  0  0  0  0
 21 22  2  0  0  0  0
 21 43  1  0  0  0  0
 22 23  1  0  0  0  0
 22 24  1  0  0  0  0
 23 44  1  0  0  0  0
 23 45  1  0  0  0  0
 23 46  1  0  0  0  0
 24 25  2  0  0  0  0
 24 47  1  0  0  0  0
 25 48  1  0  0  0  0
M  END
> <s_m_source_file>
AV-unprocessed.smi

> <i_m_source_file_index>
2960

> <i_lp_mmshare_version>
43012

> <i_f3d_flags>
0

> <s_epik_input>
W0NIM11DKD1PKVtOSF1bQ0gyXVtDSDJdYyhuMSluKGMoYzEyKVtjSF1bY0hdW2NIXVtjSF0yKVtDSDJdW0NIMl1PYzNbY0hdW2NIXWMoW0NIM10pW2NIXVtjSF0z

> <s_epik_cmdline>
J2VwaWtfcHl0aG9uJywgJy1waCcsICc3LjAnLCAnLXRuJywgJzgnLCAnLW1hJywgJzIwMCcsICctbWV0YWxfYmluZGluZycsICctaW1hZScsICc8aW5maWxlLm1hZT4nLCAnLW9tYWUnLCAnPG91dGZpbGUubWFlPic=

> <r_lp_tautomer_probability>
1

> <r_epik_Ionization_Penalty>
0.0990099

> <r_epik_Ionization_Penalty_Charging>
0

> <r_epik_Ionization_Penalty_Neutral>
0.0990099

> <r_epik_State_Penalty>
0.0890759

> <r_epik_Charging_Adjusted_Penalty>
0.0890759

> <i_epik_Tot_Q>
0

> <i_epik_Tot_abs_Q>
0

> <r_epik_Metal_State_Penalty>
0.0762215

> <b_epik_Metal_Only>
0

> <s_lp_Force_Field>
OPLS_2005

> <r_lp_Energy>
13.2598

> <b_lp_Chiralities_Consistent>
1

> <s_lp_Variant>
AV-unprocessed.smi:2960-1

> <Gold.Version>
5.8.1

> <Gold.Id.Protein>
6NUR|6NUR_protein|mol2

> <Gold.PLP.Fitness>
54.3710

> <Gold.PLP.PLP>
-52.4954

> <Gold.PLP.part.hbond>
-1.2450

> <Gold.PLP.part.metal>
0.0000

> <Gold.PLP.part.buried>
-4.2229

> <Gold.PLP.part.nonpolar>
-46.8920

> <Gold.PLP.part.repulsive>
0.1086

> <Gold.PLP.ligand.clash>
0.0000

> <Gold.PLP.ligand.torsion>
0.6691

> <Gold.PLP.Chemscore.Hbond>
1.0000

> <Gold.PLP.Chemscore.CHOScore>
0.0000

> <Gold.PLP.Chemscore.Metal>
0.0000

> <Gold.PLP.Chemscore.Internal.Correction>
0.2138

> <Gold.Rescore>
     Score         DG    S(hbond)    S(metal)    S(lipo)     H(rot)  DE(clash)    DE(int)     intcor
     19.35     -22.04       1.00        0.00     159.20       2.11       0.94       1.74       ----

> <Gold.Chemscore.Fitness>
19.3532

> <Gold.Chemscore.DG>
-22.0350

> <Gold.Chemscore.ZeroCoef>
-5.4800

> <Gold.Chemscore.Hbond>
0.9955

> <Gold.Chemscore.Metal>
0.0000

> <Gold.Chemscore.Lipo>
159.1985

> <Gold.Chemscore.Internal_Hbond>
0.0000

> <Gold.Chemscore.DEClash>
0.9373

> <Gold.Chemscore.DEInternal>
1.7446

> <Gold.Chemscore.Rot>
2.1078

> <Gold.Chemscore.Internal.Correction>
   9.000000E+99

> <Gold.Chemscore.Hbond.Weighted>
-3.3249

> <Gold.Chemscore.Metal.Weighted>
-0.0000

> <Gold.Chemscore.Lipo.Weighted>
-18.6262

> <Gold.Chemscore.Internal_Hbond.Weighted>
0.0000

> <Gold.Chemscore.DEClash.Weighted>
0.9373

> <Gold.Chemscore.DEInternal.Weighted>
1.7446

> <Gold.Chemscore.Rot.Weighted>
5.3961

> <Gold.Chemscore.Internal.Correction.Weighted>
   9.000000E+99

> <Gold.Protein.RotatedTorsions>
[ 6907 6896 6895 6894 ] final  -78.45 input  -60.11 | X-H torsion
[ 7974 7965 7964 7962 ] final  -40.33 input  175.53 | X-H torsion
[ 8008 7997 7996 7995 ] final -108.45 input   59.86 | X-H torsion
[ 10167 10162 10161 10158 ] final  107.02 input  -65.29 | X-H torsion
[ 10718 10713 10712 10709 ] final   59.43 input   66.30 | X-H torsion
[ 10763 10752 10751 10750 ] final -147.73 input  -60.55 | X-H torsion
[ 11005 11000 10999 10996 ] final  155.41 input  -57.11 | X-H torsion

> <Gold.Protein.ActiveResidues>
 VAL166  LYS551  ARG553  GLY616  TRP617  ASP618  TYR619  PRO620  LYS621  CYS622 
 ASP623  PHE694  ASN695  SER759  ASP760  ASP761  ALA762  ILE779  LEU786  VAL792 
 PHE793  MET794  SER795  GLU796  ALA797  LYS798  CYS799  TRP800  GLU811  SER814 

> <Gold.Protein.RotatedAtoms>
  150.6972  134.4270  159.5230 H   0  0  0  0  0  0  0  0  0  0  0  0  # atno 6907 bound_to 6896
  152.2003  134.8591  160.0517 H   0  0  0  0  0  0  0  0  0  0  0  0  # atno 6908 bound_to 6896
  151.9513  133.3632  159.4038 H   0  0  0  0  0  0  0  0  0  0  0  0  # atno 6909 bound_to 6896
  146.0314  140.6726  142.9131 H   0  0  0  0  0  0  0  0  0  0  0  0  # atno 7974 bound_to 7965
  154.9444  140.0402  157.2113 H   0  0  0  0  0  0  0  0  0  0  0  0  # atno 8008 bound_to 7997
  154.8038  140.2856  155.5880 H   0  0  0  0  0  0  0  0  0  0  0  0  # atno 8009 bound_to 7997
  156.2964  140.2550  156.2912 H   0  0  0  0  0  0  0  0  0  0  0  0  # atno 8010 bound_to 7997
  139.6962  144.7101  151.1264 H   0  0  0  0  0  0  0  0  0  0  0  0  # atno 10167 bound_to 10162
  157.5675  130.8882  149.9211 H   0  0  0  0  0  0  0  0  0  0  0  0  # atno 10718 bound_to 10713
  154.8270  135.3352  154.6864 H   0  0  0  0  0  0  0  0  0  0  0  0  # atno 10763 bound_to 10752
  153.7489  135.6940  153.4954 H   0  0  0  0  0  0  0  0  0  0  0  0  # atno 10764 bound_to 10752
  153.2191  135.4455  155.0419 H   0  0  0  0  0  0  0  0  0  0  0  0  # atno 10765 bound_to 10752
  140.1579  134.8630  157.2537 H   0  0  0  0  0  0  0  0  0  0  0  0  # atno 11005 bound_to 11000
  144.7032  140.3743  143.7139 LP  0  0  0  0  0  0  0  0  0  0  0  0  # atno 17320 bound_to 7965
  145.7034  139.1667  143.2580 LP  0  0  0  0  0  0  0  0  0  0  0  0  # atno 17321 bound_to 7965
  140.7697  143.5489  150.9227 LP  0  0  0  0  0  0  0  0  0  0  0  0  # atno 17342 bound_to 10162
  139.9169  143.6653  152.3104 LP  0  0  0  0  0  0  0  0  0  0  0  0  # atno 17343 bound_to 10162
  156.0722  130.3683  150.0752 LP  0  0  0  0  0  0  0  0  0  0  0  0  # atno 17370 bound_to 10713
  156.8909  130.9588  151.3588 LP  0  0  0  0  0  0  0  0  0  0  0  0  # atno 17371 bound_to 10713
  140.2525  134.3666  155.7437 LP  0  0  0  0  0  0  0  0  0  0  0  0  # atno 17394 bound_to 11000
  141.2206  133.7324  156.8957 LP  0  0  0  0  0  0  0  0  0  0  0  0  # atno 17395 bound_to 11000

$$$$
