#       Name:                AV-unprocessed.smi:3199
#       Creating user name   scv26
#       Creation time:       Fri Mar 27 18:06:36 2020


#       File generated by GOLD software.
#

@<TRIPOS>MOLECULE
AV-unprocessed.smi:3199
    40    41     1
SMALL
NO_CHARGES


@<TRIPOS>ATOM
      1 ****        -2.8721   6.0232  -0.1671 C.3            1 S1                 0.0000
      2 ****        -2.4208   4.5858  -0.3201 C.ar           1 S1                 0.0000
      3 ****        -2.2969   3.9976  -1.5966 C.ar           1 S1                 0.0000
      4 ****        -1.8711   2.6578  -1.6790 C.ar           1 S1                 0.0000
      5 ****        -1.5881   1.9597  -0.4872 C.ar           1 S1                 0.0000
      6 ****        -1.1193   0.5184  -0.5204 C.3            1 S1                 0.0000
      7 ****         0.4123   0.4080  -0.4475 C.3            1 S1                 0.0000
      8 ****         0.8581  -0.9774  -0.5334 N.am           1 S1                 0.0000
      9 ****         0.8504  -1.8582   0.4791 C.2            1 S1                 0.0000
     10 ****         0.4458  -1.5774   1.6077 O.2            1 S1                 0.0000
     11 ****         1.3748  -3.2624   0.1441 C.3            1 S1                 0.0000
     12 ****         1.3844  -4.2788   1.3058 C.3            1 S1                 0.0000
     13 ****         2.8591  -4.5398   1.5455 C.3            1 S1                 0.0000
     14 ****         3.4545  -4.2827   0.1691 C.3            1 S1                 0.0000
     15 ****         2.7335  -3.1458  -0.2765 O.3            1 S1                 0.0000
     16 ****        -1.7450   2.6401   0.7388 C.ar           1 S1                 0.0000
     17 ****        -2.1520   3.9247   0.8275 N.ar           1 S1                 0.0000
     18 ****        -3.0261   6.4952  -1.1379 H              1 S1                 0.0000
     19 ****        -2.1237   6.6008   0.3764 H              1 S1                 0.0000
     20 ****        -3.8106   6.0686   0.3863 H              1 S1                 0.0000
     21 ****        -2.5207   4.5575  -2.4928 H              1 S1                 0.0000
     22 ****        -1.7626   2.1781  -2.6407 H              1 S1                 0.0000
     23 ****        -1.5787  -0.0168   0.3118 H              1 S1                 0.0000
     24 ****        -1.4863   0.0441  -1.4317 H              1 S1                 0.0000
     25 ****         0.8634   0.9568  -1.2747 H              1 S1                 0.0000
     26 ****         0.7875   0.8651   0.4697 H              1 S1                 0.0000
     27 ****         1.2097  -1.2897  -1.4271 H              1 S1                 0.0000
     28 ****         0.7871  -3.6659  -0.6821 H              1 S1                 0.0000
     29 ****         0.8815  -3.9504   2.2155 H              1 S1                 0.0000
     30 ****         0.8936  -5.1990   0.9860 H              1 S1                 0.0000
     31 ****         3.2553  -3.8201   2.2630 H              1 S1                 0.0000
     32 ****         3.0615  -5.5445   1.9180 H              1 S1                 0.0000
     33 ****         4.5273  -4.0925   0.2004 H              1 S1                 0.0000
     34 ****         3.2685  -5.1225  -0.5022 H              1 S1                 0.0000
     35 ****        -1.5352   2.1420   1.6740 H              1 S1                 0.0000
     36 ****         0.1031  -0.6582   1.8016 LP             1 S1                 0.0000
     37 ****         0.4600  -2.2685   2.3302 LP             1 S1                 0.0000
     38 ****         3.1360  -2.3187   0.1158 LP             1 S1                 0.0000
     39 ****         2.7722  -3.0943  -1.2745 LP             1 S1                 0.0000
     40 ****        -2.2515   4.3733   1.7156 LP             1 S1                 0.0000
@<TRIPOS>BOND
    1    1    2 1     
    2    1   18 1     
    3    1   19 1     
    4    1   20 1     
    5    2   17 ar    
    6    2    3 ar    
    7    3    4 ar    
    8    3   21 1     
    9    4    5 ar    
   10    4   22 1     
   11    5    6 1     
   12    5   16 ar    
   13    6    7 1     
   14    6   23 1     
   15    6   24 1     
   16    7    8 1     
   17    7   25 1     
   18    7   26 1     
   19    8    9 am    
   20    8   27 1     
   21    9   10 2     
   22    9   11 1     
   23   11   15 1     
   24   11   12 1     
   25   11   28 1     
   26   12   13 1     
   27   12   29 1     
   28   12   30 1     
   29   13   14 1     
   30   13   31 1     
   31   13   32 1     
   32   14   15 1     
   33   14   33 1     
   34   14   34 1     
   35   16   17 ar    
   36   16   35 1     
   37   10   36 1     
   38   10   37 1     
   39   15   38 1     
   40   15   39 1     
   41   17   40 1     
@<TRIPOS>SUBSTRUCTURE
      1 S1             1
@<TRIPOS>SET
LONE_PAIRS      STATIC     ATOMS    <user>   **** ""
5 36 37 38 39 40
DONOR_HYDROGENS      STATIC     ATOMS    <user>   **** ""
1 27
ATOM$BLUE        STATIC     ATOMS    COLORGROUP SYSTEM
5 36 37 38 39 40
ATOM$RED        STATIC     ATOMS    COLORGROUP SYSTEM
1 27
