AV-unprocessed.smi:1|AV-procd|sdf|10|dock7
  -GOLD-   2262015103D 1   1.00000     0.00000
 Structure written by MMmdl.
 57 62  0  0  0  0  0  0  0  0  1 V2000
  153.0451  140.2562  158.2614 O   0  0  0  0  0  0  0  0  0  0  0  0
  153.3097  140.5096  159.4397 C   0  0  0  0  0  0  0  0  0  0  0  0
  153.9343  139.7061  160.3841 N   0  0  0  0  0  0  0  0  0  0  0  0
  154.3948  138.5401  160.0459 C   0  0  0  0  0  0  0  0  0  0  0  0
  154.3955  137.8361  158.8350 N   0  0  0  0  0  0  0  0  0  0  0  0
  154.9453  136.5623  158.6238 C   0  0  0  0  0  0  0  0  0  0  0  0
  155.5461  135.8473  159.5372 N   0  0  0  0  0  0  0  0  0  0  0  0
  155.5874  136.5087  160.7564 C   0  0  0  0  0  0  0  0  0  0  0  0
  155.0819  137.7470  161.0868 C   0  0  0  0  0  0  0  0  0  0  0  0
  155.3552  138.0525  162.4139 N   0  0  0  0  0  0  0  0  0  0  0  0
  156.0248  136.9804  162.8266 C   0  0  0  0  0  0  0  0  0  0  0  0
  156.2019  136.0114  161.9022 N   0  0  0  0  0  0  0  0  0  0  0  0
  156.8970  134.6827  162.0215 C   0  0  1  0  0  0  0  0  0  0  0  0
  158.2188  134.9453  162.3919 O   0  0  0  0  0  0  0  0  0  0  0  0
  158.4258  134.6794  163.7790 C   0  0  1  0  0  0  0  0  0  0  0  0
  159.1556  135.8259  164.4978 C   0  0  0  0  0  0  0  0  0  0  0  0
  158.5681  137.0930  164.2277 O   0  0  0  0  0  0  0  0  0  0  0  0
  159.0291  138.2110  164.8335 C   0  0  0  0  0  0  0  0  0  0  0  0
  159.9728  138.2224  165.6261 O   0  0  0  0  0  0  0  0  0  0  0  0
  158.2808  139.4379  164.4387 C   0  0  0  0  0  0  0  0  0  0  0  0
  157.6428  139.4827  163.1772 C   0  0  0  0  0  0  0  0  0  0  0  0
  156.9154  140.6215  162.7813 C   0  0  0  0  0  0  0  0  0  0  0  0
  156.8137  141.7277  163.6447 C   0  0  0  0  0  0  0  0  0  0  0  0
  157.4442  141.6955  164.9019 C   0  0  0  0  0  0  0  0  0  0  0  0
  158.1771  140.5596  165.2972 C   0  0  0  0  0  0  0  0  0  0  0  0
  157.0704  134.2748  164.3744 C   0  0  2  0  0  0  0  0  0  0  0  0
  157.1817  133.1656  165.2523 O   0  0  0  0  0  0  0  0  0  0  0  0
  157.0058  131.7588  164.3628 S   0  0  0  0  0  0  0  0  0  0  0  0
  158.3261  131.1248  164.2281 O   0  0  0  0  0  0  0  0  0  0  0  0
  155.8288  131.0387  164.8721 O   0  0  0  0  0  0  0  0  0  0  0  0
  156.6043  132.4507  162.8968 O   0  0  0  0  0  0  0  0  0  0  0  0
  156.3016  133.8129  163.1319 C   0  0  2  0  0  0  0  0  0  0  0  0
  152.9490  141.8612  159.9632 C   0  0  0  0  0  0  0  0  0  0  0  0
  152.2770  142.7846  159.1346 C   0  0  0  0  0  0  0  0  0  0  0  0
  151.9275  144.0552  159.6322 C   0  0  0  0  0  0  0  0  0  0  0  0
  152.2443  144.4044  160.9595 C   0  0  0  0  0  0  0  0  0  0  0  0
  152.9132  143.4837  161.7894 C   0  0  0  0  0  0  0  0  0  0  0  0
  153.2659  142.2139  161.2922 C   0  0  0  0  0  0  0  0  0  0  0  0
  154.8312  136.1940  157.6035 H   0  0  0  0  0  0  0  0  0  0  0  0
  156.3965  136.9185  163.8376 H   0  0  0  0  0  0  0  0  0  0  0  0
  156.8198  134.2488  161.0240 H   0  0  0  0  0  0  0  0  0  0  0  0
  159.0834  133.8100  163.8036 H   0  0  0  0  0  0  0  0  0  0  0  0
  159.1041  135.6593  165.5738 H   0  0  0  0  0  0  0  0  0  0  0  0
  160.2166  135.8164  164.2447 H   0  0  0  0  0  0  0  0  0  0  0  0
  157.6989  138.6414  162.5017 H   0  0  0  0  0  0  0  0  0  0  0  0
  156.4278  140.6422  161.8179 H   0  0  0  0  0  0  0  0  0  0  0  0
  156.2506  142.5991  163.3444 H   0  0  0  0  0  0  0  0  0  0  0  0
  157.3636  142.5430  165.5667 H   0  0  0  0  0  0  0  0  0  0  0  0
  158.6424  140.5643  166.2717 H   0  0  0  0  0  0  0  0  0  0  0  0
  156.5706  135.1158  164.8555 H   0  0  0  0  0  0  0  0  0  0  0  0
  155.2190  133.9088  163.2099 H   0  0  0  0  0  0  0  0  0  0  0  0
  152.0271  142.5225  158.1165 H   0  0  0  0  0  0  0  0  0  0  0  0
  151.4147  144.7615  158.9961 H   0  0  0  0  0  0  0  0  0  0  0  0
  151.9742  145.3782  161.3405 H   0  0  0  0  0  0  0  0  0  0  0  0
  153.1556  143.7513  162.8073 H   0  0  0  0  0  0  0  0  0  0  0  0
  153.7783  141.5130  161.9350 H   0  0  0  0  0  0  0  0  0  0  0  0
  153.9586  138.2859  158.0436 H   0  0  0  0  0  0  0  0  0  0  0  0
  1  2  2  0  0  0  0
  2  3  1  0  0  0  0
  2 33  1  0  0  0  0
  3  4  2  0  0  0  0
  4  9  1  0  0  0  0
  4  5  1  0  0  0  0
  5  6  1  0  0  0  0
  5 57  1  0  0  0  0
  6  7  2  0  0  0  0
  6 39  1  0  0  0  0
  7  8  1  0  0  0  0
  8 12  1  0  0  0  0
  8  9  2  0  0  0  0
  9 10  1  0  0  0  0
 10 11  2  0  0  0  0
 11 12  1  0  0  0  0
 11 40  1  0  0  0  0
 12 13  1  0  0  0  0
 13 32  1  0  0  0  0
 13 14  1  0  0  0  0
 13 41  1  0  0  0  0
 14 15  1  0  0  0  0
 15 16  1  0  0  0  0
 15 26  1  0  0  0  0
 15 42  1  0  0  0  0
 16 17  1  0  0  0  0
 16 43  1  0  0  0  0
 16 44  1  0  0  0  0
 17 18  1  0  0  0  0
 18 19  2  0  0  0  0
 18 20  1  0  0  0  0
 20 25  1  0  0  0  0
 20 21  2  0  0  0  0
 21 22  1  0  0  0  0
 21 45  1  0  0  0  0
 22 23  2  0  0  0  0
 22 46  1  0  0  0  0
 23 24  1  0  0  0  0
 23 47  1  0  0  0  0
 24 25  2  0  0  0  0
 24 48  1  0  0  0  0
 25 49  1  0  0  0  0
 26 32  1  0  0  0  0
 26 27  1  0  0  0  0
 26 50  1  0  0  0  0
 27 28  1  0  0  0  0
 28 29  2  0  0  0  0
 28 30  2  0  0  0  0
 28 31  1  0  0  0  0
 31 32  1  0  0  0  0
 32 51  1  0  0  0  0
 33 38  1  0  0  0  0
 33 34  2  0  0  0  0
 34 35  1  0  0  0  0
 34 52  1  0  0  0  0
 35 36  2  0  0  0  0
 35 53  1  0  0  0  0
 36 37  1  0  0  0  0
 36 54  1  0  0  0  0
 37 38  2  0  0  0  0
 37 55  1  0  0  0  0
 38 56  1  0  0  0  0
M  END
> <s_m_source_file>
AV-unprocessed.smi

> <i_m_source_file_index>
1

> <i_lp_mmshare_version>
43012

> <i_f3d_flags>
0

> <s_epik_input>
W2NIXTFbY0hdW2NIXVtjSF1bY0hdYzFDKD1PKVtOSF1jKG5bY0hdbjIpYyhjMjMpbltjSF1uM1tDQEBIXShbQ0BIXShbQ0BIXTQ1KU9TKE81KSg9Tyk9TylPW0NASF00W0NIMl1PQyg9TyljNltjSF1bY0hdW2NIXVtjSF1bY0hdNg==

> <s_epik_cmdline>
J2VwaWtfcHl0aG9uJywgJy1waCcsICc3LjAnLCAnLXRuJywgJzgnLCAnLW1hJywgJzIwMCcsICctbWV0YWxfYmluZGluZycsICctaW1hZScsICc8aW5maWxlLm1hZT4nLCAnLW9tYWUnLCAnPG91dGZpbGUubWFlPic=

> <r_epik_Ionization_Penalty>
0.122545

> <r_epik_Ionization_Penalty_Charging>
0.122545

> <r_epik_Ionization_Penalty_Neutral>
7.8935e-16

> <r_epik_State_Penalty>
2.69178

> <r_epik_Charging_Adjusted_Penalty>
2.81433

> <i_epik_Tot_Q>
0

> <i_epik_Tot_abs_Q>
0

> <r_epik_Metal_State_Penalty>
3.02665

> <b_epik_Metal_Only>
0

> <s_epik_Chemistry_Notes>
This compound has an ester and may undergo hydrolysis at high or low pH. This compound contains an acetal/aminal-like group ( X-CH(R)-Y where X, Y are N, S, or O) that may be acid/base labile, releasing an aldehyde.

> <s_lp_Force_Field>
OPLS_2005

> <r_lp_Energy>
55.0636

> <b_lp_Chiralities_Consistent>
1

> <s_lp_Variant>
AV-unprocessed.smi:1-10

> <Gold.Version>
5.8.1

> <Gold.Id.Protein>
6NUR|6NUR_protein|mol2

> <Gold.PLP.Fitness>
57.9710

> <Gold.PLP.PLP>
-54.8125

> <Gold.PLP.part.hbond>
-1.8042

> <Gold.PLP.part.metal>
0.0000

> <Gold.PLP.part.buried>
-7.2968

> <Gold.PLP.part.nonpolar>
-46.3840

> <Gold.PLP.part.repulsive>
0.3512

> <Gold.PLP.ligand.clash>
0.0000

> <Gold.PLP.ligand.torsion>
0.4112

> <Gold.PLP.Chemscore.Hbond>
1.3031

> <Gold.PLP.Chemscore.CHOScore>
0.0000

> <Gold.PLP.Chemscore.Metal>
0.0000

> <Gold.Chemscore.Hbonds>
donor molecule, donor type, donor heavy atom, donor atom, acceptor molecule, acceptor atom, score
      P1  H  7997  8008       L1     1  0.93

> <Gold.PLP.Chemscore.Internal.Correction>
0.0715

> <Gold.Rescore>
     Score         DG    S(hbond)    S(metal)    S(lipo)     H(rot)  DE(clash)    DE(int)     intcor
     14.47     -17.42       0.96        0.00     121.21       2.13       0.07       2.87       ----

> <Gold.Chemscore.Fitness>
14.4741

> <Gold.Chemscore.DG>
-17.4158

> <Gold.Chemscore.ZeroCoef>
-5.4800

> <Gold.Chemscore.Hbond>
0.9627

> <Gold.Chemscore.Metal>
0.0000

> <Gold.Chemscore.Lipo>
121.2106

> <Gold.Chemscore.Internal_Hbond>
0.0000

> <Gold.Chemscore.DEClash>
0.0719

> <Gold.Chemscore.DEInternal>
2.8698

> <Gold.Chemscore.Rot>
2.1333

> <Gold.Chemscore.Internal.Correction>
   9.000000E+99

> <Gold.Chemscore.Hbonds>
donor molecule, donor type, donor heavy atom, donor atom, acceptor molecule, acceptor atom, score
      P1  H  7997  8008       L1     1  0.82

> <Gold.Chemscore.Hbond.Weighted>
-3.2155

> <Gold.Chemscore.Metal.Weighted>
-0.0000

> <Gold.Chemscore.Lipo.Weighted>
-14.1816

> <Gold.Chemscore.Internal_Hbond.Weighted>
0.0000

> <Gold.Chemscore.DEClash.Weighted>
0.0719

> <Gold.Chemscore.DEInternal.Weighted>
2.8698

> <Gold.Chemscore.Rot.Weighted>
5.4614

> <Gold.Chemscore.Internal.Correction.Weighted>
   9.000000E+99

> <Gold.Protein.RotatedTorsions>
[ 6907 6896 6895 6894 ] final   76.39 input  -60.11 | X-H torsion
[ 7974 7965 7964 7962 ] final    6.16 input  175.53 | X-H torsion
[ 8008 7997 7996 7995 ] final  -86.70 input   59.86 | X-H torsion
[ 10167 10162 10161 10158 ] final  -91.18 input  -65.29 | X-H torsion
[ 10718 10713 10712 10709 ] final -137.51 input   66.30 | X-H torsion
[ 10763 10752 10751 10750 ] final   97.56 input  -60.55 | X-H torsion
[ 11005 11000 10999 10996 ] final -101.62 input  -57.11 | X-H torsion

> <Gold.Protein.ActiveResidues>
 VAL166  LYS551  ARG553  GLY616  TRP617  ASP618  TYR619  PRO620  LYS621  CYS622 
 ASP623  PHE694  ASN695  SER759  ASP760  ASP761  ALA762  ILE779  LEU786  VAL792 
 PHE793  MET794  SER795  GLU796  ALA797  LYS798  CYS799  TRP800  GLU811  SER814 

> <Gold.Protein.RotatedAtoms>
  152.5071  134.3976  159.9405 H   0  0  0  0  0  0  0  0  0  0  0  0  # atno 6907 bound_to 6896
  151.3938  133.3774  159.2732 H   0  0  0  0  0  0  0  0  0  0  0  0  # atno 6908 bound_to 6896
  150.9412  134.8842  159.7672 H   0  0  0  0  0  0  0  0  0  0  0  0  # atno 6909 bound_to 6896
  146.2436  140.0276  142.8392 H   0  0  0  0  0  0  0  0  0  0  0  0  # atno 7974 bound_to 7965
  154.6548  140.0575  156.9997 H   0  0  0  0  0  0  0  0  0  0  0  0  # atno 8008 bound_to 7997
  155.1316  140.3257  155.4454 H   0  0  0  0  0  0  0  0  0  0  0  0  # atno 8009 bound_to 7997
  156.2592  140.1980  156.6435 H   0  0  0  0  0  0  0  0  0  0  0  0  # atno 8010 bound_to 7997
  140.3474  143.2909  151.9765 H   0  0  0  0  0  0  0  0  0  0  0  0  # atno 10167 bound_to 10162
  156.2889  130.7364  151.1383 H   0  0  0  0  0  0  0  0  0  0  0  0  # atno 10718 bound_to 10713
  153.2784  135.4179  155.1055 H   0  0  0  0  0  0  0  0  0  0  0  0  # atno 10763 bound_to 10752
  154.8481  135.3489  154.6146 H   0  0  0  0  0  0  0  0  0  0  0  0  # atno 10764 bound_to 10752
  153.6567  135.7050  153.5248 H   0  0  0  0  0  0  0  0  0  0  0  0  # atno 10765 bound_to 10752
  141.1223  133.8493  157.1256 H   0  0  0  0  0  0  0  0  0  0  0  0  # atno 11005 bound_to 11000
  145.1184  140.9448  143.4615 LP  0  0  0  0  0  0  0  0  0  0  0  0  # atno 17320 bound_to 7965
  145.0505  139.3185  143.5931 LP  0  0  0  0  0  0  0  0  0  0  0  0  # atno 17321 bound_to 7965
  139.4831  144.6105  151.7442 LP  0  0  0  0  0  0  0  0  0  0  0  0  # atno 17342 bound_to 10162
  140.5251  144.0818  150.6035 LP  0  0  0  0  0  0  0  0  0  0  0  0  # atno 17343 bound_to 10162
  157.7337  131.0589  150.5565 LP  0  0  0  0  0  0  0  0  0  0  0  0  # atno 17370 bound_to 10713
  156.5679  130.4272  149.6033 LP  0  0  0  0  0  0  0  0  0  0  0  0  # atno 17371 bound_to 10713
  140.0191  134.9954  157.0554 LP  0  0  0  0  0  0  0  0  0  0  0  0  # atno 17394 bound_to 11000
  140.4470  134.1621  155.7178 LP  0  0  0  0  0  0  0  0  0  0  0  0  # atno 17395 bound_to 11000

$$$$
