AV-unprocessed.smi:117|AV-procd|sdf|1129|dock5
  -GOLD-   2262018253D 1   1.00000     0.00000
 Structure written by MMmdl.
 53 55  0  0  0  0  0  0  0  0  1 V2000
  153.5598  142.8403  161.7227 C   0  0  0  0  0  0  0  0  0  0  0  0
  152.8698  143.0268  160.3817 C   0  0  0  0  0  0  0  0  0  0  0  0
  152.1996  144.2426  160.1368 C   0  0  0  0  0  0  0  0  0  0  0  0
  151.5261  144.4519  158.9226 C   0  0  0  0  0  0  0  0  0  0  0  0
  151.5197  143.4471  157.9407 C   0  0  0  0  0  0  0  0  0  0  0  0
  152.2043  142.2265  158.1562 C   0  0  0  0  0  0  0  0  0  0  0  0
  152.1896  141.1733  157.1960 N   0  0  0  0  0  0  0  0  0  0  0  0
  151.3555  140.9814  156.1570 C   0  0  0  0  0  0  0  0  0  0  0  0
  150.4267  141.7327  155.8571 O   0  0  0  0  0  0  0  0  0  0  0  0
  151.6482  139.7278  155.3205 C   0  0  0  0  0  0  0  0  0  0  0  0
  151.2933  138.4761  155.9863 N   0  0  0  0  0  0  0  0  0  0  0  0
  151.4275  137.2490  155.4592 C   0  0  0  0  0  0  0  0  0  0  0  0
  151.8864  137.0457  154.3344 O   0  0  0  0  0  0  0  0  0  0  0  0
  150.9872  136.0826  156.3566 C   0  0  0  0  0  0  0  0  0  0  0  0
  150.8059  134.8116  155.6215 N   0  0  0  0  0  0  0  0  0  0  0  0
  151.6719  133.7312  155.9225 C   0  0  0  0  0  0  0  0  0  0  0  0
  152.5640  133.8434  156.7647 O   0  0  0  0  0  0  0  0  0  0  0  0
  151.4244  132.5002  155.1809 C   0  0  0  0  0  0  0  0  0  0  0  0
  152.1904  131.4196  155.4082 F   0  0  0  0  0  0  0  0  0  0  0  0
  150.4341  132.4269  154.2684 C   0  0  0  0  0  0  0  0  0  0  0  0
  149.6084  133.4927  153.9698 N   0  0  0  0  0  0  0  0  0  0  0  0
  148.4900  133.3019  152.9716 C   0  0  2  0  0  0  0  0  0  0  0  0
  147.1170  133.7777  153.4831 C   0  0  0  0  0  0  0  0  0  0  0  0
  146.2661  132.5216  153.3921 C   0  0  0  0  0  0  0  0  0  0  0  0
  147.0251  131.6698  152.3804 C   0  0  0  0  0  0  0  0  0  0  0  0
  148.3855  131.9434  152.6760 O   0  0  0  0  0  0  0  0  0  0  0  0
  149.7609  134.7114  154.6713 C   0  0  0  0  0  0  0  0  0  0  0  0
  149.0013  135.6599  154.4682 O   0  0  0  0  0  0  0  0  0  0  0  0
  152.8801  142.0116  159.3879 C   0  0  0  0  0  0  0  0  0  0  0  0
  153.6015  140.6884  159.6350 C   0  0  0  0  0  0  0  0  0  0  0  0
  153.3495  143.6702  162.3980 H   0  0  0  0  0  0  0  0  0  0  0  0
  154.6406  142.7846  161.5917 H   0  0  0  0  0  0  0  0  0  0  0  0
  153.2168  141.9259  162.2077 H   0  0  0  0  0  0  0  0  0  0  0  0
  152.1895  145.0206  160.8863 H   0  0  0  0  0  0  0  0  0  0  0  0
  151.0031  145.3805  158.7475 H   0  0  0  0  0  0  0  0  0  0  0  0
  150.9653  143.6310  157.0337 H   0  0  0  0  0  0  0  0  0  0  0  0
  152.9586  140.5227  157.2631 H   0  0  0  0  0  0  0  0  0  0  0  0
  151.1327  139.8022  154.3613 H   0  0  0  0  0  0  0  0  0  0  0  0
  152.7153  139.7000  155.0991 H   0  0  0  0  0  0  0  0  0  0  0  0
  150.9033  138.5511  156.9143 H   0  0  0  0  0  0  0  0  0  0  0  0
  151.7191  135.9780  157.1586 H   0  0  0  0  0  0  0  0  0  0  0  0
  150.0670  136.3575  156.8750 H   0  0  0  0  0  0  0  0  0  0  0  0
  150.2895  131.4900  153.7506 H   0  0  0  0  0  0  0  0  0  0  0  0
  148.7932  133.8412  152.0728 H   0  0  0  0  0  0  0  0  0  0  0  0
  147.1642  134.1891  154.4917 H   0  0  0  0  0  0  0  0  0  0  0  0
  146.7458  134.5523  152.8111 H   0  0  0  0  0  0  0  0  0  0  0  0
  146.2382  132.0153  154.3572 H   0  0  0  0  0  0  0  0  0  0  0  0
  145.2389  132.7244  153.0891 H   0  0  0  0  0  0  0  0  0  0  0  0
  146.7998  130.6071  152.4705 H   0  0  0  0  0  0  0  0  0  0  0  0
  146.8029  131.9862  151.3600 H   0  0  0  0  0  0  0  0  0  0  0  0
  154.1283  140.3537  158.7410 H   0  0  0  0  0  0  0  0  0  0  0  0
  152.8818  139.9190  159.9151 H   0  0  0  0  0  0  0  0  0  0  0  0
  154.3507  140.7524  160.4221 H   0  0  0  0  0  0  0  0  0  0  0  0
  1  2  1  0  0  0  0
  1 31  1  0  0  0  0
  1 32  1  0  0  0  0
  1 33  1  0  0  0  0
  2 29  1  0  0  0  0
  2  3  2  0  0  0  0
  3  4  1  0  0  0  0
  3 34  1  0  0  0  0
  4  5  2  0  0  0  0
  4 35  1  0  0  0  0
  5  6  1  0  0  0  0
  5 36  1  0  0  0  0
  6  7  1  0  0  0  0
  6 29  2  0  0  0  0
  7  8  1  0  0  0  0
  7 37  1  0  0  0  0
  8  9  2  0  0  0  0
  8 10  1  0  0  0  0
 10 11  1  0  0  0  0
 10 38  1  0  0  0  0
 10 39  1  0  0  0  0
 11 12  1  0  0  0  0
 11 40  1  0  0  0  0
 12 13  2  0  0  0  0
 12 14  1  0  0  0  0
 14 15  1  0  0  0  0
 14 41  1  0  0  0  0
 14 42  1  0  0  0  0
 15 27  1  0  0  0  0
 15 16  1  0  0  0  0
 16 17  2  0  0  0  0
 16 18  1  0  0  0  0
 18 19  1  0  0  0  0
 18 20  2  0  0  0  0
 20 21  1  0  0  0  0
 20 43  1  0  0  0  0
 21 22  1  0  0  0  0
 21 27  1  0  0  0  0
 22 26  1  0  0  0  0
 22 23  1  0  0  0  0
 22 44  1  0  0  0  0
 23 24  1  0  0  0  0
 23 45  1  0  0  0  0
 23 46  1  0  0  0  0
 24 25  1  0  0  0  0
 24 47  1  0  0  0  0
 24 48  1  0  0  0  0
 25 26  1  0  0  0  0
 25 49  1  0  0  0  0
 25 50  1  0  0  0  0
 27 28  2  0  0  0  0
 29 30  1  0  0  0  0
 30 51  1  0  0  0  0
 30 52  1  0  0  0  0
 30 53  1  0  0  0  0
M  END
> <s_m_source_file>
AV-unprocessed.smi

> <i_m_source_file_index>
117

> <i_lp_mmshare_version>
43012

> <i_f3d_flags>
0

> <s_epik_input>
W0NIM11jMVtjSF1bY0hdW2NIXWMoYzFbQ0gzXSlbTkhdQyg9TylbQ0gyXVtOSF1DKD1PKVtDSDJdbjJjKD1PKWMoRilbY0hdbihjMj1PKVtDQEBIXTNbQ0gyXVtDSDJdW0NIMl1PMw==

> <s_epik_cmdline>
J2VwaWtfcHl0aG9uJywgJy1waCcsICc3LjAnLCAnLXRuJywgJzgnLCAnLW1hJywgJzIwMCcsICctbWV0YWxfYmluZGluZycsICctaW1hZScsICc8aW5maWxlLm1hZT4nLCAnLW9tYWUnLCAnPG91dGZpbGUubWFlPic=

> <r_lp_tautomer_probability>
1

> <r_epik_Ionization_Penalty>
1.58439e-06

> <r_epik_Ionization_Penalty_Charging>
4.14583e-09

> <r_epik_Ionization_Penalty_Neutral>
1.58025e-06

> <r_epik_State_Penalty>
-0

> <r_epik_Charging_Adjusted_Penalty>
4.14583e-09

> <i_epik_Tot_Q>
0

> <i_epik_Tot_abs_Q>
0

> <r_epik_Metal_State_Penalty>
-0

> <b_epik_Metal_Only>
0

> <s_epik_Chemistry_Notes>
This compound contains an acetal/aminal-like group ( X-CH(R)-Y where X, Y are N, S, or O) that may be acid/base labile, releasing an aldehyde.

> <s_lp_Force_Field>
OPLS_2005

> <r_lp_Energy>
28.8349

> <b_lp_Chiralities_Consistent>
1

> <s_lp_Variant>
AV-unprocessed.smi:117-1

> <Gold.Version>
5.8.1

> <Gold.Id.Protein>
6NUR|6NUR_protein|mol2

> <Gold.PLP.Fitness>
59.1480

> <Gold.PLP.PLP>
-56.0072

> <Gold.PLP.part.hbond>
-2.0000

> <Gold.PLP.part.metal>
0.0000

> <Gold.PLP.part.buried>
-8.2976

> <Gold.PLP.part.nonpolar>
-47.1329

> <Gold.PLP.part.repulsive>
2.5478

> <Gold.PLP.ligand.clash>
0.0000

> <Gold.PLP.ligand.torsion>
0.6970

> <Gold.PLP.Chemscore.Hbond>
1.4960

> <Gold.PLP.Chemscore.CHOScore>
0.0000

> <Gold.PLP.Chemscore.Metal>
0.0000

> <Gold.Chemscore.Hbonds>
donor molecule, donor type, donor heavy atom, donor atom, acceptor molecule, acceptor atom, score
      P1  H 10752 10763       L1    13  0.83

> <Gold.PLP.Chemscore.Internal.Correction>
0.0469

> <Gold.Rescore>
     Score         DG    S(hbond)    S(metal)    S(lipo)     H(rot)  DE(clash)    DE(int)     intcor
     15.49     -19.19       1.86        0.00     114.65       2.32       0.40       3.30       ----

> <Gold.Chemscore.Fitness>
15.4871

> <Gold.Chemscore.DG>
-19.1922

> <Gold.Chemscore.ZeroCoef>
-5.4800

> <Gold.Chemscore.Hbond>
1.8650

> <Gold.Chemscore.Metal>
0.0000

> <Gold.Chemscore.Lipo>
114.6473

> <Gold.Chemscore.Internal_Hbond>
0.0000

> <Gold.Chemscore.DEClash>
0.4003

> <Gold.Chemscore.DEInternal>
3.3047

> <Gold.Chemscore.Rot>
2.3166

> <Gold.Chemscore.Internal.Correction>
   9.000000E+99

> <Gold.Chemscore.Hbonds>
donor molecule, donor type, donor heavy atom, donor atom, acceptor molecule, acceptor atom, score
      P1  H 10752 10763       L1    13  0.28

> <Gold.Chemscore.Hbond.Weighted>
-6.2290

> <Gold.Chemscore.Metal.Weighted>
-0.0000

> <Gold.Chemscore.Lipo.Weighted>
-13.4137

> <Gold.Chemscore.Internal_Hbond.Weighted>
0.0000

> <Gold.Chemscore.DEClash.Weighted>
0.4003

> <Gold.Chemscore.DEInternal.Weighted>
3.3047

> <Gold.Chemscore.Rot.Weighted>
5.9306

> <Gold.Chemscore.Internal.Correction.Weighted>
   9.000000E+99

> <Gold.Protein.RotatedTorsions>
[ 6907 6896 6895 6894 ] final   55.53 input  -60.11 | X-H torsion
[ 7974 7965 7964 7962 ] final  -87.54 input  175.53 | X-H torsion
[ 8008 7997 7996 7995 ] final   98.34 input   59.86 | X-H torsion
[ 10167 10162 10161 10158 ] final   97.17 input  -65.29 | X-H torsion
[ 10718 10713 10712 10709 ] final -154.23 input   66.30 | X-H torsion
[ 10763 10752 10751 10750 ] final   62.24 input  -60.55 | X-H torsion
[ 11005 11000 10999 10996 ] final  -68.26 input  -57.11 | X-H torsion

> <Gold.Protein.ActiveResidues>
 VAL166  LYS551  ARG553  GLY616  TRP617  ASP618  TYR619  PRO620  LYS621  CYS622 
 ASP623  PHE694  ASN695  SER759  ASP760  ASP761  ALA762  ILE779  LEU786  VAL792 
 PHE793  MET794  SER795  GLU796  ALA797  LYS798  CYS799  TRP800  GLU811  SER814 

> <Gold.Protein.RotatedAtoms>
  152.3548  134.6955  160.0225 H   0  0  0  0  0  0  0  0  0  0  0  0  # atno 6907 bound_to 6896
  151.7298  133.3312  159.3345 H   0  0  0  0  0  0  0  0  0  0  0  0  # atno 6908 bound_to 6896
  150.7564  134.6307  159.6229 H   0  0  0  0  0  0  0  0  0  0  0  0  # atno 6909 bound_to 6896
  145.4651  140.9560  143.1948 H   0  0  0  0  0  0  0  0  0  0  0  0  # atno 7974 bound_to 7965
  156.0995  140.3245  155.7922 H   0  0  0  0  0  0  0  0  0  0  0  0  # atno 8008 bound_to 7997
  155.4861  140.0558  157.2977 H   0  0  0  0  0  0  0  0  0  0  0  0  # atno 8009 bound_to 7997
  154.4687  140.2001  156.0065 H   0  0  0  0  0  0  0  0  0  0  0  0  # atno 8010 bound_to 7997
  139.7826  144.6883  151.0002 H   0  0  0  0  0  0  0  0  0  0  0  0  # atno 10167 bound_to 10162
  156.4964  130.8371  151.2591 H   0  0  0  0  0  0  0  0  0  0  0  0  # atno 10718 bound_to 10713
  152.9976  135.5472  154.6161 H   0  0  0  0  0  0  0  0  0  0  0  0  # atno 10763 bound_to 10752
  154.5471  135.2824  155.1045 H   0  0  0  0  0  0  0  0  0  0  0  0  # atno 10764 bound_to 10752
  154.2299  135.6435  153.5224 H   0  0  0  0  0  0  0  0  0  0  0  0  # atno 10765 bound_to 10752
  141.1528  133.6737  156.6419 H   0  0  0  0  0  0  0  0  0  0  0  0  # atno 11005 bound_to 11000
  144.7979  139.6198  143.7085 LP  0  0  0  0  0  0  0  0  0  0  0  0  # atno 17320 bound_to 7965
  146.2429  139.6037  142.9479 LP  0  0  0  0  0  0  0  0  0  0  0  0  # atno 17321 bound_to 7965
  140.7819  143.4467  151.0472 LP  0  0  0  0  0  0  0  0  0  0  0  0  # atno 17342 bound_to 10162
  139.8147  143.7903  152.3173 LP  0  0  0  0  0  0  0  0  0  0  0  0  # atno 17343 bound_to 10162
  157.7468  130.9996  150.2896 LP  0  0  0  0  0  0  0  0  0  0  0  0  # atno 17370 bound_to 10713
  156.3375  130.3810  149.7437 LP  0  0  0  0  0  0  0  0  0  0  0  0  # atno 17371 bound_to 10713
  140.3387  134.7868  157.4381 LP  0  0  0  0  0  0  0  0  0  0  0  0  # atno 17394 bound_to 11000
  140.0956  134.5541  155.8401 LP  0  0  0  0  0  0  0  0  0  0  0  0  # atno 17395 bound_to 11000

$$$$
