#       Name:                AV-unprocessed.smi:1798
#       Creating user name   scv26
#       Creation time:       Fri Mar 27 08:51:20 2020


#       File generated by GOLD software.
#

@<TRIPOS>MOLECULE
AV-unprocessed.smi:1798
    46    47     1
SMALL
NO_CHARGES


@<TRIPOS>ATOM
      1 ****        -2.2689  -3.9629  -2.4844 C.3            1 S1                 0.0000
      2 ****        -2.6461  -2.5908  -1.9078 C.3            1 S1                 0.0000
      3 ****        -2.1075  -1.4436  -2.7839 C.3            1 S1                 0.0000
      4 ****        -2.4791  -0.0651  -2.2083 C.3            1 S1                 0.0000
      5 ****        -2.0169   0.1030  -0.7480 C.3            1 S1                 0.0000
      6 ****        -0.5604   0.2148  -0.6887 N.am           1 S1                 0.0000
      7 ****         0.1379   0.7972   0.2975 C.2            1 S1                 0.0000
      8 ****        -0.3887   1.3058   1.2883 O.2            1 S1                 0.0000
      9 ****         1.6647   0.7781   0.1371 C.3            1 S1                 0.0000
     10 ****         2.3561   1.7390   1.0131 N.am           1 S1                 0.0000
     11 ****         2.8588   1.2457   2.2334 C.2            1 S1                 0.0000
     12 ****         3.5035   2.0358   3.1141 C.2            1 S1                 0.0000
     13 ****         4.0099   1.5129   4.3640 N.pl3          1 S1                 1.0000
     14 ****         4.5878   2.2770   5.1301 O.2            1 S1                 0.0000
     15 ****         3.8483   0.3236   4.6213 O.2            1 S1                -1.0000
     16 ****         3.6717   3.4339   2.7678 C.2            1 S1                 0.0000
     17 ****         3.1894   3.9128   1.6042 C.2            1 S1                 0.0000
     18 ****         2.4846   3.0515   0.6491 C.2            1 S1                 0.0000
     19 ****         2.0372   3.4842  -0.4131 O.2            1 S1                 0.0000
     20 ****        -2.5302  -1.0613   0.1257 C.3            1 S1                 0.0000
     21 ****        -2.1550  -2.4356  -0.4559 C.3            1 S1                 0.0000
     22 ****        -1.1871  -4.0963  -2.5168 H              1 S1                 0.0000
     23 ****        -2.6499  -4.0801  -3.4993 H              1 S1                 0.0000
     24 ****        -2.6855  -4.7700  -1.8815 H              1 S1                 0.0000
     25 ****        -3.7352  -2.5256  -1.9023 H              1 S1                 0.0000
     26 ****        -1.0235  -1.5243  -2.8731 H              1 S1                 0.0000
     27 ****        -2.5038  -1.5319  -3.7962 H              1 S1                 0.0000
     28 ****        -2.0596   0.7261  -2.8310 H              1 S1                 0.0000
     29 ****        -3.5619   0.0570  -2.2548 H              1 S1                 0.0000
     30 ****        -2.4416   1.0350  -0.3703 H              1 S1                 0.0000
     31 ****        -0.0448  -0.1831  -1.4604 H              1 S1                 0.0000
     32 ****         2.0141  -0.2367   0.3324 H              1 S1                 0.0000
     33 ****         1.9193   0.9701  -0.9071 H              1 S1                 0.0000
     34 ****         2.6765   0.1938   2.4002 H              1 S1                 0.0000
     35 ****         4.1842   4.1073   3.4390 H              1 S1                 0.0000
     36 ****         3.3245   4.9578   1.3667 H              1 S1                 0.0000
     37 ****        -2.1524  -0.9717   1.1449 H              1 S1                 0.0000
     38 ****        -3.6163  -0.9948   0.2026 H              1 S1                 0.0000
     39 ****        -2.5829  -3.2215   0.1673 H              1 S1                 0.0000
     40 ****        -1.0729  -2.5679  -0.4147 H              1 S1                 0.0000
     41 ****        -1.3839   1.2970   1.3855 LP             1 S1                 0.0000
     42 ****         0.1791   1.7275   1.9952 LP             1 S1                 0.0000
     43 ****         4.7008   3.2399   4.8851 LP             1 S1                 0.0000
     44 ****         4.9460   1.9370   5.9997 LP             1 S1                 0.0000
     45 ****         1.5613   2.8698  -1.0425 LP             1 S1                 0.0000
     46 ****         2.1497   4.4501  -0.6466 LP             1 S1                 0.0000
@<TRIPOS>BOND
    1    1    2 1     
    2    1   22 1     
    3    1   23 1     
    4    1   24 1     
    5    2   21 1     
    6    2    3 1     
    7    2   25 1     
    8    3    4 1     
    9    3   26 1     
   10    3   27 1     
   11    4    5 1     
   12    4   28 1     
   13    4   29 1     
   14    5    6 1     
   15    5   20 1     
   16    5   30 1     
   17    6    7 am    
   18    6   31 1     
   19    7    8 2     
   20    7    9 1     
   21    9   10 1     
   22    9   32 1     
   23    9   33 1     
   24   10   18 am    
   25   10   11 1     
   26   11   12 2     
   27   11   34 1     
   28   12   13 1     
   29   12   16 1     
   30   13   14 2     
   31   13   15 1     
   32   16   17 2     
   33   16   35 1     
   34   17   18 1     
   35   17   36 1     
   36   18   19 2     
   37   20   21 1     
   38   20   37 1     
   39   20   38 1     
   40   21   39 1     
   41   21   40 1     
   42    8   41 1     
   43    8   42 1     
   44   14   43 1     
   45   14   44 1     
   46   19   45 1     
   47   19   46 1     
@<TRIPOS>SUBSTRUCTURE
      1 S1             1
@<TRIPOS>SET
LONE_PAIRS      STATIC     ATOMS    <user>   **** ""
7 41 42 43 44 15 45 46
DONOR_HYDROGENS      STATIC     ATOMS    <user>   **** ""
1 31
ATOM$BLUE        STATIC     ATOMS    COLORGROUP SYSTEM
7 41 42 43 44 15 45 46
ATOM$RED        STATIC     ATOMS    COLORGROUP SYSTEM
1 31
