AV-unprocessed.smi:164|AV-procd|sdf|1385|dock2
  -GOLD-   2262019113D 1   1.00000     0.00000
 Structure written by MMmdl.
 53 55  0  0  0  0  0  0  0  0  1 V2000
  153.6405  142.5800  163.4613 C   0  0  0  0  0  0  0  0  0  0  0  0
  153.0380  142.7766  162.0808 C   0  0  0  0  0  0  0  0  0  0  0  0
  152.3329  143.9664  161.8063 C   0  0  0  0  0  0  0  0  0  0  0  0
  151.7581  144.1779  160.5407 C   0  0  0  0  0  0  0  0  0  0  0  0
  151.8920  143.2055  159.5309 C   0  0  0  0  0  0  0  0  0  0  0  0
  151.2625  143.4447  158.1707 C   0  0  0  0  0  0  0  0  0  0  0  0
  152.6126  142.0173  159.7907 C   0  0  0  0  0  0  0  0  0  0  0  0
  152.7464  141.0827  158.7972 O   0  0  0  0  0  0  0  0  0  0  0  0
  152.0334  139.8791  159.0504 C   0  0  0  0  0  0  0  0  0  0  0  0
  152.2091  138.9059  157.8742 C   0  0  1  0  0  0  0  0  0  0  0  0
  153.5924  138.6523  157.7333 O   0  0  0  0  0  0  0  0  0  0  0  0
  151.4315  137.5850  158.0665 C   0  0  0  0  0  0  0  0  0  0  0  0
  149.9938  137.7408  157.9220 N   0  0  0  0  0  0  0  0  0  0  0  0
  149.5151  138.4792  156.8127 C   0  0  0  0  0  0  0  0  0  0  0  0
  150.2735  138.9791  155.9800 O   0  0  0  0  0  0  0  0  0  0  0  0
  148.0631  138.6053  156.7512 C   0  0  0  0  0  0  0  0  0  0  0  0
  147.4973  139.2687  155.7286 F   0  0  0  0  0  0  0  0  0  0  0  0
  147.2738  138.0674  157.7061 C   0  0  0  0  0  0  0  0  0  0  0  0
  147.7730  137.3742  158.7973 N   0  0  0  0  0  0  0  0  0  0  0  0
  146.8684  136.7874  159.8611 C   0  0  1  0  0  0  0  0  0  0  0  0
  147.2077  135.3042  160.1057 C   0  0  0  0  0  0  0  0  0  0  0  0
  147.3915  135.2446  161.6093 C   0  0  0  0  0  0  0  0  0  0  0  0
  147.8726  136.6527  161.9251 C   0  0  0  0  0  0  0  0  0  0  0  0
  147.0647  137.4559  161.0748 O   0  0  0  0  0  0  0  0  0  0  0  0
  149.1666  137.1883  158.9282 C   0  0  0  0  0  0  0  0  0  0  0  0
  149.6336  136.5783  159.8936 O   0  0  0  0  0  0  0  0  0  0  0  0
  153.1716  141.7887  161.0734 C   0  0  0  0  0  0  0  0  0  0  0  0
  153.9121  140.4903  161.3657 C   0  0  0  0  0  0  0  0  0  0  0  0
  153.5699  143.4895  164.0584 H   0  0  0  0  0  0  0  0  0  0  0  0
  154.6948  142.3123  163.3880 H   0  0  0  0  0  0  0  0  0  0  0  0
  153.1162  141.7867  163.9947 H   0  0  0  0  0  0  0  0  0  0  0  0
  152.2244  144.7234  162.5693 H   0  0  0  0  0  0  0  0  0  0  0  0
  151.2146  145.0914  160.3488 H   0  0  0  0  0  0  0  0  0  0  0  0
  150.7597  142.5450  157.8144 H   0  0  0  0  0  0  0  0  0  0  0  0
  152.0253  143.7238  157.4439 H   0  0  0  0  0  0  0  0  0  0  0  0
  150.5241  144.2459  158.2127 H   0  0  0  0  0  0  0  0  0  0  0  0
  152.4333  139.4171  159.9539 H   0  0  0  0  0  0  0  0  0  0  0  0
  150.9761  140.0736  159.2392 H   0  0  0  0  0  0  0  0  0  0  0  0
  151.8757  139.4135  156.9681 H   0  0  0  0  0  0  0  0  0  0  0  0
  153.7273  137.7169  157.7266 H   0  0  0  0  0  0  0  0  0  0  0  0
  151.7714  136.7960  157.3933 H   0  0  0  0  0  0  0  0  0  0  0  0
  151.5981  137.1734  159.0639 H   0  0  0  0  0  0  0  0  0  0  0  0
  146.2085  138.1974  157.5942 H   0  0  0  0  0  0  0  0  0  0  0  0
  145.8497  136.9621  159.5098 H   0  0  0  0  0  0  0  0  0  0  0  0
  146.4088  134.6557  159.7448 H   0  0  0  0  0  0  0  0  0  0  0  0
  148.1367  135.0391  159.5982 H   0  0  0  0  0  0  0  0  0  0  0  0
  146.4340  135.0589  162.0978 H   0  0  0  0  0  0  0  0  0  0  0  0
  148.0939  134.4724  161.9242 H   0  0  0  0  0  0  0  0  0  0  0  0
  147.7417  136.9195  162.9738 H   0  0  0  0  0  0  0  0  0  0  0  0
  148.9262  136.7697  161.6676 H   0  0  0  0  0  0  0  0  0  0  0  0
  153.7191  139.7259  160.6133 H   0  0  0  0  0  0  0  0  0  0  0  0
  153.6057  140.0747  162.3254 H   0  0  0  0  0  0  0  0  0  0  0  0
  154.9868  140.6699  161.3956 H   0  0  0  0  0  0  0  0  0  0  0  0
  1  2  1  0  0  0  0
  1 29  1  0  0  0  0
  1 30  1  0  0  0  0
  1 31  1  0  0  0  0
  2 27  1  0  0  0  0
  2  3  2  0  0  0  0
  3  4  1  0  0  0  0
  3 32  1  0  0  0  0
  4  5  2  0  0  0  0
  4 33  1  0  0  0  0
  5  6  1  0  0  0  0
  5  7  1  0  0  0  0
  6 34  1  0  0  0  0
  6 35  1  0  0  0  0
  6 36  1  0  0  0  0
  7  8  1  0  0  0  0
  7 27  2  0  0  0  0
  8  9  1  0  0  0  0
  9 10  1  0  0  0  0
  9 37  1  0  0  0  0
  9 38  1  0  0  0  0
 10 11  1  0  0  0  0
 10 12  1  0  0  0  0
 10 39  1  0  0  0  0
 11 40  1  0  0  0  0
 12 13  1  0  0  0  0
 12 41  1  0  0  0  0
 12 42  1  0  0  0  0
 13 25  1  0  0  0  0
 13 14  1  0  0  0  0
 14 15  2  0  0  0  0
 14 16  1  0  0  0  0
 16 17  1  0  0  0  0
 16 18  2  0  0  0  0
 18 19  1  0  0  0  0
 18 43  1  0  0  0  0
 19 20  1  0  0  0  0
 19 25  1  0  0  0  0
 20 24  1  0  0  0  0
 20 21  1  0  0  0  0
 20 44  1  0  0  0  0
 21 22  1  0  0  0  0
 21 45  1  0  0  0  0
 21 46  1  0  0  0  0
 22 23  1  0  0  0  0
 22 47  1  0  0  0  0
 22 48  1  0  0  0  0
 23 24  1  0  0  0  0
 23 49  1  0  0  0  0
 23 50  1  0  0  0  0
 25 26  2  0  0  0  0
 27 28  1  0  0  0  0
 28 51  1  0  0  0  0
 28 52  1  0  0  0  0
 28 53  1  0  0  0  0
M  END
> <s_m_source_file>
AV-unprocessed.smi

> <i_m_source_file_index>
164

> <i_lp_mmshare_version>
43012

> <i_f3d_flags>
0

> <s_epik_input>
W0NIM11jMVtjSF1bY0hdYyhbQ0gzXSljKGMxW0NIM10pT1tDSDJdW0NASF0oW09IXSlbQ0gyXW4yYyg9TyljKEYpW2NIXW4oYzI9TylbQ0BASF0zW0NIMl1bQ0gyXVtDSDJdTzM=

> <s_epik_cmdline>
J2VwaWtfcHl0aG9uJywgJy1waCcsICc3LjAnLCAnLXRuJywgJzgnLCAnLW1hJywgJzIwMCcsICctbWV0YWxfYmluZGluZycsICctaW1hZScsICc8aW5maWxlLm1hZT4nLCAnLW9tYWUnLCAnPG91dGZpbGUubWFlPic=

> <r_lp_tautomer_probability>
1

> <r_epik_Ionization_Penalty>
1.45842e-07

> <r_epik_Ionization_Penalty_Charging>
2.86622e-08

> <r_epik_Ionization_Penalty_Neutral>
1.1718e-07

> <r_epik_State_Penalty>
-0

> <r_epik_Charging_Adjusted_Penalty>
2.86622e-08

> <i_epik_Tot_Q>
0

> <i_epik_Tot_abs_Q>
0

> <r_epik_Metal_State_Penalty>
-0

> <b_epik_Metal_Only>
0

> <s_epik_Chemistry_Notes>
This compound contains an acetal/aminal-like group ( X-CH(R)-Y where X, Y are N, S, or O) that may be acid/base labile, releasing an aldehyde.

> <s_lp_Force_Field>
OPLS_2005

> <r_lp_Energy>
46.8287

> <b_lp_Chiralities_Consistent>
1

> <s_lp_Variant>
AV-unprocessed.smi:164-4

> <Gold.Version>
5.8.1

> <Gold.Id.Protein>
6NUR|6NUR_protein|mol2

> <Gold.PLP.Fitness>
55.2448

> <Gold.PLP.PLP>
-50.6697

> <Gold.PLP.part.hbond>
-4.2556

> <Gold.PLP.part.metal>
0.0000

> <Gold.PLP.part.buried>
-2.4701

> <Gold.PLP.part.nonpolar>
-43.4253

> <Gold.PLP.part.repulsive>
0.0000

> <Gold.PLP.ligand.clash>
3.7042

> <Gold.PLP.ligand.torsion>
0.4069

> <Gold.PLP.Chemscore.Hbond>
3.0000

> <Gold.PLP.Chemscore.CHOScore>
0.0000

> <Gold.PLP.Chemscore.Metal>
0.0000

> <Gold.Chemscore.Hbonds>
donor molecule, donor type, donor heavy atom, donor atom, acceptor molecule, acceptor atom, score
      P1  H  6896  6907       L1    26  0.89
      P1  H  6934  6947       L1    24  1.00
      P1  H  7997  8008       L1    11  1.00

> <Gold.PLP.Chemscore.Internal.Correction>
0.0931

> <Gold.Rescore>
     Score         DG    S(hbond)    S(metal)    S(lipo)     H(rot)  DE(clash)    DE(int)     intcor
     17.97     -24.24       2.91        0.00     137.08       2.73       0.09       6.18       ----

> <Gold.Chemscore.Fitness>
17.9664

> <Gold.Chemscore.DG>
-24.2395

> <Gold.Chemscore.ZeroCoef>
-5.4800

> <Gold.Chemscore.Hbond>
2.9082

> <Gold.Chemscore.Metal>
0.0000

> <Gold.Chemscore.Lipo>
137.0819

> <Gold.Chemscore.Internal_Hbond>
0.0000

> <Gold.Chemscore.DEClash>
0.0901

> <Gold.Chemscore.DEInternal>
6.1830

> <Gold.Chemscore.Rot>
2.7315

> <Gold.Chemscore.Internal.Correction>
   9.000000E+99

> <Gold.Chemscore.Hbonds>
donor molecule, donor type, donor heavy atom, donor atom, acceptor molecule, acceptor atom, score
      P1  H  6896  6907       L1    26  0.87
      P1  H  6934  6947       L1    24  0.85
      P1  H  7997  8008       L1    11  0.95

> <Gold.Chemscore.Hbond.Weighted>
-9.7134

> <Gold.Chemscore.Metal.Weighted>
-0.0000

> <Gold.Chemscore.Lipo.Weighted>
-16.0386

> <Gold.Chemscore.Internal_Hbond.Weighted>
0.0000

> <Gold.Chemscore.DEClash.Weighted>
0.0901

> <Gold.Chemscore.DEInternal.Weighted>
6.1830

> <Gold.Chemscore.Rot.Weighted>
6.9925

> <Gold.Chemscore.Internal.Correction.Weighted>
   9.000000E+99

> <Gold.Protein.RotatedTorsions>
[ 6907 6896 6895 6894 ] final  -40.70 input  -60.11 | X-H torsion
[ 7974 7965 7964 7962 ] final -120.21 input  175.53 | X-H torsion
[ 8008 7997 7996 7995 ] final  -96.80 input   59.86 | X-H torsion
[ 10167 10162 10161 10158 ] final  -85.60 input  -65.29 | X-H torsion
[ 10718 10713 10712 10709 ] final   19.39 input   66.30 | X-H torsion
[ 10763 10752 10751 10750 ] final  -55.33 input  -60.55 | X-H torsion
[ 11005 11000 10999 10996 ] final   59.32 input  -57.11 | X-H torsion

> <Gold.Protein.ActiveResidues>
 VAL166  LYS551  ARG553  GLY616  TRP617  ASP618  TYR619  PRO620  LYS621  CYS622 
 ASP623  PHE694  ASN695  SER759  ASP760  ASP761  ALA762  ILE779  LEU786  VAL792 
 PHE793  MET794  SER795  GLU796  ALA797  LYS798  CYS799  TRP800  GLU811  SER814 

> <Gold.Protein.RotatedAtoms>
  150.9754  134.9119  159.7812 H   0  0  0  0  0  0  0  0  0  0  0  0  # atno 6907 bound_to 6896
  152.5204  134.3484  159.9252 H   0  0  0  0  0  0  0  0  0  0  0  0  # atno 6908 bound_to 6896
  151.3492  133.3891  159.2713 H   0  0  0  0  0  0  0  0  0  0  0  0  # atno 6909 bound_to 6896
  145.0539  140.8239  143.4193 H   0  0  0  0  0  0  0  0  0  0  0  0  # atno 7974 bound_to 7965
  154.7792  140.0468  157.1114 H   0  0  0  0  0  0  0  0  0  0  0  0  # atno 8008 bound_to 7997
  154.9725  140.3091  155.4962 H   0  0  0  0  0  0  0  0  0  0  0  0  # atno 8009 bound_to 7997
  156.2934  140.2250  156.4819 H   0  0  0  0  0  0  0  0  0  0  0  0  # atno 8010 bound_to 7997
  140.4022  143.2658  151.9128 H   0  0  0  0  0  0  0  0  0  0  0  0  # atno 10167 bound_to 10162
  157.1098  130.6503  149.5894 H   0  0  0  0  0  0  0  0  0  0  0  0  # atno 10718 bound_to 10713
  154.1891  135.6430  153.5055 H   0  0  0  0  0  0  0  0  0  0  0  0  # atno 10763 bound_to 10752
  153.0039  135.5424  154.6434 H   0  0  0  0  0  0  0  0  0  0  0  0  # atno 10764 bound_to 10752
  154.5818  135.2926  155.0698 H   0  0  0  0  0  0  0  0  0  0  0  0  # atno 10765 bound_to 10752
  140.0313  134.6008  155.9504 H   0  0  0  0  0  0  0  0  0  0  0  0  # atno 11005 bound_to 11000
  145.1492  139.2524  143.5449 LP  0  0  0  0  0  0  0  0  0  0  0  0  # atno 17320 bound_to 7965
  146.3520  140.1191  142.8601 LP  0  0  0  0  0  0  0  0  0  0  0  0  # atno 17321 bound_to 7965
  139.4784  144.5622  151.8221 LP  0  0  0  0  0  0  0  0  0  0  0  0  # atno 17342 bound_to 10162
  140.4728  144.1563  150.5920 LP  0  0  0  0  0  0  0  0  0  0  0  0  # atno 17343 bound_to 10162
  155.9853  130.4882  150.7026 LP  0  0  0  0  0  0  0  0  0  0  0  0  # atno 17370 bound_to 10713
  157.4569  131.0879  151.0787 LP  0  0  0  0  0  0  0  0  0  0  0  0  # atno 17371 bound_to 10713
  141.1832  133.6550  156.5108 LP  0  0  0  0  0  0  0  0  0  0  0  0  # atno 17394 bound_to 11000
  140.4222  134.7177  157.4896 LP  0  0  0  0  0  0  0  0  0  0  0  0  # atno 17395 bound_to 11000

$$$$
