#       Name:                AV-unprocessed.smi:262
#       Creating user name   scv26
#       Creation time:       Thu Mar 26 21:19:37 2020


#       File generated by GOLD software.
#

@<TRIPOS>MOLECULE
AV-unprocessed.smi:262
    70    74     1
SMALL
NO_CHARGES


@<TRIPOS>ATOM
      1 ****        -4.3641   2.0566   3.6516 O.3            1 S1                 0.0000
      2 ****        -4.9391   1.6565   2.4193 C.3            1 S1                 0.0000
      3 ****        -4.3721   0.2602   2.0615 C.3            1 S1                 0.0000
      4 ****        -2.9274   0.2344   1.8869 N.pl3          1 S1                 0.0000
      5 ****        -1.9841   0.0537   2.8726 C.2            1 S1                 0.0000
      6 ****        -0.7444   0.0710   2.4655 N.2            1 S1                 0.0000
      7 ****        -0.8381   0.2632   1.0920 C.ar           1 S1                 0.0000
      8 ****         0.1142   0.3805   0.0391 C.ar           1 S1                 0.0000
      9 ****         1.4557   0.2885   0.2421 N.3            1 S1                 0.0000
     10 ****         1.9325  -0.9494   0.8522 C.3            1 S1                 0.0000
     11 ****         2.2770  -1.9912  -0.2266 C.3            1 S1                 0.0000
     12 ****         3.2421  -1.4450  -1.2155 N.4            1 S1                 1.0000
     13 ****         3.6550  -2.4613  -2.2167 C.3            1 S1                 0.0000
     14 ****         5.0205  -2.1449  -2.8568 C.3            1 S1                 0.0000
     15 ****         6.1920  -2.2059  -1.8952 C.3            1 S1                 0.0000
     16 ****         7.3777  -2.3693  -2.8420 C.3            1 S1                 0.0000
     17 ****         6.8731  -3.0446  -3.9908 O.3            1 S1                 0.0000
     18 ****         5.4577  -3.1702  -3.9022 C.3            1 S1                 0.0000
     19 ****         2.7522  -0.1799  -1.8264 C.3            1 S1                 0.0000
     20 ****         2.3712   0.8544  -0.7483 C.3            1 S1                 0.0000
     21 ****        -0.3683   0.5944  -1.2142 N.ar           1 S1                 0.0000
     22 ****        -1.6847   0.6728  -1.4298 C.ar           1 S1                 0.0000
     23 ****        -2.6813   0.5708  -0.5491 N.ar           1 S1                 0.0000
     24 ****        -2.2067   0.3702   0.7131 C.ar           1 S1                 0.0000
     25 ****        -6.4689   1.5849   2.5996 C.3            1 S1                 0.0000
     26 ****        -7.0972   2.9774   2.7865 C.3            1 S1                 0.0000
     27 ****        -6.7469   3.8185   1.6943 O.3            1 S1                 0.0000
     28 ****        -5.3460   4.0490   1.6087 C.3            1 S1                 0.0000
     29 ****        -4.6050   2.7241   1.3545 C.3            1 S1                 0.0000
     30 ****        -3.4308   2.1444   3.5318 H              1 S1                 0.0000
     31 ****        -4.6319  -0.4618   2.8371 H              1 S1                 0.0000
     32 ****        -4.8317  -0.1065   1.1428 H              1 S1                 0.0000
     33 ****        -2.2472  -0.0869   3.9112 H              1 S1                 0.0000
     34 ****         2.8200  -0.7208   1.4433 H              1 S1                 0.0000
     35 ****         1.2060  -1.3712   1.5453 H              1 S1                 0.0000
     36 ****         2.6980  -2.8762   0.2517 H              1 S1                 0.0000
     37 ****         1.3698  -2.3090  -0.7432 H              1 S1                 0.0000
     38 ****         3.7194  -3.4391  -1.7367 H              1 S1                 0.0000
     39 ****         2.8842  -2.5512  -2.9837 H              1 S1                 0.0000
     40 ****         5.0052  -1.1660  -3.3367 H              1 S1                 0.0000
     41 ****         6.2760  -1.3216  -1.2628 H              1 S1                 0.0000
     42 ****         6.1110  -3.0809  -1.2481 H              1 S1                 0.0000
     43 ****         7.7564  -1.3947  -3.1518 H              1 S1                 0.0000
     44 ****         8.1989  -2.9216  -2.3844 H              1 S1                 0.0000
     45 ****         5.2222  -4.1841  -3.5750 H              1 S1                 0.0000
     46 ****         4.9830  -3.0100  -4.8706 H              1 S1                 0.0000
     47 ****         3.5144   0.2514  -2.4738 H              1 S1                 0.0000
     48 ****         1.8913  -0.3975  -2.4599 H              1 S1                 0.0000
     49 ****         1.9495   1.7504  -1.2055 H              1 S1                 0.0000
     50 ****         3.2705   1.1806  -0.2248 H              1 S1                 0.0000
     51 ****        -1.9823   0.8412  -2.4544 H              1 S1                 0.0000
     52 ****        -6.9150   1.1229   1.7179 H              1 S1                 0.0000
     53 ****        -6.7260   0.9430   3.4434 H              1 S1                 0.0000
     54 ****        -8.1831   2.8924   2.8290 H              1 S1                 0.0000
     55 ****        -6.7801   3.4306   3.7269 H              1 S1                 0.0000
     56 ****        -5.1552   4.7437   0.7907 H              1 S1                 0.0000
     57 ****        -4.9889   4.5303   2.5204 H              1 S1                 0.0000
     58 ****        -3.5311   2.9084   1.3099 H              1 S1                 0.0000
     59 ****        -4.8928   2.3512   0.3706 H              1 S1                 0.0000
     60 ****         4.0711  -1.2110  -0.6882 H              1 S1                 0.0000
     61 ****        -4.5511   1.3668   4.3511 LP             1 S1                 0.0000
     62 ****        -4.7518   2.9334   3.9361 LP             1 S1                 0.0000
     63 ****         0.0842  -0.0308   3.0161 LP             1 S1                 0.0000
     64 ****         1.5156   0.9807   0.9613 LP             1 S1                 0.0000
     65 ****         7.2832  -3.9550  -4.0459 LP             1 S1                 0.0000
     66 ****         7.1082  -2.5229  -4.8109 LP             1 S1                 0.0000
     67 ****         0.2668   0.6938  -1.9802 LP             1 S1                 0.0000
     68 ****        -3.6512   0.6334  -0.7843 LP             1 S1                 0.0000
     69 ****        -7.2099   4.6978   1.8059 LP             1 S1                 0.0000
     70 ****        -7.0527   3.3860   0.8461 LP             1 S1                 0.0000
@<TRIPOS>BOND
    1    1    2 1     
    2    1   30 1     
    3    2   29 1     
    4    2    3 1     
    5    2   25 1     
    6    3    4 1     
    7    3   31 1     
    8    3   32 1     
    9    4   24 1     
   10    4    5 1     
   11    5    6 2     
   12    5   33 1     
   13    6    7 1     
   14    7   24 ar    
   15    7    8 ar    
   16    8    9 1     
   17    8   21 ar    
   18    9   20 1     
   19    9   10 1     
   20   10   11 1     
   21   10   34 1     
   22   10   35 1     
   23   11   12 1     
   24   11   36 1     
   25   11   37 1     
   26   12   13 1     
   27   12   19 1     
   28   12   60 1     
   29   13   14 1     
   30   13   38 1     
   31   13   39 1     
   32   14   18 1     
   33   14   15 1     
   34   14   40 1     
   35   15   16 1     
   36   15   41 1     
   37   15   42 1     
   38   16   17 1     
   39   16   43 1     
   40   16   44 1     
   41   17   18 1     
   42   18   45 1     
   43   18   46 1     
   44   19   20 1     
   45   19   47 1     
   46   19   48 1     
   47   20   49 1     
   48   20   50 1     
   49   21   22 ar    
   50   22   23 ar    
   51   22   51 1     
   52   23   24 ar    
   53   25   26 1     
   54   25   52 1     
   55   25   53 1     
   56   26   27 1     
   57   26   54 1     
   58   26   55 1     
   59   27   28 1     
   60   28   29 1     
   61   28   56 1     
   62   28   57 1     
   63   29   58 1     
   64   29   59 1     
   65    1   61 1     
   66    1   62 1     
   67    6   63 1     
   68    9   64 1     
   69   17   65 1     
   70   17   66 1     
   71   21   67 1     
   72   23   68 1     
   73   27   69 1     
   74   27   70 1     
@<TRIPOS>SUBSTRUCTURE
      1 S1             1
@<TRIPOS>SET
LONE_PAIRS      STATIC     ATOMS    <user>   **** ""
10 61 62 63 64 65 66 67 68 69 70
DONOR_HYDROGENS      STATIC     ATOMS    <user>   **** ""
2 30 60
ATOM$BLUE        STATIC     ATOMS    COLORGROUP SYSTEM
10 61 62 63 64 65 66 67 68 69 70
ATOM$RED        STATIC     ATOMS    COLORGROUP SYSTEM
2 30 60
