AV-unprocessed.smi:21|AV-procd|sdf|164|dock10
  -GOLD-   2262015403D 1   1.00000     0.00000
 Structure written by MMmdl.
 61 64  0  0  0  0  0  0  0  0  1 V2000
  153.3748  142.8837  162.9554 C   0  0  0  0  0  0  0  0  0  0  0  0
  152.4174  142.9274  161.9092 O   0  0  0  0  0  0  0  0  0  0  0  0
  152.9877  142.7978  160.6137 C   0  0  2  0  0  0  0  0  0  0  0  0
  151.9062  142.6866  159.5247 C   0  0  0  0  0  0  0  0  0  0  0  0
  152.2436  141.3899  158.7730 C   0  0  2  0  0  0  0  0  0  0  0  0
  151.0226  140.7402  158.0806 C   0  0  0  0  0  0  0  0  0  0  0  0
  151.1193  140.7259  156.6200 N   0  0  0  0  0  0  0  0  0  0  0  0
  150.6939  141.9312  155.9123 C   0  0  0  0  0  0  0  0  0  0  0  0
  151.0358  139.5338  155.9662 C   0  0  0  0  0  0  0  0  0  0  0  0
  150.7146  139.5310  154.6438 N   0  0  0  0  0  0  0  0  0  0  0  0
  150.5864  138.3830  153.9740 C   0  0  0  0  0  0  0  0  0  0  0  0
  150.7348  137.1363  154.4221 N   0  0  0  0  0  0  0  0  0  0  0  0
  151.0729  137.1250  155.7425 C   0  0  0  0  0  0  0  0  0  0  0  0
  151.2495  138.2638  156.5814 C   0  0  0  0  0  0  0  0  0  0  0  0
  151.6107  137.8461  157.8580 N   0  0  0  0  0  0  0  0  0  0  0  0
  151.6266  136.5441  157.7839 C   0  0  0  0  0  0  0  0  0  0  0  0
  151.3200  136.0267  156.5474 N   0  0  0  0  0  0  0  0  0  0  0  0
  151.2612  134.6196  156.1898 C   0  0  0  0  0  0  0  0  0  0  0  0
  149.8480  134.1542  155.7578 C   0  0  2  0  0  0  0  0  0  0  0  0
  148.9597  133.8524  156.9920 C   0  0  0  0  0  0  0  0  0  0  0  0
  149.2400  134.7256  158.0653 O   0  0  0  0  0  0  0  0  0  0  0  0
  149.9547  132.9394  154.7951 C   0  0  1  0  0  0  0  0  0  0  0  0
  150.3994  131.6313  155.4271 C   0  0  0  0  0  0  0  0  0  0  0  0
  149.9603  130.6035  154.3913 C   0  0  0  0  0  0  0  0  0  0  0  0
  148.7684  131.1269  153.8196 O   0  0  0  0  0  0  0  0  0  0  0  0
  148.6237  132.4991  154.1710 C   0  0  0  0  0  0  0  0  0  0  0  0
  152.8740  140.5541  159.7825 N   0  0  0  0  0  0  0  0  0  0  0  0
  153.6120  139.4214  159.2389 C   0  0  0  0  0  0  0  0  0  0  0  0
  153.7355  141.4637  160.5151 C   0  0  0  0  0  0  0  0  0  0  0  0
  153.6803  143.6174  160.4145 H   0  0  0  0  0  0  0  0  0  0  0  0
  152.9913  141.6289  158.0145 H   0  0  0  0  0  0  0  0  0  0  0  0
  152.8692  142.9810  163.9160 H   0  0  0  0  0  0  0  0  0  0  0  0
  154.0987  143.6955  162.8754 H   0  0  0  0  0  0  0  0  0  0  0  0
  153.9140  141.9357  162.9557 H   0  0  0  0  0  0  0  0  0  0  0  0
  150.9204  142.6046  159.9845 H   0  0  0  0  0  0  0  0  0  0  0  0
  151.8956  143.5561  158.8669 H   0  0  0  0  0  0  0  0  0  0  0  0
  150.9380  139.7009  158.3961 H   0  0  0  0  0  0  0  0  0  0  0  0
  150.1038  141.2079  158.4256 H   0  0  0  0  0  0  0  0  0  0  0  0
  151.1671  141.9929  154.9314 H   0  0  0  0  0  0  0  0  0  0  0  0
  150.9745  142.8249  156.4700 H   0  0  0  0  0  0  0  0  0  0  0  0
  149.6115  141.9423  155.7785 H   0  0  0  0  0  0  0  0  0  0  0  0
  150.3231  138.4778  152.9307 H   0  0  0  0  0  0  0  0  0  0  0  0
  151.8675  135.9216  158.6333 H   0  0  0  0  0  0  0  0  0  0  0  0
  151.9828  134.4673  155.3879 H   0  0  0  0  0  0  0  0  0  0  0  0
  151.6116  134.0251  157.0344 H   0  0  0  0  0  0  0  0  0  0  0  0
  149.3919  134.9814  155.2115 H   0  0  0  0  0  0  0  0  0  0  0  0
  147.9024  133.9163  156.7332 H   0  0  0  0  0  0  0  0  0  0  0  0
  149.1277  132.8458  157.3718 H   0  0  0  0  0  0  0  0  0  0  0  0
  148.4535  134.8335  158.5782 H   0  0  0  0  0  0  0  0  0  0  0  0
  150.6493  133.1809  153.9887 H   0  0  0  0  0  0  0  0  0  0  0  0
  151.4714  131.5873  155.6200 H   0  0  0  0  0  0  0  0  0  0  0  0
  149.8727  131.4626  156.3676 H   0  0  0  0  0  0  0  0  0  0  0  0
  150.7111  130.5109  153.6056 H   0  0  0  0  0  0  0  0  0  0  0  0
  149.7971  129.6165  154.8240 H   0  0  0  0  0  0  0  0  0  0  0  0
  147.8112  132.5800  154.8944 H   0  0  0  0  0  0  0  0  0  0  0  0
  148.3567  133.0938  153.2973 H   0  0  0  0  0  0  0  0  0  0  0  0
  154.1089  138.8709  160.0383 H   0  0  0  0  0  0  0  0  0  0  0  0
  154.3732  139.7482  158.5292 H   0  0  0  0  0  0  0  0  0  0  0  0
  152.9461  138.7261  158.7288 H   0  0  0  0  0  0  0  0  0  0  0  0
  154.6615  141.6223  159.9596 H   0  0  0  0  0  0  0  0  0  0  0  0
  154.0066  141.0600  161.4914 H   0  0  0  0  0  0  0  0  0  0  0  0
  1  2  1  0  0  0  0
  1 32  1  0  0  0  0
  1 33  1  0  0  0  0
  1 34  1  0  0  0  0
  2  3  1  0  0  0  0
  3 30  1  0  0  0  0
  3 29  1  0  0  0  0
  3  4  1  0  0  0  0
  4  5  1  0  0  0  0
  4 35  1  0  0  0  0
  4 36  1  0  0  0  0
  5 31  1  0  0  0  0
  5  6  1  0  0  0  0
  5 27  1  0  0  0  0
  6  7  1  0  0  0  0
  6 37  1  0  0  0  0
  6 38  1  0  0  0  0
  7  8  1  0  0  0  0
  7  9  1  0  0  0  0
  8 39  1  0  0  0  0
  8 40  1  0  0  0  0
  8 41  1  0  0  0  0
  9 14  1  0  0  0  0
  9 10  2  0  0  0  0
 10 11  1  0  0  0  0
 11 12  2  0  0  0  0
 11 42  1  0  0  0  0
 12 13  1  0  0  0  0
 13 17  1  0  0  0  0
 13 14  2  0  0  0  0
 14 15  1  0  0  0  0
 15 16  2  0  0  0  0
 16 17  1  0  0  0  0
 16 43  1  0  0  0  0
 17 18  1  0  0  0  0
 18 19  1  0  0  0  0
 18 44  1  0  0  0  0
 18 45  1  0  0  0  0
 19 20  1  0  0  0  0
 19 22  1  0  0  0  0
 19 46  1  0  0  0  0
 20 21  1  0  0  0  0
 20 47  1  0  0  0  0
 20 48  1  0  0  0  0
 21 49  1  0  0  0  0
 22 26  1  0  0  0  0
 22 23  1  0  0  0  0
 22 50  1  0  0  0  0
 23 24  1  0  0  0  0
 23 51  1  0  0  0  0
 23 52  1  0  0  0  0
 24 25  1  0  0  0  0
 24 53  1  0  0  0  0
 24 54  1  0  0  0  0
 25 26  1  0  0  0  0
 26 55  1  0  0  0  0
 26 56  1  0  0  0  0
 27 28  1  0  0  0  0
 27 29  1  0  0  0  0
 28 57  1  0  0  0  0
 28 58  1  0  0  0  0
 28 59  1  0  0  0  0
 29 60  1  0  0  0  0
 29 61  1  0  0  0  0
M  END
> <s_m_source_file>
AV-unprocessed.smi

> <i_m_source_file_index>
21

> <i_lp_mmshare_version>
43012

> <i_f3d_flags>
0

> <s_epik_input>
W0NIM11PW0NASF0xW0NIMl1bQ0BIXShOKFtDSDNdKVtDSDJdMSlbQ0gyXU4oW0NIM10pYyhuW2NIXW4yKWMoYzIzKW5bY0hdbjNbQ0gyXVtDQEhdKFtDSDJdW09IXSlbQ0BASF00W0NIMl1bQ0gyXU9bQ0gyXTQ=

> <s_epik_cmdline>
J2VwaWtfcHl0aG9uJywgJy1waCcsICc3LjAnLCAnLXRuJywgJzgnLCAnLW1hJywgJzIwMCcsICctbWV0YWxfYmluZGluZycsICctaW1hZScsICc8aW5maWxlLm1hZT4nLCAnLW9tYWUnLCAnPG91dGZpbGUubWFlPic=

> <r_lp_tautomer_probability>
1

> <r_epik_Ionization_Penalty>
2.17574

> <r_epik_Ionization_Penalty_Charging>
0

> <r_epik_Ionization_Penalty_Neutral>
2.17574

> <r_epik_State_Penalty>
2.31336

> <r_epik_Charging_Adjusted_Penalty>
2.31336

> <i_epik_Tot_Q>
0

> <i_epik_Tot_abs_Q>
0

> <r_epik_Metal_State_Penalty>
2.31025

> <b_epik_Metal_Only>
0

> <s_lp_Force_Field>
OPLS_2005

> <r_lp_Energy>
70.4108

> <b_lp_Chiralities_Consistent>
1

> <s_lp_Variant>
AV-unprocessed.smi:21-44

> <Gold.Version>
5.8.1

> <Gold.Id.Protein>
6NUR|6NUR_protein|mol2

> <Gold.PLP.Fitness>
55.4032

> <Gold.PLP.PLP>
-48.1767

> <Gold.PLP.part.hbond>
-2.0000

> <Gold.PLP.part.metal>
0.0000

> <Gold.PLP.part.buried>
-8.1290

> <Gold.PLP.part.nonpolar>
-38.9026

> <Gold.PLP.part.repulsive>
0.5107

> <Gold.PLP.ligand.clash>
0.0000

> <Gold.PLP.ligand.torsion>
1.5919

> <Gold.PLP.Chemscore.Hbond>
2.0000

> <Gold.PLP.Chemscore.CHOScore>
1.2013

> <Gold.PLP.Chemscore.Metal>
0.0000

> <Gold.Chemscore.Hbonds>
donor molecule, donor type, donor heavy atom, donor atom, acceptor molecule, acceptor atom, score
      P1  H  6896  6907       L1    21  1.00
      P1  H  7989  7998       L1    10  1.00
      L1  C    11    42       P1  7948  0.23
      L1  C    11    42       P1  7957  1.00

> <Gold.PLP.Chemscore.Internal.Correction>
0.8064

> <Gold.Rescore>
     Score         DG    S(hbond)    S(metal)    S(lipo)     H(rot)  DE(clash)    DE(int)     intcor
     10.14     -14.34       1.12        0.00     109.56       3.00       0.66       3.54       ----

> <Gold.Chemscore.Fitness>
10.1438

> <Gold.Chemscore.DG>
-14.3398

> <Gold.Chemscore.ZeroCoef>
-5.4800

> <Gold.Chemscore.Hbond>
1.1165

> <Gold.Chemscore.Metal>
0.0000

> <Gold.Chemscore.Lipo>
109.5603

> <Gold.Chemscore.Internal_Hbond>
0.0000

> <Gold.Chemscore.DEClash>
0.6558

> <Gold.Chemscore.DEInternal>
3.5402

> <Gold.Chemscore.Rot>
3.0031

> <Gold.Chemscore.Internal.Correction>
   9.000000E+99

> <Gold.Chemscore.Hbonds>
donor molecule, donor type, donor heavy atom, donor atom, acceptor molecule, acceptor atom, score
      P1  H  6896  6907       L1    21  0.49
      P1  H  7989  7998       L1    10  0.64

> <Gold.Chemscore.Hbond.Weighted>
-3.7293

> <Gold.Chemscore.Metal.Weighted>
-0.0000

> <Gold.Chemscore.Lipo.Weighted>
-12.8186

> <Gold.Chemscore.Internal_Hbond.Weighted>
0.0000

> <Gold.Chemscore.DEClash.Weighted>
0.6558

> <Gold.Chemscore.DEInternal.Weighted>
3.5402

> <Gold.Chemscore.Rot.Weighted>
7.6880

> <Gold.Chemscore.Internal.Correction.Weighted>
   9.000000E+99

> <Gold.Protein.RotatedTorsions>
[ 6907 6896 6895 6894 ] final -100.38 input  -60.11 | X-H torsion
[ 7974 7965 7964 7962 ] final  178.14 input  175.53 | X-H torsion
[ 8008 7997 7996 7995 ] final   -4.74 input   59.86 | X-H torsion
[ 10167 10162 10161 10158 ] final    4.63 input  -65.29 | X-H torsion
[ 10718 10713 10712 10709 ] final   87.83 input   66.30 | X-H torsion
[ 10763 10752 10751 10750 ] final  -58.31 input  -60.55 | X-H torsion
[ 11005 11000 10999 10996 ] final  120.04 input  -57.11 | X-H torsion

> <Gold.Protein.ActiveResidues>
 VAL166  LYS551  ARG553  GLY616  TRP617  ASP618  TYR619  PRO620  LYS621  CYS622 
 ASP623  PHE694  ASN695  SER759  ASP760  ASP761  ALA762  ILE779  LEU786  VAL792 
 PHE793  MET794  SER795  GLU796  ALA797  LYS798  CYS799  TRP800  GLU811  SER814 

> <Gold.Protein.RotatedAtoms>
  150.7114  134.0895  159.3926 H   0  0  0  0  0  0  0  0  0  0  0  0  # atno 6907 bound_to 6896
  151.8881  135.0425  160.0504 H   0  0  0  0  0  0  0  0  0  0  0  0  # atno 6908 bound_to 6896
  152.2514  133.5183  159.5364 H   0  0  0  0  0  0  0  0  0  0  0  0  # atno 6909 bound_to 6896
  144.7160  140.0353  143.6438 H   0  0  0  0  0  0  0  0  0  0  0  0  # atno 7974 bound_to 7965
  154.6111  140.2476  155.7668 H   0  0  0  0  0  0  0  0  0  0  0  0  # atno 8008 bound_to 7997
  156.2371  140.2946  156.0292 H   0  0  0  0  0  0  0  0  0  0  0  0  # atno 8009 bound_to 7997
  155.2051  140.0395  157.2914 H   0  0  0  0  0  0  0  0  0  0  0  0  # atno 8010 bound_to 7997
  140.6525  143.7510  150.7598 H   0  0  0  0  0  0  0  0  0  0  0  0  # atno 10167 bound_to 10162
  157.6944  131.0271  150.3183 H   0  0  0  0  0  0  0  0  0  0  0  0  # atno 10718 bound_to 10713
  154.2361  135.6352  153.5191 H   0  0  0  0  0  0  0  0  0  0  0  0  # atno 10763 bound_to 10752
  152.9939  135.5531  154.5961 H   0  0  0  0  0  0  0  0  0  0  0  0  # atno 10764 bound_to 10752
  154.5455  135.2898  155.1031 H   0  0  0  0  0  0  0  0  0  0  0  0  # atno 10765 bound_to 10752
  139.9170  134.9632  156.7746 H   0  0  0  0  0  0  0  0  0  0  0  0  # atno 11005 bound_to 11000
  146.0068  139.3137  143.0894 LP  0  0  0  0  0  0  0  0  0  0  0  0  # atno 17320 bound_to 7965
  145.8728  140.9409  143.0641 LP  0  0  0  0  0  0  0  0  0  0  0  0  # atno 17321 bound_to 7965
  140.1164  143.4652  152.2340 LP  0  0  0  0  0  0  0  0  0  0  0  0  # atno 17342 bound_to 10162
  139.5742  144.7478  151.3810 LP  0  0  0  0  0  0  0  0  0  0  0  0  # atno 17343 bound_to 10162
  156.3674  130.3857  149.7202 LP  0  0  0  0  0  0  0  0  0  0  0  0  # atno 17370 bound_to 10713
  156.4628  130.7960  151.2980 LP  0  0  0  0  0  0  0  0  0  0  0  0  # atno 17371 bound_to 10713
  140.6593  133.9660  155.7796 LP  0  0  0  0  0  0  0  0  0  0  0  0  # atno 17394 bound_to 11000
  141.0654  134.0284  157.3600 LP  0  0  0  0  0  0  0  0  0  0  0  0  # atno 17395 bound_to 11000

$$$$
