#       Name:                AV-unprocessed.smi:1683
#       Creating user name   scv26
#       Creation time:       Fri Mar 27 07:50:29 2020


#       File generated by GOLD software.
#

@<TRIPOS>MOLECULE
AV-unprocessed.smi:1683
    40    41     1
SMALL
NO_CHARGES


@<TRIPOS>ATOM
      1 ****        -2.2814   0.7314   0.3100 O.2            1 S1                 0.0000
      2 ****        -1.7650   1.4546  -0.5421 C.2            1 S1                 0.0000
      3 ****        -0.9159   1.0108  -1.4801 N.am           1 S1                 0.0000
      4 ****        -0.4610  -0.3686  -1.6317 C.3            1 S1                 0.0000
      5 ****         0.9510  -0.5711  -1.0498 C.3            1 S1                 0.0000
      6 ****         1.0568  -0.3579   0.4596 C.3            1 S1                 0.0000
      7 ****         2.0831  -1.3960   0.8930 C.3            1 S1                 0.0000
      8 ****         1.7246  -2.5396   0.0667 N.3            1 S1                 0.0000
      9 ****         2.7318  -3.5986   0.0463 C.3            1 S1                 0.0000
     10 ****         2.8322  -4.3694   1.3769 C.3            1 S1                 0.0000
     11 ****         3.6268  -5.4235   1.1972 F              1 S1                 0.0000
     12 ****         3.3570  -3.6149   2.3420 F              1 S1                 0.0000
     13 ****         1.6313  -4.8050   1.7585 F              1 S1                 0.0000
     14 ****         1.5070  -1.9878  -1.2676 C.3            1 S1                 0.0000
     15 ****        -1.9698   2.7769  -0.6576 N.am           1 S1                 0.0000
     16 ****        -2.7805   3.5980   0.1666 C.2            1 S1                 0.0000
     17 ****        -2.9753   4.9931  -0.0224 C.2            1 S1                 0.0000
     18 ****        -3.7799   5.4988   0.9012 N.2            1 S1                 0.0000
     19 ****        -4.0992   4.4400   1.6793 N.pl3          1 S1                 0.0000
     20 ****        -3.5135   3.2623   1.2702 C.2            1 S1                 0.0000
     21 ****        -4.7110   4.5358   2.4774 H              1 S1                 0.0000
     22 ****        -0.5455   1.6823  -2.1364 H              1 S1                 0.0000
     23 ****        -1.1646  -1.0695  -1.1791 H              1 S1                 0.0000
     24 ****        -0.4509  -0.5960  -2.6978 H              1 S1                 0.0000
     25 ****         1.6301   0.1257  -1.5440 H              1 S1                 0.0000
     26 ****         1.3503   0.6588   0.7219 H              1 S1                 0.0000
     27 ****         0.1043  -0.5680   0.9482 H              1 S1                 0.0000
     28 ****         3.0948  -1.0571   0.6635 H              1 S1                 0.0000
     29 ****         2.0165  -1.6134   1.9588 H              1 S1                 0.0000
     30 ****         2.4531  -4.3065  -0.7355 H              1 S1                 0.0000
     31 ****         3.7049  -3.1922  -0.2334 H              1 S1                 0.0000
     32 ****         0.8360  -2.6263  -1.8435 H              1 S1                 0.0000
     33 ****         2.4523  -1.9239  -1.8092 H              1 S1                 0.0000
     34 ****        -1.4910   3.2480  -1.4112 H              1 S1                 0.0000
     35 ****        -2.5682   5.6423  -0.7835 H              1 S1                 0.0000
     36 ****        -3.6697   2.3282   1.7890 H              1 S1                 0.0000
     37 ****        -2.0743  -0.2468   0.3278 LP             1 S1                 0.0000
     38 ****        -2.9081   1.1221   0.9843 LP             1 S1                 0.0000
     39 ****         0.9138  -2.9922   0.4380 LP             1 S1                 0.0000
     40 ****        -4.0820   6.4469   1.0001 LP             1 S1                 0.0000
@<TRIPOS>BOND
    1    1    2 2     
    2    2    3 am    
    3    2   15 am    
    4    3    4 1     
    5    3   22 1     
    6    4    5 1     
    7    4   23 1     
    8    4   24 1     
    9    5   14 1     
   10    5    6 1     
   11    5   25 1     
   12    6    7 1     
   13    6   26 1     
   14    6   27 1     
   15    7    8 1     
   16    7   28 1     
   17    7   29 1     
   18    8    9 1     
   19    8   14 1     
   20    9   10 1     
   21    9   30 1     
   22    9   31 1     
   23   10   11 1     
   24   10   12 1     
   25   10   13 1     
   26   14   32 1     
   27   14   33 1     
   28   15   16 1     
   29   15   34 1     
   30   16   20 2     
   31   16   17 1     
   32   17   18 2     
   33   17   35 1     
   34   18   19 1     
   35   19   21 1     
   36   19   20 1     
   37   20   36 1     
   38    1   37 1     
   39    1   38 1     
   40    8   39 1     
   41   18   40 1     
@<TRIPOS>SUBSTRUCTURE
      1 S1             1
@<TRIPOS>SET
LONE_PAIRS      STATIC     ATOMS    <user>   **** ""
4 37 38 39 40
DONOR_HYDROGENS      STATIC     ATOMS    <user>   **** ""
3 22 34 21
ATOM$BLUE        STATIC     ATOMS    COLORGROUP SYSTEM
4 37 38 39 40
ATOM$RED        STATIC     ATOMS    COLORGROUP SYSTEM
3 22 34 21
