AV-unprocessed.smi:1543|AV-procd|sdf|6209|dock3
  -GOLD-   22720 6383D 1   1.00000     0.00000
 Structure written by MMmdl.
 49 50  0  0  0  0  0  0  0  0  2 V2000
  149.1945  141.5076  154.7351 C   0  0  0  0  0  0  0  0  0  0  0  0
  149.6815  140.0746  154.9759 C   0  0  1  0  0  0  0  0  0  0  0  0
  148.9969  139.0664  154.0368 C   0  0  0  0  0  0  0  0  0  0  0  0
  149.5072  137.6796  154.2388 N   0  3  2  0  0  0  0  0  0  0  0  0
  148.8592  136.7828  155.2728 C   0  0  0  0  0  0  0  0  0  0  0  0
  147.3356  136.7972  155.0016 C   0  0  0  0  0  0  0  0  0  0  0  0
  149.3514  135.3167  155.1788 C   0  0  0  0  0  0  0  0  0  0  0  0
  149.0943  137.3149  156.7221 C   0  0  0  0  0  0  0  0  0  0  0  0
  148.0395  136.9644  157.6751 N   0  0  0  0  0  0  0  0  0  0  0  0
  148.1283  136.0317  158.6349 C   0  0  0  0  0  0  0  0  0  0  0  0
  149.1267  135.3341  158.8120 O   0  0  0  0  0  0  0  0  0  0  0  0
  147.0010  135.9781  159.3645 N   0  0  0  0  0  0  0  0  0  0  0  0
  146.6934  135.1262  160.4599 C   0  0  0  0  0  0  0  0  0  0  0  0
  147.6347  134.6921  161.4247 C   0  0  0  0  0  0  0  0  0  0  0  0
  147.2057  133.8321  162.4539 C   0  0  0  0  0  0  0  0  0  0  0  0
  145.8558  133.4317  162.4777 C   0  0  0  0  0  0  0  0  0  0  0  0
  144.9509  133.8270  161.5580 N   0  0  0  0  0  0  0  0  0  0  0  0
  145.3695  134.6511  160.5741 C   0  0  0  0  0  0  0  0  0  0  0  0
  150.9963  137.6673  154.1529 C   0  0  0  0  0  0  0  0  0  0  0  0
  151.6602  138.7734  155.0113 C   0  0  1  0  0  0  0  0  0  0  0  0
  153.1664  138.8725  154.7455 C   0  0  0  0  0  0  0  0  0  0  0  0
  151.0790  140.0371  154.7154 O   0  0  0  0  0  0  0  0  0  0  0  0
  148.1242  141.5950  154.9234 H   0  0  0  0  0  0  0  0  0  0  0  0
  149.3809  141.8223  153.7079 H   0  0  0  0  0  0  0  0  0  0  0  0
  149.7052  142.2087  155.3957 H   0  0  0  0  0  0  0  0  0  0  0  0
  149.4887  139.8203  156.0180 H   0  0  0  0  0  0  0  0  0  0  0  0
  147.9136  139.1511  154.0763 H   0  0  0  0  0  0  0  0  0  0  0  0
  149.2437  139.3427  153.0106 H   0  0  0  0  0  0  0  0  0  0  0  0
  146.7890  136.1631  155.7003 H   0  0  0  0  0  0  0  0  0  0  0  0
  147.0875  136.4349  154.0048 H   0  0  0  0  0  0  0  0  0  0  0  0
  146.9291  137.8052  155.0907 H   0  0  0  0  0  0  0  0  0  0  0  0
  148.8340  134.6745  155.8908 H   0  0  0  0  0  0  0  0  0  0  0  0
  150.4153  135.2296  155.3941 H   0  0  0  0  0  0  0  0  0  0  0  0
  149.1606  134.8725  154.2028 H   0  0  0  0  0  0  0  0  0  0  0  0
  150.0463  136.9539  157.1135 H   0  0  0  0  0  0  0  0  0  0  0  0
  149.1584  138.4037  156.7113 H   0  0  0  0  0  0  0  0  0  0  0  0
  147.1786  137.4881  157.6074 H   0  0  0  0  0  0  0  0  0  0  0  0
  146.2971  136.6682  159.1462 H   0  0  0  0  0  0  0  0  0  0  0  0
  148.6717  134.9864  161.3912 H   0  0  0  0  0  0  0  0  0  0  0  0
  147.8979  133.4837  163.2059 H   0  0  0  0  0  0  0  0  0  0  0  0
  145.4945  132.7720  163.2528 H   0  0  0  0  0  0  0  0  0  0  0  0
  144.6184  134.9447  159.8552 H   0  0  0  0  0  0  0  0  0  0  0  0
  151.4110  136.6899  154.3949 H   0  0  0  0  0  0  0  0  0  0  0  0
  151.2528  137.8412  153.1070 H   0  0  0  0  0  0  0  0  0  0  0  0
  151.5277  138.5778  156.0739 H   0  0  0  0  0  0  0  0  0  0  0  0
  153.6680  137.9327  154.9774 H   0  0  0  0  0  0  0  0  0  0  0  0
  153.6200  139.6506  155.3595 H   0  0  0  0  0  0  0  0  0  0  0  0
  153.3700  139.1122  153.7015 H   0  0  0  0  0  0  0  0  0  0  0  0
  149.2184  137.2234  153.3852 H   0  0  0  0  0  0  0  0  0  0  0  0
  1  2  1  0  0  0  0
  1 23  1  0  0  0  0
  1 24  1  0  0  0  0
  1 25  1  0  0  0  0
  2 22  1  0  0  0  0
  2  3  1  0  0  0  0
  2 26  1  0  0  0  0
  3  4  1  0  0  0  0
  3 27  1  0  0  0  0
  3 28  1  0  0  0  0
  4  5  1  0  0  0  0
  4 19  1  0  0  0  0
  4 49  1  0  0  0  0
  5  6  1  0  0  0  0
  5  7  1  0  0  0  0
  5  8  1  0  0  0  0
  6 29  1  0  0  0  0
  6 30  1  0  0  0  0
  6 31  1  0  0  0  0
  7 32  1  0  0  0  0
  7 33  1  0  0  0  0
  7 34  1  0  0  0  0
  8  9  1  0  0  0  0
  8 35  1  0  0  0  0
  8 36  1  0  0  0  0
  9 10  1  0  0  0  0
  9 37  1  0  0  0  0
 10 11  2  0  0  0  0
 10 12  1  0  0  0  0
 12 13  1  0  0  0  0
 12 38  1  0  0  0  0
 13 18  1  0  0  0  0
 13 14  2  0  0  0  0
 14 15  1  0  0  0  0
 14 39  1  0  0  0  0
 15 16  2  0  0  0  0
 15 40  1  0  0  0  0
 16 17  1  0  0  0  0
 16 41  1  0  0  0  0
 17 18  2  0  0  0  0
 18 42  1  0  0  0  0
 19 20  1  0  0  0  0
 19 43  1  0  0  0  0
 19 44  1  0  0  0  0
 20 21  1  0  0  0  0
 20 22  1  0  0  0  0
 20 45  1  0  0  0  0
 21 46  1  0  0  0  0
 21 47  1  0  0  0  0
 21 48  1  0  0  0  0
M  CHG  1   4   1
M  END
> <s_m_source_file>
AV-unprocessed.smi

> <i_m_source_file_index>
1543

> <i_lp_mmshare_version>
43012

> <i_f3d_flags>
0

> <s_epik_input>
W0NIM11bQ0BASF0xW0NIMl1OKFtDSDJdW0NASF0oTzEpW0NIM10pQyhbQ0gzXSkoW0NIM10pW0NIMl1bTkhdQyg9TylbTkhdYzJbY0hdW2NIXVtjSF1uW2NIXTI=

> <s_epik_cmdline>
J2VwaWtfcHl0aG9uJywgJy1waCcsICc3LjAnLCAnLXRuJywgJzgnLCAnLW1hJywgJzIwMCcsICctbWV0YWxfYmluZGluZycsICctaW1hZScsICc8aW5maWxlLm1hZT4nLCAnLW9tYWUnLCAnPG91dGZpbGUubWFlPic=

> <r_epik_Ionization_Penalty>
0.60676

> <r_epik_Ionization_Penalty_Charging>
0.602531

> <r_epik_Ionization_Penalty_Neutral>
0.00422967

> <r_epik_State_Penalty>
0.607492

> <r_epik_Charging_Adjusted_Penalty>
1.21002

> <i_epik_Tot_Q>
1

> <i_epik_Tot_abs_Q>
1

> <r_epik_Metal_State_Penalty>
0.604589

> <b_epik_Metal_Only>
0

> <s_lp_Force_Field>
OPLS_2005

> <r_lp_Energy>
33.1144

> <b_lp_Chiralities_Consistent>
1

> <s_lp_Variant>
AV-unprocessed.smi:1543-5

> <Gold.Version>
5.8.1

> <Gold.Id.Protein>
6NUR|6NUR_protein|mol2

> <Gold.PLP.Fitness>
43.7105

> <Gold.PLP.PLP>
-33.2935

> <Gold.PLP.part.hbond>
-3.0000

> <Gold.PLP.part.metal>
0.0000

> <Gold.PLP.part.buried>
-2.0642

> <Gold.PLP.part.nonpolar>
-29.3661

> <Gold.PLP.part.repulsive>
0.1859

> <Gold.PLP.ligand.clash>
0.0000

> <Gold.PLP.ligand.torsion>
0.9259

> <Gold.PLP.Chemscore.Hbond>
4.0000

> <Gold.PLP.Chemscore.CHOScore>
0.0000

> <Gold.PLP.Chemscore.Metal>
0.0000

> <Gold.Chemscore.Hbonds>
donor molecule, donor type, donor heavy atom, donor atom, acceptor molecule, acceptor atom, score
      L1  H     4    49       P1  7948  2.00
      P1  H  6896  6909       L1    11  1.00
      P1  H  7989  7998       L1    22  1.00

> <Gold.PLP.Chemscore.Internal.Correction>
0.2687

> <Gold.Rescore>
     Score         DG    S(hbond)    S(metal)    S(lipo)     H(rot)  DE(clash)    DE(int)     intcor
     21.08     -22.15       2.94        0.00      90.57       1.46       0.20       0.87       ----

> <Gold.Chemscore.Fitness>
21.0830

> <Gold.Chemscore.DG>
-22.1522

> <Gold.Chemscore.ZeroCoef>
-5.4800

> <Gold.Chemscore.Hbond>
2.9405

> <Gold.Chemscore.Metal>
0.0000

> <Gold.Chemscore.Lipo>
90.5706

> <Gold.Chemscore.Internal_Hbond>
0.0000

> <Gold.Chemscore.DEClash>
0.1983

> <Gold.Chemscore.DEInternal>
0.8709

> <Gold.Chemscore.Rot>
1.4632

> <Gold.Chemscore.Internal.Correction>
   9.000000E+99

> <Gold.Chemscore.Hbonds>
donor molecule, donor type, donor heavy atom, donor atom, acceptor molecule, acceptor atom, score
      L1  H     4    49       P1  7948  0.99
      P1  H  6896  6909       L1    11  1.00
      P1  H  7989  7998       L1    22  0.91

> <Gold.Chemscore.Hbond.Weighted>
-9.8213

> <Gold.Chemscore.Metal.Weighted>
-0.0000

> <Gold.Chemscore.Lipo.Weighted>
-10.5968

> <Gold.Chemscore.Internal_Hbond.Weighted>
0.0000

> <Gold.Chemscore.DEClash.Weighted>
0.1983

> <Gold.Chemscore.DEInternal.Weighted>
0.8709

> <Gold.Chemscore.Rot.Weighted>
3.7459

> <Gold.Chemscore.Internal.Correction.Weighted>
   9.000000E+99

> <Gold.Protein.RotatedTorsions>
[ 6907 6896 6895 6894 ] final   42.05 input  -60.11 | X-H torsion
[ 7974 7965 7964 7962 ] final -171.91 input  175.53 | X-H torsion
[ 8008 7997 7996 7995 ] final  155.06 input   59.86 | X-H torsion
[ 10167 10162 10161 10158 ] final   70.11 input  -65.29 | X-H torsion
[ 10718 10713 10712 10709 ] final  -39.13 input   66.30 | X-H torsion
[ 10763 10752 10751 10750 ] final  -66.38 input  -60.55 | X-H torsion
[ 11005 11000 10999 10996 ] final  -63.03 input  -57.11 | X-H torsion

> <Gold.Protein.ActiveResidues>
 VAL166  LYS551  ARG553  GLY616  TRP617  ASP618  TYR619  PRO620  LYS621  CYS622 
 ASP623  PHE694  ASN695  SER759  ASP760  ASP761  ALA762  ILE779  LEU786  VAL792 
 PHE793  MET794  SER795  GLU796  ALA797  LYS798  CYS799  TRP800  GLU811  SER814 

> <Gold.Protein.RotatedAtoms>
  152.2030  134.8570  160.0505 H   0  0  0  0  0  0  0  0  0  0  0  0  # atno 6907 bound_to 6896
  151.9417  133.3635  159.3975 H   0  0  0  0  0  0  0  0  0  0  0  0  # atno 6908 bound_to 6896
  150.6959  134.4357  159.5313 H   0  0  0  0  0  0  0  0  0  0  0  0  # atno 6909 bound_to 6896
  144.7152  140.1851  143.6354 H   0  0  0  0  0  0  0  0  0  0  0  0  # atno 7974 bound_to 7965
  156.2499  140.1950  156.6742 H   0  0  0  0  0  0  0  0  0  0  0  0  # atno 8008 bound_to 7997
  154.6370  140.0588  156.9826 H   0  0  0  0  0  0  0  0  0  0  0  0  # atno 8009 bound_to 7997
  155.1622  140.3261  155.4412 H   0  0  0  0  0  0  0  0  0  0  0  0  # atno 8010 bound_to 7997
  140.0605  144.5236  150.7297 H   0  0  0  0  0  0  0  0  0  0  0  0  # atno 10167 bound_to 10162
  156.2959  130.4234  149.8191 H   0  0  0  0  0  0  0  0  0  0  0  0  # atno 10718 bound_to 10713
  154.3589  135.6120  153.5680 H   0  0  0  0  0  0  0  0  0  0  0  0  # atno 10763 bound_to 10752
  152.9794  135.5810  154.4656 H   0  0  0  0  0  0  0  0  0  0  0  0  # atno 10764 bound_to 10752
  154.4390  135.2849  155.1838 H   0  0  0  0  0  0  0  0  0  0  0  0  # atno 10765 bound_to 10752
  141.1380  133.6647  156.5618 H   0  0  0  0  0  0  0  0  0  0  0  0  # atno 11005 bound_to 11000
  145.8820  139.2328  143.1599 LP  0  0  0  0  0  0  0  0  0  0  0  0  # atno 17320 bound_to 7965
  145.9985  140.8541  143.0030 LP  0  0  0  0  0  0  0  0  0  0  0  0  # atno 17321 bound_to 7965
  140.7174  143.2557  151.4390 LP  0  0  0  0  0  0  0  0  0  0  0  0  # atno 17342 bound_to 10162
  139.5896  144.1527  152.2072 LP  0  0  0  0  0  0  0  0  0  0  0  0  # atno 17343 bound_to 10162
  156.5587  130.8374  151.3322 LP  0  0  0  0  0  0  0  0  0  0  0  0  # atno 17370 bound_to 10713
  157.7355  130.9763  150.2086 LP  0  0  0  0  0  0  0  0  0  0  0  0  # atno 17371 bound_to 10713
  140.3982  134.7380  157.4763 LP  0  0  0  0  0  0  0  0  0  0  0  0  # atno 17394 bound_to 11000
  140.0516  134.6123  155.8855 LP  0  0  0  0  0  0  0  0  0  0  0  0  # atno 17395 bound_to 11000

$$$$
