AV-unprocessed.smi:2331|AV-procd|sdf|9315|dock7
  -GOLD-   2272012533D 1   1.00000     0.00000
 Structure written by MMmdl.
 49 50  0  0  0  0  0  0  0  0  1 V2000
  143.9348  135.5905  153.0360 C   0  0  0  0  0  0  0  0  0  0  0  0
  145.1183  135.2573  152.1037 C   0  0  0  0  0  0  0  0  0  0  0  0
  145.1047  136.2970  150.9570 C   0  0  0  0  0  0  0  0  0  0  0  0
  146.4425  135.4201  152.8939 C   0  0  0  0  0  0  0  0  0  0  0  0
  146.8064  136.8242  153.0597 N   0  0  0  0  0  0  0  0  0  0  0  0
  147.3407  137.3745  154.1613 C   0  0  0  0  0  0  0  0  0  0  0  0
  147.6200  136.7182  155.1650 O   0  0  0  0  0  0  0  0  0  0  0  0
  147.6110  138.6961  154.0328 N   0  0  0  0  0  0  0  0  0  0  0  0
  146.8206  139.6045  153.1895 C   0  0  0  0  0  0  0  0  0  0  0  0
  147.1811  141.0279  153.6097 C   0  0  0  0  0  0  0  0  0  0  0  0
  147.8011  140.8707  154.9909 C   0  0  0  0  0  0  0  0  0  0  0  0
  148.4306  139.4658  154.9859 C   0  0  2  0  0  0  0  0  0  0  0  0
  149.9699  139.4357  154.6862 C   0  0  0  0  0  0  0  0  0  0  0  0
  150.7573  140.0607  155.8550 C   0  0  0  0  0  0  0  0  0  0  0  0
  150.5429  138.0336  154.3982 C   0  0  0  0  0  0  0  0  0  0  0  0
  150.2574  140.2290  153.5502 O   0  0  0  0  0  0  0  0  0  0  0  0
  144.9776  133.8109  151.5897 C   0  0  0  0  0  0  0  0  0  0  0  0
  146.0311  132.8657  151.6559 C   0  0  0  0  0  0  0  0  0  0  0  0
  145.8085  131.5584  151.1795 C   0  0  0  0  0  0  0  0  0  0  0  0
  144.6357  131.1466  150.6566 N   0  0  0  0  0  0  0  0  0  0  0  0
  143.6307  132.0433  150.5919 C   0  0  0  0  0  0  0  0  0  0  0  0
  143.7493  133.3729  151.0419 C   0  0  0  0  0  0  0  0  0  0  0  0
  143.9930  136.6171  153.3994 H   0  0  0  0  0  0  0  0  0  0  0  0
  143.9078  134.9435  153.9129 H   0  0  0  0  0  0  0  0  0  0  0  0
  142.9811  135.4798  152.5185 H   0  0  0  0  0  0  0  0  0  0  0  0
  145.1990  137.3121  151.3443 H   0  0  0  0  0  0  0  0  0  0  0  0
  144.1735  136.2575  150.3909 H   0  0  0  0  0  0  0  0  0  0  0  0
  145.9283  136.1482  150.2580 H   0  0  0  0  0  0  0  0  0  0  0  0
  146.3617  134.9229  153.8623 H   0  0  0  0  0  0  0  0  0  0  0  0
  147.2636  134.9299  152.3696 H   0  0  0  0  0  0  0  0  0  0  0  0
  146.6365  137.4300  152.2699 H   0  0  0  0  0  0  0  0  0  0  0  0
  147.0271  139.4436  152.1303 H   0  0  0  0  0  0  0  0  0  0  0  0
  145.7555  139.4310  153.3550 H   0  0  0  0  0  0  0  0  0  0  0  0
  147.9144  141.4424  152.9173 H   0  0  0  0  0  0  0  0  0  0  0  0
  146.3193  141.6956  153.6125 H   0  0  0  0  0  0  0  0  0  0  0  0
  148.4972  141.6753  155.2248 H   0  0  0  0  0  0  0  0  0  0  0  0
  147.0090  140.9051  155.7402 H   0  0  0  0  0  0  0  0  0  0  0  0
  148.2870  139.0442  155.9828 H   0  0  0  0  0  0  0  0  0  0  0  0
  150.5926  139.5053  156.7789 H   0  0  0  0  0  0  0  0  0  0  0  0
  150.4711  141.0955  156.0407 H   0  0  0  0  0  0  0  0  0  0  0  0
  151.8305  140.0559  155.6605 H   0  0  0  0  0  0  0  0  0  0  0  0
  150.3641  137.3551  155.2324 H   0  0  0  0  0  0  0  0  0  0  0  0
  151.6214  138.0713  154.2401 H   0  0  0  0  0  0  0  0  0  0  0  0
  150.1096  137.5898  153.5016 H   0  0  0  0  0  0  0  0  0  0  0  0
  149.7653  139.8929  152.8168 H   0  0  0  0  0  0  0  0  0  0  0  0
  147.0005  133.1082  152.0624 H   0  0  0  0  0  0  0  0  0  0  0  0
  146.5968  130.8216  151.2227 H   0  0  0  0  0  0  0  0  0  0  0  0
  142.7008  131.6907  150.1708 H   0  0  0  0  0  0  0  0  0  0  0  0
  142.9021  134.0384  150.9685 H   0  0  0  0  0  0  0  0  0  0  0  0
  1  2  1  0  0  0  0
  1 23  1  0  0  0  0
  1 24  1  0  0  0  0
  1 25  1  0  0  0  0
  2  3  1  0  0  0  0
  2  4  1  0  0  0  0
  2 17  1  0  0  0  0
  3 26  1  0  0  0  0
  3 27  1  0  0  0  0
  3 28  1  0  0  0  0
  4  5  1  0  0  0  0
  4 29  1  0  0  0  0
  4 30  1  0  0  0  0
  5  6  1  0  0  0  0
  5 31  1  0  0  0  0
  6  7  2  0  0  0  0
  6  8  1  0  0  0  0
  8 12  1  0  0  0  0
  8  9  1  0  0  0  0
  9 10  1  0  0  0  0
  9 32  1  0  0  0  0
  9 33  1  0  0  0  0
 10 11  1  0  0  0  0
 10 34  1  0  0  0  0
 10 35  1  0  0  0  0
 11 12  1  0  0  0  0
 11 36  1  0  0  0  0
 11 37  1  0  0  0  0
 12 13  1  0  0  0  0
 12 38  1  0  0  0  0
 13 14  1  0  0  0  0
 13 15  1  0  0  0  0
 13 16  1  0  0  0  0
 14 39  1  0  0  0  0
 14 40  1  0  0  0  0
 14 41  1  0  0  0  0
 15 42  1  0  0  0  0
 15 43  1  0  0  0  0
 15 44  1  0  0  0  0
 16 45  1  0  0  0  0
 17 22  1  0  0  0  0
 17 18  2  0  0  0  0
 18 19  1  0  0  0  0
 18 46  1  0  0  0  0
 19 20  2  0  0  0  0
 19 47  1  0  0  0  0
 20 21  1  0  0  0  0
 21 22  2  0  0  0  0
 21 48  1  0  0  0  0
 22 49  1  0  0  0  0
M  END
> <s_m_source_file>
AV-unprocessed.smi

> <i_m_source_file_index>
2331

> <i_lp_mmshare_version>
43012

> <i_f3d_flags>
0

> <s_epik_input>
W2NIXTFbY0hdbltjSF1bY0hdYzFDKFtDSDNdKShbQ0gzXSlbQ0gyXVtOSF1DKD1PKU4yW0NIMl1bQ0gyXVtDSDJdW0NASF0yQyhbQ0gzXSkoW0NIM10pW09IXQ==

> <s_epik_cmdline>
J2VwaWtfcHl0aG9uJywgJy1waCcsICc3LjAnLCAnLXRuJywgJzgnLCAnLW1hJywgJzIwMCcsICctbWV0YWxfYmluZGluZycsICctaW1hZScsICc8aW5maWxlLm1hZT4nLCAnLW9tYWUnLCAnPG91dGZpbGUubWFlPic=

> <r_epik_Ionization_Penalty>
0.0581496

> <r_epik_Ionization_Penalty_Charging>
0

> <r_epik_Ionization_Penalty_Neutral>
0.0581496

> <r_epik_State_Penalty>
0.0501956

> <r_epik_Charging_Adjusted_Penalty>
0.0501956

> <i_epik_Tot_Q>
0

> <i_epik_Tot_abs_Q>
0

> <r_epik_Metal_State_Penalty>
0.0456895

> <b_epik_Metal_Only>
0

> <s_lp_Force_Field>
OPLS_2005

> <r_lp_Energy>
50.0165

> <b_lp_Chiralities_Consistent>
1

> <s_lp_Variant>
AV-unprocessed.smi:2331-2

> <Gold.Version>
5.8.1

> <Gold.Id.Protein>
6NUR|6NUR_protein|mol2

> <Gold.PLP.Fitness>
40.0423

> <Gold.PLP.PLP>
-30.8829

> <Gold.PLP.part.hbond>
-3.1475

> <Gold.PLP.part.metal>
0.0000

> <Gold.PLP.part.buried>
1.3611

> <Gold.PLP.part.nonpolar>
-29.4390

> <Gold.PLP.part.repulsive>
0.1980

> <Gold.PLP.ligand.clash>
0.0000

> <Gold.PLP.ligand.torsion>
1.0477

> <Gold.PLP.Chemscore.Hbond>
1.7440

> <Gold.PLP.Chemscore.CHOScore>
1.9236

> <Gold.PLP.Chemscore.Metal>
0.0000

> <Gold.Chemscore.Hbonds>
donor molecule, donor type, donor heavy atom, donor atom, acceptor molecule, acceptor atom, score
      L1  H    16    45       P1  7957  0.83
      P1  H  7989  7998       L1    16  0.61
      L1  C    19    47       P1 10747  0.94
      L1  C    21    48       P1 10952  1.00

> <Gold.PLP.Chemscore.Internal.Correction>
0.2519

> <Gold.Rescore>
     Score         DG    S(hbond)    S(metal)    S(lipo)     H(rot)  DE(clash)    DE(int)     intcor
     14.00     -16.76       1.58        0.00      93.57       1.94       2.09       0.67       ----

> <Gold.Chemscore.Fitness>
14.0009

> <Gold.Chemscore.DG>
-16.7632

> <Gold.Chemscore.ZeroCoef>
-5.4800

> <Gold.Chemscore.Hbond>
1.5837

> <Gold.Chemscore.Metal>
0.0000

> <Gold.Chemscore.Lipo>
93.5668

> <Gold.Chemscore.Internal_Hbond>
0.0000

> <Gold.Chemscore.DEClash>
2.0907

> <Gold.Chemscore.DEInternal>
0.6717

> <Gold.Chemscore.Rot>
1.9350

> <Gold.Chemscore.Internal.Correction>
   9.000000E+99

> <Gold.Chemscore.Hbonds>
donor molecule, donor type, donor heavy atom, donor atom, acceptor molecule, acceptor atom, score
      L1  H    16    45       P1  7957  0.83
      P1  H  7989  7998       L1    16  0.57

> <Gold.Chemscore.Hbond.Weighted>
-5.2895

> <Gold.Chemscore.Metal.Weighted>
-0.0000

> <Gold.Chemscore.Lipo.Weighted>
-10.9473

> <Gold.Chemscore.Internal_Hbond.Weighted>
0.0000

> <Gold.Chemscore.DEClash.Weighted>
2.0907

> <Gold.Chemscore.DEInternal.Weighted>
0.6717

> <Gold.Chemscore.Rot.Weighted>
4.9536

> <Gold.Chemscore.Internal.Correction.Weighted>
   9.000000E+99

> <Gold.Protein.RotatedTorsions>
[ 6907 6896 6895 6894 ] final   33.38 input  -60.11 | X-H torsion
[ 7974 7965 7964 7962 ] final -115.86 input  175.53 | X-H torsion
[ 8008 7997 7996 7995 ] final -106.67 input   59.86 | X-H torsion
[ 10167 10162 10161 10158 ] final   75.72 input  -65.29 | X-H torsion
[ 10718 10713 10712 10709 ] final   83.54 input   66.30 | X-H torsion
[ 10763 10752 10751 10750 ] final  -41.98 input  -60.55 | X-H torsion
[ 11005 11000 10999 10996 ] final   -9.87 input  -57.11 | X-H torsion

> <Gold.Protein.ActiveResidues>
 VAL166  LYS551  ARG553  GLY616  TRP617  ASP618  TYR619  PRO620  LYS621  CYS622 
 ASP623  PHE694  ASN695  SER759  ASP760  ASP761  ALA762  ILE779  LEU786  VAL792 
 PHE793  MET794  SER795  GLU796  ALA797  LYS798  CYS799  TRP800  GLU811  SER814 

> <Gold.Protein.RotatedAtoms>
  152.0876  134.9429  160.0572 H   0  0  0  0  0  0  0  0  0  0  0  0  # atno 6907 bound_to 6896
  152.0693  133.4094  159.4460 H   0  0  0  0  0  0  0  0  0  0  0  0  # atno 6908 bound_to 6896
  150.6836  134.3031  159.4758 H   0  0  0  0  0  0  0  0  0  0  0  0  # atno 6909 bound_to 6896
  145.1035  140.8567  143.3912 H   0  0  0  0  0  0  0  0  0  0  0  0  # atno 7974 bound_to 7965
  154.9179  140.0408  157.1982 H   0  0  0  0  0  0  0  0  0  0  0  0  # atno 8008 bound_to 7997
  154.8283  140.2895  155.5718 H   0  0  0  0  0  0  0  0  0  0  0  0  # atno 8009 bound_to 7997
  156.2985  140.2505  156.3203 H   0  0  0  0  0  0  0  0  0  0  0  0  # atno 8010 bound_to 7997
  139.9999  144.5694  150.7746 H   0  0  0  0  0  0  0  0  0  0  0  0  # atno 10167 bound_to 10162
  157.6881  131.0095  150.2539 H   0  0  0  0  0  0  0  0  0  0  0  0  # atno 10718 bound_to 10713
  153.9715  135.6728  153.4747 H   0  0  0  0  0  0  0  0  0  0  0  0  # atno 10763 bound_to 10752
  153.0791  135.4933  154.8462 H   0  0  0  0  0  0  0  0  0  0  0  0  # atno 10764 bound_to 10752
  154.7216  135.3118  154.8998 H   0  0  0  0  0  0  0  0  0  0  0  0  # atno 10765 bound_to 10752
  140.7388  133.8688  155.8951 H   0  0  0  0  0  0  0  0  0  0  0  0  # atno 11005 bound_to 11000
  145.0928  139.2878  143.5726 LP  0  0  0  0  0  0  0  0  0  0  0  0  # atno 17320 bound_to 7965
  146.3529  140.0470  142.8638 LP  0  0  0  0  0  0  0  0  0  0  0  0  # atno 17321 bound_to 7965
  140.7423  143.2829  151.3545 LP  0  0  0  0  0  0  0  0  0  0  0  0  # atno 17342 bound_to 10162
  139.6279  144.0778  152.2450 LP  0  0  0  0  0  0  0  0  0  0  0  0  # atno 17343 bound_to 10162
  156.3130  130.3774  149.7644 LP  0  0  0  0  0  0  0  0  0  0  0  0  # atno 17370 bound_to 10713
  156.5238  130.8227  151.3213 LP  0  0  0  0  0  0  0  0  0  0  0  0  # atno 17371 bound_to 10713
  140.9855  134.1348  157.4455 LP  0  0  0  0  0  0  0  0  0  0  0  0  # atno 17394 bound_to 11000
  139.8810  135.0024  156.6125 LP  0  0  0  0  0  0  0  0  0  0  0  0  # atno 17395 bound_to 11000

$$$$
