AV-unprocessed.smi:598|AV-procd|sdf|3026|dock4
  -GOLD-   2262023533D 1   1.00000     0.00000
 Structure written by MMmdl.
 43 44  0  0  0  0  0  0  0  0  3 V2000
  152.1610  144.4908  160.8917 C   0  0  0  0  0  0  0  0  0  0  0  0
  152.5650  143.3146  159.9837 C   0  0  1  0  0  0  0  0  0  0  0  0
  153.1977  142.1991  160.8394 C   0  0  0  0  0  0  0  0  0  0  0  0
  153.6517  141.0120  159.9837 C   0  0  0  0  0  0  0  0  0  0  0  0
  152.4773  140.4480  159.1794 C   0  0  0  0  0  0  0  0  0  0  0  0
  151.8279  141.5325  158.2981 C   0  0  1  0  0  0  0  0  0  0  0  0
  150.6883  140.9548  157.5873 N   0  0  0  0  0  0  0  0  0  0  0  0
  150.6493  140.6736  156.2759 C   0  0  0  0  0  0  0  0  0  0  0  0
  151.6005  140.8623  155.5161 O   0  0  0  0  0  0  0  0  0  0  0  0
  149.3364  140.0682  155.7597 C   0  0  0  0  0  0  0  0  0  0  0  0
  148.2275  141.0360  155.7145 N   0  0  0  0  0  0  0  0  0  0  0  0
  147.5189  141.2537  156.9127 C   0  0  0  0  0  0  0  0  0  0  0  0
  146.4815  142.1105  156.9854 C   0  0  0  0  0  0  0  0  0  0  0  0
  145.7598  142.3152  158.2222 N   0  3  0  0  0  0  0  0  0  0  0  0
  144.8121  143.0943  158.2287 O   0  0  0  0  0  0  0  0  0  0  0  0
  146.1149  141.7055  159.2266 O   0  5  0  0  0  0  0  0  0  0  0  0
  146.1063  142.8189  155.7770 C   0  0  0  0  0  0  0  0  0  0  0  0
  146.7769  142.6115  154.6267 C   0  0  0  0  0  0  0  0  0  0  0  0
  147.9018  141.6736  154.5484 C   0  0  0  0  0  0  0  0  0  0  0  0
  148.5135  141.4737  153.4986 O   0  0  0  0  0  0  0  0  0  0  0  0
  151.3853  142.7670  159.1303 C   0  0  2  0  0  0  0  0  0  0  0  0
  150.7754  143.8574  158.2216 C   0  0  0  0  0  0  0  0  0  0  0  0
  151.3293  144.2217  161.5433 H   0  0  0  0  0  0  0  0  0  0  0  0
  151.8690  145.3687  160.3164 H   0  0  0  0  0  0  0  0  0  0  0  0
  152.9924  144.7968  161.5274 H   0  0  0  0  0  0  0  0  0  0  0  0
  153.3339  143.6788  159.3007 H   0  0  0  0  0  0  0  0  0  0  0  0
  154.0533  142.5910  161.3906 H   0  0  0  0  0  0  0  0  0  0  0  0
  152.4822  141.8549  161.5873 H   0  0  0  0  0  0  0  0  0  0  0  0
  154.4473  141.3255  159.3067 H   0  0  0  0  0  0  0  0  0  0  0  0
  154.0736  140.2346  160.6211 H   0  0  0  0  0  0  0  0  0  0  0  0
  152.8265  139.6193  158.5620 H   0  0  0  0  0  0  0  0  0  0  0  0
  151.7359  140.0320  159.8632 H   0  0  0  0  0  0  0  0  0  0  0  0
  152.5671  141.8710  157.5691 H   0  0  0  0  0  0  0  0  0  0  0  0
  149.8631  140.7623  158.1364 H   0  0  0  0  0  0  0  0  0  0  0  0
  149.5209  139.6532  154.7678 H   0  0  0  0  0  0  0  0  0  0  0  0
  149.0651  139.2116  156.3798 H   0  0  0  0  0  0  0  0  0  0  0  0
  147.8712  140.6729  157.7530 H   0  0  0  0  0  0  0  0  0  0  0  0
  145.2845  143.5198  155.7852 H   0  0  0  0  0  0  0  0  0  0  0  0
  146.4791  143.1488  153.7380 H   0  0  0  0  0  0  0  0  0  0  0  0
  150.6035  142.4401  159.8180 H   0  0  0  0  0  0  0  0  0  0  0  0
  151.5232  144.2680  157.5425 H   0  0  0  0  0  0  0  0  0  0  0  0
  150.3599  144.6814  158.8000 H   0  0  0  0  0  0  0  0  0  0  0  0
  149.9568  143.4716  157.6143 H   0  0  0  0  0  0  0  0  0  0  0  0
  1  2  1  0  0  0  0
  1 23  1  0  0  0  0
  1 24  1  0  0  0  0
  1 25  1  0  0  0  0
  2 21  1  0  0  0  0
  2  3  1  0  0  0  0
  2 26  1  0  0  0  0
  3  4  1  0  0  0  0
  3 27  1  0  0  0  0
  3 28  1  0  0  0  0
  4  5  1  0  0  0  0
  4 29  1  0  0  0  0
  4 30  1  0  0  0  0
  5  6  1  0  0  0  0
  5 31  1  0  0  0  0
  5 32  1  0  0  0  0
  6  7  1  0  0  0  0
  6 21  1  0  0  0  0
  6 33  1  0  0  0  0
  7  8  1  0  0  0  0
  7 34  1  0  0  0  0
  8  9  2  0  0  0  0
  8 10  1  0  0  0  0
 10 11  1  0  0  0  0
 10 35  1  0  0  0  0
 10 36  1  0  0  0  0
 11 19  1  0  0  0  0
 11 12  1  0  0  0  0
 12 13  2  0  0  0  0
 12 37  1  0  0  0  0
 13 14  1  0  0  0  0
 13 17  1  0  0  0  0
 14 15  2  0  0  0  0
 14 16  1  0  0  0  0
 17 18  2  0  0  0  0
 17 38  1  0  0  0  0
 18 19  1  0  0  0  0
 18 39  1  0  0  0  0
 19 20  2  0  0  0  0
 21 22  1  0  0  0  0
 21 40  1  0  0  0  0
 22 41  1  0  0  0  0
 22 42  1  0  0  0  0
 22 43  1  0  0  0  0
M  CHG  1  14   1
M  CHG  1  16  -1
M  END
> <s_m_source_file>
AV-unprocessed.smi

> <i_m_source_file_index>
598

> <i_lp_mmshare_version>
43012

> <i_f3d_flags>
0

> <s_epik_input>
W0NIM11bQ0BASF0xW0NIMl1bQ0gyXVtDSDJdW0NASF0oW0NASF0xW0NIM10pW05IXUMoPU8pW0NIMl1uMltjSF1jKFtOK10oPU8pW08tXSlbY0hdW2NIXWMyPU8=

> <s_epik_cmdline>
J2VwaWtfcHl0aG9uJywgJy1waCcsICc3LjAnLCAnLXRuJywgJzgnLCAnLW1hJywgJzIwMCcsICctbWV0YWxfYmluZGluZycsICctaW1hZScsICc8aW5maWxlLm1hZT4nLCAnLW9tYWUnLCAnPG91dGZpbGUubWFlPic=

> <r_lp_tautomer_probability>
1

> <r_epik_Ionization_Penalty>
1.91291e-08

> <r_epik_Ionization_Penalty_Charging>
8.21931e-11

> <r_epik_Ionization_Penalty_Neutral>
1.90469e-08

> <r_epik_State_Penalty>
-0

> <r_epik_Charging_Adjusted_Penalty>
8.21931e-11

> <i_epik_Tot_Q>
0

> <i_epik_Tot_abs_Q>
2

> <r_epik_Metal_State_Penalty>
-0

> <b_epik_Metal_Only>
0

> <s_lp_Force_Field>
OPLS_2005

> <r_lp_Energy>
23.592

> <b_lp_Chiralities_Consistent>
1

> <s_lp_Variant>
AV-unprocessed.smi:598-6

> <Gold.Version>
5.8.1

> <Gold.Id.Protein>
6NUR|6NUR_protein|mol2

> <Gold.PLP.Fitness>
44.1728

> <Gold.PLP.PLP>
-37.8614

> <Gold.PLP.part.hbond>
-3.0000

> <Gold.PLP.part.metal>
0.0000

> <Gold.PLP.part.buried>
-2.5821

> <Gold.PLP.part.nonpolar>
-31.8723

> <Gold.PLP.part.repulsive>
1.7999

> <Gold.PLP.ligand.clash>
0.0000

> <Gold.PLP.ligand.torsion>
0.5478

> <Gold.PLP.Chemscore.Hbond>
2.4661

> <Gold.PLP.Chemscore.CHOScore>
0.0000

> <Gold.PLP.Chemscore.Metal>
0.0000

> <Gold.Chemscore.Hbonds>
donor molecule, donor type, donor heavy atom, donor atom, acceptor molecule, acceptor atom, score
      P1  H  6934  6946       L1    16  0.94
      P1  H  7989  7998       L1     9  0.62
      P1  H  8011  8017       L1    20  0.75

> <Gold.PLP.Chemscore.Internal.Correction>
0.0086

> <Gold.Rescore>
     Score         DG    S(hbond)    S(metal)    S(lipo)     H(rot)  DE(clash)    DE(int)     intcor
     18.95     -20.25       2.27        0.00      95.29       1.54       0.67       0.64       ----

> <Gold.Chemscore.Fitness>
18.9517

> <Gold.Chemscore.DG>
-20.2536

> <Gold.Chemscore.ZeroCoef>
-5.4800

> <Gold.Chemscore.Hbond>
2.2653

> <Gold.Chemscore.Metal>
0.0000

> <Gold.Chemscore.Lipo>
95.2850

> <Gold.Chemscore.Internal_Hbond>
0.0000

> <Gold.Chemscore.DEClash>
0.6667

> <Gold.Chemscore.DEInternal>
0.6352

> <Gold.Chemscore.Rot>
1.5393

> <Gold.Chemscore.Internal.Correction>
   9.000000E+99

> <Gold.Chemscore.Hbonds>
donor molecule, donor type, donor heavy atom, donor atom, acceptor molecule, acceptor atom, score
      P1  H  6934  6946       L1    16  0.91
      P1  H  7989  7998       L1     9  0.60
      P1  H  8011  8017       L1    20  0.73

> <Gold.Chemscore.Hbond.Weighted>
-7.5660

> <Gold.Chemscore.Metal.Weighted>
-0.0000

> <Gold.Chemscore.Lipo.Weighted>
-11.1483

> <Gold.Chemscore.Internal_Hbond.Weighted>
0.0000

> <Gold.Chemscore.DEClash.Weighted>
0.6667

> <Gold.Chemscore.DEInternal.Weighted>
0.6352

> <Gold.Chemscore.Rot.Weighted>
3.9407

> <Gold.Chemscore.Internal.Correction.Weighted>
   9.000000E+99

> <Gold.Protein.RotatedTorsions>
[ 6907 6896 6895 6894 ] final  -59.36 input  -60.11 | X-H torsion
[ 7974 7965 7964 7962 ] final  -64.53 input  175.53 | X-H torsion
[ 8008 7997 7996 7995 ] final  141.42 input   59.86 | X-H torsion
[ 10167 10162 10161 10158 ] final   55.83 input  -65.29 | X-H torsion
[ 10718 10713 10712 10709 ] final   22.22 input   66.30 | X-H torsion
[ 10763 10752 10751 10750 ] final  -53.84 input  -60.55 | X-H torsion
[ 11005 11000 10999 10996 ] final   25.58 input  -57.11 | X-H torsion

> <Gold.Protein.ActiveResidues>
 VAL166  LYS551  ARG553  GLY616  TRP617  ASP618  TYR619  PRO620  LYS621  CYS622 
 ASP623  PHE694  ASN695  SER759  ASP760  ASP761  ALA762  ILE779  LEU786  VAL792 
 PHE793  MET794  SER795  GLU796  ALA797  LYS798  CYS799  TRP800  GLU811  SER814 

> <Gold.Protein.RotatedAtoms>
  150.7937  134.6979  159.6533 H   0  0  0  0  0  0  0  0  0  0  0  0  # atno 6907 bound_to 6896
  152.4046  134.6226  160.0064 H   0  0  0  0  0  0  0  0  0  0  0  0  # atno 6908 bound_to 6896
  151.6487  133.3285  159.3183 H   0  0  0  0  0  0  0  0  0  0  0  0  # atno 6909 bound_to 6896
  145.7656  140.8839  143.0407 H   0  0  0  0  0  0  0  0  0  0  0  0  # atno 7974 bound_to 7965
  156.2966  140.2315  156.4561 H   0  0  0  0  0  0  0  0  0  0  0  0  # atno 8008 bound_to 7997
  154.8059  140.0446  157.1328 H   0  0  0  0  0  0  0  0  0  0  0  0  # atno 8009 bound_to 7997
  154.9479  140.3038  155.5092 H   0  0  0  0  0  0  0  0  0  0  0  0  # atno 8010 bound_to 7997
  140.2152  144.3847  150.6472 H   0  0  0  0  0  0  0  0  0  0  0  0  # atno 10167 bound_to 10162
  157.1492  130.6667  149.6006 H   0  0  0  0  0  0  0  0  0  0  0  0  # atno 10718 bound_to 10713
  154.1652  135.6468  153.4996 H   0  0  0  0  0  0  0  0  0  0  0  0  # atno 10763 bound_to 10752
  153.0099  135.5370  154.6669 H   0  0  0  0  0  0  0  0  0  0  0  0  # atno 10764 bound_to 10752
  154.5994  135.2942  155.0524 H   0  0  0  0  0  0  0  0  0  0  0  0  # atno 10765 bound_to 10752
  140.3463  134.2277  155.7684 H   0  0  0  0  0  0  0  0  0  0  0  0  # atno 11005 bound_to 11000
  144.6822  139.9783  143.7483 LP  0  0  0  0  0  0  0  0  0  0  0  0  # atno 17320 bound_to 7965
  146.0221  139.3260  143.0806 LP  0  0  0  0  0  0  0  0  0  0  0  0  # atno 17321 bound_to 7965
  140.6295  143.2185  151.6526 LP  0  0  0  0  0  0  0  0  0  0  0  0  # atno 17342 bound_to 10162
  139.5165  144.3346  152.0796 LP  0  0  0  0  0  0  0  0  0  0  0  0  # atno 17343 bound_to 10162
  155.9773  130.4750  150.6588 LP  0  0  0  0  0  0  0  0  0  0  0  0  # atno 17370 bound_to 10713
  157.4236  131.0840  151.1107 LP  0  0  0  0  0  0  0  0  0  0  0  0  # atno 17371 bound_to 10713
  141.2024  133.7937  157.0390 LP  0  0  0  0  0  0  0  0  0  0  0  0  # atno 17394 bound_to 11000
  140.0739  134.9686  157.1513 LP  0  0  0  0  0  0  0  0  0  0  0  0  # atno 17395 bound_to 11000

$$$$
