#       Name:                AV-unprocessed.smi:472
#       Creating user name   scv26
#       Creation time:       Thu Mar 26 23:07:15 2020


#       File generated by GOLD software.
#

@<TRIPOS>MOLECULE
AV-unprocessed.smi:472
    43    44     1
SMALL
NO_CHARGES


@<TRIPOS>ATOM
      1 ****        -2.7026   2.9614  -0.3145 C.3            1 S1                 0.0000
      2 ****        -2.2229   1.6290  -0.2988 O.3            1 S1                 0.0000
      3 ****        -2.7550   0.8695   0.7741 C.3            1 S1                 0.0000
      4 ****        -2.1999  -0.5618   0.7314 C.3            1 S1                 0.0000
      5 ****        -0.7410  -0.5876   0.7932 N.pl3          1 S1                 0.0000
      6 ****         0.0326  -0.5888   1.9068 C.2            1 S1                 0.0000
      7 ****        -0.5523  -0.5625   3.1684 N.pl3          1 S1                 0.0000
      8 ****        -1.9240  -0.5333   3.4379 N.3            1 S1                 0.0000
      9 ****         1.3476  -0.6105   1.6766 N.2            1 S1                 0.0000
     10 ****         1.4157  -0.6174   0.2901 C.2            1 S1                 0.0000
     11 ****         0.1777  -0.6001  -0.2591 C.2            1 S1                 0.0000
     12 ****        -0.0457  -0.5871  -1.7100 C.2            1 S1                 0.0000
     13 ****        -1.1804  -0.5626  -2.1893 O.2            1 S1                 0.0000
     14 ****         1.1043  -0.5999  -2.4535 N.am           1 S1                 0.0000
     15 ****         0.9209  -0.5881  -3.9173 C.3            1 S1                 0.0000
     16 ****         2.3887  -0.6098  -1.9359 C.2            1 S1                 0.0000
     17 ****         3.3809  -0.6002  -2.6693 O.2            1 S1                 0.0000
     18 ****         2.5426  -0.6290  -0.5721 N.am           1 S1                 0.0000
     19 ****         3.8866  -0.6495   0.0125 C.3            1 S1                 0.0000
     20 ****        -2.2608   3.4989  -1.1535 H              1 S1                 0.0000
     21 ****        -2.4341   3.4880   0.6020 H              1 S1                 0.0000
     22 ****        -3.7869   2.9883  -0.4302 H              1 S1                 0.0000
     23 ****        -2.4963   1.3399   1.7240 H              1 S1                 0.0000
     24 ****        -3.8437   0.8433   0.7097 H              1 S1                 0.0000
     25 ****        -2.6015  -1.1407   1.5636 H              1 S1                 0.0000
     26 ****        -2.5373  -1.0776  -0.1658 H              1 S1                 0.0000
     27 ****         0.0665  -0.5857   3.9663 H              1 S1                 0.0000
     28 ****        -2.2121   0.4315   3.5889 H              1 S1                 0.0000
     29 ****        -2.4262  -0.8960   2.6293 H              1 S1                 0.0000
     30 ****         1.8358  -0.7079  -4.4979 H              1 S1                 0.0000
     31 ****         0.4682   0.3537  -4.2318 H              1 S1                 0.0000
     32 ****         0.2593  -1.3981  -4.2301 H              1 S1                 0.0000
     33 ****         4.4573  -1.5005  -0.3628 H              1 S1                 0.0000
     34 ****         3.8737  -0.7271   1.0997 H              1 S1                 0.0000
     35 ****         4.4271   0.2629  -0.2435 H              1 S1                 0.0000
     36 ****        -1.2267   1.6484  -0.2141 LP             1 S1                 0.0000
     37 ****        -2.4757   1.1876  -1.1598 LP             1 S1                 0.0000
     38 ****        -2.1222  -1.0849   4.2481 LP             1 S1                 0.0000
     39 ****         2.0972  -0.6196   2.3385 LP             1 S1                 0.0000
     40 ****        -1.9778  -0.5511  -1.5861 LP             1 S1                 0.0000
     41 ****        -1.3039  -0.5543  -3.1816 LP             1 S1                 0.0000
     42 ****         3.2682  -0.5849  -3.6628 LP             1 S1                 0.0000
     43 ****         4.2978  -0.6077  -2.2702 LP             1 S1                 0.0000
@<TRIPOS>BOND
    1    1    2 1     
    2    1   20 1     
    3    1   21 1     
    4    1   22 1     
    5    2    3 1     
    6    3    4 1     
    7    3   23 1     
    8    3   24 1     
    9    4    5 1     
   10    4   25 1     
   11    4   26 1     
   12    5   11 1     
   13    5    6 1     
   14    6    7 1     
   15    6    9 2     
   16    7    8 1     
   17    7   27 1     
   18    8   28 1     
   19    8   29 1     
   20    9   10 1     
   21   10   18 1     
   22   10   11 2     
   23   11   12 1     
   24   12   13 2     
   25   12   14 am    
   26   14   15 1     
   27   14   16 am    
   28   15   30 1     
   29   15   31 1     
   30   15   32 1     
   31   16   17 2     
   32   16   18 am    
   33   18   19 1     
   34   19   33 1     
   35   19   34 1     
   36   19   35 1     
   37    2   36 1     
   38    2   37 1     
   39    8   38 1     
   40    9   39 1     
   41   13   40 1     
   42   13   41 1     
   43   17   42 1     
   44   17   43 1     
@<TRIPOS>SUBSTRUCTURE
      1 S1             1
@<TRIPOS>SET
LONE_PAIRS      STATIC     ATOMS    <user>   **** ""
8 36 37 38 39 40 41 42 43
DONOR_HYDROGENS      STATIC     ATOMS    <user>   **** ""
3 27 28 29
ATOM$BLUE        STATIC     ATOMS    COLORGROUP SYSTEM
8 36 37 38 39 40 41 42 43
ATOM$RED        STATIC     ATOMS    COLORGROUP SYSTEM
3 27 28 29
