AV-unprocessed.smi:103|AV-procd|sdf|990|dock1
  -GOLD-   2262017563D 1   1.00000     0.00000
 Structure written by MMmdl.
 53 55  0  0  0  0  0  0  0  0  1 V2000
  150.6759  132.7366  154.7478 C   0  0  0  0  0  0  0  0  0  0  0  0
  150.0923  133.2479  156.0588 C   0  0  0  0  0  0  0  0  0  0  0  0
  150.1871  132.5939  157.0976 O   0  0  0  0  0  0  0  0  0  0  0  0
  149.4940  134.4438  155.9243 O   0  0  0  0  0  0  0  0  0  0  0  0
  148.6165  134.9225  156.9327 C   0  0  0  0  0  0  0  0  0  0  0  0
  149.3505  134.9362  158.2799 C   0  0  1  0  0  0  0  0  0  0  0  0
  150.2990  136.0062  158.2638 O   0  0  0  0  0  0  0  0  0  0  0  0
  150.1163  136.8510  159.3549 C   0  0  1  0  0  0  0  0  0  0  0  0
  150.3819  138.2593  158.9309 N   0  0  0  0  0  0  0  0  0  0  0  0
  151.4995  139.0441  159.1333 C   0  0  0  0  0  0  0  0  0  0  0  0
  153.0098  138.5520  159.9573 S   0  0  0  0  0  0  0  0  0  0  0  0
  153.4388  140.0708  160.9005 C   0  0  0  0  0  0  0  0  0  0  0  0
  152.6560  137.4782  160.8990 O   0  0  0  0  0  0  0  0  0  0  0  0
  154.0220  138.3264  158.9144 O   0  0  0  0  0  0  0  0  0  0  0  0
  151.4893  140.2294  158.5858 N   0  0  0  0  0  0  0  0  0  0  0  0
  150.2308  140.2964  158.0047 C   0  0  0  0  0  0  0  0  0  0  0  0
  149.5365  141.2888  157.2678 C   0  0  0  0  0  0  0  0  0  0  0  0
  150.0627  142.4868  156.9791 N   0  0  0  0  0  0  0  0  0  0  0  0
  148.2837  141.0153  156.8344 N   0  0  0  0  0  0  0  0  0  0  0  0
  147.7366  139.8268  157.1089 C   0  0  0  0  0  0  0  0  0  0  0  0
  148.2626  138.8021  157.7846 N   0  0  0  0  0  0  0  0  0  0  0  0
  149.5263  139.0777  158.2210 C   0  0  0  0  0  0  0  0  0  0  0  0
  148.6740  136.6832  159.8144 C   0  0  2  0  0  0  0  0  0  0  0  0
  148.5456  136.9810  161.1979 O   0  0  0  0  0  0  0  0  0  0  0  0
  147.3361  137.2157  161.7279 C   0  0  0  0  0  0  0  0  0  0  0  0
  147.2545  136.7974  163.1896 C   0  0  0  0  0  0  0  0  0  0  0  0
  146.3706  137.7062  161.1425 O   0  0  0  0  0  0  0  0  0  0  0  0
  148.3913  135.2264  159.4525 C   0  0  2  0  0  0  0  0  0  0  0  0
  148.4296  134.2877  160.5386 O   0  0  0  0  0  0  0  0  0  0  0  0
  147.4540  134.1344  161.4642 C   0  0  0  0  0  0  0  0  0  0  0  0
  147.8813  133.2077  162.5941 C   0  0  0  0  0  0  0  0  0  0  0  0
  146.3394  134.6534  161.4570 O   0  0  0  0  0  0  0  0  0  0  0  0
  150.1158  131.8685  154.4007 H   0  0  0  0  0  0  0  0  0  0  0  0
  151.7165  132.4437  154.8871 H   0  0  0  0  0  0  0  0  0  0  0  0
  150.6349  133.5053  153.9756 H   0  0  0  0  0  0  0  0  0  0  0  0
  148.2375  135.9202  156.7092 H   0  0  0  0  0  0  0  0  0  0  0  0
  147.7538  134.2578  156.9821 H   0  0  0  0  0  0  0  0  0  0  0  0
  149.8695  133.9870  158.4136 H   0  0  0  0  0  0  0  0  0  0  0  0
  150.8580  136.6223  160.1154 H   0  0  0  0  0  0  0  0  0  0  0  0
  154.3560  139.9005  161.4635 H   0  0  0  0  0  0  0  0  0  0  0  0
  152.6290  140.3103  161.5895 H   0  0  0  0  0  0  0  0  0  0  0  0
  153.5851  140.9022  160.2116 H   0  0  0  0  0  0  0  0  0  0  0  0
  150.9958  142.7144  157.2912 H   0  0  0  0  0  0  0  0  0  0  0  0
  149.5253  143.1598  156.4519 H   0  0  0  0  0  0  0  0  0  0  0  0
  146.7358  139.6729  156.7322 H   0  0  0  0  0  0  0  0  0  0  0  0
  148.0500  137.3366  159.2024 H   0  0  0  0  0  0  0  0  0  0  0  0
  147.8470  137.4717  163.8083 H   0  0  0  0  0  0  0  0  0  0  0  0
  147.6362  135.7843  163.3166 H   0  0  0  0  0  0  0  0  0  0  0  0
  146.2221  136.8238  163.5382 H   0  0  0  0  0  0  0  0  0  0  0  0
  147.3634  135.1727  159.0931 H   0  0  0  0  0  0  0  0  0  0  0  0
  148.7883  133.5814  163.0692 H   0  0  0  0  0  0  0  0  0  0  0  0
  148.0778  132.2075  162.2080 H   0  0  0  0  0  0  0  0  0  0  0  0
  147.0986  133.1384  163.3498 H   0  0  0  0  0  0  0  0  0  0  0  0
  1  2  1  0  0  0  0
  1 33  1  0  0  0  0
  1 34  1  0  0  0  0
  1 35  1  0  0  0  0
  2  3  2  0  0  0  0
  2  4  1  0  0  0  0
  4  5  1  0  0  0  0
  5  6  1  0  0  0  0
  5 36  1  0  0  0  0
  5 37  1  0  0  0  0
  6 28  1  0  0  0  0
  6  7  1  0  0  0  0
  6 38  1  0  0  0  0
  7  8  1  0  0  0  0
  8  9  1  0  0  0  0
  8 23  1  0  0  0  0
  8 39  1  0  0  0  0
  9 22  1  0  0  0  0
  9 10  1  0  0  0  0
 10 11  1  0  0  0  0
 10 15  2  0  0  0  0
 11 12  1  0  0  0  0
 11 13  2  0  0  0  0
 11 14  2  0  0  0  0
 12 40  1  0  0  0  0
 12 41  1  0  0  0  0
 12 42  1  0  0  0  0
 15 16  1  0  0  0  0
 16 22  2  0  0  0  0
 16 17  1  0  0  0  0
 17 18  1  0  0  0  0
 17 19  2  0  0  0  0
 18 43  1  0  0  0  0
 18 44  1  0  0  0  0
 19 20  1  0  0  0  0
 20 21  2  0  0  0  0
 20 45  1  0  0  0  0
 21 22  1  0  0  0  0
 23 24  1  0  0  0  0
 23 28  1  0  0  0  0
 23 46  1  0  0  0  0
 24 25  1  0  0  0  0
 25 26  1  0  0  0  0
 25 27  2  0  0  0  0
 26 47  1  0  0  0  0
 26 48  1  0  0  0  0
 26 49  1  0  0  0  0
 28 29  1  0  0  0  0
 28 50  1  0  0  0  0
 29 30  1  0  0  0  0
 30 31  1  0  0  0  0
 30 32  2  0  0  0  0
 31 51  1  0  0  0  0
 31 52  1  0  0  0  0
 31 53  1  0  0  0  0
M  END
> <s_m_source_file>
AV-unprocessed.smi

> <i_m_source_file_index>
103

> <i_lp_mmshare_version>
43012

> <i_f3d_flags>
0

> <s_epik_input>
W0NIM11DKD1PKU9bQ0gyXVtDQEBIXTFPW0NASF0oW0NAQEhdKE9DKD1PKVtDSDNdKVtDQEhdMU9DKD1PKVtDSDNdKW4oYyhuMilTKD1PKSg9TylbQ0gzXSljKGMyMyluW2NIXW5jM1tOSDJd

> <s_epik_cmdline>
J2VwaWtfcHl0aG9uJywgJy1waCcsICc3LjAnLCAnLXRuJywgJzgnLCAnLW1hJywgJzIwMCcsICctbWV0YWxfYmluZGluZycsICctaW1hZScsICc8aW5maWxlLm1hZT4nLCAnLW9tYWUnLCAnPG91dGZpbGUubWFlPic=

> <r_lp_tautomer_probability>
1

> <r_epik_Ionization_Penalty>
1.51338e-05

> <r_epik_Ionization_Penalty_Charging>
0

> <r_epik_Ionization_Penalty_Neutral>
1.51338e-05

> <r_epik_State_Penalty>
-0

> <r_epik_Charging_Adjusted_Penalty>
0

> <i_epik_Tot_Q>
0

> <i_epik_Tot_abs_Q>
0

> <r_epik_Metal_State_Penalty>
-0

> <b_epik_Metal_Only>
0

> <s_epik_Chemistry_Notes>
This compound has an ester and may undergo hydrolysis at high or low pH. This compound contains an acetal/aminal-like group ( X-CH(R)-Y where X, Y are N, S, or O) that may be acid/base labile, releasing an aldehyde.

> <s_lp_Force_Field>
OPLS_2005

> <r_lp_Energy>
20.3067

> <b_lp_Chiralities_Consistent>
1

> <s_lp_Variant>
AV-unprocessed.smi:103-14

> <Gold.Version>
5.8.1

> <Gold.Id.Protein>
6NUR|6NUR_protein|mol2

> <Gold.PLP.Fitness>
42.2651

> <Gold.PLP.PLP>
-35.6182

> <Gold.PLP.part.hbond>
-4.5097

> <Gold.PLP.part.metal>
0.0000

> <Gold.PLP.part.buried>
-4.8771

> <Gold.PLP.part.nonpolar>
-26.4972

> <Gold.PLP.part.repulsive>
0.1770

> <Gold.PLP.ligand.clash>
0.0000

> <Gold.PLP.ligand.torsion>
2.7108

> <Gold.PLP.Chemscore.Hbond>
3.1534

> <Gold.PLP.Chemscore.CHOScore>
0.0000

> <Gold.PLP.Chemscore.Metal>
0.0000

> <Gold.Chemscore.Hbonds>
donor molecule, donor type, donor heavy atom, donor atom, acceptor molecule, acceptor atom, score
      L1  H    18    44       P1  8028  1.00
      P1  H  6934  6947       L1    27  0.55

> <Gold.PLP.Chemscore.Internal.Correction>
2.6083

> <Gold.Rescore>
     Score         DG    S(hbond)    S(metal)    S(lipo)     H(rot)  DE(clash)    DE(int)     intcor
      6.77      -9.36       2.99        0.00      40.80       4.25       0.05       2.54       ----

> <Gold.Chemscore.Fitness>
6.7689

> <Gold.Chemscore.DG>
-9.3593

> <Gold.Chemscore.ZeroCoef>
-5.4800

> <Gold.Chemscore.Hbond>
2.9863

> <Gold.Chemscore.Metal>
0.0000

> <Gold.Chemscore.Lipo>
40.8018

> <Gold.Chemscore.Internal_Hbond>
0.0000

> <Gold.Chemscore.DEClash>
0.0494

> <Gold.Chemscore.DEInternal>
2.5410

> <Gold.Chemscore.Rot>
4.2456

> <Gold.Chemscore.Internal.Correction>
   9.000000E+99

> <Gold.Chemscore.Hbonds>
donor molecule, donor type, donor heavy atom, donor atom, acceptor molecule, acceptor atom, score
      L1  H    18    44       P1  8028  1.00
      P1  H  6934  6947       L1    27  0.03
      P1  H  7997  8009       L1    14  0.01

> <Gold.Chemscore.Hbond.Weighted>
-9.9742

> <Gold.Chemscore.Metal.Weighted>
-0.0000

> <Gold.Chemscore.Lipo.Weighted>
-4.7738

> <Gold.Chemscore.Internal_Hbond.Weighted>
0.0000

> <Gold.Chemscore.DEClash.Weighted>
0.0494

> <Gold.Chemscore.DEInternal.Weighted>
2.5410

> <Gold.Chemscore.Rot.Weighted>
10.8687

> <Gold.Chemscore.Internal.Correction.Weighted>
   9.000000E+99

> <Gold.Protein.RotatedTorsions>
[ 6907 6896 6895 6894 ] final  -97.81 input  -60.11 | X-H torsion
[ 7974 7965 7964 7962 ] final  170.03 input  175.53 | X-H torsion
[ 8008 7997 7996 7995 ] final  133.92 input   59.86 | X-H torsion
[ 10167 10162 10161 10158 ] final  -82.91 input  -65.29 | X-H torsion
[ 10718 10713 10712 10709 ] final -151.17 input   66.30 | X-H torsion
[ 10763 10752 10751 10750 ] final -158.40 input  -60.55 | X-H torsion
[ 11005 11000 10999 10996 ] final  -88.33 input  -57.11 | X-H torsion

> <Gold.Protein.ActiveResidues>
 VAL166  LYS551  ARG553  GLY616  TRP617  ASP618  TYR619  PRO620  LYS621  CYS622 
 ASP623  PHE694  ASN695  SER759  ASP760  ASP761  ALA762  ILE779  LEU786  VAL792 
 PHE793  MET794  SER795  GLU796  ALA797  LYS798  CYS799  TRP800  GLU811  SER814 

> <Gold.Protein.RotatedAtoms>
  150.7027  134.1291  159.4062 H   0  0  0  0  0  0  0  0  0  0  0  0  # atno 6907 bound_to 6896
  151.9277  135.0268  160.0536 H   0  0  0  0  0  0  0  0  0  0  0  0  # atno 6908 bound_to 6896
  152.2202  133.4943  159.5195 H   0  0  0  0  0  0  0  0  0  0  0  0  # atno 6909 bound_to 6896
  144.7336  139.9142  143.6416 H   0  0  0  0  0  0  0  0  0  0  0  0  # atno 7974 bound_to 7965
  156.2996  140.2509  156.3332 H   0  0  0  0  0  0  0  0  0  0  0  0  # atno 8008 bound_to 7997
  154.9125  140.0403  157.1973 H   0  0  0  0  0  0  0  0  0  0  0  0  # atno 8009 bound_to 7997
  154.8391  140.2888  155.5675 H   0  0  0  0  0  0  0  0  0  0  0  0  # atno 8010 bound_to 7997
  140.4276  143.2561  151.8805 H   0  0  0  0  0  0  0  0  0  0  0  0  # atno 10167 bound_to 10162
  156.4557  130.8189  151.2420 H   0  0  0  0  0  0  0  0  0  0  0  0  # atno 10718 bound_to 10713
  154.7559  135.3104  154.8470 H   0  0  0  0  0  0  0  0  0  0  0  0  # atno 10763 bound_to 10752
  153.9245  135.6792  153.4751 H   0  0  0  0  0  0  0  0  0  0  0  0  # atno 10764 bound_to 10752
  153.1156  135.4846  154.9040 H   0  0  0  0  0  0  0  0  0  0  0  0  # atno 10765 bound_to 10752
  141.1603  133.7563  156.9435 H   0  0  0  0  0  0  0  0  0  0  0  0  # atno 11005 bound_to 11000
  146.0978  139.3971  143.0366 LP  0  0  0  0  0  0  0  0  0  0  0  0  # atno 17320 bound_to 7965
  145.7621  140.9931  143.1194 LP  0  0  0  0  0  0  0  0  0  0  0  0  # atno 17321 bound_to 7965
  139.4784  144.5370  151.8584 LP  0  0  0  0  0  0  0  0  0  0  0  0  # atno 17342 bound_to 10162
  140.4464  144.1916  150.5894 LP  0  0  0  0  0  0  0  0  0  0  0  0  # atno 17343 bound_to 10162
  157.7500  131.0123  150.3381 LP  0  0  0  0  0  0  0  0  0  0  0  0  # atno 17370 bound_to 10713
  156.3769  130.3873  149.7132 LP  0  0  0  0  0  0  0  0  0  0  0  0  # atno 17371 bound_to 10713
  140.1305  134.9359  157.2331 LP  0  0  0  0  0  0  0  0  0  0  0  0  # atno 17394 bound_to 11000
  140.2959  134.3187  155.7302 LP  0  0  0  0  0  0  0  0  0  0  0  0  # atno 17395 bound_to 11000

$$$$
