AV-unprocessed.smi:2168|AV-procd|sdf|8821|dock9
  -GOLD-   2272012 13D 1   1.00000     0.00000
 Structure written by MMmdl.
 46 47  0  0  0  0  0  0  0  0  3 V2000
  145.7962  137.5034  162.2296 C   0  0  0  0  0  0  0  0  0  0  0  0
  147.1087  136.7942  162.6010 C   0  0  0  0  0  0  0  0  0  0  0  0
  147.4995  135.7530  161.6287 N   0  0  0  0  0  0  0  0  0  0  0  0
  147.4237  134.3505  162.0852 C   0  0  0  0  0  0  0  0  0  0  0  0
  146.0015  133.9209  162.4759 C   0  0  0  0  0  0  0  0  0  0  0  0
  147.6189  136.1205  159.9302 S   0  0  0  0  0  0  0  0  0  0  0  0
  147.3613  137.5642  159.7998 O   0  0  0  0  0  0  0  0  0  0  0  0
  148.9280  135.6129  159.4879 O   0  0  0  0  0  0  0  0  0  0  0  0
  146.3826  135.1991  159.4319 N   0  5  0  0  0  0  0  0  0  0  0  0
  146.6200  133.8038  159.1239 C   0  0  0  0  0  0  0  0  0  0  0  0
  146.4603  133.5444  157.6346 C   0  0  0  0  0  0  0  0  0  0  0  0
  147.4249  134.0036  156.7100 C   0  0  0  0  0  0  0  0  0  0  0  0
  147.2580  133.7303  155.3362 C   0  0  0  0  0  0  0  0  0  0  0  0
  146.1271  132.9995  154.8908 C   0  0  0  0  0  0  0  0  0  0  0  0
  145.8859  132.6681  153.5381 N   0  0  0  0  0  0  0  0  0  0  0  0
  146.5089  131.4611  153.0009 C   0  0  0  0  0  0  0  0  0  0  0  0
  145.8914  131.0897  151.6422 C   0  0  0  0  0  0  0  0  0  0  0  0
  145.9676  132.2021  150.7590 O   0  0  0  0  0  0  0  0  0  0  0  0
  145.2249  133.3121  151.2487 C   0  0  0  0  0  0  0  0  0  0  0  0
  145.8142  133.7797  152.5897 C   0  0  0  0  0  0  0  0  0  0  0  0
  145.2321  132.5833  155.8200 N   0  3  0  0  0  0  0  0  0  0  0  0
  145.3522  132.8205  157.1449 C   0  0  0  0  0  0  0  0  0  0  0  0
  145.5089  138.2081  163.0097 H   0  0  0  0  0  0  0  0  0  0  0  0
  144.9740  136.8006  162.1016 H   0  0  0  0  0  0  0  0  0  0  0  0
  145.8966  138.0703  161.3043 H   0  0  0  0  0  0  0  0  0  0  0  0
  147.9115  137.5287  162.6665 H   0  0  0  0  0  0  0  0  0  0  0  0
  147.0222  136.3531  163.5943 H   0  0  0  0  0  0  0  0  0  0  0  0
  147.7977  133.6924  161.3016 H   0  0  0  0  0  0  0  0  0  0  0  0
  148.0937  134.2198  162.9354 H   0  0  0  0  0  0  0  0  0  0  0  0
  145.9840  132.8649  162.7451 H   0  0  0  0  0  0  0  0  0  0  0  0
  145.2986  134.0606  161.6551 H   0  0  0  0  0  0  0  0  0  0  0  0
  145.6342  134.4789  163.3367 H   0  0  0  0  0  0  0  0  0  0  0  0
  147.6211  133.4872  159.4187 H   0  0  0  0  0  0  0  0  0  0  0  0
  145.9329  133.1481  159.6594 H   0  0  0  0  0  0  0  0  0  0  0  0
  148.2954  134.5570  157.0356 H   0  0  0  0  0  0  0  0  0  0  0  0
  148.0070  134.0948  154.6505 H   0  0  0  0  0  0  0  0  0  0  0  0
  147.5818  131.6268  152.8950 H   0  0  0  0  0  0  0  0  0  0  0  0
  146.3687  130.6228  153.6835 H   0  0  0  0  0  0  0  0  0  0  0  0
  146.4297  130.2497  151.2032 H   0  0  0  0  0  0  0  0  0  0  0  0
  144.8531  130.7749  151.7595 H   0  0  0  0  0  0  0  0  0  0  0  0
  145.2696  134.1195  150.5179 H   0  0  0  0  0  0  0  0  0  0  0  0
  144.1734  133.0414  151.3586 H   0  0  0  0  0  0  0  0  0  0  0  0
  145.2003  134.5953  152.9715 H   0  0  0  0  0  0  0  0  0  0  0  0
  146.8182  134.1780  152.4382 H   0  0  0  0  0  0  0  0  0  0  0  0
  144.5621  132.4147  157.7619 H   0  0  0  0  0  0  0  0  0  0  0  0
  144.4221  132.0508  155.5035 H   0  0  0  0  0  0  0  0  0  0  0  0
  1  2  1  0  0  0  0
  1 23  1  0  0  0  0
  1 24  1  0  0  0  0
  1 25  1  0  0  0  0
  2  3  1  0  0  0  0
  2 26  1  0  0  0  0
  2 27  1  0  0  0  0
  3  4  1  0  0  0  0
  3  6  1  0  0  0  0
  4  5  1  0  0  0  0
  4 28  1  0  0  0  0
  4 29  1  0  0  0  0
  5 30  1  0  0  0  0
  5 31  1  0  0  0  0
  5 32  1  0  0  0  0
  6  7  2  0  0  0  0
  6  8  2  0  0  0  0
  6  9  1  0  0  0  0
  9 10  1  0  0  0  0
 10 11  1  0  0  0  0
 10 33  1  0  0  0  0
 10 34  1  0  0  0  0
 11 22  1  0  0  0  0
 11 12  2  0  0  0  0
 12 13  1  0  0  0  0
 12 35  1  0  0  0  0
 13 14  2  0  0  0  0
 13 36  1  0  0  0  0
 14 15  1  0  0  0  0
 14 21  1  0  0  0  0
 15 20  1  0  0  0  0
 15 16  1  0  0  0  0
 16 17  1  0  0  0  0
 16 37  1  0  0  0  0
 16 38  1  0  0  0  0
 17 18  1  0  0  0  0
 17 39  1  0  0  0  0
 17 40  1  0  0  0  0
 18 19  1  0  0  0  0
 19 20  1  0  0  0  0
 19 41  1  0  0  0  0
 19 42  1  0  0  0  0
 20 43  1  0  0  0  0
 20 44  1  0  0  0  0
 21 22  2  0  0  0  0
 21 46  1  0  0  0  0
 22 45  1  0  0  0  0
M  CHG  1   9  -1
M  CHG  1  21   1
M  END
> <s_m_source_file>
AV-unprocessed.smi

> <i_m_source_file_index>
2168

> <i_lp_mmshare_version>
43012

> <i_f3d_flags>
0

> <s_epik_input>
W0NIM11bQ0gyXU4oW0NIMl1bQ0gzXSlTKD1PKSg9TylbTkhdW0NIMl1jMVtjSF1bY0hdYyhuW2NIXTEpTjJbQ0gyXVtDSDJdT1tDSDJdW0NIMl0y

> <s_epik_cmdline>
J2VwaWtfcHl0aG9uJywgJy1waCcsICc3LjAnLCAnLXRuJywgJzgnLCAnLW1hJywgJzIwMCcsICctbWV0YWxfYmluZGluZycsICctaW1hZScsICc8aW5maWxlLm1hZT4nLCAnLW9tYWUnLCAnPG91dGZpbGUubWFlPic=

> <r_lp_tautomer_probability>
0.999994

> <r_epik_Ionization_Penalty>
2.67026

> <r_epik_Ionization_Penalty_Charging>
2.67026

> <r_epik_Ionization_Penalty_Neutral>
4.07977e-08

> <r_epik_State_Penalty>
4.05768

> <r_epik_Charging_Adjusted_Penalty>
6.72795

> <i_epik_Tot_Q>
0

> <i_epik_Tot_abs_Q>
2

> <r_epik_Metal_State_Penalty>
2.91237

> <b_epik_Metal_Only>
1

> <s_lp_Force_Field>
OPLS_2005

> <r_lp_Energy>
13.0843

> <b_lp_Chiralities_Consistent>
1

> <s_lp_Variant>
AV-unprocessed.smi:2168-4

> <Gold.Version>
5.8.1

> <Gold.Id.Protein>
6NUR|6NUR_protein|mol2

> <Gold.PLP.Fitness>
41.4335

> <Gold.PLP.PLP>
-30.4718

> <Gold.PLP.part.hbond>
-3.0000

> <Gold.PLP.part.metal>
0.0000

> <Gold.PLP.part.buried>
-5.0123

> <Gold.PLP.part.nonpolar>
-22.6490

> <Gold.PLP.part.repulsive>
0.2579

> <Gold.PLP.ligand.clash>
0.0000

> <Gold.PLP.ligand.torsion>
2.2665

> <Gold.PLP.Chemscore.Hbond>
3.8800

> <Gold.PLP.Chemscore.CHOScore>
0.0000

> <Gold.PLP.Chemscore.Metal>
0.0000

> <Gold.Chemscore.Hbonds>
donor molecule, donor type, donor heavy atom, donor atom, acceptor molecule, acceptor atom, score
      L1  H    21    46       P1 10957  2.00
      P1  H  6896  6909       L1     8  1.00
      P1  H  6934  6947       L1     7  0.86

> <Gold.PLP.Chemscore.Internal.Correction>
3.8545

> <Gold.Rescore>
     Score         DG    S(hbond)    S(metal)    S(lipo)     H(rot)  DE(clash)    DE(int)     intcor
     15.96     -18.17       2.96        0.00      61.34       1.72       0.05       2.16       ----

> <Gold.Chemscore.Fitness>
15.9569

> <Gold.Chemscore.DG>
-18.1663

> <Gold.Chemscore.ZeroCoef>
-5.4800

> <Gold.Chemscore.Hbond>
2.9645

> <Gold.Chemscore.Metal>
0.0000

> <Gold.Chemscore.Lipo>
61.3445

> <Gold.Chemscore.Internal_Hbond>
0.0000

> <Gold.Chemscore.DEClash>
0.0462

> <Gold.Chemscore.DEInternal>
2.1632

> <Gold.Chemscore.Rot>
1.7159

> <Gold.Chemscore.Internal.Correction>
   9.000000E+99

> <Gold.Chemscore.Hbonds>
donor molecule, donor type, donor heavy atom, donor atom, acceptor molecule, acceptor atom, score
      L1  H    21    46       P1 10957  0.78
      P1  H  6896  6909       L1     8  0.95
      P1  H  6934  6947       L1     7  0.85

> <Gold.Chemscore.Hbond.Weighted>
-9.9016

> <Gold.Chemscore.Metal.Weighted>
-0.0000

> <Gold.Chemscore.Lipo.Weighted>
-7.1773

> <Gold.Chemscore.Internal_Hbond.Weighted>
0.0000

> <Gold.Chemscore.DEClash.Weighted>
0.0462

> <Gold.Chemscore.DEInternal.Weighted>
2.1632

> <Gold.Chemscore.Rot.Weighted>
4.3926

> <Gold.Chemscore.Internal.Correction.Weighted>
   9.000000E+99

> <Gold.Protein.RotatedTorsions>
[ 6907 6896 6895 6894 ] final   59.88 input  -60.11 | X-H torsion
[ 7974 7965 7964 7962 ] final  -40.73 input  175.53 | X-H torsion
[ 8008 7997 7996 7995 ] final  -98.82 input   59.86 | X-H torsion
[ 10167 10162 10161 10158 ] final  -89.83 input  -65.29 | X-H torsion
[ 10718 10713 10712 10709 ] final  113.81 input   66.30 | X-H torsion
[ 10763 10752 10751 10750 ] final  -16.70 input  -60.55 | X-H torsion
[ 11005 11000 10999 10996 ] final  -32.56 input  -57.11 | X-H torsion

> <Gold.Protein.ActiveResidues>
 VAL166  LYS551  ARG553  GLY616  TRP617  ASP618  TYR619  PRO620  LYS621  CYS622 
 ASP623  PHE694  ASN695  SER759  ASP760  ASP761  ALA762  ILE779  LEU786  VAL792 
 PHE793  MET794  SER795  GLU796  ALA797  LYS798  CYS799  TRP800  GLU811  SER814 

> <Gold.Protein.RotatedAtoms>
  152.3954  134.6374  160.0091 H   0  0  0  0  0  0  0  0  0  0  0  0  # atno 6907 bound_to 6896
  151.6596  133.3312  159.3179 H   0  0  0  0  0  0  0  0  0  0  0  0  # atno 6908 bound_to 6896
  150.7862  134.6892  159.6532 H   0  0  0  0  0  0  0  0  0  0  0  0  # atno 6909 bound_to 6896
  146.0277  140.6771  142.9148 H   0  0  0  0  0  0  0  0  0  0  0  0  # atno 7974 bound_to 7965
  154.8064  140.0452  157.1311 H   0  0  0  0  0  0  0  0  0  0  0  0  # atno 8008 bound_to 7997
  154.9419  140.3053  155.5097 H   0  0  0  0  0  0  0  0  0  0  0  0  # atno 8009 bound_to 7997
  156.2967  140.2304  156.4489 H   0  0  0  0  0  0  0  0  0  0  0  0  # atno 8010 bound_to 7997
  140.3609  143.2842  151.9615 H   0  0  0  0  0  0  0  0  0  0  0  0  # atno 10167 bound_to 10162
  157.6317  131.0989  150.7094 H   0  0  0  0  0  0  0  0  0  0  0  0  # atno 10718 bound_to 10713
  153.5625  135.7009  153.5541 H   0  0  0  0  0  0  0  0  0  0  0  0  # atno 10763 bound_to 10752
  153.3416  135.4019  155.1576 H   0  0  0  0  0  0  0  0  0  0  0  0  # atno 10764 bound_to 10752
  154.8645  135.3743  154.5143 H   0  0  0  0  0  0  0  0  0  0  0  0  # atno 10765 bound_to 10752
  140.9562  133.7191  156.1297 H   0  0  0  0  0  0  0  0  0  0  0  0  # atno 11005 bound_to 11000
  144.7016  140.3679  143.7151 LP  0  0  0  0  0  0  0  0  0  0  0  0  # atno 17320 bound_to 7965
  145.7091  139.1680  143.2549 LP  0  0  0  0  0  0  0  0  0  0  0  0  # atno 17321 bound_to 7965
  139.4814  144.5993  151.7633 LP  0  0  0  0  0  0  0  0  0  0  0  0  # atno 17342 bound_to 10162
  140.5128  144.0999  150.6000 LP  0  0  0  0  0  0  0  0  0  0  0  0  # atno 17343 bound_to 10162
  156.7432  130.4745  149.5473 LP  0  0  0  0  0  0  0  0  0  0  0  0  # atno 17370 bound_to 10713
  156.1526  130.6320  151.0615 LP  0  0  0  0  0  0  0  0  0  0  0  0  # atno 17371 bound_to 10713
  140.7533  134.4021  157.5538 LP  0  0  0  0  0  0  0  0  0  0  0  0  # atno 17394 bound_to 11000
  139.8863  134.8914  156.2593 LP  0  0  0  0  0  0  0  0  0  0  0  0  # atno 17395 bound_to 11000

$$$$
