AV-unprocessed.smi:3329|AV-procd|sdf|12799|dock7
  -GOLD-   2272019163D 1   1.00000     0.00000
 Structure written by MMmdl.
 41 42  0  0  0  0  0  0  0  0  3 V2000
  145.0816  132.6732  150.0456 C   0  0  0  0  0  0  0  0  0  0  0  0
  144.9770  133.7643  151.0723 C   0  0  0  0  0  0  0  0  0  0  0  0
  143.7936  134.3206  151.6358 C   0  0  0  0  0  0  0  0  0  0  0  0
  144.0440  135.2689  152.5240 N   0  0  0  0  0  0  0  0  0  0  0  0
  145.3906  135.3513  152.5591 N   0  0  0  0  0  0  0  0  0  0  0  0
  146.0318  136.3049  153.4465 C   0  0  0  0  0  0  0  0  0  0  0  0
  147.0193  135.6295  154.4117 C   0  0  0  0  0  0  0  0  0  0  0  0
  148.2492  136.4297  154.5712 N   0  3  0  0  0  0  0  0  0  0  0  0
  149.2330  135.8484  155.5042 C   0  0  0  0  0  0  0  0  0  0  0  0
  150.4373  136.7855  155.6397 C   0  0  0  0  0  0  0  0  0  0  0  0
  151.5730  136.3592  155.4268 O   0  0  0  0  0  0  0  0  0  0  0  0
  150.0533  138.0329  156.0019 N   0  5  0  0  0  0  0  0  0  0  0  0
  150.9833  139.0463  156.5166 C   0  0  1  0  0  0  0  0  0  0  0  0
  151.6253  138.5463  157.8271 C   0  0  0  0  0  0  0  0  0  0  0  0
  152.0261  139.3506  155.5159 C   0  0  0  0  0  0  0  0  0  0  0  0
  152.8429  139.5895  154.7309 N   0  0  0  0  0  0  0  0  0  0  0  0
  150.2426  140.3582  156.7942 C   0  0  0  0  0  0  0  0  0  0  0  0
  150.2710  141.5580  155.8737 C   0  0  0  0  0  0  0  0  0  0  0  0
  150.9350  141.6275  157.2366 C   0  0  0  0  0  0  0  0  0  0  0  0
  145.9794  134.4580  151.6892 C   0  0  0  0  0  0  0  0  0  0  0  0
  144.4691  132.8855  149.1692 H   0  0  0  0  0  0  0  0  0  0  0  0
  144.7503  131.7145  150.4449 H   0  0  0  0  0  0  0  0  0  0  0  0
  146.1059  132.5394  149.6967 H   0  0  0  0  0  0  0  0  0  0  0  0
  142.7654  134.0630  151.4275 H   0  0  0  0  0  0  0  0  0  0  0  0
  146.5410  137.0593  152.8451 H   0  0  0  0  0  0  0  0  0  0  0  0
  145.2553  136.8249  154.0092 H   0  0  0  0  0  0  0  0  0  0  0  0
  146.5509  135.5046  155.3886 H   0  0  0  0  0  0  0  0  0  0  0  0
  147.2764  134.6316  154.0531 H   0  0  0  0  0  0  0  0  0  0  0  0
  148.6952  136.5221  153.6695 H   0  0  0  0  0  0  0  0  0  0  0  0
  148.7520  135.6796  156.4697 H   0  0  0  0  0  0  0  0  0  0  0  0
  149.5739  134.8825  155.1295 H   0  0  0  0  0  0  0  0  0  0  0  0
  152.2831  139.3041  158.2532 H   0  0  0  0  0  0  0  0  0  0  0  0
  152.2294  137.6518  157.6741 H   0  0  0  0  0  0  0  0  0  0  0  0
  150.8682  138.3116  158.5764 H   0  0  0  0  0  0  0  0  0  0  0  0
  149.2835  140.1848  157.2799 H   0  0  0  0  0  0  0  0  0  0  0  0
  150.9187  141.5297  154.9998 H   0  0  0  0  0  0  0  0  0  0  0  0
  149.3404  142.1054  155.7400 H   0  0  0  0  0  0  0  0  0  0  0  0
  150.4447  142.2224  158.0044 H   0  0  0  0  0  0  0  0  0  0  0  0
  152.0226  141.6419  157.2651 H   0  0  0  0  0  0  0  0  0  0  0  0
  147.0522  134.3860  151.5852 H   0  0  0  0  0  0  0  0  0  0  0  0
  148.0030  137.3510  154.9037 H   0  0  0  0  0  0  0  0  0  0  0  0
  1  2  1  0  0  0  0
  1 21  1  0  0  0  0
  1 22  1  0  0  0  0
  1 23  1  0  0  0  0
  2 20  2  0  0  0  0
  2  3  1  0  0  0  0
  3  4  2  0  0  0  0
  3 24  1  0  0  0  0
  4  5  1  0  0  0  0
  5  6  1  0  0  0  0
  5 20  1  0  0  0  0
  6  7  1  0  0  0  0
  6 25  1  0  0  0  0
  6 26  1  0  0  0  0
  7  8  1  0  0  0  0
  7 27  1  0  0  0  0
  7 28  1  0  0  0  0
  8  9  1  0  0  0  0
  8 29  1  0  0  0  0
  8 41  1  0  0  0  0
  9 10  1  0  0  0  0
  9 30  1  0  0  0  0
  9 31  1  0  0  0  0
 10 11  2  0  0  0  0
 10 12  1  0  0  0  0
 12 13  1  0  0  0  0
 13 14  1  0  0  0  0
 13 15  1  0  0  0  0
 13 17  1  0  0  0  0
 14 32  1  0  0  0  0
 14 33  1  0  0  0  0
 14 34  1  0  0  0  0
 15 16  3  0  0  0  0
 17 19  1  0  0  0  0
 17 18  1  0  0  0  0
 17 35  1  0  0  0  0
 18 19  1  0  0  0  0
 18 36  1  0  0  0  0
 18 37  1  0  0  0  0
 19 38  1  0  0  0  0
 19 39  1  0  0  0  0
 20 40  1  0  0  0  0
M  CHG  1   8   1
M  CHG  1  12  -1
M  END
> <s_m_source_file>
AV-unprocessed.smi

> <i_m_source_file_index>
3329

> <i_lp_mmshare_version>
43012

> <i_f3d_flags>
0

> <s_epik_input>
W0NIM11jMVtjSF1ubihbY0hdMSlbQ0gyXVtDSDJdW05IXVtDSDJdQyg9TylbTkhdW0NAQF0oW0NIM10pKEMjTilbQ0hdMltDSDJdW0NIMl0y

> <s_epik_cmdline>
J2VwaWtfcHl0aG9uJywgJy1waCcsICc3LjAnLCAnLXRuJywgJzgnLCAnLW1hJywgJzIwMCcsICctbWV0YWxfYmluZGluZycsICctaW1hZScsICc8aW5maWxlLm1hZT4nLCAnLW9tYWUnLCAnPG91dGZpbGUubWFlPic=

> <r_lp_tautomer_probability>
1

> <r_epik_Ionization_Penalty>
5.61187

> <r_epik_Ionization_Penalty_Charging>
5.61186

> <r_epik_Ionization_Penalty_Neutral>
4.91277e-06

> <r_epik_State_Penalty>
5.94522

> <r_epik_Charging_Adjusted_Penalty>
11.5571

> <i_epik_Tot_Q>
0

> <i_epik_Tot_abs_Q>
2

> <r_epik_Metal_State_Penalty>
1.9215

> <b_epik_Metal_Only>
1

> <s_lp_Force_Field>
OPLS_2005

> <r_lp_Energy>
13.6964

> <b_lp_Chiralities_Consistent>
1

> <s_lp_Variant>
AV-unprocessed.smi:3329-5

> <Gold.Version>
5.8.1

> <Gold.Id.Protein>
6NUR|6NUR_protein|mol2

> <Gold.PLP.Fitness>
46.5387

> <Gold.PLP.PLP>
-28.6953

> <Gold.PLP.part.hbond>
-3.9955

> <Gold.PLP.part.metal>
0.0000

> <Gold.PLP.part.buried>
-3.2772

> <Gold.PLP.part.nonpolar>
-21.2326

> <Gold.PLP.part.repulsive>
0.2389

> <Gold.PLP.ligand.clash>
0.0000

> <Gold.PLP.ligand.torsion>
1.2781

> <Gold.PLP.Chemscore.Hbond>
4.2583

> <Gold.PLP.Chemscore.CHOScore>
2.0000

> <Gold.PLP.Chemscore.Metal>
0.0000

> <Gold.Chemscore.Hbonds>
donor molecule, donor type, donor heavy atom, donor atom, acceptor molecule, acceptor atom, score
      L1  H     8    29       P1  7948  2.00
      P1  H  7989  7998       L1    16  0.33
      P1  H  7997  8010       L1    16  0.89
      P1  H 10752 10764       L1    11  1.00
      L1  C     3    24       P1 10186  0.83
      L1  C    20    40       P1  7948  0.80

> <Gold.PLP.Chemscore.Internal.Correction>
1.6246

> <Gold.Rescore>
     Score         DG    S(hbond)    S(metal)    S(lipo)     H(rot)  DE(clash)    DE(int)     intcor
     15.46     -16.64       3.19        0.00      55.06       2.31       0.10       1.09       ----

> <Gold.Chemscore.Fitness>
15.4557

> <Gold.Chemscore.DG>
-16.6400

> <Gold.Chemscore.ZeroCoef>
-5.4800

> <Gold.Chemscore.Hbond>
3.1861

> <Gold.Chemscore.Metal>
0.0000

> <Gold.Chemscore.Lipo>
55.0620

> <Gold.Chemscore.Internal_Hbond>
0.0000

> <Gold.Chemscore.DEClash>
0.0971

> <Gold.Chemscore.DEInternal>
1.0872

> <Gold.Chemscore.Rot>
2.3140

> <Gold.Chemscore.Internal.Correction>
   9.000000E+99

> <Gold.Chemscore.Hbonds>
donor molecule, donor type, donor heavy atom, donor atom, acceptor molecule, acceptor atom, score
      L1  H     8    29       P1  7948  0.99
      P1  H  7989  7998       L1    16  0.06
      P1  H  7997  8010       L1    16  0.35
      P1  H 10752 10764       L1    11  1.00

> <Gold.Chemscore.Hbond.Weighted>
-10.6416

> <Gold.Chemscore.Metal.Weighted>
-0.0000

> <Gold.Chemscore.Lipo.Weighted>
-6.4423

> <Gold.Chemscore.Internal_Hbond.Weighted>
0.0000

> <Gold.Chemscore.DEClash.Weighted>
0.0971

> <Gold.Chemscore.DEInternal.Weighted>
1.0872

> <Gold.Chemscore.Rot.Weighted>
5.9238

> <Gold.Chemscore.Internal.Correction.Weighted>
   9.000000E+99

> <Gold.Protein.RotatedTorsions>
[ 6907 6896 6895 6894 ] final  -93.51 input  -60.11 | X-H torsion
[ 7974 7965 7964 7962 ] final -118.06 input  175.53 | X-H torsion
[ 8008 7997 7996 7995 ] final  103.99 input   59.86 | X-H torsion
[ 10167 10162 10161 10158 ] final  -47.39 input  -65.29 | X-H torsion
[ 10718 10713 10712 10709 ] final -104.31 input   66.30 | X-H torsion
[ 10763 10752 10751 10750 ] final  -48.12 input  -60.55 | X-H torsion
[ 11005 11000 10999 10996 ] final   29.61 input  -57.11 | X-H torsion

> <Gold.Protein.ActiveResidues>
 VAL166  LYS551  ARG553  GLY616  TRP617  ASP618  TYR619  PRO620  LYS621  CYS622 
 ASP623  PHE694  ASN695  SER759  ASP760  ASP761  ALA762  ILE779  LEU786  VAL792 
 PHE793  MET794  SER795  GLU796  ALA797  LYS798  CYS799  TRP800  GLU811  SER814 

> <Gold.Protein.RotatedAtoms>
  150.6924  134.1955  159.4301 H   0  0  0  0  0  0  0  0  0  0  0  0  # atno 6907 bound_to 6896
  151.9924  134.9969  160.0571 H   0  0  0  0  0  0  0  0  0  0  0  0  # atno 6908 bound_to 6896
  152.1655  133.4574  159.4919 H   0  0  0  0  0  0  0  0  0  0  0  0  # atno 6909 bound_to 6896
  145.0781  140.8406  143.4055 H   0  0  0  0  0  0  0  0  0  0  0  0  # atno 7974 bound_to 7965
  156.1533  140.3155  155.8685 H   0  0  0  0  0  0  0  0  0  0  0  0  # atno 8008 bound_to 7997
  155.3927  140.0494  157.3057 H   0  0  0  0  0  0  0  0  0  0  0  0  # atno 8009 bound_to 7997
  154.5078  140.2153  155.9227 H   0  0  0  0  0  0  0  0  0  0  0  0  # atno 8010 bound_to 7997
  140.6777  143.2786  151.3920 H   0  0  0  0  0  0  0  0  0  0  0  0  # atno 10167 bound_to 10162
  156.0299  130.5509  150.7378 H   0  0  0  0  0  0  0  0  0  0  0  0  # atno 10718 bound_to 10713
  154.0725  135.6602  153.4826 H   0  0  0  0  0  0  0  0  0  0  0  0  # atno 10763 bound_to 10752
  153.0385  135.5161  154.7552 H   0  0  0  0  0  0  0  0  0  0  0  0  # atno 10764 bound_to 10752
  154.6623  135.3017  154.9818 H   0  0  0  0  0  0  0  0  0  0  0  0  # atno 10765 bound_to 10752
  140.3032  134.2733  155.7749 H   0  0  0  0  0  0  0  0  0  0  0  0  # atno 11005 bound_to 11000
  145.1211  139.2693  143.5588 LP  0  0  0  0  0  0  0  0  0  0  0  0  # atno 17320 bound_to 7965
  146.3530  140.0835  142.8616 LP  0  0  0  0  0  0  0  0  0  0  0  0  # atno 17321 bound_to 7965
  139.6079  144.1159  152.2268 LP  0  0  0  0  0  0  0  0  0  0  0  0  # atno 17342 bound_to 10162
  140.0563  144.5892  150.7297 LP  0  0  0  0  0  0  0  0  0  0  0  0  # atno 17343 bound_to 10162
  157.4954  131.0914  151.0377 LP  0  0  0  0  0  0  0  0  0  0  0  0  # atno 17370 bound_to 10713
  157.0773  130.5888  149.5413 LP  0  0  0  0  0  0  0  0  0  0  0  0  # atno 17371 bound_to 10713
  141.2124  133.7659  156.9797 LP  0  0  0  0  0  0  0  0  0  0  0  0  # atno 17394 bound_to 11000
  140.1091  134.9488  157.2038 LP  0  0  0  0  0  0  0  0  0  0  0  0  # atno 17395 bound_to 11000

$$$$
