#       Name:                AV-unprocessed.smi:72
#       Creating user name   scv26
#       Creation time:       Thu Mar 26 17:09:11 2020


#       File generated by GOLD software.
#

@<TRIPOS>MOLECULE
AV-unprocessed.smi:72
    41    42     1
SMALL
NO_CHARGES


@<TRIPOS>ATOM
      1 ****        -4.7961  -0.3114  -0.3666 N.pl3          1 S1                 0.0000
      2 ****        -3.4307  -0.4812  -0.4583 C.2            1 S1                 0.0000
      3 ****        -2.7362   0.4607  -1.2278 N.2            1 S1                 0.0000
      4 ****        -1.4502   0.3214  -1.2906 C.2            1 S1                 0.0000
      5 ****        -0.7598  -0.7282  -0.5546 N.am           1 S1                 0.0000
      6 ****         0.7483  -0.9240  -0.6615 C.3            1 S1                 0.0000
      7 ****         1.3279   0.2013  -1.2652 O.3            1 S1                 0.0000
      8 ****         2.0044   1.0257  -0.3168 C.3            1 S1                 0.0000
      9 ****         1.0427   2.0662   0.3026 C.3            1 S1                 0.0000
     10 ****         0.7657   3.0831  -0.6365 O.3            1 S1                 0.0000
     11 ****         2.5444  -0.0236   0.6601 C.3            1 S1                 0.0000
     12 ****         2.8328   0.5017   1.9412 O.3            1 S1                 0.0000
     13 ****         1.4388  -1.0707   0.7169 C.3            1 S1                 0.0000
     14 ****         2.0215  -2.3484   0.8825 O.3            1 S1                 0.0000
     15 ****        -1.5451  -1.7068   0.1215 C.2            1 S1                 0.0000
     16 ****        -1.0120  -2.6917   0.6311 O.2            1 S1                 0.0000
     17 ****        -2.9286  -1.5017   0.1738 N.2            1 S1                 0.0000
     18 ****         0.8617  -1.7914  -1.3141 H              1 S1                 0.0000
     19 ****         2.8337   1.5448  -0.7995 H              1 S1                 0.0000
     20 ****         3.4537  -0.4543   0.2369 H              1 S1                 0.0000
     21 ****         0.7361  -0.8472   1.5213 H              1 S1                 0.0000
     22 ****        -5.3985  -0.9305   0.1562 H              1 S1                 0.0000
     23 ****        -5.2942   0.4435  -0.8154 H              1 S1                 0.0000
     24 ****        -0.8201   0.9775  -1.8916 H              1 S1                 0.0000
     25 ****         0.1205   1.6189   0.6701 H              1 S1                 0.0000
     26 ****         1.5104   2.5581   1.1553 H              1 S1                 0.0000
     27 ****         0.1903   3.7155  -0.2338 H              1 S1                 0.0000
     28 ****         3.1190  -0.2080   2.4961 H              1 S1                 0.0000
     29 ****         2.6187  -2.5013   0.1662 H              1 S1                 0.0000
     30 ****        -3.2088   1.2022  -1.7040 LP             1 S1                 0.0000
     31 ****         0.6084   0.7385  -1.7053 LP             1 S1                 0.0000
     32 ****         1.9848  -0.1041  -1.9546 LP             1 S1                 0.0000
     33 ****         0.3220   2.6876  -1.4406 LP             1 S1                 0.0000
     34 ****         1.6174   3.5292  -0.9114 LP             1 S1                 0.0000
     35 ****         2.0115   0.9222   2.3268 LP             1 S1                 0.0000
     36 ****         3.5566   1.1880   1.8700 LP             1 S1                 0.0000
     37 ****         1.3068  -3.0478   0.8808 LP             1 S1                 0.0000
     38 ****         2.5190  -2.3824   1.7494 LP             1 S1                 0.0000
     39 ****        -0.0207  -2.8101   0.5727 LP             1 S1                 0.0000
     40 ****        -1.5700  -3.3738   1.1038 LP             1 S1                 0.0000
     41 ****        -3.5185  -2.1260   0.6859 LP             1 S1                 0.0000
@<TRIPOS>BOND
    1    1    2 1     
    2    1   22 1     
    3    1   23 1     
    4    2   17 2     
    5    2    3 1     
    6    3    4 2     
    7    4    5 1     
    8    4   24 1     
    9    5    6 1     
   10    5   15 am    
   11    6   18 1     
   12    6   13 1     
   13    6    7 1     
   14    7    8 1     
   15    8   19 1     
   16    8    9 1     
   17    8   11 1     
   18    9   10 1     
   19    9   25 1     
   20    9   26 1     
   21   10   27 1     
   22   11   20 1     
   23   11   12 1     
   24   11   13 1     
   25   12   28 1     
   26   13   21 1     
   27   13   14 1     
   28   14   29 1     
   29   15   16 2     
   30   15   17 1     
   31    3   30 1     
   32    7   31 1     
   33    7   32 1     
   34   10   33 1     
   35   10   34 1     
   36   12   35 1     
   37   12   36 1     
   38   14   37 1     
   39   14   38 1     
   40   16   39 1     
   41   16   40 1     
   42   17   41 1     
@<TRIPOS>SUBSTRUCTURE
      1 S1             1
@<TRIPOS>SET
LONE_PAIRS      STATIC     ATOMS    <user>   **** ""
12 30 31 32 33 34 35 36 37 38 39 40 41
DONOR_HYDROGENS      STATIC     ATOMS    <user>   **** ""
5 22 23 27 28 29
ATOM$BLUE        STATIC     ATOMS    COLORGROUP SYSTEM
12 30 31 32 33 34 35 36 37 38 39 40 41
ATOM$RED        STATIC     ATOMS    COLORGROUP SYSTEM
5 22 23 27 28 29
