#       Name:                AV-unprocessed.smi:2339
#       Creating user name   scv26
#       Creation time:       Fri Mar 27 12:56:31 2020


#       File generated by GOLD software.
#

@<TRIPOS>MOLECULE
AV-unprocessed.smi:2339
    55    58     1
SMALL
NO_CHARGES


@<TRIPOS>ATOM
      1 ****        -4.2393   3.0070  -3.9968 C.3            1 S1                 0.0000
      2 ****        -4.2722   1.5662  -3.4754 C.3            1 S1                 0.0000
      3 ****        -2.9321   1.0259  -3.2988 N.pl3          1 S1                 0.0000
      4 ****        -2.3132   0.2844  -4.2999 C.2            1 S1                 0.0000
      5 ****        -1.1010  -0.2894  -4.1742 C.2            1 S1                 0.0000
      6 ****        -0.3594  -0.1436  -2.9057 C.2            1 S1                 0.0000
      7 ****         0.7507  -0.6544  -2.7564 O.2            1 S1                 0.0000
      8 ****        -1.0229   0.6451  -1.8344 C.2            1 S1                 0.0000
      9 ****        -0.3155   0.7636  -0.6284 N.am           1 S1                 0.0000
     10 ****        -0.6106   1.4719   0.4802 C.2            1 S1                 0.0000
     11 ****        -1.5773   2.2188   0.6131 O.2            1 S1                 0.0000
     12 ****         0.2676   1.2914   1.4821 N.am           1 S1                 0.0000
     13 ****         0.2424   1.9053   2.8116 C.3            1 S1                 0.0000
     14 ****         1.3591   1.3591   3.7160 C.3            1 S1                 0.0000
     15 ****         1.0062   0.5533   4.9362 C.3            1 S1                 0.0000
     16 ****         1.0294   1.6000   6.0531 C.3            1 S1                 0.0000
     17 ****         0.8422   2.8442   5.3825 O.3            1 S1                 0.0000
     18 ****         1.5866   2.7934   4.1677 C.3            1 S1                 0.0000
     19 ****         0.8816   3.3144   2.8972 C.3            1 S1                 0.0000
     20 ****         1.8125   3.7945   1.7802 C.3            1 S1                 0.0000
     21 ****         2.0504   5.2876   2.0167 C.3            1 S1                 0.0000
     22 ****         0.8400   5.7734   2.8205 C.3            1 S1                 0.0000
     23 ****        -0.0248   4.5323   3.0601 C.3            1 S1                 0.0000
     24 ****        -2.2493   1.1664  -2.0922 C.2            1 S1                 0.0000
     25 ****        -5.2496   3.3952  -4.1265 H              1 S1                 0.0000
     26 ****        -3.7331   3.0658  -4.9608 H              1 S1                 0.0000
     27 ****        -3.7167   3.6648  -3.3016 H              1 S1                 0.0000
     28 ****        -4.8076   1.5275  -2.5260 H              1 S1                 0.0000
     29 ****        -4.8316   0.9355  -4.1672 H              1 S1                 0.0000
     30 ****        -2.8858   0.2022  -5.2123 H              1 S1                 0.0000
     31 ****        -0.6584  -0.8555  -4.9804 H              1 S1                 0.0000
     32 ****         0.5365   0.2228  -0.5916 H              1 S1                 0.0000
     33 ****         1.0309   0.6546   1.3053 H              1 S1                 0.0000
     34 ****        -0.7310   1.8635   3.3061 H              1 S1                 0.0000
     35 ****         2.2123   0.9806   3.1500 H              1 S1                 0.0000
     36 ****         0.0137   0.1126   4.8377 H              1 S1                 0.0000
     37 ****         1.7143  -0.2539   5.1262 H              1 S1                 0.0000
     38 ****         0.2603   1.4295   6.8065 H              1 S1                 0.0000
     39 ****         2.0005   1.6078   6.5505 H              1 S1                 0.0000
     40 ****         2.6366   3.0652   4.2852 H              1 S1                 0.0000
     41 ****         2.7510   3.2400   1.7474 H              1 S1                 0.0000
     42 ****         1.3380   3.6714   0.8062 H              1 S1                 0.0000
     43 ****         2.9623   5.4351   2.5967 H              1 S1                 0.0000
     44 ****         2.1657   5.8294   1.0775 H              1 S1                 0.0000
     45 ****         1.1700   6.1956   3.7705 H              1 S1                 0.0000
     46 ****         0.2828   6.5480   2.2926 H              1 S1                 0.0000
     47 ****        -0.8204   4.5066   2.3161 H              1 S1                 0.0000
     48 ****        -0.5135   4.5699   4.0339 H              1 S1                 0.0000
     49 ****        -2.8079   1.7412  -1.3710 H              1 S1                 0.0000
     50 ****         1.1643  -1.1782  -3.5011 LP             1 S1                 0.0000
     51 ****         1.2388  -0.5455  -1.8905 LP             1 S1                 0.0000
     52 ****        -2.2235   2.3392  -0.1406 LP             1 S1                 0.0000
     53 ****        -1.7178   2.7063   1.4749 LP             1 S1                 0.0000
     54 ****         1.1742   3.5938   5.9551 LP             1 S1                 0.0000
     55 ****        -0.1279   2.9817   5.1828 LP             1 S1                 0.0000
@<TRIPOS>BOND
    1    1    2 1     
    2    1   25 1     
    3    1   26 1     
    4    1   27 1     
    5    2    3 1     
    6    2   28 1     
    7    2   29 1     
    8    3   24 1     
    9    3    4 1     
   10    4    5 2     
   11    4   30 1     
   12    5    6 1     
   13    5   31 1     
   14    6    7 2     
   15    6    8 1     
   16    8    9 1     
   17    8   24 2     
   18    9   10 am    
   19    9   32 1     
   20   10   11 2     
   21   10   12 am    
   22   12   13 1     
   23   12   33 1     
   24   13   19 1     
   25   13   14 1     
   26   13   34 1     
   27   14   18 1     
   28   14   15 1     
   29   14   35 1     
   30   15   16 1     
   31   15   36 1     
   32   15   37 1     
   33   16   17 1     
   34   16   38 1     
   35   16   39 1     
   36   17   18 1     
   37   18   19 1     
   38   18   40 1     
   39   19   23 1     
   40   19   20 1     
   41   20   21 1     
   42   20   41 1     
   43   20   42 1     
   44   21   22 1     
   45   21   43 1     
   46   21   44 1     
   47   22   23 1     
   48   22   45 1     
   49   22   46 1     
   50   23   47 1     
   51   23   48 1     
   52   24   49 1     
   53    7   50 1     
   54    7   51 1     
   55   11   52 1     
   56   11   53 1     
   57   17   54 1     
   58   17   55 1     
@<TRIPOS>SUBSTRUCTURE
      1 S1             1
@<TRIPOS>SET
LONE_PAIRS      STATIC     ATOMS    <user>   **** ""
6 50 51 52 53 54 55
DONOR_HYDROGENS      STATIC     ATOMS    <user>   **** ""
2 32 33
ATOM$BLUE        STATIC     ATOMS    COLORGROUP SYSTEM
6 50 51 52 53 54 55
ATOM$RED        STATIC     ATOMS    COLORGROUP SYSTEM
2 32 33
