#       Name:                AV-unprocessed.smi:1959
#       Creating user name   scv26
#       Creation time:       Fri Mar 27 10:07:48 2020


#       File generated by GOLD software.
#

@<TRIPOS>MOLECULE
AV-unprocessed.smi:1959
    50    51     1
SMALL
NO_CHARGES


@<TRIPOS>ATOM
      1 ****        -1.9525   3.3714  -1.9561 C.3            1 S1                 0.0000
      2 ****        -2.1377   1.9380  -1.5552 C.2            1 S1                 0.0000
      3 ****        -2.7447   1.4235  -0.3759 C.2            1 S1                 0.0000
      4 ****        -2.6391   0.0674  -0.5059 C.2            1 S1                 0.0000
      5 ****        -3.0821  -1.0209   0.4160 C.3            1 S1                 0.0000
      6 ****        -1.9997  -0.1731  -1.7104 N.pl3          1 S1                 0.0000
      7 ****        -1.6160  -1.4415  -2.3163 C.3            1 S1                 0.0000
      8 ****        -0.1445  -1.7618  -2.0437 C.2            1 S1                 0.0000
      9 ****         0.6514  -1.8537  -2.9776 O.2            1 S1                 0.0000
     10 ****         0.2037  -1.9064  -0.7559 N.am           1 S1                 0.0000
     11 ****         1.5676  -2.0270  -0.2514 C.3            1 S1                 0.0000
     12 ****         1.9641  -3.5114  -0.2167 C.3            1 S1                 0.0000
     13 ****         1.6591  -1.3841   1.1502 C.3            1 S1                 0.0000
     14 ****         1.9349   0.0552   1.1764 N.3            1 S1                 0.0000
     15 ****         0.8407   0.8572   0.6301 C.3            1 S1                 0.0000
     16 ****         1.1223   2.3668   0.7160 C.3            1 S1                 0.0000
     17 ****         1.3987   2.7287   2.0642 O.3            1 S1                 0.0000
     18 ****         2.5026   2.0113   2.6052 C.3            1 S1                 0.0000
     19 ****         2.2140   0.5019   2.5375 C.3            1 S1                 0.0000
     20 ****        -1.6978   0.9779  -2.3510 N.2            1 S1                 0.0000
     21 ****        -2.3934   3.5674  -2.9338 H              1 S1                 0.0000
     22 ****        -0.8945   3.6291  -2.0082 H              1 S1                 0.0000
     23 ****        -2.4226   4.0448  -1.2393 H              1 S1                 0.0000
     24 ****        -3.1855   1.9691   0.4452 H              1 S1                 0.0000
     25 ****        -3.5657  -0.6067   1.3009 H              1 S1                 0.0000
     26 ****        -2.2348  -1.6198   0.7491 H              1 S1                 0.0000
     27 ****        -3.7957  -1.6817  -0.0759 H              1 S1                 0.0000
     28 ****        -2.2465  -2.2405  -1.9266 H              1 S1                 0.0000
     29 ****        -1.7955  -1.3907  -3.3914 H              1 S1                 0.0000
     30 ****        -0.5260  -1.8265  -0.0629 H              1 S1                 0.0000
     31 ****         2.2606  -1.5096  -0.9178 H              1 S1                 0.0000
     32 ****         2.9880  -3.6359   0.1368 H              1 S1                 0.0000
     33 ****         1.9067  -3.9587  -1.2097 H              1 S1                 0.0000
     34 ****         1.3114  -4.0824   0.4446 H              1 S1                 0.0000
     35 ****         0.7595  -1.6073   1.7265 H              1 S1                 0.0000
     36 ****         2.4711  -1.8824   1.6814 H              1 S1                 0.0000
     37 ****         0.6756   0.6068  -0.4164 H              1 S1                 0.0000
     38 ****        -0.0853   0.6311   1.1610 H              1 S1                 0.0000
     39 ****         1.9649   2.6384   0.0783 H              1 S1                 0.0000
     40 ****         0.2592   2.9323   0.3645 H              1 S1                 0.0000
     41 ****         3.4125   2.2578   2.0557 H              1 S1                 0.0000
     42 ****         2.6574   2.3217   3.6385 H              1 S1                 0.0000
     43 ****         1.3658   0.2703   3.1838 H              1 S1                 0.0000
     44 ****         3.0688  -0.0441   2.9382 H              1 S1                 0.0000
     45 ****         0.3372  -1.7190  -3.9174 LP             1 S1                 0.0000
     46 ****         1.6124  -2.0631  -2.7969 LP             1 S1                 0.0000
     47 ****         2.7363   0.1923   0.5942 LP             1 S1                 0.0000
     48 ****         0.5892   2.5386   2.6197 LP             1 S1                 0.0000
     49 ****         1.6041   3.7068   2.0981 LP             1 S1                 0.0000
     50 ****        -1.2411   1.0811  -3.2347 LP             1 S1                 0.0000
@<TRIPOS>BOND
    1    1    2 1     
    2    1   21 1     
    3    1   22 1     
    4    1   23 1     
    5    2   20 2     
    6    2    3 1     
    7    3    4 2     
    8    3   24 1     
    9    4    5 1     
   10    4    6 1     
   11    5   25 1     
   12    5   26 1     
   13    5   27 1     
   14    6    7 1     
   15    6   20 1     
   16    7    8 1     
   17    7   28 1     
   18    7   29 1     
   19    8    9 2     
   20    8   10 am    
   21   10   11 1     
   22   10   30 1     
   23   11   12 1     
   24   11   13 1     
   25   11   31 1     
   26   12   32 1     
   27   12   33 1     
   28   12   34 1     
   29   13   14 1     
   30   13   35 1     
   31   13   36 1     
   32   14   19 1     
   33   14   15 1     
   34   15   16 1     
   35   15   37 1     
   36   15   38 1     
   37   16   17 1     
   38   16   39 1     
   39   16   40 1     
   40   17   18 1     
   41   18   19 1     
   42   18   41 1     
   43   18   42 1     
   44   19   43 1     
   45   19   44 1     
   46    9   45 1     
   47    9   46 1     
   48   14   47 1     
   49   17   48 1     
   50   17   49 1     
   51   20   50 1     
@<TRIPOS>SUBSTRUCTURE
      1 S1             1
@<TRIPOS>SET
LONE_PAIRS      STATIC     ATOMS    <user>   **** ""
6 45 46 47 48 49 50
DONOR_HYDROGENS      STATIC     ATOMS    <user>   **** ""
1 30
ATOM$BLUE        STATIC     ATOMS    COLORGROUP SYSTEM
6 45 46 47 48 49 50
ATOM$RED        STATIC     ATOMS    COLORGROUP SYSTEM
1 30
