AV-unprocessed.smi:2568|AV-procd|sdf|10099|dock1
  -GOLD-   2272014113D 1   1.00000     0.00000
 Structure written by MMmdl.
 24 25  0  0  0  0  0  0  0  0  3 V2000
  151.6217  140.6377  159.0440 C   0  0  0  0  0  0  0  0  0  0  0  0
  151.3315  140.4453  157.5735 C   0  0  0  0  0  0  0  0  0  0  0  0
  152.2382  140.1739  156.6183 N   0  5  0  0  0  0  0  0  0  0  0  0
  151.6386  140.0717  155.4499 N   0  0  0  0  0  0  0  0  0  0  0  0
  150.3389  140.2962  155.6957 C   0  0  0  0  0  0  0  0  0  0  0  0
  149.2484  140.2451  154.6462 C   0  0  1  0  0  0  0  0  0  0  0  0
  149.2118  138.8701  153.9509 C   0  0  0  0  0  0  0  0  0  0  0  0
  148.1357  138.8369  152.9416 N   0  3  0  0  0  0  0  0  0  0  0  0
  146.8309  139.1990  153.5279 C   0  0  0  0  0  0  0  0  0  0  0  0
  146.9319  140.5587  154.2394 C   0  0  0  0  0  0  0  0  0  0  0  0
  147.9672  140.5112  155.2146 O   0  0  0  0  0  0  0  0  0  0  0  0
  150.1334  140.5149  157.0026 N   0  0  0  0  0  0  0  0  0  0  0  0
  152.6854  140.5116  159.2469 H   0  0  0  0  0  0  0  0  0  0  0  0
  151.0683  139.9096  159.6371 H   0  0  0  0  0  0  0  0  0  0  0  0
  151.3266  141.6387  159.3589 H   0  0  0  0  0  0  0  0  0  0  0  0
  149.4708  141.0211  153.9112 H   0  0  0  0  0  0  0  0  0  0  0  0
  150.1646  138.6584  153.4647 H   0  0  0  0  0  0  0  0  0  0  0  0
  149.0418  138.0785  154.6823 H   0  0  0  0  0  0  0  0  0  0  0  0
  148.3588  139.5000  152.2133 H   0  0  0  0  0  0  0  0  0  0  0  0
  146.0763  139.2309  152.7418 H   0  0  0  0  0  0  0  0  0  0  0  0
  146.5287  138.4252  154.2349 H   0  0  0  0  0  0  0  0  0  0  0  0
  147.1252  141.3606  153.5251 H   0  0  0  0  0  0  0  0  0  0  0  0
  145.9901  140.7942  154.7350 H   0  0  0  0  0  0  0  0  0  0  0  0
  148.0807  137.9114  152.5409 H   0  0  0  0  0  0  0  0  0  0  0  0
  1 13  1  0  0  0  0
  1 14  1  0  0  0  0
  1 15  1  0  0  0  0
  1  2  1  0  0  0  0
  2 12  2  0  0  0  0
  2  3  1  0  0  0  0
  3  4  1  0  0  0  0
  4  5  2  0  0  0  0
  5 12  1  0  0  0  0
  5  6  1  0  0  0  0
  6 11  1  0  0  0  0
  6  7  1  0  0  0  0
  6 16  1  0  0  0  0
  7  8  1  0  0  0  0
  7 17  1  0  0  0  0
  7 18  1  0  0  0  0
  8  9  1  0  0  0  0
  8 19  1  0  0  0  0
  8 24  1  0  0  0  0
  9 10  1  0  0  0  0
  9 20  1  0  0  0  0
  9 21  1  0  0  0  0
 10 11  1  0  0  0  0
 10 22  1  0  0  0  0
 10 23  1  0  0  0  0
M  CHG  1   3  -1
M  CHG  1   8   1
M  END
> <s_m_source_file>
AV-unprocessed.smi

> <i_m_source_file_index>
2568

> <i_lp_mmshare_version>
43012

> <i_f3d_flags>
0

> <s_epik_input>
W0NIM11jMW5bbkhdYyhuMSlbQ0BASF0yW0NIMl1bTkhdW0NIMl1bQ0gyXU8y

> <s_epik_cmdline>
J2VwaWtfcHl0aG9uJywgJy1waCcsICc3LjAnLCAnLXRuJywgJzgnLCAnLW1hJywgJzIwMCcsICctbWV0YWxfYmluZGluZycsICctaW1hZScsICc8aW5maWxlLm1hZT4nLCAnLW9tYWUnLCAnPG91dGZpbGUubWFlPic=

> <r_lp_tautomer_probability>
0.948284

> <r_epik_Ionization_Penalty>
5.18319

> <r_epik_Ionization_Penalty_Charging>
5.18319

> <r_epik_Ionization_Penalty_Neutral>
2.73247e-13

> <r_epik_State_Penalty>
2.89074

> <r_epik_Charging_Adjusted_Penalty>
8.07392

> <i_epik_Tot_Q>
0

> <i_epik_Tot_abs_Q>
2

> <r_epik_Metal_State_Penalty>
0.548499

> <b_epik_Metal_Only>
1

> <s_lp_Force_Field>
OPLS_2005

> <r_lp_Energy>
8.28058

> <b_lp_Chiralities_Consistent>
1

> <s_lp_Variant>
AV-unprocessed.smi:2568-12

> <Gold.Version>
5.8.1

> <Gold.Id.Protein>
6NUR|6NUR_protein|mol2

> <Gold.PLP.Fitness>
34.2154

> <Gold.PLP.PLP>
-17.2711

> <Gold.PLP.part.hbond>
-4.0000

> <Gold.PLP.part.metal>
0.0000

> <Gold.PLP.part.buried>
-1.3619

> <Gold.PLP.part.nonpolar>
-12.8327

> <Gold.PLP.part.repulsive>
0.1681

> <Gold.PLP.ligand.clash>
0.0000

> <Gold.PLP.ligand.torsion>
0.0059

> <Gold.PLP.Chemscore.Hbond>
5.6481

> <Gold.PLP.Chemscore.CHOScore>
0.0000

> <Gold.PLP.Chemscore.Metal>
0.0000

> <Gold.Chemscore.Hbonds>
donor molecule, donor type, donor heavy atom, donor atom, acceptor molecule, acceptor atom, score
      L1  H     8    19       P1  7957  0.90
      L1  H     8    24       P1  7948  2.00
      P1  H  7989  7998       L1     4  0.66
      P1  H  7997  8010       L1     3  1.62

> <Gold.PLP.Chemscore.Internal.Correction>
0.0117

> <Gold.Rescore>
     Score         DG    S(hbond)    S(metal)    S(lipo)     H(rot)  DE(clash)    DE(int)     intcor
     15.92     -16.07       2.93        0.00      28.74       1.00       0.14       0.01       ----

> <Gold.Chemscore.Fitness>
15.9181

> <Gold.Chemscore.DG>
-16.0673

> <Gold.Chemscore.ZeroCoef>
-5.4800

> <Gold.Chemscore.Hbond>
2.9296

> <Gold.Chemscore.Metal>
0.0000

> <Gold.Chemscore.Lipo>
28.7403

> <Gold.Chemscore.Internal_Hbond>
0.0000

> <Gold.Chemscore.DEClash>
0.1401

> <Gold.Chemscore.DEInternal>
0.0092

> <Gold.Chemscore.Rot>
1.0000

> <Gold.Chemscore.Internal.Correction>
   9.000000E+99

> <Gold.Chemscore.Hbonds>
donor molecule, donor type, donor heavy atom, donor atom, acceptor molecule, acceptor atom, score
      L1  H     8    19       P1  7957  0.86
      L1  H     8    24       P1  7948  0.92
      P1  H  7989  7998       L1     4  0.11
      P1  H  7997  8010       L1     3  0.57

> <Gold.Chemscore.Hbond.Weighted>
-9.7847

> <Gold.Chemscore.Metal.Weighted>
-0.0000

> <Gold.Chemscore.Lipo.Weighted>
-3.3626

> <Gold.Chemscore.Internal_Hbond.Weighted>
0.0000

> <Gold.Chemscore.DEClash.Weighted>
0.1401

> <Gold.Chemscore.DEInternal.Weighted>
0.0092

> <Gold.Chemscore.Rot.Weighted>
2.5600

> <Gold.Chemscore.Internal.Correction.Weighted>
   9.000000E+99

> <Gold.Protein.RotatedTorsions>
[ 6907 6896 6895 6894 ] final -157.48 input  -60.11 | X-H torsion
[ 7974 7965 7964 7962 ] final  -45.15 input  175.53 | X-H torsion
[ 8008 7997 7996 7995 ] final   76.41 input   59.86 | X-H torsion
[ 10167 10162 10161 10158 ] final -105.04 input  -65.29 | X-H torsion
[ 10718 10713 10712 10709 ] final  144.46 input   66.30 | X-H torsion
[ 10763 10752 10751 10750 ] final   58.59 input  -60.55 | X-H torsion
[ 11005 11000 10999 10996 ] final  145.10 input  -57.11 | X-H torsion

> <Gold.Protein.ActiveResidues>
 VAL166  LYS551  ARG553  GLY616  TRP617  ASP618  TYR619  PRO620  LYS621  CYS622 
 ASP623  PHE694  ASN695  SER759  ASP760  ASP761  ALA762  ILE779  LEU786  VAL792 
 PHE793  MET794  SER795  GLU796  ALA797  LYS798  CYS799  TRP800  GLU811  SER814 

> <Gold.Protein.RotatedAtoms>
  151.3034  133.4112  159.2641 H   0  0  0  0  0  0  0  0  0  0  0  0  # atno 6907 bound_to 6896
  151.0175  134.9445  159.8052 H   0  0  0  0  0  0  0  0  0  0  0  0  # atno 6908 bound_to 6896
  152.5316  134.2998  159.9126 H   0  0  0  0  0  0  0  0  0  0  0  0  # atno 6909 bound_to 6896
  145.9849  140.7243  142.9345 H   0  0  0  0  0  0  0  0  0  0  0  0  # atno 7974 bound_to 7965
  155.8269  140.3467  155.5548 H   0  0  0  0  0  0  0  0  0  0  0  0  # atno 8008 bound_to 7997
  155.8283  140.0923  157.1828 H   0  0  0  0  0  0  0  0  0  0  0  0  # atno 8009 bound_to 7997
  154.4004  140.1417  156.3570 H   0  0  0  0  0  0  0  0  0  0  0  0  # atno 8010 bound_to 7997
  140.2028  143.3805  152.1115 H   0  0  0  0  0  0  0  0  0  0  0  0  # atno 10167 bound_to 10162
  157.3569  131.0959  151.0950 H   0  0  0  0  0  0  0  0  0  0  0  0  # atno 10718 bound_to 10713
  152.9874  135.5601  154.5577 H   0  0  0  0  0  0  0  0  0  0  0  0  # atno 10763 bound_to 10752
  154.5002  135.2797  155.1429 H   0  0  0  0  0  0  0  0  0  0  0  0  # atno 10764 bound_to 10752
  154.2862  135.6335  153.5420 H   0  0  0  0  0  0  0  0  0  0  0  0  # atno 10765 bound_to 10752
  140.0685  134.9165  157.1305 H   0  0  0  0  0  0  0  0  0  0  0  0  # atno 11005 bound_to 11000
  144.6872  140.2972  143.7269 LP  0  0  0  0  0  0  0  0  0  0  0  0  # atno 17320 bound_to 7965
  145.7715  139.1859  143.2210 LP  0  0  0  0  0  0  0  0  0  0  0  0  # atno 17321 bound_to 7965
  139.5210  144.7041  151.5408 LP  0  0  0  0  0  0  0  0  0  0  0  0  # atno 17342 bound_to 10162
  140.6378  143.8949  150.6664 LP  0  0  0  0  0  0  0  0  0  0  0  0  # atno 17343 bound_to 10162
  157.2105  130.6435  149.5772 LP  0  0  0  0  0  0  0  0  0  0  0  0  # atno 17370 bound_to 10713
  155.9730  130.4661  150.6279 LP  0  0  0  0  0  0  0  0  0  0  0  0  # atno 17371 bound_to 10713
  140.3663  134.2439  155.7182 LP  0  0  0  0  0  0  0  0  0  0  0  0  # atno 17394 bound_to 11000
  141.2002  133.7992  157.0499 LP  0  0  0  0  0  0  0  0  0  0  0  0  # atno 17395 bound_to 11000

$$$$
