#       Name:                AV-unprocessed.smi:254
#       Creating user name   scv26
#       Creation time:       Thu Mar 26 21:07:41 2020


#       File generated by GOLD software.
#

@<TRIPOS>MOLECULE
AV-unprocessed.smi:254
    59    62     1
SMALL
NO_CHARGES


@<TRIPOS>ATOM
      1 ****        -5.3333   2.8635  -2.4493 O.2            1 S1                 0.0000
      2 ****        -4.4068   2.1033  -2.1730 C.2            1 S1                 0.0000
      3 ****        -3.0012   2.5870  -1.8677 C.3            1 S1                 0.0000
      4 ****        -2.3198   1.3298  -1.5838 N.pl3          1 S1                 0.0000
      5 ****        -1.0060   1.2568  -1.2475 C.ar           1 S1                 0.0000
      6 ****        -0.2961   2.4141  -1.1873 N.ar           1 S1                 0.0000
      7 ****         0.9995   2.4007  -0.8652 C.ar           1 S1                 0.0000
      8 ****         1.7718   1.3562  -0.5667 N.ar           1 S1                 0.0000
      9 ****         1.0706   0.1887  -0.6165 C.ar           1 S1                 0.0000
     10 ****        -0.3083   0.0475  -0.9507 C.ar           1 S1                 0.0000
     11 ****        -0.6591  -1.2972  -0.9079 N.2            1 S1                 0.0000
     12 ****         0.4416  -1.9101  -0.5720 C.2            1 S1                 0.0000
     13 ****         1.5286  -1.0931  -0.3588 N.pl3          1 S1                 0.0000
     14 ****         2.8705  -1.5137   0.0253 C.3            1 S1                 0.0000
     15 ****         3.0832  -1.6599   1.5559 C.3            1 S1                 0.0000
     16 ****         2.0888  -2.6874   2.1490 C.3            1 S1                 0.0000
     17 ****         2.5580  -3.2397   3.3611 O.3            1 S1                 0.0000
     18 ****         3.0356  -0.2877   2.2839 C.3            1 S1                 0.0000
     19 ****         4.1433   0.6747   1.8856 C.3            1 S1                 0.0000
     20 ****         4.1067   1.6999   3.0135 C.3            1 S1                 0.0000
     21 ****         3.6762   0.9873   4.1673 O.3            1 S1                 0.0000
     22 ****         3.2677  -0.3255   3.7980 C.3            1 S1                 0.0000
     23 ****        -3.2009   0.1767  -1.7044 C.3            1 S1                 0.0000
     24 ****        -4.4718   0.7697  -2.0873 N.am           1 S1                 0.0000
     25 ****        -5.6547  -0.0629  -2.2938 C.3            1 S1                 0.0000
     26 ****        -5.9368  -0.3247  -3.7841 C.3            1 S1                 0.0000
     27 ****        -6.9909  -1.1325  -3.8893 F              1 S1                 0.0000
     28 ****        -6.2073   0.8086  -4.4313 F              1 S1                 0.0000
     29 ****        -4.8892  -0.9175  -4.3571 F              1 S1                 0.0000
     30 ****        -2.5693   3.0932  -2.7319 H              1 S1                 0.0000
     31 ****        -2.9968   3.2538  -1.0046 H              1 S1                 0.0000
     32 ****         1.4863   3.3645  -0.8427 H              1 S1                 0.0000
     33 ****         0.4875  -2.9841  -0.4657 H              1 S1                 0.0000
     34 ****         3.0704  -2.4691  -0.4614 H              1 S1                 0.0000
     35 ****         3.5900  -0.8153  -0.4017 H              1 S1                 0.0000
     36 ****         4.0865  -2.0695   1.6836 H              1 S1                 0.0000
     37 ****         1.1077  -2.2385   2.3079 H              1 S1                 0.0000
     38 ****         1.9523  -3.5214   1.4606 H              1 S1                 0.0000
     39 ****         1.9175  -3.8580   3.6785 H              1 S1                 0.0000
     40 ****         2.0710   0.1893   2.1054 H              1 S1                 0.0000
     41 ****         5.1067   0.1628   1.8809 H              1 S1                 0.0000
     42 ****         4.0038   1.1329   0.9080 H              1 S1                 0.0000
     43 ****         5.0739   2.1759   3.1751 H              1 S1                 0.0000
     44 ****         3.3757   2.4793   2.7955 H              1 S1                 0.0000
     45 ****         2.3783  -0.6260   4.3521 H              1 S1                 0.0000
     46 ****         4.0747  -1.0153   4.0492 H              1 S1                 0.0000
     47 ****        -2.8505  -0.5108  -2.4754 H              1 S1                 0.0000
     48 ****        -3.2936  -0.3521  -0.7546 H              1 S1                 0.0000
     49 ****        -5.5133  -1.0128  -1.7767 H              1 S1                 0.0000
     50 ****        -6.5197   0.4109  -1.8271 H              1 S1                 0.0000
     51 ****        -6.2438   2.4947  -2.6363 LP             1 S1                 0.0000
     52 ****        -5.1761   3.8503  -2.4870 LP             1 S1                 0.0000
     53 ****        -0.7482   3.2836  -1.3861 LP             1 S1                 0.0000
     54 ****         2.7426   1.4210  -0.3356 LP             1 S1                 0.0000
     55 ****        -1.5541  -1.7030  -1.0931 LP             1 S1                 0.0000
     56 ****         2.6871  -2.5124   4.0352 LP             1 S1                 0.0000
     57 ****         3.4282  -3.7068   3.2040 LP             1 S1                 0.0000
     58 ****         2.9068   1.4687   4.5870 LP             1 S1                 0.0000
     59 ****         4.4299   0.9287   4.8218 LP             1 S1                 0.0000
@<TRIPOS>BOND
    1    1    2 2     
    2    2   24 am    
    3    2    3 1     
    4    3    4 1     
    5    3   30 1     
    6    3   31 1     
    7    4    5 1     
    8    4   23 1     
    9    5   10 ar    
   10    5    6 ar    
   11    6    7 ar    
   12    7    8 ar    
   13    7   32 1     
   14    8    9 ar    
   15    9   13 1     
   16    9   10 ar    
   17   10   11 1     
   18   11   12 2     
   19   12   13 1     
   20   12   33 1     
   21   13   14 1     
   22   14   15 1     
   23   14   34 1     
   24   14   35 1     
   25   15   16 1     
   26   15   18 1     
   27   15   36 1     
   28   16   17 1     
   29   16   37 1     
   30   16   38 1     
   31   17   39 1     
   32   18   22 1     
   33   18   19 1     
   34   18   40 1     
   35   19   20 1     
   36   19   41 1     
   37   19   42 1     
   38   20   21 1     
   39   20   43 1     
   40   20   44 1     
   41   21   22 1     
   42   22   45 1     
   43   22   46 1     
   44   23   24 1     
   45   23   47 1     
   46   23   48 1     
   47   24   25 1     
   48   25   26 1     
   49   25   49 1     
   50   25   50 1     
   51   26   27 1     
   52   26   28 1     
   53   26   29 1     
   54    1   51 1     
   55    1   52 1     
   56    6   53 1     
   57    8   54 1     
   58   11   55 1     
   59   17   56 1     
   60   17   57 1     
   61   21   58 1     
   62   21   59 1     
@<TRIPOS>SUBSTRUCTURE
      1 S1             1
@<TRIPOS>SET
LONE_PAIRS      STATIC     ATOMS    <user>   **** ""
9 51 52 53 54 55 56 57 58 59
DONOR_HYDROGENS      STATIC     ATOMS    <user>   **** ""
1 39
ATOM$BLUE        STATIC     ATOMS    COLORGROUP SYSTEM
9 51 52 53 54 55 56 57 58 59
ATOM$RED        STATIC     ATOMS    COLORGROUP SYSTEM
1 39
