AV-unprocessed.smi:1686|AV-procd|sdf|6764|dock5
  -GOLD-   22720 7523D 1   1.00000     0.00000
 Structure written by MMmdl.
 41 43  0  0  0  0  0  0  0  0  1 V2000
  147.2043  139.1006  152.7366 C   0  0  0  0  0  0  0  0  0  0  0  0
  146.9085  139.7156  154.0743 C   0  0  0  0  0  0  0  0  0  0  0  0
  145.8785  139.2697  154.7819 N   0  0  0  0  0  0  0  0  0  0  0  0
  145.8543  140.0233  155.9611 O   0  0  0  0  0  0  0  0  0  0  0  0
  146.8889  140.8922  155.8968 C   0  0  0  0  0  0  0  0  0  0  0  0
  147.2245  142.0156  157.1534 Cl  0  0  0  0  0  0  0  0  0  0  0  0
  147.6062  140.7643  154.7423 C   0  0  0  0  0  0  0  0  0  0  0  0
  148.8190  141.5284  154.2765 C   0  0  0  0  0  0  0  0  0  0  0  0
  149.9576  141.3328  155.2769 C   0  0  0  0  0  0  0  0  0  0  0  0
  150.7140  140.3679  155.1666 O   0  0  0  0  0  0  0  0  0  0  0  0
  150.0770  142.2623  156.2374 N   0  0  0  0  0  0  0  0  0  0  0  0
  151.1321  142.3044  157.2470 C   0  0  2  0  0  0  0  0  0  0  0  0
  150.7875  141.3483  158.4025 C   0  0  0  0  0  0  0  0  0  0  0  0
  151.3311  143.7567  157.7421 C   0  0  1  0  0  0  0  0  0  0  0  0
  150.2897  144.2306  158.7809 C   0  0  0  0  0  0  0  0  0  0  0  0
  151.1634  144.8137  159.9074 C   0  0  1  0  0  0  0  0  0  0  0  0
  151.8349  143.6597  160.6750 C   0  0  0  0  0  0  0  0  0  0  0  0
  152.8973  143.1631  159.6777 C   0  0  0  0  0  0  0  0  0  0  0  0
  152.6693  144.0758  158.4553 C   0  0  2  0  0  0  0  0  0  0  0  0
  152.3368  145.4012  159.1327 C   0  0  0  0  0  0  0  0  0  0  0  0
  147.6417  139.8302  152.0550 H   0  0  0  0  0  0  0  0  0  0  0  0
  146.3005  138.7135  152.2648 H   0  0  0  0  0  0  0  0  0  0  0  0
  147.9085  138.2745  152.8351 H   0  0  0  0  0  0  0  0  0  0  0  0
  149.1361  141.2057  153.2837 H   0  0  0  0  0  0  0  0  0  0  0  0
  148.6092  142.5952  154.1926 H   0  0  0  0  0  0  0  0  0  0  0  0
  149.4088  143.0191  156.2477 H   0  0  0  0  0  0  0  0  0  0  0  0
  152.0639  141.9615  156.7945 H   0  0  0  0  0  0  0  0  0  0  0  0
  151.5633  141.3556  159.1682 H   0  0  0  0  0  0  0  0  0  0  0  0
  150.6905  140.3207  158.0506 H   0  0  0  0  0  0  0  0  0  0  0  0
  149.8474  141.6251  158.8808 H   0  0  0  0  0  0  0  0  0  0  0  0
  151.2674  144.4147  156.8734 H   0  0  0  0  0  0  0  0  0  0  0  0
  149.6423  144.9957  158.3506 H   0  0  0  0  0  0  0  0  0  0  0  0
  149.6506  143.4250  159.1448 H   0  0  0  0  0  0  0  0  0  0  0  0
  150.6349  145.5174  160.5510 H   0  0  0  0  0  0  0  0  0  0  0  0
  152.3074  144.0222  161.5887 H   0  0  0  0  0  0  0  0  0  0  0  0
  151.1262  142.8785  160.9522 H   0  0  0  0  0  0  0  0  0  0  0  0
  153.8978  143.3169  160.0839 H   0  0  0  0  0  0  0  0  0  0  0  0
  152.8022  142.1017  159.4503 H   0  0  0  0  0  0  0  0  0  0  0  0
  153.5229  144.1220  157.7795 H   0  0  0  0  0  0  0  0  0  0  0  0
  152.0446  146.1870  158.4339 H   0  0  0  0  0  0  0  0  0  0  0  0
  153.1368  145.7735  159.7753 H   0  0  0  0  0  0  0  0  0  0  0  0
  1  2  1  0  0  0  0
  1 21  1  0  0  0  0
  1 22  1  0  0  0  0
  1 23  1  0  0  0  0
  2  7  1  0  0  0  0
  2  3  2  0  0  0  0
  3  4  1  0  0  0  0
  4  5  1  0  0  0  0
  5  6  1  0  0  0  0
  5  7  2  0  0  0  0
  7  8  1  0  0  0  0
  8  9  1  0  0  0  0
  8 24  1  0  0  0  0
  8 25  1  0  0  0  0
  9 10  2  0  0  0  0
  9 11  1  0  0  0  0
 11 12  1  0  0  0  0
 11 26  1  0  0  0  0
 12 13  1  0  0  0  0
 12 14  1  0  0  0  0
 12 27  1  0  0  0  0
 13 28  1  0  0  0  0
 13 29  1  0  0  0  0
 13 30  1  0  0  0  0
 14 19  1  0  0  0  0
 14 15  1  0  0  0  0
 14 31  1  0  0  0  0
 15 16  1  0  0  0  0
 15 32  1  0  0  0  0
 15 33  1  0  0  0  0
 16 20  1  0  0  0  0
 16 17  1  0  0  0  0
 16 34  1  0  0  0  0
 17 18  1  0  0  0  0
 17 35  1  0  0  0  0
 17 36  1  0  0  0  0
 18 19  1  0  0  0  0
 18 37  1  0  0  0  0
 18 38  1  0  0  0  0
 19 20  1  0  0  0  0
 19 39  1  0  0  0  0
 20 40  1  0  0  0  0
 20 41  1  0  0  0  0
M  END
> <s_m_source_file>
AV-unprocessed.smi

> <i_m_source_file_index>
1686

> <i_lp_mmshare_version>
43012

> <i_f3d_flags>
0

> <s_epik_input>
W0NIM11jMW5vYyhDbCljMVtDSDJdQyg9TylbTkhdW0NASF0oW0NIM10pW0NASF0oW0NIMl1bQ0BIXTIzKVtDQEhdKFtDSDJdMylbQ0gyXVtDSDJdMg==

> <s_epik_cmdline>
J2VwaWtfcHl0aG9uJywgJy1waCcsICc3LjAnLCAnLXRuJywgJzgnLCAnLW1hJywgJzIwMCcsICctbWV0YWxfYmluZGluZycsICctaW1hZScsICc8aW5maWxlLm1hZT4nLCAnLW9tYWUnLCAnPG91dGZpbGUubWFlPic=

> <r_lp_tautomer_probability>
1

> <r_epik_Ionization_Penalty>
2.01576e-08

> <r_epik_Ionization_Penalty_Charging>
0

> <r_epik_Ionization_Penalty_Neutral>
2.01576e-08

> <r_epik_State_Penalty>
-0

> <r_epik_Charging_Adjusted_Penalty>
0

> <i_epik_Tot_Q>
0

> <i_epik_Tot_abs_Q>
0

> <r_epik_Metal_State_Penalty>
-0

> <b_epik_Metal_Only>
0

> <s_lp_Force_Field>
OPLS_2005

> <r_lp_Energy>
45.5839

> <b_lp_Chiralities_Consistent>
1

> <s_lp_Variant>
AV-unprocessed.smi:1686-7

> <Gold.Version>
5.8.1

> <Gold.Id.Protein>
6NUR|6NUR_protein|mol2

> <Gold.PLP.Fitness>
46.1084

> <Gold.PLP.PLP>
-42.2729

> <Gold.PLP.part.hbond>
-2.0000

> <Gold.PLP.part.metal>
0.0000

> <Gold.PLP.part.buried>
-5.6367

> <Gold.PLP.part.nonpolar>
-35.6662

> <Gold.PLP.part.repulsive>
0.2986

> <Gold.PLP.ligand.clash>
0.0000

> <Gold.PLP.ligand.torsion>
1.0070

> <Gold.PLP.Chemscore.Hbond>
1.9440

> <Gold.PLP.Chemscore.CHOScore>
0.0000

> <Gold.PLP.Chemscore.Metal>
0.0000

> <Gold.Chemscore.Hbonds>
donor molecule, donor type, donor heavy atom, donor atom, acceptor molecule, acceptor atom, score
      L1  H    11    26       P1  8028  0.99
      P1  H  7989  7998       L1    10  0.95

> <Gold.PLP.Chemscore.Internal.Correction>
0.0174

> <Gold.Rescore>
     Score         DG    S(hbond)    S(metal)    S(lipo)     H(rot)  DE(clash)    DE(int)     intcor
     18.96     -21.03       1.49        0.00     122.46       1.46       0.03       2.05       ----

> <Gold.Chemscore.Fitness>
18.9562

> <Gold.Chemscore.DG>
-21.0328

> <Gold.Chemscore.ZeroCoef>
-5.4800

> <Gold.Chemscore.Hbond>
1.4894

> <Gold.Chemscore.Metal>
0.0000

> <Gold.Chemscore.Lipo>
122.4620

> <Gold.Chemscore.Internal_Hbond>
0.0000

> <Gold.Chemscore.DEClash>
0.0283

> <Gold.Chemscore.DEInternal>
2.0483

> <Gold.Chemscore.Rot>
1.4648

> <Gold.Chemscore.Internal.Correction>
   9.000000E+99

> <Gold.Chemscore.Hbonds>
donor molecule, donor type, donor heavy atom, donor atom, acceptor molecule, acceptor atom, score
      L1  H    11    26       P1  8028  0.94
      P1  H  7989  7998       L1    10  0.21

> <Gold.Chemscore.Hbond.Weighted>
-4.9747

> <Gold.Chemscore.Metal.Weighted>
-0.0000

> <Gold.Chemscore.Lipo.Weighted>
-14.3281

> <Gold.Chemscore.Internal_Hbond.Weighted>
0.0000

> <Gold.Chemscore.DEClash.Weighted>
0.0283

> <Gold.Chemscore.DEInternal.Weighted>
2.0483

> <Gold.Chemscore.Rot.Weighted>
3.7500

> <Gold.Chemscore.Internal.Correction.Weighted>
   9.000000E+99

> <Gold.Protein.RotatedTorsions>
[ 6907 6896 6895 6894 ] final   -4.57 input  -60.11 | X-H torsion
[ 7974 7965 7964 7962 ] final  -99.51 input  175.53 | X-H torsion
[ 8008 7997 7996 7995 ] final   84.76 input   59.86 | X-H torsion
[ 10167 10162 10161 10158 ] final  118.80 input  -65.29 | X-H torsion
[ 10718 10713 10712 10709 ] final -101.54 input   66.30 | X-H torsion
[ 10763 10752 10751 10750 ] final   57.41 input  -60.55 | X-H torsion
[ 11005 11000 10999 10996 ] final   96.16 input  -57.11 | X-H torsion

> <Gold.Protein.ActiveResidues>
 VAL166  LYS551  ARG553  GLY616  TRP617  ASP618  TYR619  PRO620  LYS621  CYS622 
 ASP623  PHE694  ASN695  SER759  ASP760  ASP761  ALA762  ILE779  LEU786  VAL792 
 PHE793  MET794  SER795  GLU796  ALA797  LYS798  CYS799  TRP800  GLU811  SER814 

> <Gold.Protein.RotatedAtoms>
  151.4955  135.1059  159.9814 H   0  0  0  0  0  0  0  0  0  0  0  0  # atno 6907 bound_to 6896
  152.4723  133.8055  159.6986 H   0  0  0  0  0  0  0  0  0  0  0  0  # atno 6908 bound_to 6896
  150.8740  133.7402  159.2978 H   0  0  0  0  0  0  0  0  0  0  0  0  # atno 6909 bound_to 6896
  145.3066  140.9390  143.2793 H   0  0  0  0  0  0  0  0  0  0  0  0  # atno 7974 bound_to 7965
  155.9413  140.3408  155.6329 H   0  0  0  0  0  0  0  0  0  0  0  0  # atno 8008 bound_to 7997
  155.7036  140.0763  157.2418 H   0  0  0  0  0  0  0  0  0  0  0  0  # atno 8009 bound_to 7997
  154.4103  140.1635  156.2206 H   0  0  0  0  0  0  0  0  0  0  0  0  # atno 8010 bound_to 7997
  139.6088  144.7076  151.2892 H   0  0  0  0  0  0  0  0  0  0  0  0  # atno 10167 bound_to 10162
  156.0198  130.5378  150.6978 H   0  0  0  0  0  0  0  0  0  0  0  0  # atno 10718 bound_to 10713
  152.9849  135.5642  154.5386 H   0  0  0  0  0  0  0  0  0  0  0  0  # atno 10763 bound_to 10752
  154.4844  135.2790  155.1547 H   0  0  0  0  0  0  0  0  0  0  0  0  # atno 10764 bound_to 10752
  154.3042  135.6301  153.5491 H   0  0  0  0  0  0  0  0  0  0  0  0  # atno 10765 bound_to 10752
  139.8783  134.8936  156.4117 H   0  0  0  0  0  0  0  0  0  0  0  0  # atno 11005 bound_to 11000
  144.9050  139.4601  143.6614 LP  0  0  0  0  0  0  0  0  0  0  0  0  # atno 17320 bound_to 7965
  146.3133  139.7826  142.9003 LP  0  0  0  0  0  0  0  0  0  0  0  0  # atno 17321 bound_to 7965
  140.7304  143.6881  150.7945 LP  0  0  0  0  0  0  0  0  0  0  0  0  # atno 17342 bound_to 10162
  140.0472  143.5287  152.2691 LP  0  0  0  0  0  0  0  0  0  0  0  0  # atno 17343 bound_to 10162
  157.4645  131.0886  151.0710 LP  0  0  0  0  0  0  0  0  0  0  0  0  # atno 17370 bound_to 10713
  157.1188  130.6053  149.5500 LP  0  0  0  0  0  0  0  0  0  0  0  0  # atno 17371 bound_to 10713
  140.9195  133.7654  155.9890 LP  0  0  0  0  0  0  0  0  0  0  0  0  # atno 17394 bound_to 11000
  140.8455  134.3016  157.5296 LP  0  0  0  0  0  0  0  0  0  0  0  0  # atno 17395 bound_to 11000

$$$$
