#       Name:                AV-unprocessed.smi:331
#       Creating user name   scv26
#       Creation time:       Thu Mar 26 22:26:23 2020


#       File generated by GOLD software.
#

@<TRIPOS>MOLECULE
AV-unprocessed.smi:331
    39    40     1
SMALL
NO_CHARGES


@<TRIPOS>ATOM
      1 ****         0.4028   3.0559   0.3945 O.2            1 S1                 0.0000
      2 ****         0.0924   1.8881   0.6197 C.2            1 S1                 0.0000
      3 ****         0.9887   0.9219   0.8804 N.am           1 S1                 0.0000
      4 ****         2.4375   1.0979   0.8818 C.3            1 S1                 0.0000
      5 ****         3.0252   1.2044  -0.5395 C.3            1 S1                 0.0000
      6 ****         2.5782   0.0841  -1.4635 C.ar           1 S1                 0.0000
      7 ****         1.5347   0.2903  -2.3936 C.ar           1 S1                 0.0000
      8 ****         1.1311  -0.7729  -3.2276 C.ar           1 S1                 0.0000
      9 ****         1.7831  -2.0179  -3.1161 C.ar           1 S1                 0.0000
     10 ****         2.7791  -2.1772  -2.2169 N.pl3          1 S1                 1.0000
     11 ****         3.1932  -1.1848  -1.3988 C.ar           1 S1                 0.0000
     12 ****        -1.1888   1.4793   0.6202 N.am           1 S1                 0.0000
     13 ****        -2.3907   2.2803   0.3737 C.3            1 S1                 0.0000
     14 ****        -3.6394   1.5748   0.9369 C.3            1 S1                 0.0000
     15 ****        -4.6889   1.6179  -0.1746 C.3            1 S1                 0.0000
     16 ****        -3.8724   1.6093  -1.4624 C.3            1 S1                 0.0000
     17 ****        -2.6504   2.4678  -1.1351 C.3            1 S1                 0.0000
     18 ****         0.6408  -0.0062   1.0724 H              1 S1                 0.0000
     19 ****         2.7119   1.9716   1.4751 H              1 S1                 0.0000
     20 ****         2.8683   0.2344   1.3890 H              1 S1                 0.0000
     21 ****         2.7459   2.1610  -0.9831 H              1 S1                 0.0000
     22 ****         4.1145   1.2067  -0.4862 H              1 S1                 0.0000
     23 ****         1.0423   1.2497  -2.4628 H              1 S1                 0.0000
     24 ****         0.3325  -0.6347  -3.9418 H              1 S1                 0.0000
     25 ****         1.5395  -2.8841  -3.7137 H              1 S1                 0.0000
     26 ****         3.9955  -1.4354  -0.7200 H              1 S1                 0.0000
     27 ****        -1.3506   0.5115   0.8591 H              1 S1                 0.0000
     28 ****        -2.2925   3.2564   0.8526 H              1 S1                 0.0000
     29 ****        -3.4196   0.5326   1.1745 H              1 S1                 0.0000
     30 ****        -3.9986   2.0434   1.8535 H              1 S1                 0.0000
     31 ****        -5.3951   0.7891  -0.1183 H              1 S1                 0.0000
     32 ****        -5.2584   2.5457  -0.1082 H              1 S1                 0.0000
     33 ****        -3.5558   0.5904  -1.6895 H              1 S1                 0.0000
     34 ****        -4.4321   1.9843  -2.3194 H              1 S1                 0.0000
     35 ****        -2.8847   3.5148  -1.3307 H              1 S1                 0.0000
     36 ****        -1.7945   2.2107  -1.7608 H              1 S1                 0.0000
     37 ****         3.2379  -3.0862  -2.1523 H              1 S1                 0.0000
     38 ****         1.3652   3.3274   0.3996 LP             1 S1                 0.0000
     39 ****        -0.3072   3.7346   0.2062 LP             1 S1                 0.0000
@<TRIPOS>BOND
    1    1    2 2     
    2    2    3 am    
    3    2   12 am    
    4    3    4 1     
    5    3   18 1     
    6    4    5 1     
    7    4   19 1     
    8    4   20 1     
    9    5    6 1     
   10    5   21 1     
   11    5   22 1     
   12    6   11 ar    
   13    6    7 ar    
   14    7    8 ar    
   15    7   23 1     
   16    8    9 ar    
   17    8   24 1     
   18    9   10 ar    
   19    9   25 1     
   20   10   11 ar    
   21   10   37 1     
   22   11   26 1     
   23   12   13 1     
   24   12   27 1     
   25   13   17 1     
   26   13   14 1     
   27   13   28 1     
   28   14   15 1     
   29   14   29 1     
   30   14   30 1     
   31   15   16 1     
   32   15   31 1     
   33   15   32 1     
   34   16   17 1     
   35   16   33 1     
   36   16   34 1     
   37   17   35 1     
   38   17   36 1     
   39    1   38 1     
   40    1   39 1     
@<TRIPOS>SUBSTRUCTURE
      1 S1             1
@<TRIPOS>SET
LONE_PAIRS      STATIC     ATOMS    <user>   **** ""
2 38 39
DONOR_HYDROGENS      STATIC     ATOMS    <user>   **** ""
3 18 37 27
ATOM$BLUE        STATIC     ATOMS    COLORGROUP SYSTEM
2 38 39
ATOM$RED        STATIC     ATOMS    COLORGROUP SYSTEM
3 18 37 27
