AV-unprocessed.smi:2742|AV-procd|sdf|10562|dock8
  -GOLD-   2272015 13D 1   1.00000     0.00000
 Structure written by MMmdl.
 37 38  0  0  0  0  0  0  0  0  1 V2000
  151.4134  138.2871  154.5284 C   0  0  0  0  0  0  0  0  0  0  0  0
  150.7462  137.9741  156.1849 S   0  0  0  0  0  0  0  0  0  0  0  0
  149.6526  136.5621  155.8507 C   0  0  2  0  0  0  0  0  0  0  0  0
  148.8664  136.1839  157.1180 C   0  0  0  0  0  0  0  0  0  0  0  0
  147.9451  134.9800  156.8696 C   0  0  0  0  0  0  0  0  0  0  0  0
  148.7385  133.7700  156.3488 C   0  0  0  0  0  0  0  0  0  0  0  0
  149.5596  134.1121  155.0873 C   0  0  1  0  0  0  0  0  0  0  0  0
  148.6920  134.3183  153.9278 N   0  0  0  0  0  0  0  0  0  0  0  0
  147.7837  133.4436  153.4712 C   0  0  0  0  0  0  0  0  0  0  0  0
  147.5920  132.3401  153.9810 O   0  0  0  0  0  0  0  0  0  0  0  0
  147.1376  133.9331  152.3986 N   0  0  0  0  0  0  0  0  0  0  0  0
  146.1023  133.3423  151.6213 C   0  0  0  0  0  0  0  0  0  0  0  0
  145.7999  131.9585  151.6050 C   0  0  0  0  0  0  0  0  0  0  0  0
  144.7357  131.5089  150.7976 C   0  0  0  0  0  0  0  0  0  0  0  0
  143.9785  132.3290  150.0388 N   0  0  0  0  0  0  0  0  0  0  0  0
  144.2617  133.6482  150.0646 C   0  0  0  0  0  0  0  0  0  0  0  0
  145.3037  134.2011  150.8359 C   0  0  0  0  0  0  0  0  0  0  0  0
  145.5312  135.5369  150.8183 F   0  0  0  0  0  0  0  0  0  0  0  0
  150.4484  135.3503  155.3215 C   0  0  0  0  0  0  0  0  0  0  0  0
  152.0842  139.1458  154.5537 H   0  0  0  0  0  0  0  0  0  0  0  0
  150.6071  138.5009  153.8266 H   0  0  0  0  0  0  0  0  0  0  0  0
  151.9745  137.4266  154.1656 H   0  0  0  0  0  0  0  0  0  0  0  0
  148.9368  136.8813  155.0922 H   0  0  0  0  0  0  0  0  0  0  0  0
  149.5604  135.9492  157.9264 H   0  0  0  0  0  0  0  0  0  0  0  0
  148.2737  137.0344  157.4569 H   0  0  0  0  0  0  0  0  0  0  0  0
  147.4268  134.7137  157.7911 H   0  0  0  0  0  0  0  0  0  0  0  0
  147.1717  135.2527  156.1505 H   0  0  0  0  0  0  0  0  0  0  0  0
  149.4164  133.4284  157.1319 H   0  0  0  0  0  0  0  0  0  0  0  0
  148.0633  132.9364  156.1519 H   0  0  0  0  0  0  0  0  0  0  0  0
  150.2211  133.2717  154.8692 H   0  0  0  0  0  0  0  0  0  0  0  0
  148.7854  135.1997  153.4446 H   0  0  0  0  0  0  0  0  0  0  0  0
  147.4520  134.8344  152.0698 H   0  0  0  0  0  0  0  0  0  0  0  0
  146.3446  131.2374  152.1931 H   0  0  0  0  0  0  0  0  0  0  0  0
  144.4830  130.4596  150.7651 H   0  0  0  0  0  0  0  0  0  0  0  0
  143.6379  134.2834  149.4533 H   0  0  0  0  0  0  0  0  0  0  0  0
  150.9689  135.6069  154.3988 H   0  0  0  0  0  0  0  0  0  0  0  0
  151.2256  135.0939  156.0430 H   0  0  0  0  0  0  0  0  0  0  0  0
  1  2  1  0  0  0  0
  1 20  1  0  0  0  0
  1 21  1  0  0  0  0
  1 22  1  0  0  0  0
  2  3  1  0  0  0  0
  3 19  1  0  0  0  0
  3  4  1  0  0  0  0
  3 23  1  0  0  0  0
  4  5  1  0  0  0  0
  4 24  1  0  0  0  0
  4 25  1  0  0  0  0
  5  6  1  0  0  0  0
  5 26  1  0  0  0  0
  5 27  1  0  0  0  0
  6  7  1  0  0  0  0
  6 28  1  0  0  0  0
  6 29  1  0  0  0  0
  7  8  1  0  0  0  0
  7 19  1  0  0  0  0
  7 30  1  0  0  0  0
  8  9  1  0  0  0  0
  8 31  1  0  0  0  0
  9 10  2  0  0  0  0
  9 11  1  0  0  0  0
 11 12  1  0  0  0  0
 11 32  1  0  0  0  0
 12 17  1  0  0  0  0
 12 13  2  0  0  0  0
 13 14  1  0  0  0  0
 13 33  1  0  0  0  0
 14 15  2  0  0  0  0
 14 34  1  0  0  0  0
 15 16  1  0  0  0  0
 16 17  2  0  0  0  0
 16 35  1  0  0  0  0
 17 18  1  0  0  0  0
 19 36  1  0  0  0  0
 19 37  1  0  0  0  0
M  END
> <s_m_source_file>
AV-unprocessed.smi

> <i_m_source_file_index>
2742

> <i_lp_mmshare_version>
43012

> <i_f3d_flags>
0

> <s_epik_input>
W0NIM11TW0NAQEhdMVtDSDJdW0NIMl1bQ0gyXVtDQEhdKFtDSDJdMSlbTkhdQyg9TylbTkhdYzJbY0hdW2NIXW5bY0hdYzJG

> <s_epik_cmdline>
J2VwaWtfcHl0aG9uJywgJy1waCcsICc3LjAnLCAnLXRuJywgJzgnLCAnLW1hJywgJzIwMCcsICctbWV0YWxfYmluZGluZycsICctaW1hZScsICc8aW5maWxlLm1hZT4nLCAnLW9tYWUnLCAnPG91dGZpbGUubWFlPic=

> <r_epik_Ionization_Penalty>
0.00344009

> <r_epik_Ionization_Penalty_Charging>
0

> <r_epik_Ionization_Penalty_Neutral>
0.00344009

> <r_epik_State_Penalty>
0.0024078

> <r_epik_Charging_Adjusted_Penalty>
0.0024078

> <i_epik_Tot_Q>
0

> <i_epik_Tot_abs_Q>
0

> <r_epik_Metal_State_Penalty>
-0

> <b_epik_Metal_Only>
0

> <s_lp_Force_Field>
OPLS_2005

> <r_lp_Energy>
13.9457

> <b_lp_Chiralities_Consistent>
1

> <s_lp_Variant>
AV-unprocessed.smi:2742-1

> <Gold.Version>
5.8.1

> <Gold.Id.Protein>
6NUR|6NUR_protein|mol2

> <Gold.PLP.Fitness>
39.7094

> <Gold.PLP.PLP>
-30.9279

> <Gold.PLP.part.hbond>
-2.0000

> <Gold.PLP.part.metal>
0.0000

> <Gold.PLP.part.buried>
-5.8983

> <Gold.PLP.part.nonpolar>
-23.6609

> <Gold.PLP.part.repulsive>
0.2871

> <Gold.PLP.ligand.clash>
0.0000

> <Gold.PLP.ligand.torsion>
0.1034

> <Gold.PLP.Chemscore.Hbond>
1.9920

> <Gold.PLP.Chemscore.CHOScore>
1.0000

> <Gold.PLP.Chemscore.Metal>
0.0000

> <Gold.Chemscore.Hbonds>
donor molecule, donor type, donor heavy atom, donor atom, acceptor molecule, acceptor atom, score
      L1  H     8    31       P1  7948  1.00
      L1  H    11    32       P1  7948  0.99
      L1  C    16    35       P1 10186  0.70

> <Gold.PLP.Chemscore.Internal.Correction>
0.0124

> <Gold.Rescore>
     Score         DG    S(hbond)    S(metal)    S(lipo)     H(rot)  DE(clash)    DE(int)     intcor
     14.02     -15.19       1.24        0.00      73.48       1.19       0.00       1.16       ----

> <Gold.Chemscore.Fitness>
14.0242

> <Gold.Chemscore.DG>
-15.1904

> <Gold.Chemscore.ZeroCoef>
-5.4800

> <Gold.Chemscore.Hbond>
1.2436

> <Gold.Chemscore.Metal>
0.0000

> <Gold.Chemscore.Lipo>
73.4760

> <Gold.Chemscore.Internal_Hbond>
0.0000

> <Gold.Chemscore.DEClash>
0.0044

> <Gold.Chemscore.DEInternal>
1.1619

> <Gold.Chemscore.Rot>
1.1875

> <Gold.Chemscore.Internal.Correction>
   9.000000E+99

> <Gold.Chemscore.Hbonds>
donor molecule, donor type, donor heavy atom, donor atom, acceptor molecule, acceptor atom, score
      L1  H     8    31       P1  7948  0.67
      L1  H    11    32       P1  7948  0.75

> <Gold.Chemscore.Hbond.Weighted>
-4.1538

> <Gold.Chemscore.Metal.Weighted>
-0.0000

> <Gold.Chemscore.Lipo.Weighted>
-8.5967

> <Gold.Chemscore.Internal_Hbond.Weighted>
0.0000

> <Gold.Chemscore.DEClash.Weighted>
0.0044

> <Gold.Chemscore.DEInternal.Weighted>
1.1619

> <Gold.Chemscore.Rot.Weighted>
3.0400

> <Gold.Chemscore.Internal.Correction.Weighted>
   9.000000E+99

> <Gold.Protein.RotatedTorsions>
[ 6907 6896 6895 6894 ] final  142.57 input  -60.11 | X-H torsion
[ 7974 7965 7964 7962 ] final   57.91 input  175.53 | X-H torsion
[ 8008 7997 7996 7995 ] final  171.59 input   59.86 | X-H torsion
[ 10167 10162 10161 10158 ] final  179.59 input  -65.29 | X-H torsion
[ 10718 10713 10712 10709 ] final  -26.94 input   66.30 | X-H torsion
[ 10763 10752 10751 10750 ] final -110.81 input  -60.55 | X-H torsion
[ 11005 11000 10999 10996 ] final -168.52 input  -57.11 | X-H torsion

> <Gold.Protein.ActiveResidues>
 VAL166  LYS551  ARG553  GLY616  TRP617  ASP618  TYR619  PRO620  LYS621  CYS622 
 ASP623  PHE694  ASN695  SER759  ASP760  ASP761  ALA762  ILE779  LEU786  VAL792 
 PHE793  MET794  SER795  GLU796  ALA797  LYS798  CYS799  TRP800  GLU811  SER814 

> <Gold.Protein.RotatedAtoms>
  152.2171  133.4955  159.5141 H   0  0  0  0  0  0  0  0  0  0  0  0  # atno 6907 bound_to 6896
  150.7004  134.1391  159.4107 H   0  0  0  0  0  0  0  0  0  0  0  0  # atno 6908 bound_to 6896
  151.9312  135.0255  160.0580 H   0  0  0  0  0  0  0  0  0  0  0  0  # atno 6909 bound_to 6896
  145.9239  139.3752  143.0461 H   0  0  0  0  0  0  0  0  0  0  0  0  # atno 7974 bound_to 7965
  156.1256  140.1508  156.9141 H   0  0  0  0  0  0  0  0  0  0  0  0  # atno 8008 bound_to 7997
  154.4869  140.0862  156.7547 H   0  0  0  0  0  0  0  0  0  0  0  0  # atno 8009 bound_to 7997
  155.4349  140.3428  155.4286 H   0  0  0  0  0  0  0  0  0  0  0  0  # atno 8010 bound_to 7997
  139.5343  144.2543  152.0759 H   0  0  0  0  0  0  0  0  0  0  0  0  # atno 10167 bound_to 10162
  156.4446  130.4471  149.7030 H   0  0  0  0  0  0  0  0  0  0  0  0  # atno 10718 bound_to 10713
  154.8267  135.4550  154.0942 H   0  0  0  0  0  0  0  0  0  0  0  0  # atno 10763 bound_to 10752
  153.2250  135.6898  153.7962 H   0  0  0  0  0  0  0  0  0  0  0  0  # atno 10764 bound_to 10752
  153.7366  135.3319  155.3272 H   0  0  0  0  0  0  0  0  0  0  0  0  # atno 10765 bound_to 10752
  140.5411  134.5522  157.5099 H   0  0  0  0  0  0  0  0  0  0  0  0  # atno 11005 bound_to 11000
  145.8514  140.9527  143.0748 LP  0  0  0  0  0  0  0  0  0  0  0  0  # atno 17320 bound_to 7965
  144.6756  140.0412  143.7481 LP  0  0  0  0  0  0  0  0  0  0  0  0  # atno 17321 bound_to 7965
  140.2011  144.4657  150.6431 LP  0  0  0  0  0  0  0  0  0  0  0  0  # atno 17342 bound_to 10162
  140.6540  143.2232  151.6011 LP  0  0  0  0  0  0  0  0  0  0  0  0  # atno 17343 bound_to 10162
  156.3880  130.7613  151.2611 LP  0  0  0  0  0  0  0  0  0  0  0  0  # atno 17370 bound_to 10713
  157.7505  131.0276  150.4012 LP  0  0  0  0  0  0  0  0  0  0  0  0  # atno 17371 bound_to 10713
  139.9504  134.7628  156.0463 LP  0  0  0  0  0  0  0  0  0  0  0  0  # atno 17394 bound_to 11000
  141.1227  133.6608  156.3256 LP  0  0  0  0  0  0  0  0  0  0  0  0  # atno 17395 bound_to 11000

$$$$
