AV-unprocessed.smi:525|AV-procd|sdf|2807|dock4
  -GOLD-   2262023283D 1   1.00000     0.00000
 Structure written by MMmdl.
 43 45  0  0  0  0  0  0  0  0  1 V2000
  154.4627  138.8390  159.5202 C   0  0  0  0  0  0  0  0  0  0  0  0
  153.8246  138.8540  158.2551 O   0  0  0  0  0  0  0  0  0  0  0  0
  152.4869  138.3923  158.3207 C   0  0  0  0  0  0  0  0  0  0  0  0
  151.6547  139.3757  159.1522 C   0  0  0  0  0  0  0  0  0  0  0  0
  151.3722  140.5955  158.4122 N   0  0  0  0  0  0  0  0  0  0  0  0
  150.5753  140.7452  157.3265 C   0  0  0  0  0  0  0  0  0  0  0  0
  149.7024  139.3902  156.6148 S   0  0  0  0  0  0  0  0  0  0  0  0
  148.0129  139.8345  157.1429 C   0  0  2  0  0  0  0  0  0  0  0  0
  147.1623  138.6004  157.4851 C   0  0  0  0  0  0  0  0  0  0  0  0
  146.9416  137.7339  156.4926 N   0  0  0  0  0  0  0  0  0  0  0  0
  146.7228  138.4094  158.6183 O   0  0  0  0  0  0  0  0  0  0  0  0
  147.3601  140.7208  156.0834 C   0  0  0  0  0  0  0  0  0  0  0  0
  146.0888  141.3015  156.2998 C   0  0  0  0  0  0  0  0  0  0  0  0
  145.4909  142.0986  155.3049 C   0  0  0  0  0  0  0  0  0  0  0  0
  146.1588  142.3235  154.0864 C   0  0  0  0  0  0  0  0  0  0  0  0
  147.4253  141.7506  153.8638 C   0  0  0  0  0  0  0  0  0  0  0  0
  148.0238  140.9531  154.8584 C   0  0  0  0  0  0  0  0  0  0  0  0
  150.4908  141.9820  156.8358 N   0  0  0  0  0  0  0  0  0  0  0  0
  151.3177  142.7001  157.6776 C   0  0  0  0  0  0  0  0  0  0  0  0
  151.6555  144.0724  157.6823 C   0  0  0  0  0  0  0  0  0  0  0  0
  152.5382  144.5864  158.6549 C   0  0  0  0  0  0  0  0  0  0  0  0
  153.0952  143.7378  159.6335 C   0  0  0  0  0  0  0  0  0  0  0  0
  152.7713  142.3675  159.6469 C   0  0  0  0  0  0  0  0  0  0  0  0
  151.8882  141.8598  158.6754 C   0  0  0  0  0  0  0  0  0  0  0  0
  155.4883  139.1936  159.4185 H   0  0  0  0  0  0  0  0  0  0  0  0
  154.4945  137.8303  159.9342 H   0  0  0  0  0  0  0  0  0  0  0  0
  153.9505  139.4917  160.2279 H   0  0  0  0  0  0  0  0  0  0  0  0
  152.0720  138.3018  157.3154 H   0  0  0  0  0  0  0  0  0  0  0  0
  152.4617  137.4034  158.7770 H   0  0  0  0  0  0  0  0  0  0  0  0
  150.7151  138.9176  159.4617 H   0  0  0  0  0  0  0  0  0  0  0  0
  152.1855  139.6355  160.0685 H   0  0  0  0  0  0  0  0  0  0  0  0
  148.0819  140.4178  158.0617 H   0  0  0  0  0  0  0  0  0  0  0  0
  146.3922  136.9033  156.6623 H   0  0  0  0  0  0  0  0  0  0  0  0
  147.3283  137.9108  155.5769 H   0  0  0  0  0  0  0  0  0  0  0  0
  145.5671  141.1373  157.2313 H   0  0  0  0  0  0  0  0  0  0  0  0
  144.5194  142.5377  155.4775 H   0  0  0  0  0  0  0  0  0  0  0  0
  145.6997  142.9347  153.3235 H   0  0  0  0  0  0  0  0  0  0  0  0
  147.9381  141.9219  152.9289 H   0  0  0  0  0  0  0  0  0  0  0  0
  148.9945  140.5168  154.6735 H   0  0  0  0  0  0  0  0  0  0  0  0
  151.2351  144.7308  156.9365 H   0  0  0  0  0  0  0  0  0  0  0  0
  152.7895  145.6370  158.6499 H   0  0  0  0  0  0  0  0  0  0  0  0
  153.7711  144.1392  160.3742 H   0  0  0  0  0  0  0  0  0  0  0  0
  153.1967  141.7153  160.3951 H   0  0  0  0  0  0  0  0  0  0  0  0
  1  2  1  0  0  0  0
  1 25  1  0  0  0  0
  1 26  1  0  0  0  0
  1 27  1  0  0  0  0
  2  3  1  0  0  0  0
  3  4  1  0  0  0  0
  3 28  1  0  0  0  0
  3 29  1  0  0  0  0
  4  5  1  0  0  0  0
  4 30  1  0  0  0  0
  4 31  1  0  0  0  0
  5 24  1  0  0  0  0
  5  6  1  0  0  0  0
  6  7  1  0  0  0  0
  6 18  2  0  0  0  0
  7  8  1  0  0  0  0
  8  9  1  0  0  0  0
  8 12  1  0  0  0  0
  8 32  1  0  0  0  0
  9 10  1  0  0  0  0
  9 11  2  0  0  0  0
 10 33  1  0  0  0  0
 10 34  1  0  0  0  0
 12 17  1  0  0  0  0
 12 13  2  0  0  0  0
 13 14  1  0  0  0  0
 13 35  1  0  0  0  0
 14 15  2  0  0  0  0
 14 36  1  0  0  0  0
 15 16  1  0  0  0  0
 15 37  1  0  0  0  0
 16 17  2  0  0  0  0
 16 38  1  0  0  0  0
 17 39  1  0  0  0  0
 18 19  1  0  0  0  0
 19 24  2  0  0  0  0
 19 20  1  0  0  0  0
 20 21  2  0  0  0  0
 20 40  1  0  0  0  0
 21 22  1  0  0  0  0
 21 41  1  0  0  0  0
 22 23  2  0  0  0  0
 22 42  1  0  0  0  0
 23 24  1  0  0  0  0
 23 43  1  0  0  0  0
M  END
> <s_m_source_file>
AV-unprocessed.smi

> <i_m_source_file_index>
525

> <i_lp_mmshare_version>
43012

> <i_f3d_flags>
0

> <s_epik_input>
W2NIXTFbY0hdW2NIXVtjSF1jKGMxMiluKFtDSDJdW0NIMl1PW0NIM10pYyhuMilTW0NASF0oQyg9TylbTkgyXSljM1tjSF1bY0hdW2NIXVtjSF1bY0hdMw==

> <s_epik_cmdline>
J2VwaWtfcHl0aG9uJywgJy1waCcsICc3LjAnLCAnLXRuJywgJzgnLCAnLW1hJywgJzIwMCcsICctbWV0YWxfYmluZGluZycsICctaW1hZScsICc8aW5maWxlLm1hZT4nLCAnLW9tYWUnLCAnPG91dGZpbGUubWFlPic=

> <r_epik_Ionization_Penalty>
0.0706634

> <r_epik_Ionization_Penalty_Charging>
0

> <r_epik_Ionization_Penalty_Neutral>
0.0706634

> <r_epik_State_Penalty>
0.0619781

> <r_epik_Charging_Adjusted_Penalty>
0.0619781

> <i_epik_Tot_Q>
0

> <i_epik_Tot_abs_Q>
0

> <r_epik_Metal_State_Penalty>
0.0552401

> <b_epik_Metal_Only>
0

> <s_lp_Force_Field>
OPLS_2005

> <r_lp_Energy>
11.715

> <b_lp_Chiralities_Consistent>
1

> <s_lp_Variant>
AV-unprocessed.smi:525-1

> <Gold.Version>
5.8.1

> <Gold.Id.Protein>
6NUR|6NUR_protein|mol2

> <Gold.PLP.Fitness>
45.6036

> <Gold.PLP.PLP>
-43.7462

> <Gold.PLP.part.hbond>
-1.8605

> <Gold.PLP.part.metal>
0.0000

> <Gold.PLP.part.buried>
-7.2725

> <Gold.PLP.part.nonpolar>
-34.9277

> <Gold.PLP.part.repulsive>
0.4832

> <Gold.PLP.ligand.clash>
0.0000

> <Gold.PLP.ligand.torsion>
0.7351

> <Gold.PLP.Chemscore.Hbond>
1.0000

> <Gold.PLP.Chemscore.CHOScore>
0.0000

> <Gold.PLP.Chemscore.Metal>
0.0000

> <Gold.Chemscore.Hbonds>
donor molecule, donor type, donor heavy atom, donor atom, acceptor molecule, acceptor atom, score
      P1  H  6934  6947       L1    11  0.04
      P1  H  7997  8009       L1     2  1.00

> <Gold.PLP.Chemscore.Internal.Correction>
0.3275

> <Gold.Rescore>
     Score         DG    S(hbond)    S(metal)    S(lipo)     H(rot)  DE(clash)    DE(int)     intcor
     15.30     -16.16       0.98        0.00     116.74       2.44       0.12       0.74       ----

> <Gold.Chemscore.Fitness>
15.3025

> <Gold.Chemscore.DG>
-16.1560

> <Gold.Chemscore.ZeroCoef>
-5.4800

> <Gold.Chemscore.Hbond>
0.9769

> <Gold.Chemscore.Metal>
0.0000

> <Gold.Chemscore.Lipo>
116.7414

> <Gold.Chemscore.Internal_Hbond>
0.0000

> <Gold.Chemscore.DEClash>
0.1156

> <Gold.Chemscore.DEInternal>
0.7379

> <Gold.Chemscore.Rot>
2.4396

> <Gold.Chemscore.Internal.Correction>
   9.000000E+99

> <Gold.Chemscore.Hbonds>
donor molecule, donor type, donor heavy atom, donor atom, acceptor molecule, acceptor atom, score
      P1  H  6934  6947       L1    11  0.05
      P1  H  7997  8009       L1     2  0.70

> <Gold.Chemscore.Hbond.Weighted>
-3.2627

> <Gold.Chemscore.Metal.Weighted>
-0.0000

> <Gold.Chemscore.Lipo.Weighted>
-13.6587

> <Gold.Chemscore.Internal_Hbond.Weighted>
0.0000

> <Gold.Chemscore.DEClash.Weighted>
0.1156

> <Gold.Chemscore.DEInternal.Weighted>
0.7379

> <Gold.Chemscore.Rot.Weighted>
6.2454

> <Gold.Chemscore.Internal.Correction.Weighted>
   9.000000E+99

> <Gold.Protein.RotatedTorsions>
[ 6907 6896 6895 6894 ] final  129.22 input  -60.11 | X-H torsion
[ 7974 7965 7964 7962 ] final  -66.52 input  175.53 | X-H torsion
[ 8008 7997 7996 7995 ] final  145.22 input   59.86 | X-H torsion
[ 10167 10162 10161 10158 ] final  -98.96 input  -65.29 | X-H torsion
[ 10718 10713 10712 10709 ] final -147.10 input   66.30 | X-H torsion
[ 10763 10752 10751 10750 ] final  -28.88 input  -60.55 | X-H torsion
[ 11005 11000 10999 10996 ] final   47.52 input  -57.11 | X-H torsion

> <Gold.Protein.ActiveResidues>
 VAL166  LYS551  ARG553  GLY616  TRP617  ASP618  TYR619  PRO620  LYS621  CYS622 
 ASP623  PHE694  ASN695  SER759  ASP760  ASP761  ALA762  ILE779  LEU786  VAL792 
 PHE793  MET794  SER795  GLU796  ALA797  LYS798  CYS799  TRP800  GLU811  SER814 

> <Gold.Protein.RotatedAtoms>
  152.3645  133.6338  159.6039 H   0  0  0  0  0  0  0  0  0  0  0  0  # atno 6907 bound_to 6896
  150.7624  133.9371  159.3453 H   0  0  0  0  0  0  0  0  0  0  0  0  # atno 6908 bound_to 6896
  151.7204  135.0896  160.0334 H   0  0  0  0  0  0  0  0  0  0  0  0  # atno 6909 bound_to 6896
  145.7407  140.8954  143.0531 H   0  0  0  0  0  0  0  0  0  0  0  0  # atno 7974 bound_to 7965
  156.2889  140.2215  156.5180 H   0  0  0  0  0  0  0  0  0  0  0  0  # atno 8008 bound_to 7997
  154.7553  140.0477  157.0950 H   0  0  0  0  0  0  0  0  0  0  0  0  # atno 8009 bound_to 7997
  155.0059  140.3107  155.4852 H   0  0  0  0  0  0  0  0  0  0  0  0  # atno 8010 bound_to 7997
  140.2674  143.3366  152.0567 H   0  0  0  0  0  0  0  0  0  0  0  0  # atno 10167 bound_to 10162
  156.4033  130.7945  151.2157 H   0  0  0  0  0  0  0  0  0  0  0  0  # atno 10718 bound_to 10713
  153.7555  135.6923  153.4936 H   0  0  0  0  0  0  0  0  0  0  0  0  # atno 10763 bound_to 10752
  153.1974  135.4449  155.0223 H   0  0  0  0  0  0  0  0  0  0  0  0  # atno 10764 bound_to 10752
  154.8172  135.3404  154.7073 H   0  0  0  0  0  0  0  0  0  0  0  0  # atno 10765 bound_to 10752
  140.1272  134.4753  155.8550 H   0  0  0  0  0  0  0  0  0  0  0  0  # atno 11005 bound_to 11000
  144.6871  139.9457  143.7476 LP  0  0  0  0  0  0  0  0  0  0  0  0  # atno 17320 bound_to 7965
  146.0450  139.3457  143.0674 LP  0  0  0  0  0  0  0  0  0  0  0  0  # atno 17321 bound_to 7965
  139.4998  144.6679  151.6313 LP  0  0  0  0  0  0  0  0  0  0  0  0  # atno 17342 bound_to 10162
  140.5917  143.9768  150.6329 LP  0  0  0  0  0  0  0  0  0  0  0  0  # atno 17343 bound_to 10162
  157.7504  131.0280  150.4030 LP  0  0  0  0  0  0  0  0  0  0  0  0  # atno 17370 bound_to 10713
  156.4314  130.3973  149.6758 LP  0  0  0  0  0  0  0  0  0  0  0  0  # atno 17371 bound_to 10713
  141.2163  133.6782  156.7000 LP  0  0  0  0  0  0  0  0  0  0  0  0  # atno 17394 bound_to 11000
  140.2889  134.8257  157.3999 LP  0  0  0  0  0  0  0  0  0  0  0  0  # atno 17395 bound_to 11000

$$$$
