AV-unprocessed.smi:1802|AV-procd|sdf|7274|dock9
  -GOLD-   22720 8533D 1   1.00000     0.00000
 Structure written by MMmdl.
 41 42  0  0  0  0  0  0  0  0  2 V2000
  143.3005  132.5006  149.0124 C   0  0  0  0  0  0  0  0  0  0  0  0
  144.1061  132.9200  150.2501 C   0  0  1  0  0  0  0  0  0  0  0  0
  145.5196  132.3140  150.2318 C   0  0  0  0  0  0  0  0  0  0  0  0
  146.3103  132.7715  151.4637 C   0  0  0  0  0  0  0  0  0  0  0  0
  146.3332  134.3049  151.5642 C   0  0  0  0  0  0  0  0  0  0  0  0
  144.9546  134.8583  151.5881 N   0  3  1  0  0  0  0  0  0  0  0  0
  144.9393  136.3233  151.8291 C   0  0  0  0  0  0  0  0  0  0  0  0
  145.9970  136.7570  152.8580 C   0  0  0  0  0  0  0  0  0  0  0  0
  146.0660  138.2854  153.0132 C   0  0  0  0  0  0  0  0  0  0  0  0
  147.4430  138.7669  153.0094 N   0  0  0  0  0  0  0  0  0  0  0  0
  148.3981  138.3577  153.8573 C   0  0  0  0  0  0  0  0  0  0  0  0
  148.1999  137.5334  154.7506 O   0  0  0  0  0  0  0  0  0  0  0  0
  149.5727  138.9595  153.5997 N   0  0  0  0  0  0  0  0  0  0  0  0
  150.8135  138.7880  154.2694 C   0  0  0  0  0  0  0  0  0  0  0  0
  151.6359  139.8015  154.5832 N   0  0  0  0  0  0  0  0  0  0  0  0
  152.7805  139.3596  155.2343 N   0  0  0  0  0  0  0  0  0  0  0  0
  152.7769  138.0322  155.3853 C   0  0  0  0  0  0  0  0  0  0  0  0
  151.3749  137.1918  154.7454 S   0  0  0  0  0  0  0  0  0  0  0  0
  144.1839  134.4545  150.3813 C   0  0  0  0  0  0  0  0  0  0  0  0
  143.7672  132.8582  148.0940 H   0  0  0  0  0  0  0  0  0  0  0  0
  142.2869  132.9011  149.0491 H   0  0  0  0  0  0  0  0  0  0  0  0
  143.2216  131.4152  148.9452 H   0  0  0  0  0  0  0  0  0  0  0  0
  143.5841  132.5335  151.1268 H   0  0  0  0  0  0  0  0  0  0  0  0
  145.4647  131.2252  150.2099 H   0  0  0  0  0  0  0  0  0  0  0  0
  146.0450  132.6181  149.3254 H   0  0  0  0  0  0  0  0  0  0  0  0
  145.8623  132.3513  152.3652 H   0  0  0  0  0  0  0  0  0  0  0  0
  147.3290  132.3853  151.4162 H   0  0  0  0  0  0  0  0  0  0  0  0
  146.8642  134.5930  152.4724 H   0  0  0  0  0  0  0  0  0  0  0  0
  146.8843  134.7308  150.7241 H   0  0  0  0  0  0  0  0  0  0  0  0
  145.1542  136.8411  150.8931 H   0  0  0  0  0  0  0  0  0  0  0  0
  143.9419  136.6433  152.1345 H   0  0  0  0  0  0  0  0  0  0  0  0
  145.7886  136.3129  153.8312 H   0  0  0  0  0  0  0  0  0  0  0  0
  146.9710  136.3762  152.5473 H   0  0  0  0  0  0  0  0  0  0  0  0
  145.5003  138.7775  152.2201 H   0  0  0  0  0  0  0  0  0  0  0  0
  145.6038  138.5849  153.9540 H   0  0  0  0  0  0  0  0  0  0  0  0
  147.6881  139.4470  152.3045 H   0  0  0  0  0  0  0  0  0  0  0  0
  149.5837  139.6124  152.8301 H   0  0  0  0  0  0  0  0  0  0  0  0
  153.6060  137.5451  155.8769 H   0  0  0  0  0  0  0  0  0  0  0  0
  144.6486  134.8863  149.4929 H   0  0  0  0  0  0  0  0  0  0  0  0
  143.1727  134.8571  150.4327 H   0  0  0  0  0  0  0  0  0  0  0  0
  144.4992  134.4352  152.3843 H   0  0  0  0  0  0  0  0  0  0  0  0
  1  2  1  0  0  0  0
  1 20  1  0  0  0  0
  1 21  1  0  0  0  0
  1 22  1  0  0  0  0
  2 19  1  0  0  0  0
  2  3  1  0  0  0  0
  2 23  1  0  0  0  0
  3  4  1  0  0  0  0
  3 24  1  0  0  0  0
  3 25  1  0  0  0  0
  4  5  1  0  0  0  0
  4 26  1  0  0  0  0
  4 27  1  0  0  0  0
  5  6  1  0  0  0  0
  5 28  1  0  0  0  0
  5 29  1  0  0  0  0
  6  7  1  0  0  0  0
  6 19  1  0  0  0  0
  6 41  1  0  0  0  0
  7  8  1  0  0  0  0
  7 30  1  0  0  0  0
  7 31  1  0  0  0  0
  8  9  1  0  0  0  0
  8 32  1  0  0  0  0
  8 33  1  0  0  0  0
  9 10  1  0  0  0  0
  9 34  1  0  0  0  0
  9 35  1  0  0  0  0
 10 11  1  0  0  0  0
 10 36  1  0  0  0  0
 11 12  2  0  0  0  0
 11 13  1  0  0  0  0
 13 14  1  0  0  0  0
 13 37  1  0  0  0  0
 14 18  1  0  0  0  0
 14 15  2  0  0  0  0
 15 16  1  0  0  0  0
 16 17  2  0  0  0  0
 17 18  1  0  0  0  0
 17 38  1  0  0  0  0
 19 39  1  0  0  0  0
 19 40  1  0  0  0  0
M  CHG  1   6   1
M  END
> <s_m_source_file>
AV-unprocessed.smi

> <i_m_source_file_index>
1802

> <i_lp_mmshare_version>
43012

> <i_f3d_flags>
0

> <s_epik_input>
W0NIM11bQ0BASF0xW0NIMl1bQ0gyXVtDSDJdTihbQ0gyXTEpW0NIMl1bQ0gyXVtDSDJdW05IXUMoPU8pW05IXWMybm5bY0hdczI=

> <s_epik_cmdline>
J2VwaWtfcHl0aG9uJywgJy1waCcsICc3LjAnLCAnLXRuJywgJzgnLCAnLW1hJywgJzIwMCcsICctbWV0YWxfYmluZGluZycsICctaW1hZScsICc8aW5maWxlLm1hZT4nLCAnLW9tYWUnLCAnPG91dGZpbGUubWFlPic=

> <r_lp_tautomer_probability>
1

> <r_epik_Ionization_Penalty>
0.00272894

> <r_epik_Ionization_Penalty_Charging>
0.000288442

> <r_epik_Ionization_Penalty_Neutral>
0.0024405

> <r_epik_State_Penalty>
-0

> <r_epik_Charging_Adjusted_Penalty>
0.000288442

> <i_epik_Tot_Q>
1

> <i_epik_Tot_abs_Q>
1

> <r_epik_Metal_State_Penalty>
0.350525

> <b_epik_Metal_Only>
0

> <s_lp_Force_Field>
OPLS_2005

> <r_lp_Energy>
15.2014

> <b_lp_Chiralities_Consistent>
1

> <s_lp_Variant>
AV-unprocessed.smi:1802-4

> <Gold.Version>
5.8.1

> <Gold.Id.Protein>
6NUR|6NUR_protein|mol2

> <Gold.PLP.Fitness>
43.3663

> <Gold.PLP.PLP>
-33.3822

> <Gold.PLP.part.hbond>
-4.9919

> <Gold.PLP.part.metal>
0.0000

> <Gold.PLP.part.buried>
0.4836

> <Gold.PLP.part.nonpolar>
-29.3511

> <Gold.PLP.part.repulsive>
0.3580

> <Gold.PLP.ligand.clash>
0.0000

> <Gold.PLP.ligand.torsion>
0.8235

> <Gold.PLP.Chemscore.Hbond>
3.8640

> <Gold.PLP.Chemscore.CHOScore>
0.0000

> <Gold.PLP.Chemscore.Metal>
0.0000

> <Gold.Chemscore.Hbonds>
donor molecule, donor type, donor heavy atom, donor atom, acceptor molecule, acceptor atom, score
      L1  H    10    36       P1  7957  0.26
      L1  H    13    37       P1  7957  1.00
      P1  H  7989  7998       L1    15  0.96
      P1  H  7997  8009       L1    16  1.00

> <Gold.PLP.Chemscore.Internal.Correction>
0.0390

> <Gold.Rescore>
     Score         DG    S(hbond)    S(metal)    S(lipo)     H(rot)  DE(clash)    DE(int)     intcor
     16.76     -19.81       3.21        0.00      74.11       1.98       1.45       1.60       ----

> <Gold.Chemscore.Fitness>
16.7571

> <Gold.Chemscore.DG>
-19.8121

> <Gold.Chemscore.ZeroCoef>
-5.4800

> <Gold.Chemscore.Hbond>
3.2119

> <Gold.Chemscore.Metal>
0.0000

> <Gold.Chemscore.Lipo>
74.1135

> <Gold.Chemscore.Internal_Hbond>
0.0000

> <Gold.Chemscore.DEClash>
1.4529

> <Gold.Chemscore.DEInternal>
1.6021

> <Gold.Chemscore.Rot>
1.9793

> <Gold.Chemscore.Internal.Correction>
   9.000000E+99

> <Gold.Chemscore.Hbonds>
donor molecule, donor type, donor heavy atom, donor atom, acceptor molecule, acceptor atom, score
      L1  H    10    36       P1  7957  0.26
      L1  H    13    37       P1  7957  0.98
      P1  H  7989  7998       L1    15  0.74
      P1  H  7997  8009       L1    16  0.77

> <Gold.Chemscore.Hbond.Weighted>
-10.7278

> <Gold.Chemscore.Metal.Weighted>
-0.0000

> <Gold.Chemscore.Lipo.Weighted>
-8.6713

> <Gold.Chemscore.Internal_Hbond.Weighted>
0.0000

> <Gold.Chemscore.DEClash.Weighted>
1.4529

> <Gold.Chemscore.DEInternal.Weighted>
1.6021

> <Gold.Chemscore.Rot.Weighted>
5.0670

> <Gold.Chemscore.Internal.Correction.Weighted>
   9.000000E+99

> <Gold.Protein.RotatedTorsions>
[ 6907 6896 6895 6894 ] final  -51.98 input  -60.11 | X-H torsion
[ 7974 7965 7964 7962 ] final -105.95 input  175.53 | X-H torsion
[ 8008 7997 7996 7995 ] final -144.92 input   59.86 | X-H torsion
[ 10167 10162 10161 10158 ] final   97.64 input  -65.29 | X-H torsion
[ 10718 10713 10712 10709 ] final  122.47 input   66.30 | X-H torsion
[ 10763 10752 10751 10750 ] final  167.59 input  -60.55 | X-H torsion
[ 11005 11000 10999 10996 ] final  121.20 input  -57.11 | X-H torsion

> <Gold.Protein.ActiveResidues>
 VAL166  LYS551  ARG553  GLY616  TRP617  ASP618  TYR619  PRO620  LYS621  CYS622 
 ASP623  PHE694  ASN695  SER759  ASP760  ASP761  ALA762  ILE779  LEU786  VAL792 
 PHE793  MET794  SER795  GLU796  ALA797  LYS798  CYS799  TRP800  GLU811  SER814 

> <Gold.Protein.RotatedAtoms>
  150.8560  134.7899  159.7045 H   0  0  0  0  0  0  0  0  0  0  0  0  # atno 6907 bound_to 6896
  152.4611  134.5177  159.9783 H   0  0  0  0  0  0  0  0  0  0  0  0  # atno 6908 bound_to 6896
  151.5290  133.3414  159.2950 H   0  0  0  0  0  0  0  0  0  0  0  0  # atno 6909 bound_to 6896
  145.2240  140.9145  143.3243 H   0  0  0  0  0  0  0  0  0  0  0  0  # atno 7974 bound_to 7965
  155.5347  140.0603  157.2882 H   0  0  0  0  0  0  0  0  0  0  0  0  # atno 8008 bound_to 7997
  154.4472  140.1929  156.0574 H   0  0  0  0  0  0  0  0  0  0  0  0  # atno 8009 bound_to 7997
  156.0627  140.3270  155.7485 H   0  0  0  0  0  0  0  0  0  0  0  0  # atno 8010 bound_to 7997
  139.7782  144.6898  151.0060 H   0  0  0  0  0  0  0  0  0  0  0  0  # atno 10167 bound_to 10162
  157.5739  131.1081  150.8315 H   0  0  0  0  0  0  0  0  0  0  0  0  # atno 10718 bound_to 10713
  154.3560  135.2753  155.2346 H   0  0  0  0  0  0  0  0  0  0  0  0  # atno 10763 bound_to 10752
  154.4555  135.5920  153.6223 H   0  0  0  0  0  0  0  0  0  0  0  0  # atno 10764 bound_to 10752
  152.9846  135.6052  154.3776 H   0  0  0  0  0  0  0  0  0  0  0  0  # atno 10765 bound_to 10752
  139.9216  134.9638  156.7922 H   0  0  0  0  0  0  0  0  0  0  0  0  # atno 11005 bound_to 11000
  144.9738  139.3852  143.6295 LP  0  0  0  0  0  0  0  0  0  0  0  0  # atno 17320 bound_to 7965
  146.3369  139.8848  142.8818 LP  0  0  0  0  0  0  0  0  0  0  0  0  # atno 17321 bound_to 7965
  140.7817  143.4512  151.0410 LP  0  0  0  0  0  0  0  0  0  0  0  0  # atno 17342 bound_to 10162
  139.8194  143.7841  152.3176 LP  0  0  0  0  0  0  0  0  0  0  0  0  # atno 17343 bound_to 10162
  156.8779  130.5169  149.5292 LP  0  0  0  0  0  0  0  0  0  0  0  0  # atno 17370 bound_to 10713
  156.0784  130.5801  150.9517 LP  0  0  0  0  0  0  0  0  0  0  0  0  # atno 17371 bound_to 10713
  140.6457  133.9777  155.7730 LP  0  0  0  0  0  0  0  0  0  0  0  0  # atno 17394 bound_to 11000
  141.0741  134.0161  157.3483 LP  0  0  0  0  0  0  0  0  0  0  0  0  # atno 17395 bound_to 11000

$$$$
