AV-unprocessed.smi:39|AV-procd|sdf|359|dock10
  -GOLD-   2262016203D 1   1.00000     0.00000
 Structure written by MMmdl.
 31 32  0  0  0  0  0  0  0  0  4 V2000
  150.6599  143.5002  158.3079 C   0  0  0  0  0  0  0  0  0  0  0  0
  151.0305  142.2284  157.5651 C   0  0  0  0  0  0  0  0  0  0  0  0
  150.4119  141.8536  156.4235 C   0  0  0  0  0  0  0  0  0  0  0  0
  150.7498  140.6915  155.7515 N   0  0  0  0  0  0  0  0  0  0  0  0
  150.0326  140.2861  154.4808 C   0  0  1  0  0  0  0  0  0  0  0  0
  149.0271  139.1687  154.7721 C   0  0  0  0  0  0  0  0  0  0  0  0
  147.7350  139.9488  154.9245 C   0  0  2  0  0  0  0  0  0  0  0  0
  146.5446  139.1337  154.6720 N   0  0  0  0  0  0  0  0  0  0  0  0
  145.7173  139.0695  155.5906 N   0  3  0  0  0  0  0  0  0  0  0  0
  145.0533  139.0004  156.5122 N   0  5  0  0  0  0  0  0  0  0  0  0
  147.9278  141.0490  153.8777 C   0  0  1  0  0  0  0  0  0  0  0  0
  147.0660  142.2958  154.1321 C   0  0  0  0  0  0  0  0  0  0  0  0
  147.1163  142.6521  155.4971 O   0  0  0  0  0  0  0  0  0  0  0  0
  149.3113  141.3792  153.9883 O   0  0  0  0  0  0  0  0  0  0  0  0
  151.7593  139.8452  156.2806 C   0  0  0  0  0  0  0  0  0  0  0  0
  152.0131  138.8004  155.6807 O   0  0  0  0  0  0  0  0  0  0  0  0
  152.3945  140.2190  157.4278 N   0  5  0  0  0  0  0  0  0  0  0  0
  152.0915  141.3667  158.0995 C   0  0  0  0  0  0  0  0  0  0  0  0
  152.6764  141.6946  159.1314 O   0  0  0  0  0  0  0  0  0  0  0  0
  150.8082  140.0094  153.7650 H   0  0  0  0  0  0  0  0  0  0  0  0
  147.6994  140.4011  155.9179 H   0  0  0  0  0  0  0  0  0  0  0  0
  147.7412  140.6393  152.8829 H   0  0  0  0  0  0  0  0  0  0  0  0
  149.8643  144.0412  157.7952 H   0  0  0  0  0  0  0  0  0  0  0  0
  151.5233  144.1615  158.3854 H   0  0  0  0  0  0  0  0  0  0  0  0
  150.3141  143.2651  159.3149 H   0  0  0  0  0  0  0  0  0  0  0  0
  149.6270  142.4834  156.0344 H   0  0  0  0  0  0  0  0  0  0  0  0
  148.9872  138.5070  153.9056 H   0  0  0  0  0  0  0  0  0  0  0  0
  149.2984  138.5826  155.6512 H   0  0  0  0  0  0  0  0  0  0  0  0
  147.4513  143.1413  153.5618 H   0  0  0  0  0  0  0  0  0  0  0  0
  146.0341  142.1385  153.8179 H   0  0  0  0  0  0  0  0  0  0  0  0
  147.8394  143.2466  155.6257 H   0  0  0  0  0  0  0  0  0  0  0  0
  1  2  1  0  0  0  0
  1 23  1  0  0  0  0
  1 24  1  0  0  0  0
  1 25  1  0  0  0  0
  2 18  1  0  0  0  0
  2  3  2  0  0  0  0
  3  4  1  0  0  0  0
  3 26  1  0  0  0  0
  4  5  1  0  0  0  0
  4 15  1  0  0  0  0
  5 20  1  0  0  0  0
  5 14  1  0  0  0  0
  5  6  1  0  0  0  0
  6  7  1  0  0  0  0
  6 27  1  0  0  0  0
  6 28  1  0  0  0  0
  7 21  1  0  0  0  0
  7  8  1  0  0  0  0
  7 11  1  0  0  0  0
  8  9  2  0  0  0  0
  9 10  2  0  0  0  0
 11 22  1  0  0  0  0
 11 12  1  0  0  0  0
 11 14  1  0  0  0  0
 12 13  1  0  0  0  0
 12 29  1  0  0  0  0
 12 30  1  0  0  0  0
 13 31  1  0  0  0  0
 15 16  2  0  0  0  0
 15 17  1  0  0  0  0
 17 18  1  0  0  0  0
 18 19  2  0  0  0  0
M  CHG  1   9   1
M  CHG  1  10  -1
M  CHG  1  17  -1
M  END
> <s_m_source_file>
AV-unprocessed.smi

> <i_m_source_file_index>
39

> <i_lp_mmshare_version>
43012

> <i_f3d_flags>
0

> <s_epik_input>
Tz1jMVtuSF1jKD1PKW4oW2NIXWMxW0NIM10pW0NASF0yW0NIMl1bQ0BIXShOPVtOK109W04tXSlbQ0BIXShPMilbQ0gyXVtPSF0=

> <s_epik_cmdline>
J2VwaWtfcHl0aG9uJywgJy1waCcsICc3LjAnLCAnLXRuJywgJzgnLCAnLW1hJywgJzIwMCcsICctbWV0YWxfYmluZGluZycsICctaW1hZScsICc8aW5maWxlLm1hZT4nLCAnLW9tYWUnLCAnPG91dGZpbGUubWFlPic=

> <r_lp_tautomer_probability>
0.999537

> <r_epik_Ionization_Penalty>
3.6393

> <r_epik_Ionization_Penalty_Charging>
9.76484e-08

> <r_epik_Ionization_Penalty_Neutral>
3.6393

> <r_epik_State_Penalty>
3.63887

> <r_epik_Charging_Adjusted_Penalty>
3.63887

> <i_epik_Tot_Q>
-1

> <i_epik_Tot_abs_Q>
3

> <r_epik_Metal_State_Penalty>
0.225911

> <b_epik_Metal_Only>
1

> <s_epik_Chemistry_Notes>
This compound contains an acetal/aminal-like group ( X-CH(R)-Y where X, Y are N, S, or O) that may be acid/base labile, releasing an aldehyde.

> <s_lp_Force_Field>
OPLS_2005

> <r_lp_Energy>
34.0218

> <b_lp_Chiralities_Consistent>
1

> <s_lp_Variant>
AV-unprocessed.smi:39-9

> <Gold.Version>
5.8.1

> <Gold.Id.Protein>
6NUR|6NUR_protein|mol2

> <Gold.PLP.Fitness>
41.7853

> <Gold.PLP.PLP>
-28.4461

> <Gold.PLP.part.hbond>
-4.0000

> <Gold.PLP.part.metal>
0.0000

> <Gold.PLP.part.buried>
-0.0780

> <Gold.PLP.part.nonpolar>
-23.7532

> <Gold.PLP.part.repulsive>
0.6183

> <Gold.PLP.ligand.clash>
0.0000

> <Gold.PLP.ligand.torsion>
0.4750

> <Gold.PLP.Chemscore.Hbond>
3.7520

> <Gold.PLP.Chemscore.CHOScore>
1.0000

> <Gold.PLP.Chemscore.Metal>
0.0000

> <Gold.Chemscore.Hbonds>
donor molecule, donor type, donor heavy atom, donor atom, acceptor molecule, acceptor atom, score
      L1  H    13    31       P1  8028  1.00
      P1  H  7997  8008       L1    17  1.20
      P1  H  8011  8017       L1    14  0.75
      L1  C     3    26       P1  8028  1.00

> <Gold.PLP.Chemscore.Internal.Correction>
0.0333

> <Gold.Rescore>
     Score         DG    S(hbond)    S(metal)    S(lipo)     H(rot)  DE(clash)    DE(int)     intcor
      6.94      -7.88       1.20        0.00      45.81       2.72       0.56       0.39       ----

> <Gold.Chemscore.Fitness>
6.9356

> <Gold.Chemscore.DG>
-7.8850

> <Gold.Chemscore.ZeroCoef>
-5.4800

> <Gold.Chemscore.Hbond>
1.1966

> <Gold.Chemscore.Metal>
0.0000

> <Gold.Chemscore.Lipo>
45.8073

> <Gold.Chemscore.Internal_Hbond>
0.0000

> <Gold.Chemscore.DEClash>
0.5603

> <Gold.Chemscore.DEInternal>
0.3890

> <Gold.Chemscore.Rot>
2.7153

> <Gold.Chemscore.Internal.Correction>
   9.000000E+99

> <Gold.Chemscore.Hbonds>
donor molecule, donor type, donor heavy atom, donor atom, acceptor molecule, acceptor atom, score
      L1  H    13    31       P1  8028  0.40
      P1  H  7997  8008       L1    17  0.08
      P1  H  8011  8017       L1    14  0.42

> <Gold.Chemscore.Hbond.Weighted>
-3.9967

> <Gold.Chemscore.Metal.Weighted>
-0.0000

> <Gold.Chemscore.Lipo.Weighted>
-5.3595

> <Gold.Chemscore.Internal_Hbond.Weighted>
0.0000

> <Gold.Chemscore.DEClash.Weighted>
0.5603

> <Gold.Chemscore.DEInternal.Weighted>
0.3890

> <Gold.Chemscore.Rot.Weighted>
6.9512

> <Gold.Chemscore.Internal.Correction.Weighted>
   9.000000E+99

> <Gold.Protein.RotatedTorsions>
[ 6907 6896 6895 6894 ] final -142.70 input  -60.11 | X-H torsion
[ 7974 7965 7964 7962 ] final -117.64 input  175.53 | X-H torsion
[ 8008 7997 7996 7995 ] final  -58.35 input   59.86 | X-H torsion
[ 10167 10162 10161 10158 ] final   20.63 input  -65.29 | X-H torsion
[ 10718 10713 10712 10709 ] final -106.36 input   66.30 | X-H torsion
[ 10763 10752 10751 10750 ] final -145.68 input  -60.55 | X-H torsion
[ 11005 11000 10999 10996 ] final   -1.87 input  -57.11 | X-H torsion

> <Gold.Protein.ActiveResidues>
 VAL166  LYS551  ARG553  GLY616  TRP617  ASP618  TYR619  PRO620  LYS621  CYS622 
 ASP623  PHE694  ASN695  SER759  ASP760  ASP761  ALA762  ILE779  LEU786  VAL792 
 PHE793  MET794  SER795  GLU796  ALA797  LYS798  CYS799  TRP800  GLU811  SER814 

> <Gold.Protein.RotatedAtoms>
  151.0905  133.5319  159.2614 H   0  0  0  0  0  0  0  0  0  0  0  0  # atno 6907 bound_to 6896
  151.2188  135.0510  159.8951 H   0  0  0  0  0  0  0  0  0  0  0  0  # atno 6908 bound_to 6896
  152.5433  134.0711  159.8248 H   0  0  0  0  0  0  0  0  0  0  0  0  # atno 6909 bound_to 6896
  145.0829  140.8438  143.4028 H   0  0  0  0  0  0  0  0  0  0  0  0  # atno 7974 bound_to 7965
  154.4305  140.1086  156.5942 H   0  0  0  0  0  0  0  0  0  0  0  0  # atno 8008 bound_to 7997
  155.5980  140.3493  155.4566 H   0  0  0  0  0  0  0  0  0  0  0  0  # atno 8009 bound_to 7997
  156.0196  140.1236  157.0361 H   0  0  0  0  0  0  0  0  0  0  0  0  # atno 8010 bound_to 7997
  140.5489  143.9545  150.6565 H   0  0  0  0  0  0  0  0  0  0  0  0  # atno 10167 bound_to 10162
  156.0387  130.5609  150.7670 H   0  0  0  0  0  0  0  0  0  0  0  0  # atno 10718 bound_to 10713
  154.8372  135.3406  154.6542 H   0  0  0  0  0  0  0  0  0  0  0  0  # atno 10763 bound_to 10752
  153.7156  135.6961  153.5030 H   0  0  0  0  0  0  0  0  0  0  0  0  # atno 10764 bound_to 10752
  153.2419  135.4382  155.0660 H   0  0  0  0  0  0  0  0  0  0  0  0  # atno 10765 bound_to 10752
  140.6521  133.9395  155.8386 H   0  0  0  0  0  0  0  0  0  0  0  0  # atno 11005 bound_to 11000
  145.1156  139.2727  143.5615 LP  0  0  0  0  0  0  0  0  0  0  0  0  # atno 17320 bound_to 7965
  146.3531  140.0765  142.8620 LP  0  0  0  0  0  0  0  0  0  0  0  0  # atno 17321 bound_to 7965
  140.2965  143.3289  152.1013 LP  0  0  0  0  0  0  0  0  0  0  0  0  # atno 17342 bound_to 10162
  139.5019  144.6723  151.6213 LP  0  0  0  0  0  0  0  0  0  0  0  0  # atno 17343 bound_to 10162
  157.5174  131.0929  151.0121 LP  0  0  0  0  0  0  0  0  0  0  0  0  # atno 17370 bound_to 10713
  157.0461  130.5768  149.5363 LP  0  0  0  0  0  0  0  0  0  0  0  0  # atno 17371 bound_to 10713
  141.0529  134.0459  157.3760 LP  0  0  0  0  0  0  0  0  0  0  0  0  # atno 17394 bound_to 11000
  139.9042  135.0174  156.7410 LP  0  0  0  0  0  0  0  0  0  0  0  0  # atno 17395 bound_to 11000

$$$$
