AV-unprocessed.smi:1301|AV-procd|sdf|5423|dock5
  -GOLD-   22720 4583D 1   1.00000     0.00000
 Structure written by MMmdl.
 44 45  0  0  0  0  0  0  0  0  3 V2000
  152.6819  140.0182  159.2915 C   0  0  0  0  0  0  0  0  0  0  0  0
  152.1190  140.0519  157.9117 C   0  0  0  0  0  0  0  0  0  0  0  0
  151.0700  140.7272  157.3553 C   0  0  0  0  0  0  0  0  0  0  0  0
  151.0942  140.3041  155.9983 C   0  0  0  0  0  0  0  0  0  0  0  0
  150.2377  140.6875  155.0391 N   0  5  0  0  0  0  0  0  0  0  0  0
  149.4527  139.7748  154.4229 C   0  0  0  0  0  0  0  0  0  0  0  0
  149.7915  138.6489  154.0509 O   0  0  0  0  0  0  0  0  0  0  0  0
  148.1946  140.1940  154.2261 N   0  0  0  0  0  0  0  0  0  0  0  0
  147.1262  139.4308  153.5884 C   0  0  2  0  0  0  0  0  0  0  0  0
  147.0708  138.0171  154.1874 C   0  0  0  0  0  0  0  0  0  0  0  0
  146.0201  137.1520  153.4732 C   0  0  0  0  0  0  0  0  0  0  0  0
  146.2808  137.0860  152.0121 N   0  3  1  0  0  0  0  0  0  0  0  0
  145.3673  136.1393  151.3213 C   0  0  0  0  0  0  0  0  0  0  0  0
  145.3832  134.7211  151.9329 C   0  0  0  0  0  0  0  0  0  0  0  0
  146.5902  133.9251  151.4149 C   0  0  0  0  0  0  0  0  0  0  0  0
  144.0777  133.9584  151.6508 C   0  0  0  0  0  0  0  0  0  0  0  0
  146.2968  138.4424  151.4026 C   0  0  0  0  0  0  0  0  0  0  0  0
  147.3538  139.3373  152.0690 C   0  0  0  0  0  0  0  0  0  0  0  0
  152.0624  139.4360  155.7562 N   0  0  0  0  0  0  0  0  0  0  0  0
  152.7290  139.2743  156.9767 O   0  0  0  0  0  0  0  0  0  0  0  0
  151.9096  139.7615  160.0165 H   0  0  0  0  0  0  0  0  0  0  0  0
  153.0912  140.9911  159.5638 H   0  0  0  0  0  0  0  0  0  0  0  0
  153.4806  139.2806  159.3739 H   0  0  0  0  0  0  0  0  0  0  0  0
  150.3942  141.4163  157.8393 H   0  0  0  0  0  0  0  0  0  0  0  0
  147.9647  141.1231  154.5471 H   0  0  0  0  0  0  0  0  0  0  0  0
  146.1694  139.9210  153.7787 H   0  0  0  0  0  0  0  0  0  0  0  0
  148.0486  137.5396  154.1050 H   0  0  0  0  0  0  0  0  0  0  0  0
  146.8419  138.0711  155.2524 H   0  0  0  0  0  0  0  0  0  0  0  0
  146.0408  136.1478  153.8980 H   0  0  0  0  0  0  0  0  0  0  0  0
  145.0197  137.5511  153.6486 H   0  0  0  0  0  0  0  0  0  0  0  0
  144.3451  136.5172  151.3719 H   0  0  0  0  0  0  0  0  0  0  0  0
  145.6241  136.1049  150.2613 H   0  0  0  0  0  0  0  0  0  0  0  0
  145.5003  134.7962  153.0133 H   0  0  0  0  0  0  0  0  0  0  0  0
  146.5431  133.7896  150.3338 H   0  0  0  0  0  0  0  0  0  0  0  0
  146.6348  132.9360  151.8720 H   0  0  0  0  0  0  0  0  0  0  0  0
  147.5264  134.4343  151.6460 H   0  0  0  0  0  0  0  0  0  0  0  0
  143.9022  133.8530  150.5796 H   0  0  0  0  0  0  0  0  0  0  0  0
  143.2155  134.4680  152.0814 H   0  0  0  0  0  0  0  0  0  0  0  0
  144.1092  132.9567  152.0807 H   0  0  0  0  0  0  0  0  0  0  0  0
  146.5136  138.3803  150.3371 H   0  0  0  0  0  0  0  0  0  0  0  0
  145.3097  138.8979  151.4966 H   0  0  0  0  0  0  0  0  0  0  0  0
  147.3258  140.3314  151.6212 H   0  0  0  0  0  0  0  0  0  0  0  0
  148.3485  138.9363  151.8670 H   0  0  0  0  0  0  0  0  0  0  0  0
  147.2118  136.7072  151.9120 H   0  0  0  0  0  0  0  0  0  0  0  0
  1  2  1  0  0  0  0
  1 21  1  0  0  0  0
  1 22  1  0  0  0  0
  1 23  1  0  0  0  0
  2 20  1  0  0  0  0
  2  3  2  0  0  0  0
  3  4  1  0  0  0  0
  3 24  1  0  0  0  0
  4  5  1  0  0  0  0
  4 19  2  0  0  0  0
  5  6  1  0  0  0  0
  6  7  2  0  0  0  0
  6  8  1  0  0  0  0
  8  9  1  0  0  0  0
  8 25  1  0  0  0  0
  9 18  1  0  0  0  0
  9 10  1  0  0  0  0
  9 26  1  0  0  0  0
 10 11  1  0  0  0  0
 10 27  1  0  0  0  0
 10 28  1  0  0  0  0
 11 12  1  0  0  0  0
 11 29  1  0  0  0  0
 11 30  1  0  0  0  0
 12 13  1  0  0  0  0
 12 17  1  0  0  0  0
 12 44  1  0  0  0  0
 13 14  1  0  0  0  0
 13 31  1  0  0  0  0
 13 32  1  0  0  0  0
 14 15  1  0  0  0  0
 14 16  1  0  0  0  0
 14 33  1  0  0  0  0
 15 34  1  0  0  0  0
 15 35  1  0  0  0  0
 15 36  1  0  0  0  0
 16 37  1  0  0  0  0
 16 38  1  0  0  0  0
 16 39  1  0  0  0  0
 17 18  1  0  0  0  0
 17 40  1  0  0  0  0
 17 41  1  0  0  0  0
 18 42  1  0  0  0  0
 18 43  1  0  0  0  0
 19 20  1  0  0  0  0
M  CHG  1   5  -1
M  CHG  1  12   1
M  END
> <s_m_source_file>
AV-unprocessed.smi

> <i_m_source_file_index>
1301

> <i_lp_mmshare_version>
43012

> <i_f3d_flags>
0

> <s_epik_input>
W0NIM11jMVtjSF1jKG5vMSlbTkhdQyg9TylbTkhdW0NIXTJbQ0gyXVtDSDJdTihbQ0gyXVtDSDJdMilbQ0gyXVtDSF0oW0NIM10pW0NIM10=

> <s_epik_cmdline>
J2VwaWtfcHl0aG9uJywgJy1waCcsICc3LjAnLCAnLXRuJywgJzgnLCAnLW1hJywgJzIwMCcsICctbWV0YWxfYmluZGluZycsICctaW1hZScsICc8aW5maWxlLm1hZT4nLCAnLW9tYWUnLCAnPG91dGZpbGUubWFlPic=

> <r_epik_Ionization_Penalty>
6.28597

> <r_epik_Ionization_Penalty_Charging>
6.28587

> <r_epik_Ionization_Penalty_Neutral>
9.69304e-05

> <r_epik_State_Penalty>
6.28524

> <r_epik_Charging_Adjusted_Penalty>
12.5711

> <i_epik_Tot_Q>
0

> <i_epik_Tot_abs_Q>
2

> <r_epik_Metal_State_Penalty>
2.21973

> <b_epik_Metal_Only>
1

> <s_lp_Force_Field>
OPLS_2005

> <r_lp_Energy>
7.73982

> <b_lp_Chiralities_Consistent>
1

> <s_lp_Variant>
AV-unprocessed.smi:1301-3

> <Gold.Version>
5.8.1

> <Gold.Id.Protein>
6NUR|6NUR_protein|mol2

> <Gold.PLP.Fitness>
38.8730

> <Gold.PLP.PLP>
-30.3363

> <Gold.PLP.part.hbond>
-3.1265

> <Gold.PLP.part.metal>
0.0000

> <Gold.PLP.part.buried>
0.4326

> <Gold.PLP.part.nonpolar>
-29.0971

> <Gold.PLP.part.repulsive>
0.4711

> <Gold.PLP.ligand.clash>
0.0000

> <Gold.PLP.ligand.torsion>
1.2877

> <Gold.PLP.Chemscore.Hbond>
3.6869

> <Gold.PLP.Chemscore.CHOScore>
0.0000

> <Gold.PLP.Chemscore.Metal>
0.0000

> <Gold.Chemscore.Hbonds>
donor molecule, donor type, donor heavy atom, donor atom, acceptor molecule, acceptor atom, score
      L1  H    12    44       P1  7948  2.00
      P1  H  7989  7998       L1     5  0.59
      P1  H  7997  8009       L1    20  0.95

> <Gold.PLP.Chemscore.Internal.Correction>
0.0515

> <Gold.Rescore>
     Score         DG    S(hbond)    S(metal)    S(lipo)     H(rot)  DE(clash)    DE(int)     intcor
     11.50     -16.46       1.90        0.00      70.47       1.41       2.19       2.77       ----

> <Gold.Chemscore.Fitness>
11.4984

> <Gold.Chemscore.DG>
-16.4614

> <Gold.Chemscore.ZeroCoef>
-5.4800

> <Gold.Chemscore.Hbond>
1.8971

> <Gold.Chemscore.Metal>
0.0000

> <Gold.Chemscore.Lipo>
70.4722

> <Gold.Chemscore.Internal_Hbond>
0.0000

> <Gold.Chemscore.DEClash>
2.1943

> <Gold.Chemscore.DEInternal>
2.7686

> <Gold.Chemscore.Rot>
1.4063

> <Gold.Chemscore.Internal.Correction>
   9.000000E+99

> <Gold.Chemscore.Hbonds>
donor molecule, donor type, donor heavy atom, donor atom, acceptor molecule, acceptor atom, score
      L1  H    12    44       P1  7948  1.00
      P1  H  7989  7998       L1     5  0.02
      P1  H  7997  8009       L1    20  0.13

> <Gold.Chemscore.Hbond.Weighted>
-6.3363

> <Gold.Chemscore.Metal.Weighted>
-0.0000

> <Gold.Chemscore.Lipo.Weighted>
-8.2452

> <Gold.Chemscore.Internal_Hbond.Weighted>
0.0000

> <Gold.Chemscore.DEClash.Weighted>
2.1943

> <Gold.Chemscore.DEInternal.Weighted>
2.7686

> <Gold.Chemscore.Rot.Weighted>
3.6002

> <Gold.Chemscore.Internal.Correction.Weighted>
   9.000000E+99

> <Gold.Protein.RotatedTorsions>
[ 6907 6896 6895 6894 ] final  -25.28 input  -60.11 | X-H torsion
[ 7974 7965 7964 7962 ] final   64.70 input  175.53 | X-H torsion
[ 8008 7997 7996 7995 ] final -174.10 input   59.86 | X-H torsion
[ 10167 10162 10161 10158 ] final  134.97 input  -65.29 | X-H torsion
[ 10718 10713 10712 10709 ] final   39.06 input   66.30 | X-H torsion
[ 10763 10752 10751 10750 ] final  -76.58 input  -60.55 | X-H torsion
[ 11005 11000 10999 10996 ] final -109.46 input  -57.11 | X-H torsion

> <Gold.Protein.ActiveResidues>
 VAL166  LYS551  ARG553  GLY616  TRP617  ASP618  TYR619  PRO620  LYS621  CYS622 
 ASP623  PHE694  ASN695  SER759  ASP760  ASP761  ALA762  ILE779  LEU786  VAL792 
 PHE793  MET794  SER795  GLU796  ALA797  LYS798  CYS799  TRP800  GLU811  SER814 

> <Gold.Protein.RotatedAtoms>
  151.1775  135.0346  159.8777 H   0  0  0  0  0  0  0  0  0  0  0  0  # atno 6907 bound_to 6896
  152.5446  134.1101  159.8365 H   0  0  0  0  0  0  0  0  0  0  0  0  # atno 6908 bound_to 6896
  151.1214  133.5055  159.2634 H   0  0  0  0  0  0  0  0  0  0  0  0  # atno 6909 bound_to 6896
  145.8471  139.3231  143.0897 H   0  0  0  0  0  0  0  0  0  0  0  0  # atno 7974 bound_to 7965
  155.9658  140.1153  157.0856 H   0  0  0  0  0  0  0  0  0  0  0  0  # atno 8008 bound_to 7997
  154.4143  140.1173  156.5307 H   0  0  0  0  0  0  0  0  0  0  0  0  # atno 8009 bound_to 7997
  155.6661  140.3473  155.4803 H   0  0  0  0  0  0  0  0  0  0  0  0  # atno 8010 bound_to 7997
  139.5235  144.6541  151.5215 H   0  0  0  0  0  0  0  0  0  0  0  0  # atno 10167 bound_to 10162
  157.3662  130.7676  149.7084 H   0  0  0  0  0  0  0  0  0  0  0  0  # atno 10718 bound_to 10713
  154.5017  135.5793  153.6536 H   0  0  0  0  0  0  0  0  0  0  0  0  # atno 10763 bound_to 10752
  152.9880  135.6137  154.2994 H   0  0  0  0  0  0  0  0  0  0  0  0  # atno 10764 bound_to 10752
  154.2902  135.2849  155.2638 H   0  0  0  0  0  0  0  0  0  0  0  0  # atno 10765 bound_to 10752
  141.0846  133.9161  157.2214 H   0  0  0  0  0  0  0  0  0  0  0  0  # atno 11005 bound_to 11000
  145.9400  140.8987  143.0313 LP  0  0  0  0  0  0  0  0  0  0  0  0  # atno 17320 bound_to 7965
  144.6730  140.1535  143.7428 LP  0  0  0  0  0  0  0  0  0  0  0  0  # atno 17321 bound_to 7965
  140.6358  143.8986  150.6646 LP  0  0  0  0  0  0  0  0  0  0  0  0  # atno 17342 bound_to 10162
  140.2305  143.3739  152.1570 LP  0  0  0  0  0  0  0  0  0  0  0  0  # atno 17343 bound_to 10162
  155.9746  130.4100  150.3907 LP  0  0  0  0  0  0  0  0  0  0  0  0  # atno 17370 bound_to 10713
  157.1992  131.0434  151.2659 LP  0  0  0  0  0  0  0  0  0  0  0  0  # atno 17371 bound_to 10713
  139.9663  135.0141  156.9395 LP  0  0  0  0  0  0  0  0  0  0  0  0  # atno 17394 bound_to 11000
  140.5392  134.0737  155.7336 LP  0  0  0  0  0  0  0  0  0  0  0  0  # atno 17395 bound_to 11000

$$$$
