AV-unprocessed.smi:2187|AV-procd|sdf|8879|dock2
  -GOLD-   2272012 83D 1   1.00000     0.00000
 Structure written by MMmdl.
 42 43  0  0  0  0  0  0  0  0  1 V2000
  152.2583  139.3300  157.1137 C   0  0  0  0  0  0  0  0  0  0  0  0
  152.5640  140.3248  158.1969 C   0  0  0  0  0  0  0  0  0  0  0  0
  153.4454  140.0115  159.1320 N   0  0  0  0  0  0  0  0  0  0  0  0
  153.5020  141.0971  159.9293 N   0  0  0  0  0  0  0  0  0  0  0  0
  154.3920  141.0919  161.0740 C   0  0  0  0  0  0  0  0  0  0  0  0
  152.6578  142.1002  159.4946 C   0  0  0  0  0  0  0  0  0  0  0  0
  152.5459  143.4114  160.2036 C   0  0  0  0  0  0  0  0  0  0  0  0
  152.0269  141.6348  158.3718 C   0  0  0  0  0  0  0  0  0  0  0  0
  151.0105  142.3357  157.5064 C   0  0  0  0  0  0  0  0  0  0  0  0
  149.9663  141.3259  157.0328 C   0  0  0  0  0  0  0  0  0  0  0  0
  149.3742  140.6215  157.8503 O   0  0  0  0  0  0  0  0  0  0  0  0
  149.7420  141.2762  155.7098 N   0  0  0  0  0  0  0  0  0  0  0  0
  148.7657  140.4138  155.0414 C   0  0  1  0  0  0  0  0  0  0  0  0
  147.8662  141.3219  154.1716 C   0  0  0  0  0  0  0  0  0  0  0  0
  146.4956  140.7065  153.8406 C   0  0  0  0  0  0  0  0  0  0  0  0
  146.5451  139.4451  152.9653 C   0  0  0  0  0  0  0  0  0  0  0  0
  147.2838  138.2661  153.6213 C   0  0  0  0  0  0  0  0  0  0  0  0
  148.7312  138.4191  153.5514 N   0  0  0  0  0  0  0  0  0  0  0  0
  149.4690  139.3752  154.1361 C   0  0  0  0  0  0  0  0  0  0  0  0
  150.6847  139.4240  153.9488 O   0  0  0  0  0  0  0  0  0  0  0  0
  152.8029  139.5713  156.2007 H   0  0  0  0  0  0  0  0  0  0  0  0
  151.1951  139.3238  156.8743 H   0  0  0  0  0  0  0  0  0  0  0  0
  152.5348  138.3168  157.4074 H   0  0  0  0  0  0  0  0  0  0  0  0
  153.8546  141.4306  161.9599 H   0  0  0  0  0  0  0  0  0  0  0  0
  155.2307  141.7627  160.8871 H   0  0  0  0  0  0  0  0  0  0  0  0
  154.7755  140.0876  161.2593 H   0  0  0  0  0  0  0  0  0  0  0  0
  152.0008  144.1400  159.6038 H   0  0  0  0  0  0  0  0  0  0  0  0
  153.5316  143.8276  160.4115 H   0  0  0  0  0  0  0  0  0  0  0  0
  152.0198  143.2939  161.1508 H   0  0  0  0  0  0  0  0  0  0  0  0
  150.5182  143.1460  158.0455 H   0  0  0  0  0  0  0  0  0  0  0  0
  151.4751  142.7982  156.6351 H   0  0  0  0  0  0  0  0  0  0  0  0
  150.2838  141.8883  155.1176 H   0  0  0  0  0  0  0  0  0  0  0  0
  148.1673  139.9060  155.8000 H   0  0  0  0  0  0  0  0  0  0  0  0
  147.6743  142.2521  154.7090 H   0  0  0  0  0  0  0  0  0  0  0  0
  148.3792  141.6171  153.2546 H   0  0  0  0  0  0  0  0  0  0  0  0
  145.9660  140.4841  154.7678 H   0  0  0  0  0  0  0  0  0  0  0  0
  145.8931  141.4580  153.3293 H   0  0  0  0  0  0  0  0  0  0  0  0
  145.5196  139.1377  152.7582 H   0  0  0  0  0  0  0  0  0  0  0  0
  146.9887  139.6757  151.9957 H   0  0  0  0  0  0  0  0  0  0  0  0
  146.9624  138.1226  154.6539 H   0  0  0  0  0  0  0  0  0  0  0  0
  147.0324  137.3469  153.0919 H   0  0  0  0  0  0  0  0  0  0  0  0
  149.2219  137.7489  152.9769 H   0  0  0  0  0  0  0  0  0  0  0  0
  1  2  1  0  0  0  0
  1 21  1  0  0  0  0
  1 22  1  0  0  0  0
  1 23  1  0  0  0  0
  2  8  1  0  0  0  0
  2  3  2  0  0  0  0
  3  4  1  0  0  0  0
  4  5  1  0  0  0  0
  4  6  1  0  0  0  0
  5 24  1  0  0  0  0
  5 25  1  0  0  0  0
  5 26  1  0  0  0  0
  6  7  1  0  0  0  0
  6  8  2  0  0  0  0
  7 27  1  0  0  0  0
  7 28  1  0  0  0  0
  7 29  1  0  0  0  0
  8  9  1  0  0  0  0
  9 10  1  0  0  0  0
  9 30  1  0  0  0  0
  9 31  1  0  0  0  0
 10 11  2  0  0  0  0
 10 12  1  0  0  0  0
 12 13  1  0  0  0  0
 12 32  1  0  0  0  0
 13 19  1  0  0  0  0
 13 14  1  0  0  0  0
 13 33  1  0  0  0  0
 14 15  1  0  0  0  0
 14 34  1  0  0  0  0
 14 35  1  0  0  0  0
 15 16  1  0  0  0  0
 15 36  1  0  0  0  0
 15 37  1  0  0  0  0
 16 17  1  0  0  0  0
 16 38  1  0  0  0  0
 16 39  1  0  0  0  0
 17 18  1  0  0  0  0
 17 40  1  0  0  0  0
 17 41  1  0  0  0  0
 18 19  1  0  0  0  0
 18 42  1  0  0  0  0
 19 20  2  0  0  0  0
M  END
> <s_m_source_file>
AV-unprocessed.smi

> <i_m_source_file_index>
2187

> <i_lp_mmshare_version>
43012

> <i_f3d_flags>
0

> <s_epik_input>
W0NIM11jMW5uKFtDSDNdKWMoW0NIM10pYzFbQ0gyXUMoPU8pW05IXVtDQEBIXTJbQ0gyXVtDSDJdW0NIMl1bQ0gyXVtOSF1DMj1P

> <s_epik_cmdline>
J2VwaWtfcHl0aG9uJywgJy1waCcsICc3LjAnLCAnLXRuJywgJzgnLCAnLW1hJywgJzIwMCcsICctbWV0YWxfYmluZGluZycsICctaW1hZScsICc8aW5maWxlLm1hZT4nLCAnLW9tYWUnLCAnPG91dGZpbGUubWFlPic=

> <r_lp_tautomer_probability>
1

> <r_epik_Ionization_Penalty>
0.00280384

> <r_epik_Ionization_Penalty_Charging>
0

> <r_epik_Ionization_Penalty_Neutral>
0.00280384

> <r_epik_State_Penalty>
0.00195959

> <r_epik_Charging_Adjusted_Penalty>
0.00195959

> <i_epik_Tot_Q>
0

> <i_epik_Tot_abs_Q>
0

> <r_epik_Metal_State_Penalty>
-0

> <b_epik_Metal_Only>
0

> <s_lp_Force_Field>
OPLS_2005

> <r_lp_Energy>
5.77256

> <b_lp_Chiralities_Consistent>
1

> <s_lp_Variant>
AV-unprocessed.smi:2187-2

> <Gold.Version>
5.8.1

> <Gold.Id.Protein>
6NUR|6NUR_protein|mol2

> <Gold.PLP.Fitness>
43.9936

> <Gold.PLP.PLP>
-39.0715

> <Gold.PLP.part.hbond>
-3.1067

> <Gold.PLP.part.metal>
0.0000

> <Gold.PLP.part.buried>
-0.2756

> <Gold.PLP.part.nonpolar>
-35.5934

> <Gold.PLP.part.repulsive>
0.4199

> <Gold.PLP.ligand.clash>
0.0000

> <Gold.PLP.ligand.torsion>
0.3972

> <Gold.PLP.Chemscore.Hbond>
1.9040

> <Gold.PLP.Chemscore.CHOScore>
0.0000

> <Gold.PLP.Chemscore.Metal>
0.0000

> <Gold.Chemscore.Hbonds>
donor molecule, donor type, donor heavy atom, donor atom, acceptor molecule, acceptor atom, score
      L1  H    18    42       P1  7948  0.88
      P1  H  7989  7998       L1    20  1.00
      P1  H  7997  8009       L1     3  0.02

> <Gold.PLP.Chemscore.Internal.Correction>
0.0044

> <Gold.Rescore>
     Score         DG    S(hbond)    S(metal)    S(lipo)     H(rot)  DE(clash)    DE(int)     intcor
     18.75     -19.19       1.80        0.00      97.58       1.46       0.17       0.27       ----

> <Gold.Chemscore.Fitness>
18.7542

> <Gold.Chemscore.DG>
-19.1893

> <Gold.Chemscore.ZeroCoef>
-5.4800

> <Gold.Chemscore.Hbond>
1.8037

> <Gold.Chemscore.Metal>
0.0000

> <Gold.Chemscore.Lipo>
97.5821

> <Gold.Chemscore.Internal_Hbond>
0.0000

> <Gold.Chemscore.DEClash>
0.1694

> <Gold.Chemscore.DEInternal>
0.2656

> <Gold.Chemscore.Rot>
1.4578

> <Gold.Chemscore.Internal.Correction>
   9.000000E+99

> <Gold.Chemscore.Hbonds>
donor molecule, donor type, donor heavy atom, donor atom, acceptor molecule, acceptor atom, score
      L1  H    18    42       P1  7948  0.85
      P1  H  7989  7998       L1    20  0.98

> <Gold.Chemscore.Hbond.Weighted>
-6.0243

> <Gold.Chemscore.Metal.Weighted>
-0.0000

> <Gold.Chemscore.Lipo.Weighted>
-11.4171

> <Gold.Chemscore.Internal_Hbond.Weighted>
0.0000

> <Gold.Chemscore.DEClash.Weighted>
0.1694

> <Gold.Chemscore.DEInternal.Weighted>
0.2656

> <Gold.Chemscore.Rot.Weighted>
3.7321

> <Gold.Chemscore.Internal.Correction.Weighted>
   9.000000E+99

> <Gold.Protein.RotatedTorsions>
[ 6907 6896 6895 6894 ] final  111.54 input  -60.11 | X-H torsion
[ 7974 7965 7964 7962 ] final  176.38 input  175.53 | X-H torsion
[ 8008 7997 7996 7995 ] final  128.75 input   59.86 | X-H torsion
[ 10167 10162 10161 10158 ] final  -35.74 input  -65.29 | X-H torsion
[ 10718 10713 10712 10709 ] final   10.83 input   66.30 | X-H torsion
[ 10763 10752 10751 10750 ] final  173.13 input  -60.55 | X-H torsion
[ 11005 11000 10999 10996 ] final -178.36 input  -57.11 | X-H torsion

> <Gold.Protein.ActiveResidues>
 VAL166  LYS551  ARG553  GLY616  TRP617  ASP618  TYR619  PRO620  LYS621  CYS622 
 ASP623  PHE694  ASN695  SER759  ASP760  ASP761  ALA762  ILE779  LEU786  VAL792 
 PHE793  MET794  SER795  GLU796  ALA797  LYS798  CYS799  TRP800  GLU811  SER814 

> <Gold.Protein.RotatedAtoms>
  152.4964  133.8643  159.7266 H   0  0  0  0  0  0  0  0  0  0  0  0  # atno 6907 bound_to 6896
  150.9147  133.6945  159.2853 H   0  0  0  0  0  0  0  0  0  0  0  0  # atno 6908 bound_to 6896
  151.4343  135.1017  159.9704 H   0  0  0  0  0  0  0  0  0  0  0  0  # atno 6909 bound_to 6896
  144.7185  140.0088  143.6440 H   0  0  0  0  0  0  0  0  0  0  0  0  # atno 7974 bound_to 7965
  156.2922  140.2637  156.2487 H   0  0  0  0  0  0  0  0  0  0  0  0  # atno 8008 bound_to 7997
  154.9904  140.0389  157.2335 H   0  0  0  0  0  0  0  0  0  0  0  0  # atno 8009 bound_to 7997
  154.7691  140.2775  155.6157 H   0  0  0  0  0  0  0  0  0  0  0  0  # atno 8010 bound_to 7997
  140.7158  143.3456  151.2263 H   0  0  0  0  0  0  0  0  0  0  0  0  # atno 10167 bound_to 10162
  156.9867  130.6027  149.5682 H   0  0  0  0  0  0  0  0  0  0  0  0  # atno 10718 bound_to 10713
  154.4358  135.2761  155.1881 H   0  0  0  0  0  0  0  0  0  0  0  0  # atno 10763 bound_to 10752
  154.3768  135.6096  153.5773 H   0  0  0  0  0  0  0  0  0  0  0  0  # atno 10764 bound_to 10752
  152.9838  135.5871  154.4677 H   0  0  0  0  0  0  0  0  0  0  0  0  # atno 10765 bound_to 10752
  140.4306  134.6522  157.4710 H   0  0  0  0  0  0  0  0  0  0  0  0  # atno 11005 bound_to 11000
  146.0275  139.3305  143.0775 LP  0  0  0  0  0  0  0  0  0  0  0  0  # atno 17320 bound_to 7965
  145.8493  140.9538  143.0758 LP  0  0  0  0  0  0  0  0  0  0  0  0  # atno 17321 bound_to 7965
  139.6975  143.9589  152.2889 LP  0  0  0  0  0  0  0  0  0  0  0  0  # atno 17342 bound_to 10162
  139.9271  144.6764  150.8401 LP  0  0  0  0  0  0  0  0  0  0  0  0  # atno 17343 bound_to 10162
  156.0223  130.5317  150.8310 LP  0  0  0  0  0  0  0  0  0  0  0  0  # atno 17370 bound_to 10713
  157.5488  131.0943  150.9725 LP  0  0  0  0  0  0  0  0  0  0  0  0  # atno 17371 bound_to 10713
  140.0137  134.6652  155.9342 LP  0  0  0  0  0  0  0  0  0  0  0  0  # atno 17394 bound_to 11000
  141.1747  133.6539  156.4783 LP  0  0  0  0  0  0  0  0  0  0  0  0  # atno 17395 bound_to 11000

$$$$
