AV-unprocessed.smi:1430|AV-procd|sdf|5828|dock9
  -GOLD-   22720 5483D 1   1.00000     0.00000
 Structure written by MMmdl.
 47 48  0  0  0  0  0  0  0  0  2 V2000
  151.7484  122.3956  150.3738 C   0  0  0  0  0  0  0  0  0  0  0  0
  151.0665  122.9282  151.5041 O   0  0  0  0  0  0  0  0  0  0  0  0
  150.3609  124.1036  151.3495 C   0  0  0  0  0  0  0  0  0  0  0  0
  149.6791  124.6324  152.4627 C   0  0  0  0  0  0  0  0  0  0  0  0
  148.9609  125.8330  152.3098 C   0  0  0  0  0  0  0  0  0  0  0  0
  148.9444  126.4737  151.0541 C   0  0  0  0  0  0  0  0  0  0  0  0
  148.1987  127.6800  150.9414 N   0  0  0  0  0  0  0  0  0  0  0  0
  147.1760  128.1230  151.6935 C   0  0  0  0  0  0  0  0  0  0  0  0
  146.6774  127.5309  152.6497 O   0  0  0  0  0  0  0  0  0  0  0  0
  146.7435  129.3177  151.2659 N   0  0  0  0  0  0  0  0  0  0  0  0
  145.6462  130.0702  151.8639 C   0  0  0  0  0  0  0  0  0  0  0  0
  146.0827  131.4995  152.2385 C   0  0  0  0  0  0  0  0  0  0  0  0
  146.5231  132.2871  151.0564 N   0  3  1  0  0  0  0  0  0  0  0  0
  145.6647  132.0926  149.8622 C   0  0  0  0  0  0  0  0  0  0  0  0
  144.3497  132.8905  149.9805 C   0  0  2  0  0  0  0  0  0  0  0  0
  143.4884  132.7731  148.7182 C   0  0  0  0  0  0  0  0  0  0  0  0
  144.6612  134.2656  150.1767 O   0  0  0  0  0  0  0  0  0  0  0  0
  145.3937  134.5025  151.3742 C   0  0  2  0  0  0  0  0  0  0  0  0
  145.6025  136.0147  151.5102 C   0  0  0  0  0  0  0  0  0  0  0  0
  146.7325  133.7357  151.3105 C   0  0  0  0  0  0  0  0  0  0  0  0
  149.6540  125.8562  149.9941 C   0  0  0  0  0  0  0  0  0  0  0  0
  150.3457  124.7054  150.1348 N   0  0  0  0  0  0  0  0  0  0  0  0
  152.2542  121.4736  150.6596 H   0  0  0  0  0  0  0  0  0  0  0  0
  152.5063  123.0872  150.0027 H   0  0  0  0  0  0  0  0  0  0  0  0
  151.0559  122.1559  149.5657 H   0  0  0  0  0  0  0  0  0  0  0  0
  149.7065  124.1259  153.4163 H   0  0  0  0  0  0  0  0  0  0  0  0
  148.4299  126.2554  153.1507 H   0  0  0  0  0  0  0  0  0  0  0  0
  148.4611  128.2710  150.1662 H   0  0  0  0  0  0  0  0  0  0  0  0
  147.2029  129.7337  150.4685 H   0  0  0  0  0  0  0  0  0  0  0  0
  144.8357  130.0889  151.1368 H   0  0  0  0  0  0  0  0  0  0  0  0
  145.2653  129.5440  152.7408 H   0  0  0  0  0  0  0  0  0  0  0  0
  145.2314  132.0065  152.6949 H   0  0  0  0  0  0  0  0  0  0  0  0
  146.8628  131.4731  152.9993 H   0  0  0  0  0  0  0  0  0  0  0  0
  146.2194  132.4330  148.9865 H   0  0  0  0  0  0  0  0  0  0  0  0
  145.4656  131.0324  149.7020 H   0  0  0  0  0  0  0  0  0  0  0  0
  143.7654  132.5289  150.8281 H   0  0  0  0  0  0  0  0  0  0  0  0
  143.2072  131.7367  148.5295 H   0  0  0  0  0  0  0  0  0  0  0  0
  144.0205  133.1413  147.8406 H   0  0  0  0  0  0  0  0  0  0  0  0
  142.5703  133.3527  148.8179 H   0  0  0  0  0  0  0  0  0  0  0  0
  144.8042  134.1646  152.2275 H   0  0  0  0  0  0  0  0  0  0  0  0
  146.1541  136.2552  152.4193 H   0  0  0  0  0  0  0  0  0  0  0  0
  144.6467  136.5375  151.5541 H   0  0  0  0  0  0  0  0  0  0  0  0
  146.1609  136.4149  150.6635 H   0  0  0  0  0  0  0  0  0  0  0  0
  147.3138  133.8975  152.2172 H   0  0  0  0  0  0  0  0  0  0  0  0
  147.3356  134.1333  150.4931 H   0  0  0  0  0  0  0  0  0  0  0  0
  149.6750  126.2629  148.9963 H   0  0  0  0  0  0  0  0  0  0  0  0
  147.4246  131.9040  150.8096 H   0  0  0  0  0  0  0  0  0  0  0  0
  1  2  1  0  0  0  0
  1 23  1  0  0  0  0
  1 24  1  0  0  0  0
  1 25  1  0  0  0  0
  2  3  1  0  0  0  0
  3 22  1  0  0  0  0
  3  4  2  0  0  0  0
  4  5  1  0  0  0  0
  4 26  1  0  0  0  0
  5  6  2  0  0  0  0
  5 27  1  0  0  0  0
  6  7  1  0  0  0  0
  6 21  1  0  0  0  0
  7  8  1  0  0  0  0
  7 28  1  0  0  0  0
  8  9  2  0  0  0  0
  8 10  1  0  0  0  0
 10 11  1  0  0  0  0
 10 29  1  0  0  0  0
 11 12  1  0  0  0  0
 11 30  1  0  0  0  0
 11 31  1  0  0  0  0
 12 13  1  0  0  0  0
 12 32  1  0  0  0  0
 12 33  1  0  0  0  0
 13 20  1  0  0  0  0
 13 14  1  0  0  0  0
 13 47  1  0  0  0  0
 14 15  1  0  0  0  0
 14 34  1  0  0  0  0
 14 35  1  0  0  0  0
 15 16  1  0  0  0  0
 15 17  1  0  0  0  0
 15 36  1  0  0  0  0
 16 37  1  0  0  0  0
 16 38  1  0  0  0  0
 16 39  1  0  0  0  0
 17 18  1  0  0  0  0
 18 19  1  0  0  0  0
 18 20  1  0  0  0  0
 18 40  1  0  0  0  0
 19 41  1  0  0  0  0
 19 42  1  0  0  0  0
 19 43  1  0  0  0  0
 20 44  1  0  0  0  0
 20 45  1  0  0  0  0
 21 22  2  0  0  0  0
 21 46  1  0  0  0  0
M  CHG  1  13   1
M  END
> <s_m_source_file>
AV-unprocessed.smi

> <i_m_source_file_index>
1430

> <i_lp_mmshare_version>
43012

> <i_f3d_flags>
0

> <s_epik_input>
W0NIM11PYzFbY0hdW2NIXWMoW2NIXW4xKVtOSF1DKD1PKVtOSF1bQ0gyXVtDSDJdTjJbQ0gyXVtDQEBIXShbQ0gzXSlPW0NAQEhdKFtDSDNdKVtDSDJdMg==

> <s_epik_cmdline>
J2VwaWtfcHl0aG9uJywgJy1waCcsICc3LjAnLCAnLXRuJywgJzgnLCAnLW1hJywgJzIwMCcsICctbWV0YWxfYmluZGluZycsICctaW1hZScsICc8aW5maWxlLm1hZT4nLCAnLW9tYWUnLCAnPG91dGZpbGUubWFlPic=

> <r_lp_tautomer_probability>
1

> <r_epik_Ionization_Penalty>
0.602607

> <r_epik_Ionization_Penalty_Charging>
0.602531

> <r_epik_Ionization_Penalty_Neutral>
7.66983e-05

> <r_epik_State_Penalty>
0.617039

> <r_epik_Charging_Adjusted_Penalty>
1.21957

> <i_epik_Tot_Q>
1

> <i_epik_Tot_abs_Q>
1

> <r_epik_Metal_State_Penalty>
0.617043

> <b_epik_Metal_Only>
0

> <s_lp_Force_Field>
OPLS_2005

> <r_lp_Energy>
19.3268

> <b_lp_Chiralities_Consistent>
1

> <s_lp_Variant>
AV-unprocessed.smi:1430-7

> <Gold.Version>
5.8.1

> <Gold.Id.Protein>
6NUR|6NUR_protein|mol2

> <Gold.PLP.Fitness>
46.1553

> <Gold.PLP.PLP>
-38.3780

> <Gold.PLP.part.hbond>
-2.3710

> <Gold.PLP.part.metal>
0.0000

> <Gold.PLP.part.buried>
-7.2756

> <Gold.PLP.part.nonpolar>
-30.9727

> <Gold.PLP.part.repulsive>
2.1443

> <Gold.PLP.ligand.clash>
0.0000

> <Gold.PLP.ligand.torsion>
0.2415

> <Gold.PLP.Chemscore.Hbond>
1.7360

> <Gold.PLP.Chemscore.CHOScore>
1.0000

> <Gold.PLP.Chemscore.Metal>
0.0000

> <Gold.Chemscore.Hbonds>
donor molecule, donor type, donor heavy atom, donor atom, acceptor molecule, acceptor atom, score
      L1  H    10    29       P1 10747  0.59
      L1  H    13    47       P1 10747  1.00
      L1  C    21    46       P1 10769  1.00

> <Gold.PLP.Chemscore.Internal.Correction>
0.0524

> <Gold.Rescore>
     Score         DG    S(hbond)    S(metal)    S(lipo)     H(rot)  DE(clash)    DE(int)     intcor
     15.63     -17.27       1.67        0.00      91.69       1.76       0.08       1.56       ----

> <Gold.Chemscore.Fitness>
15.6336

> <Gold.Chemscore.DG>
-17.2748

> <Gold.Chemscore.ZeroCoef>
-5.4800

> <Gold.Chemscore.Hbond>
1.6691

> <Gold.Chemscore.Metal>
0.0000

> <Gold.Chemscore.Lipo>
91.6865

> <Gold.Chemscore.Internal_Hbond>
0.0000

> <Gold.Chemscore.DEClash>
0.0825

> <Gold.Chemscore.DEInternal>
1.5587

> <Gold.Chemscore.Rot>
1.7606

> <Gold.Chemscore.Internal.Correction>
   9.000000E+99

> <Gold.Chemscore.Hbonds>
donor molecule, donor type, donor heavy atom, donor atom, acceptor molecule, acceptor atom, score
      L1  H    10    29       P1 10747  0.56
      L1  H    13    47       P1 10747  0.99

> <Gold.Chemscore.Hbond.Weighted>
-5.5747

> <Gold.Chemscore.Metal.Weighted>
-0.0000

> <Gold.Chemscore.Lipo.Weighted>
-10.7273

> <Gold.Chemscore.Internal_Hbond.Weighted>
0.0000

> <Gold.Chemscore.DEClash.Weighted>
0.0825

> <Gold.Chemscore.DEInternal.Weighted>
1.5587

> <Gold.Chemscore.Rot.Weighted>
4.5072

> <Gold.Chemscore.Internal.Correction.Weighted>
   9.000000E+99

> <Gold.Protein.RotatedTorsions>
[ 6907 6896 6895 6894 ] final -129.50 input  -60.11 | X-H torsion
[ 7974 7965 7964 7962 ] final   62.44 input  175.53 | X-H torsion
[ 8008 7997 7996 7995 ] final   17.17 input   59.86 | X-H torsion
[ 10167 10162 10161 10158 ] final    2.07 input  -65.29 | X-H torsion
[ 10718 10713 10712 10709 ] final  164.15 input   66.30 | X-H torsion
[ 10763 10752 10751 10750 ] final   58.37 input  -60.55 | X-H torsion
[ 11005 11000 10999 10996 ] final  -25.39 input  -57.11 | X-H torsion

> <Gold.Protein.ActiveResidues>
 VAL166  LYS551  ARG553  GLY616  TRP617  ASP618  TYR619  PRO620  LYS621  CYS622 
 ASP623  PHE694  ASN695  SER759  ASP760  ASP761  ALA762  ILE779  LEU786  VAL792 
 PHE793  MET794  SER795  GLU796  ALA797  LYS798  CYS799  TRP800  GLU811  SER814 

> <Gold.Protein.RotatedAtoms>
  150.9294  133.6784  159.2813 H   0  0  0  0  0  0  0  0  0  0  0  0  # atno 6907 bound_to 6896
  151.4211  135.0996  159.9624 H   0  0  0  0  0  0  0  0  0  0  0  0  # atno 6908 bound_to 6896
  152.5019  133.8746  159.7370 H   0  0  0  0  0  0  0  0  0  0  0  0  # atno 6909 bound_to 6896
  145.8733  139.3393  143.0749 H   0  0  0  0  0  0  0  0  0  0  0  0  # atno 7974 bound_to 7965
  154.8875  140.2982  155.5390 H   0  0  0  0  0  0  0  0  0  0  0  0  # atno 8008 bound_to 7997
  156.3021  140.2431  156.3820 H   0  0  0  0  0  0  0  0  0  0  0  0  # atno 8009 bound_to 7997
  154.8653  140.0403  157.1680 H   0  0  0  0  0  0  0  0  0  0  0  0  # atno 8010 bound_to 7997
  140.6652  143.7197  150.7814 H   0  0  0  0  0  0  0  0  0  0  0  0  # atno 10167 bound_to 10162
  157.0985  131.0436  151.2508 H   0  0  0  0  0  0  0  0  0  0  0  0  # atno 10718 bound_to 10713
  152.9869  135.5609  154.5541 H   0  0  0  0  0  0  0  0  0  0  0  0  # atno 10763 bound_to 10752
  154.4972  135.2795  155.1452 H   0  0  0  0  0  0  0  0  0  0  0  0  # atno 10764 bound_to 10752
  154.2897  135.6328  153.5433 H   0  0  0  0  0  0  0  0  0  0  0  0  # atno 10765 bound_to 10752
  140.8934  133.7573  156.0449 H   0  0  0  0  0  0  0  0  0  0  0  0  # atno 11005 bound_to 11000
  145.9111  140.9179  143.0454 LP  0  0  0  0  0  0  0  0  0  0  0  0  # atno 17320 bound_to 7965
  144.6726  140.1161  143.7452 LP  0  0  0  0  0  0  0  0  0  0  0  0  # atno 17321 bound_to 7965
  140.0873  143.4911  152.2498 LP  0  0  0  0  0  0  0  0  0  0  0  0  # atno 17342 bound_to 10162
  139.5899  144.7546  151.3427 LP  0  0  0  0  0  0  0  0  0  0  0  0  # atno 17343 bound_to 10162
  157.4661  130.7681  149.7280 LP  0  0  0  0  0  0  0  0  0  0  0  0  # atno 17370 bound_to 10713
  155.9879  130.3963  150.3140 LP  0  0  0  0  0  0  0  0  0  0  0  0  # atno 17371 bound_to 10713
  140.8319  134.3168  157.5345 LP  0  0  0  0  0  0  0  0  0  0  0  0  # atno 17394 bound_to 11000
  139.8732  134.9368  156.3670 LP  0  0  0  0  0  0  0  0  0  0  0  0  # atno 17395 bound_to 11000

$$$$
