AV-unprocessed.smi:2431|AV-procd|sdf|9586|dock4
  -GOLD-   2272013213D 1   1.00000     0.00000
 Structure written by MMmdl.
 36 37  0  0  0  0  0  0  0  0  3 V2000
  155.2691  139.1832  159.4695 O   0  0  0  0  0  0  0  0  0  0  0  0
  155.0806  139.1704  160.6863 C   0  0  0  0  0  0  0  0  0  0  0  0
  154.7171  140.2525  161.3897 N   0  0  0  0  0  0  0  0  0  0  0  0
  154.4905  141.5778  160.8252 C   0  0  0  0  0  0  0  0  0  0  0  0
  153.2175  141.6098  159.9629 C   0  0  0  0  0  0  0  0  0  0  0  0
  152.6363  143.0038  159.8321 C   0  0  0  0  0  0  0  0  0  0  0  0
  152.1733  143.7674  160.8209 C   0  0  0  0  0  0  0  0  0  0  0  0
  151.6487  145.0904  160.3348 C   0  0  0  0  0  0  0  0  0  0  0  0
  151.8260  145.0228  158.8015 C   0  0  0  0  0  0  0  0  0  0  0  0
  152.5036  143.6700  158.4867 C   0  0  0  0  0  0  0  0  0  0  0  0
  155.1853  138.0889  161.4773 N   0  0  0  0  0  0  0  0  0  0  0  0
  155.5228  136.7537  161.1134 C   0  0  0  0  0  0  0  0  0  0  0  0
  155.7647  136.3830  159.7677 C   0  0  0  0  0  0  0  0  0  0  0  0
  156.0894  135.0452  159.4752 C   0  0  0  0  0  0  0  0  0  0  0  0
  156.1916  134.0861  160.4159 N   0  0  0  0  0  0  0  0  0  0  0  0
  155.9803  134.4411  161.7001 C   0  0  0  0  0  0  0  0  0  0  0  0
  155.6578  135.7535  162.1159 C   0  0  0  0  0  0  0  0  0  0  0  0
  155.4616  136.0254  163.5529 N   0  3  0  0  0  0  0  0  0  0  0  0
  155.4572  135.0653  164.3158 O   0  0  0  0  0  0  0  0  0  0  0  0
  155.3399  137.1891  163.9218 O   0  5  0  0  0  0  0  0  0  0  0  0
  154.5799  140.1522  162.3850 H   0  0  0  0  0  0  0  0  0  0  0  0
  154.3983  142.2852  161.6498 H   0  0  0  0  0  0  0  0  0  0  0  0
  155.3615  141.8881  160.2457 H   0  0  0  0  0  0  0  0  0  0  0  0
  153.4249  141.2311  158.9615 H   0  0  0  0  0  0  0  0  0  0  0  0
  152.4633  140.9518  160.3967 H   0  0  0  0  0  0  0  0  0  0  0  0
  152.1606  143.4945  161.8660 H   0  0  0  0  0  0  0  0  0  0  0  0
  150.6022  145.2113  160.6168 H   0  0  0  0  0  0  0  0  0  0  0  0
  152.2252  145.9060  160.7724 H   0  0  0  0  0  0  0  0  0  0  0  0
  150.8580  145.0885  158.3028 H   0  0  0  0  0  0  0  0  0  0  0  0
  152.4319  145.8553  158.4419 H   0  0  0  0  0  0  0  0  0  0  0  0
  153.4843  143.8125  158.0324 H   0  0  0  0  0  0  0  0  0  0  0  0
  151.8951  143.0606  157.8177 H   0  0  0  0  0  0  0  0  0  0  0  0
  154.9046  138.2157  162.4391 H   0  0  0  0  0  0  0  0  0  0  0  0
  155.7150  137.0975  158.9602 H   0  0  0  0  0  0  0  0  0  0  0  0
  156.2752  134.7391  158.4563 H   0  0  0  0  0  0  0  0  0  0  0  0
  156.0856  133.6459  162.4236 H   0  0  0  0  0  0  0  0  0  0  0  0
  1  2  2  0  0  0  0
  2  3  1  0  0  0  0
  2 11  1  0  0  0  0
  3  4  1  0  0  0  0
  3 21  1  0  0  0  0
  4  5  1  0  0  0  0
  4 22  1  0  0  0  0
  4 23  1  0  0  0  0
  5  6  1  0  0  0  0
  5 24  1  0  0  0  0
  5 25  1  0  0  0  0
  6 10  1  0  0  0  0
  6  7  2  0  0  0  0
  7  8  1  0  0  0  0
  7 26  1  0  0  0  0
  8  9  1  0  0  0  0
  8 27  1  0  0  0  0
  8 28  1  0  0  0  0
  9 10  1  0  0  0  0
  9 29  1  0  0  0  0
  9 30  1  0  0  0  0
 10 31  1  0  0  0  0
 10 32  1  0  0  0  0
 11 12  1  0  0  0  0
 11 33  1  0  0  0  0
 12 17  1  0  0  0  0
 12 13  2  0  0  0  0
 13 14  1  0  0  0  0
 13 34  1  0  0  0  0
 14 15  2  0  0  0  0
 14 35  1  0  0  0  0
 15 16  1  0  0  0  0
 16 17  2  0  0  0  0
 16 36  1  0  0  0  0
 17 18  1  0  0  0  0
 18 19  2  0  0  0  0
 18 20  1  0  0  0  0
M  CHG  1  18   1
M  CHG  1  20  -1
M  END
> <s_m_source_file>
AV-unprocessed.smi

> <i_m_source_file_index>
2431

> <i_lp_mmshare_version>
43012

> <i_f3d_flags>
0

> <s_epik_input>
W0NIMl0xW0NIMl1bQ0gyXVtDSF09QzFbQ0gyXVtDSDJdW05IXUMoPU8pW05IXWMyW2NIXVtjSF1uW2NIXWMyW04rXSg9TylbTy1d

> <s_epik_cmdline>
J2VwaWtfcHl0aG9uJywgJy1waCcsICc3LjAnLCAnLXRuJywgJzgnLCAnLW1hJywgJzIwMCcsICctbWV0YWxfYmluZGluZycsICctaW1hZScsICc8aW5maWxlLm1hZT4nLCAnLW9tYWUnLCAnPG91dGZpbGUubWFlPic=

> <r_lp_tautomer_probability>
1

> <r_epik_Ionization_Penalty>
0.000148912

> <r_epik_Ionization_Penalty_Charging>
0

> <r_epik_Ionization_Penalty_Neutral>
0.000148912

> <r_epik_State_Penalty>
-0

> <r_epik_Charging_Adjusted_Penalty>
0

> <i_epik_Tot_Q>
0

> <i_epik_Tot_abs_Q>
2

> <r_epik_Metal_State_Penalty>
-0

> <b_epik_Metal_Only>
0

> <s_lp_Force_Field>
OPLS_2005

> <r_lp_Energy>
28.1068

> <b_lp_Chiralities_Consistent>
1

> <s_lp_Variant>
AV-unprocessed.smi:2431-1

> <Gold.Version>
5.8.1

> <Gold.Id.Protein>
6NUR|6NUR_protein|mol2

> <Gold.PLP.Fitness>
40.8999

> <Gold.PLP.PLP>
-41.2747

> <Gold.PLP.part.hbond>
0.0000

> <Gold.PLP.part.metal>
0.0000

> <Gold.PLP.part.buried>
-5.3189

> <Gold.PLP.part.nonpolar>
-34.7922

> <Gold.PLP.part.repulsive>
0.1678

> <Gold.PLP.ligand.clash>
0.0000

> <Gold.PLP.ligand.torsion>
0.2074

> <Gold.PLP.Chemscore.Hbond>
0.0000

> <Gold.PLP.Chemscore.CHOScore>
0.0000

> <Gold.PLP.Chemscore.Metal>
0.0000

> <Gold.Chemscore.Hbonds>
donor molecule, donor type, donor heavy atom, donor atom, acceptor molecule, acceptor atom, score
      P1  H  7997  8008       L1     1  0.21

> <Gold.PLP.Chemscore.Internal.Correction>
0.0399

> <Gold.Rescore>
     Score         DG    S(hbond)    S(metal)    S(lipo)     H(rot)  DE(clash)    DE(int)     intcor
     13.60     -16.94       0.99        0.00     102.14       1.48       0.03       3.30       ----

> <Gold.Chemscore.Fitness>
13.6029

> <Gold.Chemscore.DG>
-16.9385

> <Gold.Chemscore.ZeroCoef>
-5.4800

> <Gold.Chemscore.Hbond>
0.9893

> <Gold.Chemscore.Metal>
0.0000

> <Gold.Chemscore.Lipo>
102.1375

> <Gold.Chemscore.Internal_Hbond>
0.0000

> <Gold.Chemscore.DEClash>
0.0310

> <Gold.Chemscore.DEInternal>
3.3046

> <Gold.Chemscore.Rot>
1.4828

> <Gold.Chemscore.Internal.Correction>
   9.000000E+99

> <Gold.Chemscore.Hbonds>
donor molecule, donor type, donor heavy atom, donor atom, acceptor molecule, acceptor atom, score
      P1  H  7997  8008       L1     1  0.20

> <Gold.Chemscore.Hbond.Weighted>
-3.3044

> <Gold.Chemscore.Metal.Weighted>
-0.0000

> <Gold.Chemscore.Lipo.Weighted>
-11.9501

> <Gold.Chemscore.Internal_Hbond.Weighted>
0.0000

> <Gold.Chemscore.DEClash.Weighted>
0.0310

> <Gold.Chemscore.DEInternal.Weighted>
3.3046

> <Gold.Chemscore.Rot.Weighted>
3.7960

> <Gold.Chemscore.Internal.Correction.Weighted>
   9.000000E+99

> <Gold.Protein.RotatedTorsions>
[ 6907 6896 6895 6894 ] final -145.14 input  -60.11 | X-H torsion
[ 7974 7965 7964 7962 ] final  153.57 input  175.53 | X-H torsion
[ 8008 7997 7996 7995 ] final -110.97 input   59.86 | X-H torsion
[ 10167 10162 10161 10158 ] final  154.92 input  -65.29 | X-H torsion
[ 10718 10713 10712 10709 ] final  118.24 input   66.30 | X-H torsion
[ 10763 10752 10751 10750 ] final   84.31 input  -60.55 | X-H torsion
[ 11005 11000 10999 10996 ] final  -77.53 input  -57.11 | X-H torsion

> <Gold.Protein.ActiveResidues>
 VAL166  LYS551  ARG553  GLY616  TRP617  ASP618  TYR619  PRO620  LYS621  CYS622 
 ASP623  PHE694  ASN695  SER759  ASP760  ASP761  ALA762  ILE779  LEU786  VAL792 
 PHE793  MET794  SER795  GLU796  ALA797  LYS798  CYS799  TRP800  GLU811  SER814 

> <Gold.Protein.RotatedAtoms>
  151.1236  133.5086  159.2601 H   0  0  0  0  0  0  0  0  0  0  0  0  # atno 6907 bound_to 6896
  151.1834  135.0370  159.8812 H   0  0  0  0  0  0  0  0  0  0  0  0  # atno 6908 bound_to 6896
  152.5457  134.1085  159.8402 H   0  0  0  0  0  0  0  0  0  0  0  0  # atno 6909 bound_to 6896
  144.8146  139.6818  143.6127 H   0  0  0  0  0  0  0  0  0  0  0  0  # atno 7974 bound_to 7965
  154.9827  140.0396  157.2284 H   0  0  0  0  0  0  0  0  0  0  0  0  # atno 8008 bound_to 7997
  154.7700  140.2800  155.6123 H   0  0  0  0  0  0  0  0  0  0  0  0  # atno 8009 bound_to 7997
  156.2919  140.2612  156.2500 H   0  0  0  0  0  0  0  0  0  0  0  0  # atno 8010 bound_to 7997
  139.4822  144.5144  151.7974 H   0  0  0  0  0  0  0  0  0  0  0  0  # atno 10167 bound_to 10162
  157.6043  131.1046  150.7728 H   0  0  0  0  0  0  0  0  0  0  0  0  # atno 10718 bound_to 10713
  153.1370  135.4659  154.9437 H   0  0  0  0  0  0  0  0  0  0  0  0  # atno 10763 bound_to 10752
  154.7714  135.3160  154.8183 H   0  0  0  0  0  0  0  0  0  0  0  0  # atno 10764 bound_to 10752
  153.8714  135.6903  153.4828 H   0  0  0  0  0  0  0  0  0  0  0  0  # atno 10765 bound_to 10752
  141.1661  133.7026  156.7834 H   0  0  0  0  0  0  0  0  0  0  0  0  # atno 11005 bound_to 11000
  146.2447  139.6074  142.9467 LP  0  0  0  0  0  0  0  0  0  0  0  0  # atno 17320 bound_to 7965
  145.5245  141.0430  143.2417 LP  0  0  0  0  0  0  0  0  0  0  0  0  # atno 17321 bound_to 7965
  140.4651  144.1667  150.5911 LP  0  0  0  0  0  0  0  0  0  0  0  0  # atno 17342 bound_to 10162
  140.4443  143.2513  151.9432 LP  0  0  0  0  0  0  0  0  0  0  0  0  # atno 17343 bound_to 10162
  156.8119  130.4955  149.5354 LP  0  0  0  0  0  0  0  0  0  0  0  0  # atno 17370 bound_to 10713
  156.1125  130.6051  151.0070 LP  0  0  0  0  0  0  0  0  0  0  0  0  # atno 17371 bound_to 10713
  140.2378  134.8637  157.3542 LP  0  0  0  0  0  0  0  0  0  0  0  0  # atno 17394 bound_to 11000
  140.1826  134.4470  155.7763 LP  0  0  0  0  0  0  0  0  0  0  0  0  # atno 17395 bound_to 11000

$$$$
