#       Name:                AV-unprocessed.smi:2044
#       Creating user name   scv26
#       Creation time:       Fri Mar 27 10:56:40 2020


#       File generated by GOLD software.
#

@<TRIPOS>MOLECULE
AV-unprocessed.smi:2044
    47    48     1
SMALL
NO_CHARGES


@<TRIPOS>ATOM
      1 ****        -5.8739   3.7940  -1.0965 C.3            1 S1                 0.0000
      2 ****        -5.2305   2.4499  -1.1155 C.2            1 S1                 0.0000
      3 ****        -3.9270   2.0426  -1.0723 C.2            1 S1                 0.0000
      4 ****        -4.0346   0.6222  -1.1220 C.2            1 S1                 0.0000
      5 ****        -2.9600  -0.3040  -1.0998 N.am           1 S1                 0.0000
      6 ****        -1.6427  -0.0521  -1.0201 C.2            1 S1                 0.0000
      7 ****        -1.1294   1.0659  -0.9756 O.2            1 S1                 0.0000
      8 ****        -0.9311  -1.1882  -0.9880 N.am           1 S1                 0.0000
      9 ****         0.5235  -1.2566  -0.8804 C.3            1 S1                 0.0000
     10 ****         1.0444  -0.9409   0.5478 C.3            1 S1                 0.0000
     11 ****         0.4032  -1.9079   1.5734 C.3            1 S1                 0.0000
     12 ****         2.5440  -0.9535   0.5718 N.4            1 S1                 1.0000
     13 ****         3.1349   0.2565  -0.0637 C.3            1 S1                 0.0000
     14 ****         4.6695   0.1738  -0.0969 C.3            1 S1                 0.0000
     15 ****         5.1626   0.0235   1.2255 O.3            1 S1                 0.0000
     16 ****         4.6978  -1.1792   1.8192 C.3            1 S1                 0.0000
     17 ****         3.1620  -1.1611   1.9111 C.3            1 S1                 0.0000
     18 ****        -5.2867   0.2091  -1.1901 N.2            1 S1                 0.0000
     19 ****        -6.0609   1.3752  -1.1867 O.3            1 S1                 0.0000
     20 ****        -5.1457   4.5768  -1.3097 H              1 S1                 0.0000
     21 ****        -6.3126   3.9973  -0.1196 H              1 S1                 0.0000
     22 ****        -6.6653   3.8565  -1.8436 H              1 S1                 0.0000
     23 ****        -3.0527   2.6729  -1.0128 H              1 S1                 0.0000
     24 ****        -3.2306  -1.2758  -1.1354 H              1 S1                 0.0000
     25 ****        -1.4289  -2.0658  -1.0328 H              1 S1                 0.0000
     26 ****         0.8325  -2.2614  -1.1704 H              1 S1                 0.0000
     27 ****         0.9442  -0.5860  -1.6287 H              1 S1                 0.0000
     28 ****         0.7250   0.0648   0.8263 H              1 S1                 0.0000
     29 ****        -0.6849  -1.8992   1.5124 H              1 S1                 0.0000
     30 ****         0.6394  -1.6307   2.6008 H              1 S1                 0.0000
     31 ****         0.7304  -2.9356   1.4114 H              1 S1                 0.0000
     32 ****         2.7763   0.3832  -1.0832 H              1 S1                 0.0000
     33 ****         2.8279   1.1453   0.4897 H              1 S1                 0.0000
     34 ****         5.0045  -0.6539  -0.7244 H              1 S1                 0.0000
     35 ****         5.0849   1.0863  -0.5249 H              1 S1                 0.0000
     36 ****         5.0431  -2.0400   1.2441 H              1 S1                 0.0000
     37 ****         5.1310  -1.2699   2.8154 H              1 S1                 0.0000
     38 ****         2.8368  -0.3727   2.5920 H              1 S1                 0.0000
     39 ****         2.8515  -2.1137   2.3391 H              1 S1                 0.0000
     40 ****         2.8279  -1.7463   0.0140 H              1 S1                 0.0000
     41 ****        -1.7065   1.8823  -0.9983 LP             1 S1                 0.0000
     42 ****        -0.1354   1.1577  -0.9168 LP             1 S1                 0.0000
     43 ****         4.8549   0.7986   1.7773 LP             1 S1                 0.0000
     44 ****         6.1622   0.0084   1.2000 LP             1 S1                 0.0000
     45 ****        -5.6124  -0.7353  -1.2346 LP             1 S1                 0.0000
     46 ****        -6.6014   1.4227  -2.0267 LP             1 S1                 0.0000
     47 ****        -6.6733   1.3702  -0.3962 LP             1 S1                 0.0000
@<TRIPOS>BOND
    1    1    2 1     
    2    1   20 1     
    3    1   21 1     
    4    1   22 1     
    5    2   19 1     
    6    2    3 2     
    7    3    4 1     
    8    3   23 1     
    9    4    5 1     
   10    4   18 2     
   11    5    6 am    
   12    5   24 1     
   13    6    7 2     
   14    6    8 am    
   15    8    9 1     
   16    8   25 1     
   17    9   10 1     
   18    9   26 1     
   19    9   27 1     
   20   10   11 1     
   21   10   12 1     
   22   10   28 1     
   23   11   29 1     
   24   11   30 1     
   25   11   31 1     
   26   12   17 1     
   27   12   13 1     
   28   12   40 1     
   29   13   14 1     
   30   13   32 1     
   31   13   33 1     
   32   14   15 1     
   33   14   34 1     
   34   14   35 1     
   35   15   16 1     
   36   16   17 1     
   37   16   36 1     
   38   16   37 1     
   39   17   38 1     
   40   17   39 1     
   41   18   19 1     
   42    7   41 1     
   43    7   42 1     
   44   15   43 1     
   45   15   44 1     
   46   18   45 1     
   47   19   46 1     
   48   19   47 1     
@<TRIPOS>SUBSTRUCTURE
      1 S1             1
@<TRIPOS>SET
LONE_PAIRS      STATIC     ATOMS    <user>   **** ""
7 41 42 43 44 45 46 47
DONOR_HYDROGENS      STATIC     ATOMS    <user>   **** ""
3 24 25 40
ATOM$BLUE        STATIC     ATOMS    COLORGROUP SYSTEM
7 41 42 43 44 45 46 47
ATOM$RED        STATIC     ATOMS    COLORGROUP SYSTEM
3 24 25 40
