AV-unprocessed.smi:3045|AV-procd|sdf|11609|dock7
  -GOLD-   2272016593D 1   1.00000     0.00000
 Structure written by MMmdl.
 35 36  0  0  0  0  0  0  0  0  1 V2000
  145.2697  143.0448  155.4209 C   0  0  0  0  0  0  0  0  0  0  0  0
  146.2058  142.0881  154.8466 N   0  0  0  0  0  0  0  0  0  0  0  0
  147.4082  142.5327  154.1636 C   0  0  0  0  0  0  0  0  0  0  0  0
  148.2037  141.2476  153.8450 C   0  0  1  0  0  0  0  0  0  0  0  0
  149.4928  141.1394  154.6744 C   0  0  0  0  0  0  0  0  0  0  0  0
  150.3559  140.3131  154.3755 O   0  0  0  0  0  0  0  0  0  0  0  0
  149.6065  141.9762  155.7171 N   0  0  0  0  0  0  0  0  0  0  0  0
  150.7414  142.0231  156.6307 C   0  0  0  0  0  0  0  0  0  0  0  0
  151.2554  143.4596  156.8194 C   0  0  0  0  0  0  0  0  0  0  0  0
  151.5511  143.7729  158.2724 C   0  0  0  0  0  0  0  0  0  0  0  0
  151.0709  144.9572  158.8684 C   0  0  0  0  0  0  0  0  0  0  0  0
  151.3687  145.2038  160.2223 C   0  0  0  0  0  0  0  0  0  0  0  0
  152.1356  144.2524  160.9244 C   0  0  0  0  0  0  0  0  0  0  0  0
  152.5994  143.1143  160.3643 N   0  0  0  0  0  0  0  0  0  0  0  0
  152.3097  142.8858  159.0653 C   0  0  0  0  0  0  0  0  0  0  0  0
  147.2340  140.0872  154.1499 C   0  0  0  0  0  0  0  0  0  0  0  0
  146.0566  140.7609  154.8345 C   0  0  0  0  0  0  0  0  0  0  0  0
  145.1114  140.1333  155.3095 O   0  0  0  0  0  0  0  0  0  0  0  0
  144.3245  143.0257  154.8775 H   0  0  0  0  0  0  0  0  0  0  0  0
  145.6666  144.0592  155.3755 H   0  0  0  0  0  0  0  0  0  0  0  0
  145.0708  142.8073  156.4664 H   0  0  0  0  0  0  0  0  0  0  0  0
  147.1301  143.0536  153.2465 H   0  0  0  0  0  0  0  0  0  0  0  0
  147.9632  143.2365  154.7867 H   0  0  0  0  0  0  0  0  0  0  0  0
  148.4622  141.2372  152.7846 H   0  0  0  0  0  0  0  0  0  0  0  0
  148.8521  142.6242  155.8921 H   0  0  0  0  0  0  0  0  0  0  0  0
  150.4659  141.5845  157.5915 H   0  0  0  0  0  0  0  0  0  0  0  0
  151.5327  141.3962  156.2187 H   0  0  0  0  0  0  0  0  0  0  0  0
  152.1602  143.6140  156.2301 H   0  0  0  0  0  0  0  0  0  0  0  0
  150.5220  144.1776  156.4498 H   0  0  0  0  0  0  0  0  0  0  0  0
  150.4836  145.6634  158.2999 H   0  0  0  0  0  0  0  0  0  0  0  0
  151.0179  146.1005  160.7114 H   0  0  0  0  0  0  0  0  0  0  0  0
  152.3824  144.4094  161.9639 H   0  0  0  0  0  0  0  0  0  0  0  0
  152.6939  141.9664  158.6478 H   0  0  0  0  0  0  0  0  0  0  0  0
  146.8944  139.6071  153.2318 H   0  0  0  0  0  0  0  0  0  0  0  0
  147.6592  139.3163  154.7948 H   0  0  0  0  0  0  0  0  0  0  0  0
  1  2  1  0  0  0  0
  1 19  1  0  0  0  0
  1 20  1  0  0  0  0
  1 21  1  0  0  0  0
  2 17  1  0  0  0  0
  2  3  1  0  0  0  0
  3  4  1  0  0  0  0
  3 22  1  0  0  0  0
  3 23  1  0  0  0  0
  4  5  1  0  0  0  0
  4 16  1  0  0  0  0
  4 24  1  0  0  0  0
  5  6  2  0  0  0  0
  5  7  1  0  0  0  0
  7  8  1  0  0  0  0
  7 25  1  0  0  0  0
  8  9  1  0  0  0  0
  8 26  1  0  0  0  0
  8 27  1  0  0  0  0
  9 10  1  0  0  0  0
  9 28  1  0  0  0  0
  9 29  1  0  0  0  0
 10 15  1  0  0  0  0
 10 11  2  0  0  0  0
 11 12  1  0  0  0  0
 11 30  1  0  0  0  0
 12 13  2  0  0  0  0
 12 31  1  0  0  0  0
 13 14  1  0  0  0  0
 13 32  1  0  0  0  0
 14 15  2  0  0  0  0
 15 33  1  0  0  0  0
 16 17  1  0  0  0  0
 16 34  1  0  0  0  0
 16 35  1  0  0  0  0
 17 18  2  0  0  0  0
M  END
> <s_m_source_file>
AV-unprocessed.smi

> <i_m_source_file_index>
3045

> <i_lp_mmshare_version>
43012

> <i_f3d_flags>
0

> <s_epik_input>
W0NIM11OMVtDSDJdW0NASF0oW0NIMl1DMT1PKUMoPU8pW05IXVtDSDJdW0NIMl1jMltjSF1bY0hdW2NIXW5bY0hdMg==

> <s_epik_cmdline>
J2VwaWtfcHl0aG9uJywgJy1waCcsICc3LjAnLCAnLXRuJywgJzgnLCAnLW1hJywgJzIwMCcsICctbWV0YWxfYmluZGluZycsICctaW1hZScsICc8aW5maWxlLm1hZT4nLCAnLW9tYWUnLCAnPG91dGZpbGUubWFlPic=

> <r_epik_Ionization_Penalty>
0.0130932

> <r_epik_Ionization_Penalty_Charging>
0

> <r_epik_Ionization_Penalty_Neutral>
0.0130932

> <r_epik_State_Penalty>
0.0101714

> <r_epik_Charging_Adjusted_Penalty>
0.0101714

> <i_epik_Tot_Q>
0

> <i_epik_Tot_abs_Q>
0

> <r_epik_Metal_State_Penalty>
0.00995082

> <b_epik_Metal_Only>
0

> <s_lp_Force_Field>
OPLS_2005

> <r_lp_Energy>
9.14953

> <b_lp_Chiralities_Consistent>
1

> <s_lp_Variant>
AV-unprocessed.smi:3045-1

> <Gold.Version>
5.8.1

> <Gold.Id.Protein>
6NUR|6NUR_protein|mol2

> <Gold.PLP.Fitness>
43.7171

> <Gold.PLP.PLP>
-40.5171

> <Gold.PLP.part.hbond>
-2.0000

> <Gold.PLP.part.metal>
0.0000

> <Gold.PLP.part.buried>
-2.3313

> <Gold.PLP.part.nonpolar>
-35.7881

> <Gold.PLP.part.repulsive>
0.3762

> <Gold.PLP.ligand.clash>
0.0444

> <Gold.PLP.ligand.torsion>
0.8504

> <Gold.PLP.Chemscore.Hbond>
1.6443

> <Gold.PLP.Chemscore.CHOScore>
0.0000

> <Gold.PLP.Chemscore.Metal>
0.0000

> <Gold.Chemscore.Hbonds>
donor molecule, donor type, donor heavy atom, donor atom, acceptor molecule, acceptor atom, score
      L1  H     7    25       P1  8028  0.46
      P1  H  7989  7998       L1     6  1.00

> <Gold.PLP.Chemscore.Internal.Correction>
0.0124

> <Gold.Rescore>
     Score         DG    S(hbond)    S(metal)    S(lipo)     H(rot)  DE(clash)    DE(int)     intcor
     15.94     -17.75       1.40        0.00     100.30       1.62       1.24       0.57       ----

> <Gold.Chemscore.Fitness>
15.9428

> <Gold.Chemscore.DG>
-17.7538

> <Gold.Chemscore.ZeroCoef>
-5.4800

> <Gold.Chemscore.Hbond>
1.4039

> <Gold.Chemscore.Metal>
0.0000

> <Gold.Chemscore.Lipo>
100.2966

> <Gold.Chemscore.Internal_Hbond>
0.0000

> <Gold.Chemscore.DEClash>
1.2395

> <Gold.Chemscore.DEInternal>
0.5715

> <Gold.Chemscore.Rot>
1.6210

> <Gold.Chemscore.Internal.Correction>
   9.000000E+99

> <Gold.Chemscore.Hbonds>
donor molecule, donor type, donor heavy atom, donor atom, acceptor molecule, acceptor atom, score
      L1  H     7    25       P1  8028  0.45
      P1  H  7989  7998       L1     6  0.89

> <Gold.Chemscore.Hbond.Weighted>
-4.6889

> <Gold.Chemscore.Metal.Weighted>
-0.0000

> <Gold.Chemscore.Lipo.Weighted>
-11.7347

> <Gold.Chemscore.Internal_Hbond.Weighted>
0.0000

> <Gold.Chemscore.DEClash.Weighted>
1.2395

> <Gold.Chemscore.DEInternal.Weighted>
0.5715

> <Gold.Chemscore.Rot.Weighted>
4.1498

> <Gold.Chemscore.Internal.Correction.Weighted>
   9.000000E+99

> <Gold.Protein.RotatedTorsions>
[ 6907 6896 6895 6894 ] final   76.90 input  -60.11 | X-H torsion
[ 7974 7965 7964 7962 ] final  158.40 input  175.53 | X-H torsion
[ 8008 7997 7996 7995 ] final  102.86 input   59.86 | X-H torsion
[ 10167 10162 10161 10158 ] final   92.84 input  -65.29 | X-H torsion
[ 10718 10713 10712 10709 ] final -148.16 input   66.30 | X-H torsion
[ 10763 10752 10751 10750 ] final  -90.18 input  -60.55 | X-H torsion
[ 11005 11000 10999 10996 ] final  -97.02 input  -57.11 | X-H torsion

> <Gold.Protein.ActiveResidues>
 VAL166  LYS551  ARG553  GLY616  TRP617  ASP618  TYR619  PRO620  LYS621  CYS622 
 ASP623  PHE694  ASN695  SER759  ASP760  ASP761  ALA762  ILE779  LEU786  VAL792 
 PHE793  MET794  SER795  GLU796  ALA797  LYS798  CYS799  TRP800  GLU811  SER814 

> <Gold.Protein.RotatedAtoms>
  152.5094  134.3899  159.9380 H   0  0  0  0  0  0  0  0  0  0  0  0  # atno 6907 bound_to 6896
  151.3859  133.3799  159.2723 H   0  0  0  0  0  0  0  0  0  0  0  0  # atno 6908 bound_to 6896
  150.9469  134.8894  159.7706 H   0  0  0  0  0  0  0  0  0  0  0  0  # atno 6909 bound_to 6896
  144.7848  139.7473  143.6245 H   0  0  0  0  0  0  0  0  0  0  0  0  # atno 7974 bound_to 7965
  156.1431  140.3174  155.8528 H   0  0  0  0  0  0  0  0  0  0  0  0  # atno 8008 bound_to 7997
  155.4115  140.0506  157.3048 H   0  0  0  0  0  0  0  0  0  0  0  0  # atno 8009 bound_to 7997
  154.4993  140.2123  155.9391 H   0  0  0  0  0  0  0  0  0  0  0  0  # atno 8010 bound_to 7997
  139.8238  144.6719  150.9486 H   0  0  0  0  0  0  0  0  0  0  0  0  # atno 10167 bound_to 10162
  156.4167  130.8008  151.2229 H   0  0  0  0  0  0  0  0  0  0  0  0  # atno 10718 bound_to 10713
  154.6631  135.5314  153.8042 H   0  0  0  0  0  0  0  0  0  0  0  0  # atno 10763 bound_to 10752
  153.0454  135.6510  154.0842 H   0  0  0  0  0  0  0  0  0  0  0  0  # atno 10764 bound_to 10752
  154.0748  135.2951  155.3281 H   0  0  0  0  0  0  0  0  0  0  0  0  # atno 10765 bound_to 10752
  141.1392  133.8140  157.0650 H   0  0  0  0  0  0  0  0  0  0  0  0  # atno 11005 bound_to 11000
  146.2075  139.5408  142.9703 LP  0  0  0  0  0  0  0  0  0  0  0  0  # atno 17320 bound_to 7965
  145.5951  141.0364  143.2049 LP  0  0  0  0  0  0  0  0  0  0  0  0  # atno 17321 bound_to 7965
  140.7811  143.4066  151.1060 LP  0  0  0  0  0  0  0  0  0  0  0  0  # atno 17342 bound_to 10162
  139.7725  143.8473  152.3123 LP  0  0  0  0  0  0  0  0  0  0  0  0  # atno 17343 bound_to 10162
  157.7508  131.0241  150.3861 LP  0  0  0  0  0  0  0  0  0  0  0  0  # atno 17370 bound_to 10713
  156.4170  130.3945  149.6851 LP  0  0  0  0  0  0  0  0  0  0  0  0  # atno 17371 bound_to 10713
  140.0547  134.9787  157.1199 LP  0  0  0  0  0  0  0  0  0  0  0  0  # atno 17394 bound_to 11000
  140.3937  134.2157  155.7165 LP  0  0  0  0  0  0  0  0  0  0  0  0  # atno 17395 bound_to 11000

$$$$
