AV-unprocessed.smi:1205|AV-procd|sdf|5042|dock4
  -GOLD-   22720 4 63D 1   1.00000     0.00000
 Structure written by MMmdl.
 49 50  0  0  0  0  0  0  0  0  2 V2000
  150.7137  142.0723  156.2858 C   0  0  0  0  0  0  0  0  0  0  0  0
  150.4074  140.8687  155.4445 C   0  0  0  0  0  0  0  0  0  0  0  0
  149.1926  140.5564  154.7675 C   0  0  0  0  0  0  0  0  0  0  0  0
  149.4791  139.3582  154.1727 C   0  0  0  0  0  0  0  0  0  0  0  0
  148.6821  138.5764  153.3971 N   0  0  0  0  0  0  0  0  0  0  0  0
  147.3686  138.7074  153.1428 C   0  0  0  0  0  0  0  0  0  0  0  0
  146.6372  139.5927  153.5868 O   0  0  0  0  0  0  0  0  0  0  0  0
  146.9360  137.7418  152.3197 N   0  0  0  0  0  0  0  0  0  0  0  0
  145.5627  137.6033  151.8454 C   0  0  0  0  0  0  0  0  0  0  0  0
  144.7892  136.4810  152.5843 C   0  0  1  0  0  0  0  0  0  0  0  0
  143.2826  136.7782  152.7065 C   0  0  0  0  0  0  0  0  0  0  0  0
  145.0125  135.1287  151.9953 N   0  3  2  0  0  0  0  0  0  0  0  0
  146.3952  134.6184  152.1880 C   0  0  0  0  0  0  0  0  0  0  0  0
  146.4827  133.1292  151.8174 C   0  0  0  0  0  0  0  0  0  0  0  0
  145.9914  132.8860  150.3825 C   0  0  0  0  0  0  0  0  0  0  0  0
  144.5867  133.4787  150.1596 C   0  0  1  0  0  0  0  0  0  0  0  0
  143.4757  132.6533  150.8321 C   0  0  0  0  0  0  0  0  0  0  0  0
  144.5525  134.9597  150.5886 C   0  0  0  0  0  0  0  0  0  0  0  0
  150.7718  139.0025  154.4879 N   0  0  0  0  0  0  0  0  0  0  0  0
  151.5239  137.8237  154.1034 C   0  0  0  0  0  0  0  0  0  0  0  0
  151.3424  139.9407  155.2741 N   0  0  0  0  0  0  0  0  0  0  0  0
  149.8678  142.7593  156.3142 H   0  0  0  0  0  0  0  0  0  0  0  0
  151.5713  142.6188  155.8927 H   0  0  0  0  0  0  0  0  0  0  0  0
  150.9422  141.7851  157.3125 H   0  0  0  0  0  0  0  0  0  0  0  0
  148.2771  141.1279  154.7403 H   0  0  0  0  0  0  0  0  0  0  0  0
  149.1490  137.8043  152.9447 H   0  0  0  0  0  0  0  0  0  0  0  0
  147.6014  137.0524  152.0009 H   0  0  0  0  0  0  0  0  0  0  0  0
  145.0766  138.5669  151.9972 H   0  0  0  0  0  0  0  0  0  0  0  0
  145.5727  137.4288  150.7686 H   0  0  0  0  0  0  0  0  0  0  0  0
  145.1610  136.4347  153.6088 H   0  0  0  0  0  0  0  0  0  0  0  0
  143.1036  137.6707  153.3067 H   0  0  0  0  0  0  0  0  0  0  0  0
  142.7585  135.9551  153.1928 H   0  0  0  0  0  0  0  0  0  0  0  0
  142.8179  136.9426  151.7346 H   0  0  0  0  0  0  0  0  0  0  0  0
  147.0941  135.1956  151.5814 H   0  0  0  0  0  0  0  0  0  0  0  0
  146.6997  134.7433  153.2278 H   0  0  0  0  0  0  0  0  0  0  0  0
  147.5111  132.7814  151.9197 H   0  0  0  0  0  0  0  0  0  0  0  0
  145.8911  132.5400  152.5187 H   0  0  0  0  0  0  0  0  0  0  0  0
  146.6899  133.3510  149.6856 H   0  0  0  0  0  0  0  0  0  0  0  0
  145.9992  131.8195  150.1546 H   0  0  0  0  0  0  0  0  0  0  0  0
  144.3875  133.4443  149.0878 H   0  0  0  0  0  0  0  0  0  0  0  0
  143.5747  132.6433  151.9175 H   0  0  0  0  0  0  0  0  0  0  0  0
  143.4933  131.6189  150.4879 H   0  0  0  0  0  0  0  0  0  0  0  0
  142.4916  133.0591  150.5960 H   0  0  0  0  0  0  0  0  0  0  0  0
  143.5429  135.3497  150.4631 H   0  0  0  0  0  0  0  0  0  0  0  0
  145.1955  135.5376  149.9234 H   0  0  0  0  0  0  0  0  0  0  0  0
  151.4272  137.6585  153.0302 H   0  0  0  0  0  0  0  0  0  0  0  0
  151.1364  136.9545  154.6352 H   0  0  0  0  0  0  0  0  0  0  0  0
  152.5804  137.9468  154.3459 H   0  0  0  0  0  0  0  0  0  0  0  0
  144.4319  134.5121  152.5456 H   0  0  0  0  0  0  0  0  0  0  0  0
  1  2  1  0  0  0  0
  1 22  1  0  0  0  0
  1 23  1  0  0  0  0
  1 24  1  0  0  0  0
  2 21  2  0  0  0  0
  2  3  1  0  0  0  0
  3  4  2  0  0  0  0
  3 25  1  0  0  0  0
  4  5  1  0  0  0  0
  4 19  1  0  0  0  0
  5  6  1  0  0  0  0
  5 26  1  0  0  0  0
  6  7  2  0  0  0  0
  6  8  1  0  0  0  0
  8  9  1  0  0  0  0
  8 27  1  0  0  0  0
  9 10  1  0  0  0  0
  9 28  1  0  0  0  0
  9 29  1  0  0  0  0
 10 11  1  0  0  0  0
 10 12  1  0  0  0  0
 10 30  1  0  0  0  0
 11 31  1  0  0  0  0
 11 32  1  0  0  0  0
 11 33  1  0  0  0  0
 12 18  1  0  0  0  0
 12 13  1  0  0  0  0
 12 49  1  0  0  0  0
 13 14  1  0  0  0  0
 13 34  1  0  0  0  0
 13 35  1  0  0  0  0
 14 15  1  0  0  0  0
 14 36  1  0  0  0  0
 14 37  1  0  0  0  0
 15 16  1  0  0  0  0
 15 38  1  0  0  0  0
 15 39  1  0  0  0  0
 16 17  1  0  0  0  0
 16 18  1  0  0  0  0
 16 40  1  0  0  0  0
 17 41  1  0  0  0  0
 17 42  1  0  0  0  0
 17 43  1  0  0  0  0
 18 44  1  0  0  0  0
 18 45  1  0  0  0  0
 19 20  1  0  0  0  0
 19 21  1  0  0  0  0
 20 46  1  0  0  0  0
 20 47  1  0  0  0  0
 20 48  1  0  0  0  0
M  CHG  1  12   1
M  END
> <s_m_source_file>
AV-unprocessed.smi

> <i_m_source_file_index>
1205

> <i_lp_mmshare_version>
43012

> <i_f3d_flags>
0

> <s_epik_input>
W0NIM11jMVtjSF1jKG4objEpW0NIM10pW05IXUMoPU8pW05IXVtDSDJdW0NASF0oW0NIM10pTjJbQ0gyXVtDSDJdW0NIMl1bQ0BASF0oW0NIM10pW0NIMl0y

> <s_epik_cmdline>
J2VwaWtfcHl0aG9uJywgJy1waCcsICc3LjAnLCAnLXRuJywgJzgnLCAnLW1hJywgJzIwMCcsICctbWV0YWxfYmluZGluZycsICctaW1hZScsICc8aW5maWxlLm1hZT4nLCAnLW9tYWUnLCAnPG91dGZpbGUubWFlPic=

> <r_lp_tautomer_probability>
1

> <r_epik_Ionization_Penalty>
0.0020309

> <r_epik_Ionization_Penalty_Charging>
0.00195276

> <r_epik_Ionization_Penalty_Neutral>
7.81448e-05

> <r_epik_State_Penalty>
0.00133177

> <r_epik_Charging_Adjusted_Penalty>
0.00328452

> <i_epik_Tot_Q>
1

> <i_epik_Tot_abs_Q>
1

> <r_epik_Metal_State_Penalty>
-0

> <b_epik_Metal_Only>
0

> <s_lp_Force_Field>
OPLS_2005

> <r_lp_Energy>
24.2005

> <b_lp_Chiralities_Consistent>
1

> <s_lp_Variant>
AV-unprocessed.smi:1205-4

> <Gold.Version>
5.8.1

> <Gold.Id.Protein>
6NUR|6NUR_protein|mol2

> <Gold.PLP.Fitness>
45.3011

> <Gold.PLP.PLP>
-40.3572

> <Gold.PLP.part.hbond>
-4.0000

> <Gold.PLP.part.metal>
0.0000

> <Gold.PLP.part.buried>
0.5302

> <Gold.PLP.part.nonpolar>
-37.0403

> <Gold.PLP.part.repulsive>
0.3358

> <Gold.PLP.ligand.clash>
0.0000

> <Gold.PLP.ligand.torsion>
0.5557

> <Gold.PLP.Chemscore.Hbond>
1.9812

> <Gold.PLP.Chemscore.CHOScore>
0.0000

> <Gold.PLP.Chemscore.Metal>
0.0000

> <Gold.Chemscore.Hbonds>
donor molecule, donor type, donor heavy atom, donor atom, acceptor molecule, acceptor atom, score
      L1  H     5    26       P1  7948  0.94
      L1  H     8    27       P1  7948  1.00
      P1  H  7989  7998       L1    21  0.03

> <Gold.PLP.Chemscore.Internal.Correction>
0.1118

> <Gold.Rescore>
     Score         DG    S(hbond)    S(metal)    S(lipo)     H(rot)  DE(clash)    DE(int)     intcor
     15.51     -18.71       1.94        0.00      89.91       1.47       1.52       1.68       ----

> <Gold.Chemscore.Fitness>
15.5133

> <Gold.Chemscore.DG>
-18.7138

> <Gold.Chemscore.ZeroCoef>
-5.4800

> <Gold.Chemscore.Hbond>
1.9362

> <Gold.Chemscore.Metal>
0.0000

> <Gold.Chemscore.Lipo>
89.9093

> <Gold.Chemscore.Internal_Hbond>
0.0000

> <Gold.Chemscore.DEClash>
1.5215

> <Gold.Chemscore.DEInternal>
1.6790

> <Gold.Chemscore.Rot>
1.4658

> <Gold.Chemscore.Internal.Correction>
   9.000000E+99

> <Gold.Chemscore.Hbonds>
donor molecule, donor type, donor heavy atom, donor atom, acceptor molecule, acceptor atom, score
      L1  H     5    26       P1  7948  0.91
      L1  H     8    27       P1  7948  0.96

> <Gold.Chemscore.Hbond.Weighted>
-6.4670

> <Gold.Chemscore.Metal.Weighted>
-0.0000

> <Gold.Chemscore.Lipo.Weighted>
-10.5194

> <Gold.Chemscore.Internal_Hbond.Weighted>
0.0000

> <Gold.Chemscore.DEClash.Weighted>
1.5215

> <Gold.Chemscore.DEInternal.Weighted>
1.6790

> <Gold.Chemscore.Rot.Weighted>
3.7526

> <Gold.Chemscore.Internal.Correction.Weighted>
   9.000000E+99

> <Gold.Protein.RotatedTorsions>
[ 6907 6896 6895 6894 ] final   47.59 input  -60.11 | X-H torsion
[ 7974 7965 7964 7962 ] final  -95.15 input  175.53 | X-H torsion
[ 8008 7997 7996 7995 ] final -144.13 input   59.86 | X-H torsion
[ 10167 10162 10161 10158 ] final  -85.33 input  -65.29 | X-H torsion
[ 10718 10713 10712 10709 ] final   96.69 input   66.30 | X-H torsion
[ 10763 10752 10751 10750 ] final -143.14 input  -60.55 | X-H torsion
[ 11005 11000 10999 10996 ] final   66.31 input  -57.11 | X-H torsion

> <Gold.Protein.ActiveResidues>
 VAL166  LYS551  ARG553  GLY616  TRP617  ASP618  TYR619  PRO620  LYS621  CYS622 
 ASP623  PHE694  ASN695  SER759  ASP760  ASP761  ALA762  ILE779  LEU786  VAL792 
 PHE793  MET794  SER795  GLU796  ALA797  LYS798  CYS799  TRP800  GLU811  SER814 

> <Gold.Protein.RotatedAtoms>
  152.2698  134.7945  160.0415 H   0  0  0  0  0  0  0  0  0  0  0  0  # atno 6907 bound_to 6896
  151.8562  133.3443  159.3697 H   0  0  0  0  0  0  0  0  0  0  0  0  # atno 6908 bound_to 6896
  150.7147  134.5179  159.5683 H   0  0  0  0  0  0  0  0  0  0  0  0  # atno 6909 bound_to 6896
  145.3639  140.9496  143.2485 H   0  0  0  0  0  0  0  0  0  0  0  0  # atno 7974 bound_to 7965
  155.5218  140.0592  157.2905 H   0  0  0  0  0  0  0  0  0  0  0  0  # atno 8008 bound_to 7997
  154.4515  140.1951  156.0452 H   0  0  0  0  0  0  0  0  0  0  0  0  # atno 8009 bound_to 7997
  156.0713  140.3259  155.7583 H   0  0  0  0  0  0  0  0  0  0  0  0  # atno 8010 bound_to 7997
  140.4047  143.2648  151.9096 H   0  0  0  0  0  0  0  0  0  0  0  0  # atno 10167 bound_to 10162
  157.6923  131.0586  150.4529 H   0  0  0  0  0  0  0  0  0  0  0  0  # atno 10718 bound_to 10713
  154.8482  135.3476  154.6140 H   0  0  0  0  0  0  0  0  0  0  0  0  # atno 10763 bound_to 10752
  153.6748  135.6983  153.5140 H   0  0  0  0  0  0  0  0  0  0  0  0  # atno 10764 bound_to 10752
  153.2714  135.4292  155.0947 H   0  0  0  0  0  0  0  0  0  0  0  0  # atno 10765 bound_to 10752
  139.9840  134.6698  156.0210 H   0  0  0  0  0  0  0  0  0  0  0  0  # atno 11005 bound_to 11000
  144.8626  139.5155  143.6805 LP  0  0  0  0  0  0  0  0  0  0  0  0  # atno 17320 bound_to 7965
  146.2915  139.7154  142.9157 LP  0  0  0  0  0  0  0  0  0  0  0  0  # atno 17321 bound_to 7965
  139.4784  144.5598  151.8257 LP  0  0  0  0  0  0  0  0  0  0  0  0  # atno 17342 bound_to 10162
  140.4702  144.1597  150.5917 LP  0  0  0  0  0  0  0  0  0  0  0  0  # atno 17343 bound_to 10162
  156.4879  130.4088  149.6423 LP  0  0  0  0  0  0  0  0  0  0  0  0  # atno 17370 bound_to 10713
  156.3445  130.7399  151.2349 LP  0  0  0  0  0  0  0  0  0  0  0  0  # atno 17371 bound_to 10713
  141.1508  133.6549  156.4006 LP  0  0  0  0  0  0  0  0  0  0  0  0  # atno 17394 bound_to 11000
  140.5040  134.6459  157.5259 LP  0  0  0  0  0  0  0  0  0  0  0  0  # atno 17395 bound_to 11000

$$$$
