#       Name:                AV-unprocessed.smi:1036
#       Creating user name   scv26
#       Creation time:       Fri Mar 27 02:53:13 2020


#       File generated by GOLD software.
#

@<TRIPOS>MOLECULE
AV-unprocessed.smi:1036
    46    48     1
SMALL
NO_CHARGES


@<TRIPOS>ATOM
      1 ****        -3.9017  -0.2078  -2.8885 O.3            1 S1                 0.0000
      2 ****        -2.7990  -0.8773  -2.3178 C.3            1 S1                 0.0000
      3 ****        -2.4504  -0.2467  -0.9621 C.3            1 S1                 0.0000
      4 ****        -1.4807   0.8265  -1.0864 N.pl3          1 S1                 0.0000
      5 ****        -0.1025   0.8162  -1.2670 C.2            1 S1                 0.0000
      6 ****         0.6392   1.9186  -1.3579 N.2            1 S1                 0.0000
      7 ****         1.9111   1.4044  -1.5256 C.ar           1 S1                 0.0000
      8 ****         3.1533   2.0604  -1.6809 C.ar           1 S1                 0.0000
      9 ****         4.3397   1.3142  -1.8386 C.ar           1 S1                 0.0000
     10 ****         4.3017  -0.0953  -1.8440 C.ar           1 S1                 0.0000
     11 ****         3.0751  -0.7693  -1.6902 C.ar           1 S1                 0.0000
     12 ****         1.8938  -0.0205  -1.5327 C.ar           1 S1                 0.0000
     13 ****         0.5569  -0.3642  -1.3564 N.pl3          1 S1                 0.0000
     14 ****         0.0211  -1.7172  -1.2795 C.3            1 S1                 0.0000
     15 ****         0.2717  -2.3631   0.0972 C.3            1 S1                 0.0000
     16 ****        -0.1140  -3.7207   0.0210 O.3            1 S1                 0.0000
     17 ****        -0.4352  -1.6212   1.2263 C.ar           1 S1                 0.0000
     18 ****        -1.8095  -1.8385   1.4720 C.ar           1 S1                 0.0000
     19 ****        -2.4650  -1.1498   2.5102 C.ar           1 S1                 0.0000
     20 ****        -3.7819  -1.3644   2.7382 F              1 S1                 0.0000
     21 ****        -1.7532  -0.2337   3.3070 C.ar           1 S1                 0.0000
     22 ****        -0.3867  -0.0030   3.0610 C.ar           1 S1                 0.0000
     23 ****         0.2720  -0.6931   2.0250 C.ar           1 S1                 0.0000
     24 ****         1.5858  -0.4528   1.7985 F              1 S1                 0.0000
     25 ****        -3.6601   0.6940  -3.0349 H              1 S1                 0.0000
     26 ****        -3.0918  -1.9172  -2.1715 H              1 S1                 0.0000
     27 ****        -1.9508  -0.8773  -3.0035 H              1 S1                 0.0000
     28 ****        -3.3433   0.1111  -0.4483 H              1 S1                 0.0000
     29 ****        -2.0067  -1.0071  -0.3187 H              1 S1                 0.0000
     30 ****        -1.8881   1.7480  -1.0213 H              1 S1                 0.0000
     31 ****         3.1936   3.1396  -1.6786 H              1 S1                 0.0000
     32 ****         5.2837   1.8258  -1.9560 H              1 S1                 0.0000
     33 ****         5.2153  -0.6588  -1.9659 H              1 S1                 0.0000
     34 ****         3.0427  -1.8488  -1.6923 H              1 S1                 0.0000
     35 ****        -1.0424  -1.7131  -1.5201 H              1 S1                 0.0000
     36 ****         0.5040  -2.3068  -2.0601 H              1 S1                 0.0000
     37 ****         1.3437  -2.3696   0.2965 H              1 S1                 0.0000
     38 ****         0.1444  -4.1508   0.8219 H              1 S1                 0.0000
     39 ****        -2.3683  -2.5335   0.8627 H              1 S1                 0.0000
     40 ****        -2.2567   0.2973   4.1013 H              1 S1                 0.0000
     41 ****         0.1574   0.7059   3.6675 H              1 S1                 0.0000
     42 ****        -4.6827  -0.2514  -2.2655 LP             1 S1                 0.0000
     43 ****        -4.1446  -0.6377  -3.7581 LP             1 S1                 0.0000
     44 ****         0.3496   2.8748  -1.3156 LP             1 S1                 0.0000
     45 ****         0.3380  -4.1568  -0.7572 LP             1 S1                 0.0000
     46 ****        -1.1057  -3.7840  -0.0912 LP             1 S1                 0.0000
@<TRIPOS>BOND
    1    1    2 1     
    2    1   25 1     
    3    2    3 1     
    4    2   26 1     
    5    2   27 1     
    6    3    4 1     
    7    3   28 1     
    8    3   29 1     
    9    4    5 1     
   10    4   30 1     
   11    5   13 1     
   12    5    6 2     
   13    6    7 1     
   14    7   12 ar    
   15    7    8 ar    
   16    8    9 ar    
   17    8   31 1     
   18    9   10 ar    
   19    9   32 1     
   20   10   11 ar    
   21   10   33 1     
   22   11   12 ar    
   23   11   34 1     
   24   12   13 1     
   25   13   14 1     
   26   14   15 1     
   27   14   35 1     
   28   14   36 1     
   29   15   16 1     
   30   15   17 1     
   31   15   37 1     
   32   16   38 1     
   33   17   23 ar    
   34   17   18 ar    
   35   18   19 ar    
   36   18   39 1     
   37   19   20 1     
   38   19   21 ar    
   39   21   22 ar    
   40   21   40 1     
   41   22   23 ar    
   42   22   41 1     
   43   23   24 1     
   44    1   42 1     
   45    1   43 1     
   46    6   44 1     
   47   16   45 1     
   48   16   46 1     
@<TRIPOS>SUBSTRUCTURE
      1 S1             1
@<TRIPOS>SET
LONE_PAIRS      STATIC     ATOMS    <user>   **** ""
5 42 43 44 45 46
DONOR_HYDROGENS      STATIC     ATOMS    <user>   **** ""
3 25 30 38
ATOM$BLUE        STATIC     ATOMS    COLORGROUP SYSTEM
5 42 43 44 45 46
ATOM$RED        STATIC     ATOMS    COLORGROUP SYSTEM
3 25 30 38
