#       Name:                AV-unprocessed.smi:2298
#       Creating user name   scv26
#       Creation time:       Fri Mar 27 12:44:38 2020


#       File generated by GOLD software.
#

@<TRIPOS>MOLECULE
AV-unprocessed.smi:2298
    42    43     1
SMALL
NO_CHARGES


@<TRIPOS>ATOM
      1 ****        -5.8156   2.8740   1.3524 C.3            1 S1                 0.0000
      2 ****        -4.9737   1.6345   1.1146 C.ar           1 S1                 0.0000
      3 ****        -5.6405   0.4603   1.1480 N.ar           1 S1                 0.0000
      4 ****        -4.9382  -0.6737   0.9501 C.ar           1 S1                 0.0000
      5 ****        -3.5519  -0.6941   0.7065 C.ar           1 S1                 0.0000
      6 ****        -2.8513   0.5352   0.6548 C.ar           1 S1                 0.0000
      7 ****        -1.4484   0.6348   0.4324 N.am           1 S1                 0.0000
      8 ****        -0.6119  -0.2589  -0.1232 C.2            1 S1                 0.0000
      9 ****        -0.9326  -1.3648  -0.5581 O.2            1 S1                 0.0000
     10 ****         0.6426   0.2136  -0.1617 N.am           1 S1                 0.0000
     11 ****         1.7957  -0.4999  -0.7030 C.3            1 S1                 0.0000
     12 ****         2.8532   0.5123  -1.1831 C.3            1 S1                 0.0000
     13 ****         4.1114  -0.1973  -1.7091 C.3            1 S1                 0.0000
     14 ****         4.6993  -1.1417  -0.6465 C.3            1 S1                 0.0000
     15 ****         5.8102  -1.8262  -1.1856 O.3            1 S1                 0.0000
     16 ****         3.6494  -2.1598  -0.1691 C.3            1 S1                 0.0000
     17 ****         2.3897  -1.4523   0.3554 C.3            1 S1                 0.0000
     18 ****        -3.5819   1.7266   0.8766 C.ar           1 S1                 0.0000
     19 ****        -2.7916   3.2680   0.8524 Cl             1 S1                 0.0000
     20 ****         1.4773  -1.0878  -1.5665 H              1 S1                 0.0000
     21 ****         5.0476  -0.5554   0.2048 H              1 S1                 0.0000
     22 ****        -5.7691   3.5347   0.4867 H              1 S1                 0.0000
     23 ****        -5.4510   3.4187   2.2235 H              1 S1                 0.0000
     24 ****        -6.8623   2.6212   1.5275 H              1 S1                 0.0000
     25 ****        -5.4979  -1.5963   0.9937 H              1 S1                 0.0000
     26 ****        -3.0609  -1.6458   0.5780 H              1 S1                 0.0000
     27 ****        -1.0417   1.5267   0.6736 H              1 S1                 0.0000
     28 ****         0.8152   1.1350   0.2133 H              1 S1                 0.0000
     29 ****         2.4357   1.1456  -1.9667 H              1 S1                 0.0000
     30 ****         3.1302   1.1765  -0.3630 H              1 S1                 0.0000
     31 ****         3.8583  -0.7609  -2.6083 H              1 S1                 0.0000
     32 ****         4.8554   0.5427  -2.0063 H              1 S1                 0.0000
     33 ****         5.5184  -2.3391  -1.9237 H              1 S1                 0.0000
     34 ****         3.3738  -2.8234  -0.9902 H              1 S1                 0.0000
     35 ****         4.0691  -2.7928   0.6136 H              1 S1                 0.0000
     36 ****         2.6396  -0.8923   1.2579 H              1 S1                 0.0000
     37 ****         1.6500  -2.1976   0.6501 H              1 S1                 0.0000
     38 ****        -6.6262   0.4328   1.3146 LP             1 S1                 0.0000
     39 ****        -1.8863  -1.6623  -0.5135 LP             1 S1                 0.0000
     40 ****        -0.2395  -1.9658  -0.9561 LP             1 S1                 0.0000
     41 ****         6.2043  -2.4285  -0.4914 LP             1 S1                 0.0000
     42 ****         6.4996  -1.1667  -1.4850 LP             1 S1                 0.0000
@<TRIPOS>BOND
    1    1    2 1     
    2    1   22 1     
    3    1   23 1     
    4    1   24 1     
    5    2   18 ar    
    6    2    3 ar    
    7    3    4 ar    
    8    4    5 ar    
    9    4   25 1     
   10    5    6 ar    
   11    5   26 1     
   12    6    7 1     
   13    6   18 ar    
   14    7    8 am    
   15    7   27 1     
   16    8    9 2     
   17    8   10 am    
   18   10   11 1     
   19   10   28 1     
   20   11   20 1     
   21   11   17 1     
   22   11   12 1     
   23   12   13 1     
   24   12   29 1     
   25   12   30 1     
   26   13   14 1     
   27   13   31 1     
   28   13   32 1     
   29   14   21 1     
   30   14   15 1     
   31   14   16 1     
   32   15   33 1     
   33   16   17 1     
   34   16   34 1     
   35   16   35 1     
   36   17   36 1     
   37   17   37 1     
   38   18   19 1     
   39    3   38 1     
   40    9   39 1     
   41    9   40 1     
   42   15   41 1     
   43   15   42 1     
@<TRIPOS>SUBSTRUCTURE
      1 S1             1
@<TRIPOS>SET
LONE_PAIRS      STATIC     ATOMS    <user>   **** ""
5 38 39 40 41 42
DONOR_HYDROGENS      STATIC     ATOMS    <user>   **** ""
3 27 28 33
ATOM$BLUE        STATIC     ATOMS    COLORGROUP SYSTEM
5 38 39 40 41 42
ATOM$RED        STATIC     ATOMS    COLORGROUP SYSTEM
3 27 28 33
