#       Name:                AV-unprocessed.smi:3044
#       Creating user name   scv26
#       Creation time:       Fri Mar 27 16:58:33 2020


#       File generated by GOLD software.
#

@<TRIPOS>MOLECULE
AV-unprocessed.smi:3044
    46    47     1
SMALL
NO_CHARGES


@<TRIPOS>ATOM
      1 ****        -2.2383  -1.8694   0.1175 C.3            1 S1                 0.0000
      2 ****        -3.2814  -0.9686   0.7572 C.ar           1 S1                 0.0000
      3 ****        -4.5408  -1.4595   0.7742 N.ar           1 S1                 0.0000
      4 ****        -5.5117  -0.7066   1.3321 C.ar           1 S1                 0.0000
      5 ****        -5.2752   0.5582   1.9026 C.ar           1 S1                 0.0000
      6 ****        -3.9636   1.0685   1.8836 C.ar           1 S1                 0.0000
      7 ****        -2.9356   0.2990   1.2871 C.ar           1 S1                 0.0000
      8 ****        -1.5775   0.7163   1.2342 N.am           1 S1                 0.0000
      9 ****        -1.0740   1.9649   1.2317 C.2            1 S1                 0.0000
     10 ****        -1.7474   2.9910   1.3150 O.2            1 S1                 0.0000
     11 ****         0.4473   2.0780   1.1106 C.3            1 S1                 0.0000
     12 ****         0.9580   0.9085   0.4827 O.3            1 S1                 0.0000
     13 ****         2.3661   0.8928   0.2900 C.3            1 S1                 0.0000
     14 ****         2.7640   1.6890  -0.9698 C.3            1 S1                 0.0000
     15 ****         2.2097   1.0407  -2.2487 C.3            1 S1                 0.0000
     16 ****         2.6462  -0.4283  -2.3647 C.3            1 S1                 0.0000
     17 ****         2.2402  -1.2396  -1.1197 C.3            1 S1                 0.0000
     18 ****         2.6847  -2.7046  -1.2336 C.3            1 S1                 0.0000
     19 ****         2.7960  -0.5800   0.1597 C.3            1 S1                 0.0000
     20 ****        -1.7636  -1.3637  -0.7240 H              1 S1                 0.0000
     21 ****        -2.6801  -2.7954  -0.2528 H              1 S1                 0.0000
     22 ****        -1.4663  -2.1306   0.8418 H              1 S1                 0.0000
     23 ****        -6.5059  -1.1279   1.3302 H              1 S1                 0.0000
     24 ****        -6.0809   1.1215   2.3493 H              1 S1                 0.0000
     25 ****        -3.7695   2.0278   2.3375 H              1 S1                 0.0000
     26 ****        -0.9042  -0.0210   1.0824 H              1 S1                 0.0000
     27 ****         0.6935   2.9709   0.5357 H              1 S1                 0.0000
     28 ****         0.8747   2.1916   2.1078 H              1 S1                 0.0000
     29 ****         2.8586   1.3170   1.1668 H              1 S1                 0.0000
     30 ****         2.4299   2.7238  -0.9011 H              1 S1                 0.0000
     31 ****         3.8520   1.7309  -1.0348 H              1 S1                 0.0000
     32 ****         1.1205   1.1004  -2.2481 H              1 S1                 0.0000
     33 ****         2.5483   1.5978  -3.1226 H              1 S1                 0.0000
     34 ****         2.2050  -0.8704  -3.2586 H              1 S1                 0.0000
     35 ****         3.7278  -0.4756  -2.4991 H              1 S1                 0.0000
     36 ****         1.1508  -1.2359  -1.0578 H              1 S1                 0.0000
     37 ****         3.7701  -2.7858  -1.2974 H              1 S1                 0.0000
     38 ****         2.2623  -3.1750  -2.1220 H              1 S1                 0.0000
     39 ****         2.3577  -3.2819  -0.3685 H              1 S1                 0.0000
     40 ****         3.8854  -0.6349   0.1524 H              1 S1                 0.0000
     41 ****         2.4686  -1.1354   1.0394 H              1 S1                 0.0000
     42 ****        -4.7474  -2.3566   0.3838 LP             1 S1                 0.0000
     43 ****        -2.7427   2.9311   1.3914 LP             1 S1                 0.0000
     44 ****        -1.2996   3.8851   1.3064 LP             1 S1                 0.0000
     45 ****         0.5219   0.8224  -0.4130 LP             1 S1                 0.0000
     46 ****         0.7141   0.1213   1.0492 LP             1 S1                 0.0000
@<TRIPOS>BOND
    1    1    2 1     
    2    1   20 1     
    3    1   21 1     
    4    1   22 1     
    5    2    7 ar    
    6    2    3 ar    
    7    3    4 ar    
    8    4    5 ar    
    9    4   23 1     
   10    5    6 ar    
   11    5   24 1     
   12    6    7 ar    
   13    6   25 1     
   14    7    8 1     
   15    8    9 am    
   16    8   26 1     
   17    9   10 2     
   18    9   11 1     
   19   11   12 1     
   20   11   27 1     
   21   11   28 1     
   22   12   13 1     
   23   13   19 1     
   24   13   14 1     
   25   13   29 1     
   26   14   15 1     
   27   14   30 1     
   28   14   31 1     
   29   15   16 1     
   30   15   32 1     
   31   15   33 1     
   32   16   17 1     
   33   16   34 1     
   34   16   35 1     
   35   17   18 1     
   36   17   19 1     
   37   17   36 1     
   38   18   37 1     
   39   18   38 1     
   40   18   39 1     
   41   19   40 1     
   42   19   41 1     
   43    3   42 1     
   44   10   43 1     
   45   10   44 1     
   46   12   45 1     
   47   12   46 1     
@<TRIPOS>SUBSTRUCTURE
      1 S1             1
@<TRIPOS>SET
LONE_PAIRS      STATIC     ATOMS    <user>   **** ""
5 42 43 44 45 46
DONOR_HYDROGENS      STATIC     ATOMS    <user>   **** ""
1 26
ATOM$BLUE        STATIC     ATOMS    COLORGROUP SYSTEM
5 42 43 44 45 46
ATOM$RED        STATIC     ATOMS    COLORGROUP SYSTEM
1 26
