AV-unprocessed.smi:790|AV-procd|sdf|3746|dock8
  -GOLD-   22720 1173D 1   1.00000     0.00000
 Structure written by MMmdl.
 38 40  0  0  0  0  0  0  0  0  1 V2000
  149.0771  140.8070  158.2328 O   0  0  0  0  0  0  0  0  0  0  0  0
  149.0511  141.8002  157.5067 C   0  0  0  0  0  0  0  0  0  0  0  0
  149.8121  142.8973  157.6573 N   0  0  0  0  0  0  0  0  0  0  0  0
  150.7986  143.1673  158.6441 C   0  0  0  0  0  0  0  0  0  0  0  0
  151.1293  144.4618  159.1138 C   0  0  0  0  0  0  0  0  0  0  0  0
  152.1159  144.5913  160.1104 C   0  0  0  0  0  0  0  0  0  0  0  0
  152.7311  143.4248  160.6043 C   0  0  0  0  0  0  0  0  0  0  0  0
  152.4174  142.1845  160.1748 N   0  0  0  0  0  0  0  0  0  0  0  0
  151.4699  142.0681  159.2203 C   0  0  0  0  0  0  0  0  0  0  0  0
  148.2210  141.9301  156.4624 N   0  0  0  0  0  0  0  0  0  0  0  0
  147.2554  140.9247  156.0173 C   0  0  2  0  0  0  0  0  0  0  0  0
  147.9801  139.6041  155.6795 C   0  0  1  0  0  0  0  0  0  0  0  0
  146.9433  138.4690  155.5959 C   0  0  0  0  0  0  0  0  0  0  0  0
  146.2039  138.7891  154.2827 C   0  0  0  0  0  0  0  0  0  0  0  0
  146.9150  140.0654  153.7898 C   0  0  2  0  0  0  0  0  0  0  0  0
  148.3524  139.7930  154.2138 C   0  0  0  0  0  0  0  0  0  0  0  0
  146.5107  141.2600  154.6888 C   0  0  2  0  0  0  0  0  0  0  0  0
  146.8249  142.6351  154.0556 C   0  0  0  0  0  0  0  0  0  0  0  0
  148.2140  142.8862  154.0838 O   0  0  0  0  0  0  0  0  0  0  0  0
  149.6220  143.6576  157.0209 H   0  0  0  0  0  0  0  0  0  0  0  0
  150.6427  145.3511  158.7456 H   0  0  0  0  0  0  0  0  0  0  0  0
  152.3916  145.5636  160.4910 H   0  0  0  0  0  0  0  0  0  0  0  0
  153.4912  143.4891  161.3686 H   0  0  0  0  0  0  0  0  0  0  0  0
  151.2425  141.0606  158.9035 H   0  0  0  0  0  0  0  0  0  0  0  0
  148.2621  142.7848  155.9268 H   0  0  0  0  0  0  0  0  0  0  0  0
  146.5365  140.7498  156.8200 H   0  0  0  0  0  0  0  0  0  0  0  0
  148.8155  139.3727  156.3419 H   0  0  0  0  0  0  0  0  0  0  0  0
  147.4350  137.4975  155.5312 H   0  0  0  0  0  0  0  0  0  0  0  0
  146.2751  138.4486  156.4577 H   0  0  0  0  0  0  0  0  0  0  0  0
  146.3292  137.9757  153.5671 H   0  0  0  0  0  0  0  0  0  0  0  0
  145.1340  138.9388  154.4313 H   0  0  0  0  0  0  0  0  0  0  0  0
  146.7791  140.2424  152.7225 H   0  0  0  0  0  0  0  0  0  0  0  0
  149.0270  140.6325  154.0404 H   0  0  0  0  0  0  0  0  0  0  0  0
  148.7762  138.8973  153.7558 H   0  0  0  0  0  0  0  0  0  0  0  0
  145.4358  141.2283  154.8739 H   0  0  0  0  0  0  0  0  0  0  0  0
  146.5094  142.6587  153.0125 H   0  0  0  0  0  0  0  0  0  0  0  0
  146.3061  143.4429  154.5718 H   0  0  0  0  0  0  0  0  0  0  0  0
  148.4948  142.9157  154.9856 H   0  0  0  0  0  0  0  0  0  0  0  0
  1  2  2  0  0  0  0
  2  3  1  0  0  0  0
  2 10  1  0  0  0  0
  3  4  1  0  0  0  0
  3 20  1  0  0  0  0
  4  9  1  0  0  0  0
  4  5  2  0  0  0  0
  5  6  1  0  0  0  0
  5 21  1  0  0  0  0
  6  7  2  0  0  0  0
  6 22  1  0  0  0  0
  7  8  1  0  0  0  0
  7 23  1  0  0  0  0
  8  9  2  0  0  0  0
  9 24  1  0  0  0  0
 10 11  1  0  0  0  0
 10 25  1  0  0  0  0
 11 17  1  0  0  0  0
 11 12  1  0  0  0  0
 11 26  1  0  0  0  0
 12 16  1  0  0  0  0
 12 13  1  0  0  0  0
 12 27  1  0  0  0  0
 13 14  1  0  0  0  0
 13 28  1  0  0  0  0
 13 29  1  0  0  0  0
 14 15  1  0  0  0  0
 14 30  1  0  0  0  0
 14 31  1  0  0  0  0
 15 16  1  0  0  0  0
 15 17  1  0  0  0  0
 15 32  1  0  0  0  0
 16 33  1  0  0  0  0
 16 34  1  0  0  0  0
 17 18  1  0  0  0  0
 17 35  1  0  0  0  0
 18 19  1  0  0  0  0
 18 36  1  0  0  0  0
 18 37  1  0  0  0  0
 19 38  1  0  0  0  0
M  END
> <s_m_source_file>
AV-unprocessed.smi

> <i_m_source_file_index>
790

> <i_lp_mmshare_version>
43012

> <i_f3d_flags>
0

> <s_epik_input>
W0NIMl0xW0NIMl1bQ0BASF0oW0NIMl0yKVtDQEBIXShbQ0gyXVtPSF0pW0NAQEhdKFtDQEhdMTIpW05IXUMoPU8pW05IXWMzW2NIXVtjSF1bY0hdbltjSF0z

> <s_epik_cmdline>
J2VwaWtfcHl0aG9uJywgJy1waCcsICc3LjAnLCAnLXRuJywgJzgnLCAnLW1hJywgJzIwMCcsICctbWV0YWxfYmluZGluZycsICctaW1hZScsICc8aW5maWxlLm1hZT4nLCAnLW9tYWUnLCAnPG91dGZpbGUubWFlPic=

> <r_epik_Ionization_Penalty>
0.00497582

> <r_epik_Ionization_Penalty_Charging>
0

> <r_epik_Ionization_Penalty_Neutral>
0.00497582

> <r_epik_State_Penalty>
0.00358602

> <r_epik_Charging_Adjusted_Penalty>
0.00358602

> <i_epik_Tot_Q>
0

> <i_epik_Tot_abs_Q>
0

> <r_epik_Metal_State_Penalty>
-0

> <b_epik_Metal_Only>
0

> <s_lp_Force_Field>
OPLS_2005

> <r_lp_Energy>
52.0711

> <b_lp_Chiralities_Consistent>
1

> <s_lp_Variant>
AV-unprocessed.smi:790-7

> <Gold.Version>
5.8.1

> <Gold.Id.Protein>
6NUR|6NUR_protein|mol2

> <Gold.PLP.Fitness>
40.3548

> <Gold.PLP.PLP>
-31.2614

> <Gold.PLP.part.hbond>
-4.6786

> <Gold.PLP.part.metal>
0.0000

> <Gold.PLP.part.buried>
-4.1681

> <Gold.PLP.part.nonpolar>
-22.1024

> <Gold.PLP.part.repulsive>
0.0465

> <Gold.PLP.ligand.clash>
0.0000

> <Gold.PLP.ligand.torsion>
0.2942

> <Gold.PLP.Chemscore.Hbond>
3.2233

> <Gold.PLP.Chemscore.CHOScore>
0.0000

> <Gold.PLP.Chemscore.Metal>
0.0000

> <Gold.Chemscore.Hbonds>
donor molecule, donor type, donor heavy atom, donor atom, acceptor molecule, acceptor atom, score
      L1  H     3    20       P1  8028  1.00
      L1  H    10    25       P1  8028  0.99
      L1  H    19    38       P1  8028  0.27
      P1  H  8022  8030       L1    19  0.93

> <Gold.PLP.Chemscore.Internal.Correction>
0.0121

> <Gold.Rescore>
     Score         DG    S(hbond)    S(metal)    S(lipo)     H(rot)  DE(clash)    DE(int)     intcor
     15.80     -19.21       2.57        0.00      83.02       1.78       0.05       3.36       ----

> <Gold.Chemscore.Fitness>
15.7960

> <Gold.Chemscore.DG>
-19.2144

> <Gold.Chemscore.ZeroCoef>
-5.4800

> <Gold.Chemscore.Hbond>
2.5668

> <Gold.Chemscore.Metal>
0.0000

> <Gold.Chemscore.Lipo>
83.0224

> <Gold.Chemscore.Internal_Hbond>
0.0000

> <Gold.Chemscore.DEClash>
0.0538

> <Gold.Chemscore.DEInternal>
3.3646

> <Gold.Chemscore.Rot>
1.7783

> <Gold.Chemscore.Internal.Correction>
   9.000000E+99

> <Gold.Chemscore.Hbonds>
donor molecule, donor type, donor heavy atom, donor atom, acceptor molecule, acceptor atom, score
      L1  H     3    20       P1  8028  0.93
      L1  H    10    25       P1  8028  0.82
      L1  H    19    38       P1  8028  0.26
      P1  H  8011  8017       L1    19  0.01
      P1  H  8022  8030       L1    19  0.15

> <Gold.Chemscore.Hbond.Weighted>
-8.5733

> <Gold.Chemscore.Metal.Weighted>
-0.0000

> <Gold.Chemscore.Lipo.Weighted>
-9.7136

> <Gold.Chemscore.Internal_Hbond.Weighted>
0.0000

> <Gold.Chemscore.DEClash.Weighted>
0.0538

> <Gold.Chemscore.DEInternal.Weighted>
3.3646

> <Gold.Chemscore.Rot.Weighted>
4.5525

> <Gold.Chemscore.Internal.Correction.Weighted>
   9.000000E+99

> <Gold.Protein.RotatedTorsions>
[ 6907 6896 6895 6894 ] final   66.79 input  -60.11 | X-H torsion
[ 7974 7965 7964 7962 ] final  -21.20 input  175.53 | X-H torsion
[ 8008 7997 7996 7995 ] final   -8.16 input   59.86 | X-H torsion
[ 10167 10162 10161 10158 ] final -176.19 input  -65.29 | X-H torsion
[ 10718 10713 10712 10709 ] final -178.55 input   66.30 | X-H torsion
[ 10763 10752 10751 10750 ] final -110.17 input  -60.55 | X-H torsion
[ 11005 11000 10999 10996 ] final -161.52 input  -57.11 | X-H torsion

> <Gold.Protein.ActiveResidues>
 VAL166  LYS551  ARG553  GLY616  TRP617  ASP618  TYR619  PRO620  LYS621  CYS622 
 ASP623  PHE694  ASN695  SER759  ASP760  ASP761  ALA762  ILE779  LEU786  VAL792 
 PHE793  MET794  SER795  GLU796  ALA797  LYS798  CYS799  TRP800  GLU811  SER814 

> <Gold.Protein.RotatedAtoms>
  152.4506  134.5402  159.9836 H   0  0  0  0  0  0  0  0  0  0  0  0  # atno 6907 bound_to 6896
  151.5476  133.3417  159.2955 H   0  0  0  0  0  0  0  0  0  0  0  0  # atno 6908 bound_to 6896
  150.8434  134.7766  159.7014 H   0  0  0  0  0  0  0  0  0  0  0  0  # atno 6909 bound_to 6896
  146.1746  140.4308  142.8518 H   0  0  0  0  0  0  0  0  0  0  0  0  # atno 7974 bound_to 7965
  154.5768  140.2388  155.8111 H   0  0  0  0  0  0  0  0  0  0  0  0  # atno 8008 bound_to 7997
  156.2149  140.3015  155.9773 H   0  0  0  0  0  0  0  0  0  0  0  0  # atno 8009 bound_to 7997
  155.2613  140.0414  157.2988 H   0  0  0  0  0  0  0  0  0  0  0  0  # atno 8010 bound_to 7997
  139.5542  144.2031  152.1131 H   0  0  0  0  0  0  0  0  0  0  0  0  # atno 10167 bound_to 10162
  156.8460  130.9703  151.3096 H   0  0  0  0  0  0  0  0  0  0  0  0  # atno 10718 bound_to 10713
  154.8233  135.4574  154.0844 H   0  0  0  0  0  0  0  0  0  0  0  0  # atno 10763 bound_to 10752
  153.2179  135.6890  153.8041 H   0  0  0  0  0  0  0  0  0  0  0  0  # atno 10764 bound_to 10752
  153.7469  135.3304  155.3291 H   0  0  0  0  0  0  0  0  0  0  0  0  # atno 10765 bound_to 10752
  140.6195  134.4766  157.5222 H   0  0  0  0  0  0  0  0  0  0  0  0  # atno 11005 bound_to 11000
  144.8216  140.6559  143.6349 LP  0  0  0  0  0  0  0  0  0  0  0  0  # atno 17320 bound_to 7965
  145.4247  139.1558  143.4055 LP  0  0  0  0  0  0  0  0  0  0  0  0  # atno 17321 bound_to 7965
  140.1532  144.5095  150.6675 LP  0  0  0  0  0  0  0  0  0  0  0  0  # atno 17342 bound_to 10162
  140.6812  143.2327  151.5380 LP  0  0  0  0  0  0  0  0  0  0  0  0  # atno 17343 bound_to 10162
  157.6329  130.8744  149.9307 LP  0  0  0  0  0  0  0  0  0  0  0  0  # atno 17370 bound_to 10713
  156.0854  130.3668  150.0498 LP  0  0  0  0  0  0  0  0  0  0  0  0  # atno 17371 bound_to 10713
  139.9159  134.8247  156.1368 LP  0  0  0  0  0  0  0  0  0  0  0  0  # atno 17394 bound_to 11000
  141.0752  133.6778  156.2223 LP  0  0  0  0  0  0  0  0  0  0  0  0  # atno 17395 bound_to 11000

$$$$
