AV-unprocessed.smi:1952|AV-procd|sdf|7890|dock8
  -GOLD-   2272010 43D 1   1.00000     0.00000
 Structure written by MMmdl.
 39 40  0  0  0  0  0  0  0  0  3 V2000
  146.8522  136.3066  162.9529 C   0  0  0  0  0  0  0  0  0  0  0  0
  147.4744  136.0540  161.6226 C   0  0  0  0  0  0  0  0  0  0  0  0
  147.8287  134.9112  160.9634 C   0  0  0  0  0  0  0  0  0  0  0  0
  148.3736  135.3962  159.7436 C   0  0  0  0  0  0  0  0  0  0  0  0
  148.8605  134.6456  158.7435 N   0  5  0  0  0  0  0  0  0  0  0  0
  149.0944  135.1987  157.5327 C   0  0  0  0  0  0  0  0  0  0  0  0
  149.5185  136.3366  157.3204 O   0  0  0  0  0  0  0  0  0  0  0  0
  148.7845  134.3940  156.5046 N   0  0  0  0  0  0  0  0  0  0  0  0
  148.8228  134.7367  155.0816 C   0  0  1  0  0  0  0  0  0  0  0  0
  150.2363  135.2058  154.7114 C   0  0  0  0  0  0  0  0  0  0  0  0
  148.3816  133.5332  154.2176 C   0  0  0  0  0  0  0  0  0  0  0  0
  147.6153  133.9439  153.0143 N   0  3  0  0  0  0  0  0  0  0  0  0
  147.1826  132.8071  152.1679 C   0  0  0  0  0  0  0  0  0  0  0  0
  146.5036  133.3329  150.8929 C   0  0  0  0  0  0  0  0  0  0  0  0
  145.4004  134.1582  151.2493 O   0  0  0  0  0  0  0  0  0  0  0  0
  145.8053  135.2930  152.0064 C   0  0  0  0  0  0  0  0  0  0  0  0
  146.4703  134.8329  153.3151 C   0  0  0  0  0  0  0  0  0  0  0  0
  148.3405  136.7161  159.6634 N   0  0  0  0  0  0  0  0  0  0  0  0
  147.7711  137.1458  160.8678 O   0  0  0  0  0  0  0  0  0  0  0  0
  146.0111  136.9941  162.8630 H   0  0  0  0  0  0  0  0  0  0  0  0
  147.5764  136.7440  163.6402 H   0  0  0  0  0  0  0  0  0  0  0  0
  146.4848  135.3794  163.3929 H   0  0  0  0  0  0  0  0  0  0  0  0
  147.7190  133.8915  161.3004 H   0  0  0  0  0  0  0  0  0  0  0  0
  148.4519  133.4690  156.7360 H   0  0  0  0  0  0  0  0  0  0  0  0
  148.1520  135.5758  154.8916 H   0  0  0  0  0  0  0  0  0  0  0  0
  150.2911  135.4941  153.6612 H   0  0  0  0  0  0  0  0  0  0  0  0
  150.9738  134.4203  154.8800 H   0  0  0  0  0  0  0  0  0  0  0  0
  150.5304  136.0717  155.3056 H   0  0  0  0  0  0  0  0  0  0  0  0
  149.2399  132.9271  153.9241 H   0  0  0  0  0  0  0  0  0  0  0  0
  147.7525  132.8896  154.8344 H   0  0  0  0  0  0  0  0  0  0  0  0
  148.0376  132.1880  151.8973 H   0  0  0  0  0  0  0  0  0  0  0  0
  146.4929  132.1728  152.7264 H   0  0  0  0  0  0  0  0  0  0  0  0
  147.2106  133.8917  150.2772 H   0  0  0  0  0  0  0  0  0  0  0  0
  146.1426  132.5005  150.2888 H   0  0  0  0  0  0  0  0  0  0  0  0
  146.4873  135.9111  151.4201 H   0  0  0  0  0  0  0  0  0  0  0  0
  144.9291  135.9038  152.2241 H   0  0  0  0  0  0  0  0  0  0  0  0
  145.7496  134.3066  153.9428 H   0  0  0  0  0  0  0  0  0  0  0  0
  146.8133  135.7035  153.8750 H   0  0  0  0  0  0  0  0  0  0  0  0
  148.2547  134.4947  152.4572 H   0  0  0  0  0  0  0  0  0  0  0  0
  1  2  1  0  0  0  0
  1 20  1  0  0  0  0
  1 21  1  0  0  0  0
  1 22  1  0  0  0  0
  2 19  1  0  0  0  0
  2  3  2  0  0  0  0
  3  4  1  0  0  0  0
  3 23  1  0  0  0  0
  4  5  1  0  0  0  0
  4 18  2  0  0  0  0
  5  6  1  0  0  0  0
  6  7  2  0  0  0  0
  6  8  1  0  0  0  0
  8  9  1  0  0  0  0
  8 24  1  0  0  0  0
  9 10  1  0  0  0  0
  9 11  1  0  0  0  0
  9 25  1  0  0  0  0
 10 26  1  0  0  0  0
 10 27  1  0  0  0  0
 10 28  1  0  0  0  0
 11 12  1  0  0  0  0
 11 29  1  0  0  0  0
 11 30  1  0  0  0  0
 12 17  1  0  0  0  0
 12 13  1  0  0  0  0
 12 39  1  0  0  0  0
 13 14  1  0  0  0  0
 13 31  1  0  0  0  0
 13 32  1  0  0  0  0
 14 15  1  0  0  0  0
 14 33  1  0  0  0  0
 14 34  1  0  0  0  0
 15 16  1  0  0  0  0
 16 17  1  0  0  0  0
 16 35  1  0  0  0  0
 16 36  1  0  0  0  0
 17 37  1  0  0  0  0
 17 38  1  0  0  0  0
 18 19  1  0  0  0  0
M  CHG  1   5  -1
M  CHG  1  12   1
M  END
> <s_m_source_file>
AV-unprocessed.smi

> <i_m_source_file_index>
1952

> <i_lp_mmshare_version>
43012

> <i_f3d_flags>
0

> <s_epik_input>
W0NIM11jMVtjSF1jKG5vMSlbTkhdQyg9TylbTkhdW0NASF0oW0NIM10pW0NIMl1OMltDSDJdW0NIMl1PW0NIMl1bQ0gyXTI=

> <s_epik_cmdline>
J2VwaWtfcHl0aG9uJywgJy1waCcsICc3LjAnLCAnLXRuJywgJzgnLCAnLW1hJywgJzIwMCcsICctbWV0YWxfYmluZGluZycsICctaW1hZScsICc8aW5maWxlLm1hZT4nLCAnLW9tYWUnLCAnPG91dGZpbGUubWFlPic=

> <r_epik_Ionization_Penalty>
6.62152

> <r_epik_Ionization_Penalty_Charging>
6.62142

> <r_epik_Ionization_Penalty_Neutral>
9.8734e-05

> <r_epik_State_Penalty>
6.82189

> <r_epik_Charging_Adjusted_Penalty>
13.4433

> <i_epik_Tot_Q>
0

> <i_epik_Tot_abs_Q>
2

> <r_epik_Metal_State_Penalty>
2.76365

> <b_epik_Metal_Only>
1

> <s_lp_Force_Field>
OPLS_2005

> <r_lp_Energy>
7.85101

> <b_lp_Chiralities_Consistent>
1

> <s_lp_Variant>
AV-unprocessed.smi:1952-8

> <Gold.Version>
5.8.1

> <Gold.Id.Protein>
6NUR|6NUR_protein|mol2

> <Gold.PLP.Fitness>
41.8838

> <Gold.PLP.PLP>
-26.1017

> <Gold.PLP.part.hbond>
-4.0000

> <Gold.PLP.part.metal>
0.0000

> <Gold.PLP.part.buried>
-1.9857

> <Gold.PLP.part.nonpolar>
-20.5018

> <Gold.PLP.part.repulsive>
0.1519

> <Gold.PLP.ligand.clash>
0.0000

> <Gold.PLP.ligand.torsion>
0.7988

> <Gold.PLP.Chemscore.Hbond>
5.7600

> <Gold.PLP.Chemscore.CHOScore>
0.0000

> <Gold.PLP.Chemscore.Metal>
0.0000

> <Gold.Chemscore.Hbonds>
donor molecule, donor type, donor heavy atom, donor atom, acceptor molecule, acceptor atom, score
      L1  H    12    39       P1  7948  1.80
      P1  H  6896  6909       L1     5  2.00
      P1  H  6931  6943       L1    19  0.88
      P1  H  6934  6947       L1    19  0.88

> <Gold.PLP.Chemscore.Internal.Correction>
0.0997

> <Gold.Rescore>
     Score         DG    S(hbond)    S(metal)    S(lipo)     H(rot)  DE(clash)    DE(int)     intcor
     11.83     -15.71       2.25        0.00      57.80       1.58       0.22       3.66       ----

> <Gold.Chemscore.Fitness>
11.8315

> <Gold.Chemscore.DG>
-15.7123

> <Gold.Chemscore.ZeroCoef>
-5.4800

> <Gold.Chemscore.Hbond>
2.2496

> <Gold.Chemscore.Metal>
0.0000

> <Gold.Chemscore.Lipo>
57.8011

> <Gold.Chemscore.Internal_Hbond>
0.0000

> <Gold.Chemscore.DEClash>
0.2172

> <Gold.Chemscore.DEInternal>
3.6637

> <Gold.Chemscore.Rot>
1.5798

> <Gold.Chemscore.Internal.Correction>
   9.000000E+99

> <Gold.Chemscore.Hbonds>
donor molecule, donor type, donor heavy atom, donor atom, acceptor molecule, acceptor atom, score
      L1  H    12    39       P1  7948  0.17
      P1  H  6896  6909       L1     5  0.15
      P1  H  6931  6943       L1    19  0.44
      P1  H  6934  6947       L1    19  0.79

> <Gold.Chemscore.Hbond.Weighted>
-7.5138

> <Gold.Chemscore.Metal.Weighted>
-0.0000

> <Gold.Chemscore.Lipo.Weighted>
-6.7627

> <Gold.Chemscore.Internal_Hbond.Weighted>
0.0000

> <Gold.Chemscore.DEClash.Weighted>
0.2172

> <Gold.Chemscore.DEInternal.Weighted>
3.6637

> <Gold.Chemscore.Rot.Weighted>
4.0442

> <Gold.Chemscore.Internal.Correction.Weighted>
   9.000000E+99

> <Gold.Protein.RotatedTorsions>
[ 6907 6896 6895 6894 ] final   25.72 input  -60.11 | X-H torsion
[ 7974 7965 7964 7962 ] final  -84.16 input  175.53 | X-H torsion
[ 8008 7997 7996 7995 ] final   65.44 input   59.86 | X-H torsion
[ 10167 10162 10161 10158 ] final -106.78 input  -65.29 | X-H torsion
[ 10718 10713 10712 10709 ] final   58.29 input   66.30 | X-H torsion
[ 10763 10752 10751 10750 ] final  -42.68 input  -60.55 | X-H torsion
[ 11005 11000 10999 10996 ] final -142.39 input  -57.11 | X-H torsion

> <Gold.Protein.ActiveResidues>
 VAL166  LYS551  ARG553  GLY616  TRP617  ASP618  TYR619  PRO620  LYS621  CYS622 
 ASP623  PHE694  ASN695  SER759  ASP760  ASP761  ALA762  ILE779  LEU786  VAL792 
 PHE793  MET794  SER795  GLU796  ALA797  LYS798  CYS799  TRP800  GLU811  SER814 

> <Gold.Protein.RotatedAtoms>
  151.9767  135.0049  160.0555 H   0  0  0  0  0  0  0  0  0  0  0  0  # atno 6907 bound_to 6896
  152.1734  133.4654  159.4929 H   0  0  0  0  0  0  0  0  0  0  0  0  # atno 6908 bound_to 6896
  150.6905  134.1842  159.4303 H   0  0  0  0  0  0  0  0  0  0  0  0  # atno 6909 bound_to 6896
  145.5103  140.9540  143.1711 H   0  0  0  0  0  0  0  0  0  0  0  0  # atno 7974 bound_to 7965
  155.6618  140.3497  155.4785 H   0  0  0  0  0  0  0  0  0  0  0  0  # atno 8008 bound_to 7997
  155.9762  140.1165  157.0791 H   0  0  0  0  0  0  0  0  0  0  0  0  # atno 8009 bound_to 7997
  154.4179  140.1147  156.5360 H   0  0  0  0  0  0  0  0  0  0  0  0  # atno 8010 bound_to 7997
  140.1840  143.3944  152.1259 H   0  0  0  0  0  0  0  0  0  0  0  0  # atno 10167 bound_to 10162
  157.5584  130.8817  149.9072 H   0  0  0  0  0  0  0  0  0  0  0  0  # atno 10718 bound_to 10713
  153.9831  135.6714  153.4751 H   0  0  0  0  0  0  0  0  0  0  0  0  # atno 10763 bound_to 10752
  153.0739  135.4959  154.8360 H   0  0  0  0  0  0  0  0  0  0  0  0  # atno 10764 bound_to 10752
  154.7153  135.3105  154.9095 H   0  0  0  0  0  0  0  0  0  0  0  0  # atno 10765 bound_to 10752
  140.8230  134.2609  157.4892 H   0  0  0  0  0  0  0  0  0  0  0  0  # atno 11005 bound_to 11000
  144.7731  139.6690  143.7186 LP  0  0  0  0  0  0  0  0  0  0  0  0  # atno 17320 bound_to 7965
  146.2171  139.5568  142.9643 LP  0  0  0  0  0  0  0  0  0  0  0  0  # atno 17321 bound_to 7965
  139.5284  144.7130  151.5146 LP  0  0  0  0  0  0  0  0  0  0  0  0  # atno 17342 bound_to 10162
  140.6500  143.8715  150.6776 LP  0  0  0  0  0  0  0  0  0  0  0  0  # atno 17343 bound_to 10162
  156.0640  130.3695  150.0919 LP  0  0  0  0  0  0  0  0  0  0  0  0  # atno 17370 bound_to 10713
  156.9086  130.9644  151.3566 LP  0  0  0  0  0  0  0  0  0  0  0  0  # atno 17371 bound_to 10713
  139.8707  134.9545  156.4178 LP  0  0  0  0  0  0  0  0  0  0  0  0  # atno 17394 bound_to 11000
  140.9079  133.7732  155.9757 LP  0  0  0  0  0  0  0  0  0  0  0  0  # atno 17395 bound_to 11000

$$$$
