AV-unprocessed.smi:2010|AV-procd|sdf|8150|dock4
  -GOLD-   2272010393D 1   1.00000     0.00000
 Structure written by MMmdl.
 41 42  0  0  0  0  0  0  0  0  1 V2000
  151.9082  145.1553  159.4726 C   0  0  0  0  0  0  0  0  0  0  0  0
  151.6699  143.6627  159.2048 C   0  0  0  0  0  0  0  0  0  0  0  0
  152.8501  142.8032  159.6781 C   0  0  0  0  0  0  0  0  0  0  0  0
  152.6043  141.3084  159.4135 C   0  0  0  0  0  0  0  0  0  0  0  0
  152.2787  141.0535  157.9960 N   0  0  0  0  0  0  0  0  0  0  0  0
  152.4075  139.4254  157.4153 S   0  0  0  0  0  0  0  0  0  0  0  0
  152.9154  139.4472  156.0349 O   0  0  0  0  0  0  0  0  0  0  0  0
  153.0435  138.5896  158.4451 O   0  0  0  0  0  0  0  0  0  0  0  0
  150.7315  139.0336  157.3633 N   0  0  0  0  0  0  0  0  0  0  0  0
  150.2547  138.0119  156.4291 C   0  0  1  0  0  0  0  0  0  0  0  0
  148.8106  137.6268  156.7845 C   0  0  0  0  0  0  0  0  0  0  0  0
  150.4459  138.5005  154.9778 C   0  0  0  0  0  0  0  0  0  0  0  0
  149.5562  139.5898  154.6089 N   0  0  0  0  0  0  0  0  0  0  0  0
  148.2596  139.5139  154.1446 C   0  0  0  0  0  0  0  0  0  0  0  0
  147.8285  140.7914  153.9296 C   0  0  0  0  0  0  0  0  0  0  0  0
  148.9448  141.5913  154.3019 C   0  0  0  0  0  0  0  0  0  0  0  0
  149.9766  140.8699  154.7096 N   0  0  0  0  0  0  0  0  0  0  0  0
  151.1876  141.8880  157.4541 C   0  0  0  0  0  0  0  0  0  0  0  0
  151.4347  143.3827  157.7144 C   0  0  0  0  0  0  0  0  0  0  0  0
  152.7904  145.5172  158.9435 H   0  0  0  0  0  0  0  0  0  0  0  0
  152.0562  145.3438  160.5362 H   0  0  0  0  0  0  0  0  0  0  0  0
  151.0562  145.7528  159.1475 H   0  0  0  0  0  0  0  0  0  0  0  0
  150.7792  143.3609  159.7576 H   0  0  0  0  0  0  0  0  0  0  0  0
  153.7629  143.1160  159.1690 H   0  0  0  0  0  0  0  0  0  0  0  0
  153.0234  142.9599  160.7431 H   0  0  0  0  0  0  0  0  0  0  0  0
  153.4924  140.7425  159.6945 H   0  0  0  0  0  0  0  0  0  0  0  0
  151.7865  140.9440  160.0361 H   0  0  0  0  0  0  0  0  0  0  0  0
  150.3172  138.9545  158.2915 H   0  0  0  0  0  0  0  0  0  0  0  0
  150.8742  137.1229  156.5549 H   0  0  0  0  0  0  0  0  0  0  0  0
  148.4298  136.8695  156.0988 H   0  0  0  0  0  0  0  0  0  0  0  0
  148.1394  138.4847  156.7393 H   0  0  0  0  0  0  0  0  0  0  0  0
  148.7539  137.2164  157.7930 H   0  0  0  0  0  0  0  0  0  0  0  0
  151.4743  138.8304  154.8241 H   0  0  0  0  0  0  0  0  0  0  0  0
  150.2864  137.6721  154.2859 H   0  0  0  0  0  0  0  0  0  0  0  0
  147.7600  138.5667  154.0044 H   0  0  0  0  0  0  0  0  0  0  0  0
  146.8627  141.1065  153.5637 H   0  0  0  0  0  0  0  0  0  0  0  0
  149.0356  142.6675  154.2888 H   0  0  0  0  0  0  0  0  0  0  0  0
  151.0928  141.7199  156.3814 H   0  0  0  0  0  0  0  0  0  0  0  0
  150.2454  141.5768  157.9069 H   0  0  0  0  0  0  0  0  0  0  0  0
  150.5823  143.9598  157.3548 H   0  0  0  0  0  0  0  0  0  0  0  0
  152.2973  143.7143  157.1344 H   0  0  0  0  0  0  0  0  0  0  0  0
  1  2  1  0  0  0  0
  1 20  1  0  0  0  0
  1 21  1  0  0  0  0
  1 22  1  0  0  0  0
  2 19  1  0  0  0  0
  2  3  1  0  0  0  0
  2 23  1  0  0  0  0
  3  4  1  0  0  0  0
  3 24  1  0  0  0  0
  3 25  1  0  0  0  0
  4  5  1  0  0  0  0
  4 26  1  0  0  0  0
  4 27  1  0  0  0  0
  5  6  1  0  0  0  0
  5 18  1  0  0  0  0
  6  7  2  0  0  0  0
  6  8  2  0  0  0  0
  6  9  1  0  0  0  0
  9 10  1  0  0  0  0
  9 28  1  0  0  0  0
 10 11  1  0  0  0  0
 10 12  1  0  0  0  0
 10 29  1  0  0  0  0
 11 30  1  0  0  0  0
 11 31  1  0  0  0  0
 11 32  1  0  0  0  0
 12 13  1  0  0  0  0
 12 33  1  0  0  0  0
 12 34  1  0  0  0  0
 13 17  1  0  0  0  0
 13 14  1  0  0  0  0
 14 15  2  0  0  0  0
 14 35  1  0  0  0  0
 15 16  1  0  0  0  0
 15 36  1  0  0  0  0
 16 17  2  0  0  0  0
 16 37  1  0  0  0  0
 18 19  1  0  0  0  0
 18 38  1  0  0  0  0
 18 39  1  0  0  0  0
 19 40  1  0  0  0  0
 19 41  1  0  0  0  0
M  END
> <s_m_source_file>
AV-unprocessed.smi

> <i_m_source_file_index>
2010

> <i_lp_mmshare_version>
43012

> <i_f3d_flags>
0

> <s_epik_input>
W0NIM11bQ0hdMVtDSDJdW0NIMl1OKFtDSDJdW0NIMl0xKVMoPU8pKD1PKVtOSF1bQ0BIXShbQ0gzXSlbQ0gyXW4yW2NIXVtjSF1bY0hdbjI=

> <s_epik_cmdline>
J2VwaWtfcHl0aG9uJywgJy1waCcsICc3LjAnLCAnLXRuJywgJzgnLCAnLW1hJywgJzIwMCcsICctbWV0YWxfYmluZGluZycsICctaW1hZScsICc8aW5maWxlLm1hZT4nLCAnLW9tYWUnLCAnPG91dGZpbGUubWFlPic=

> <r_lp_tautomer_probability>
1

> <r_epik_Ionization_Penalty>
0.0313937

> <r_epik_Ionization_Penalty_Charging>
0

> <r_epik_Ionization_Penalty_Neutral>
0.0313937

> <r_epik_State_Penalty>
0.0259441

> <r_epik_Charging_Adjusted_Penalty>
0.0259441

> <i_epik_Tot_Q>
0

> <i_epik_Tot_abs_Q>
0

> <r_epik_Metal_State_Penalty>
0.365037

> <b_epik_Metal_Only>
0

> <s_lp_Force_Field>
OPLS_2005

> <r_lp_Energy>
7.16397

> <b_lp_Chiralities_Consistent>
1

> <s_lp_Variant>
AV-unprocessed.smi:2010-2

> <Gold.Version>
5.8.1

> <Gold.Id.Protein>
6NUR|6NUR_protein|mol2

> <Gold.PLP.Fitness>
42.4949

> <Gold.PLP.PLP>
-36.1844

> <Gold.PLP.part.hbond>
-2.0000

> <Gold.PLP.part.metal>
0.0000

> <Gold.PLP.part.buried>
-3.1360

> <Gold.PLP.part.nonpolar>
-31.5366

> <Gold.PLP.part.repulsive>
0.1153

> <Gold.PLP.ligand.clash>
0.0000

> <Gold.PLP.ligand.torsion>
2.0071

> <Gold.PLP.Chemscore.Hbond>
1.7360

> <Gold.PLP.Chemscore.CHOScore>
1.0000

> <Gold.PLP.Chemscore.Metal>
0.0000

> <Gold.Chemscore.Hbonds>
donor molecule, donor type, donor heavy atom, donor atom, acceptor molecule, acceptor atom, score
      P1  H  7989  7998       L1    17  0.70
      P1  H  7997  8010       L1     7  1.00
      L1  C    16    37       P1  8028  1.00

> <Gold.PLP.Chemscore.Internal.Correction>
2.1168

> <Gold.Rescore>
     Score         DG    S(hbond)    S(metal)    S(lipo)     H(rot)  DE(clash)    DE(int)     intcor
     14.51     -17.81       1.61        0.00      94.26       1.59       0.10       3.20       ----

> <Gold.Chemscore.Fitness>
14.5117

> <Gold.Chemscore.DG>
-17.8150

> <Gold.Chemscore.ZeroCoef>
-5.4800

> <Gold.Chemscore.Hbond>
1.6099

> <Gold.Chemscore.Metal>
0.0000

> <Gold.Chemscore.Lipo>
94.2625

> <Gold.Chemscore.Internal_Hbond>
0.0000

> <Gold.Chemscore.DEClash>
0.1026

> <Gold.Chemscore.DEInternal>
3.2007

> <Gold.Chemscore.Rot>
1.5901

> <Gold.Chemscore.Internal.Correction>
   9.000000E+99

> <Gold.Chemscore.Hbonds>
donor molecule, donor type, donor heavy atom, donor atom, acceptor molecule, acceptor atom, score
      P1  H  7989  7998       L1    17  0.24
      P1  H  7997  8010       L1     7  0.25

> <Gold.Chemscore.Hbond.Weighted>
-5.3769

> <Gold.Chemscore.Metal.Weighted>
-0.0000

> <Gold.Chemscore.Lipo.Weighted>
-11.0287

> <Gold.Chemscore.Internal_Hbond.Weighted>
0.0000

> <Gold.Chemscore.DEClash.Weighted>
0.1026

> <Gold.Chemscore.DEInternal.Weighted>
3.2007

> <Gold.Chemscore.Rot.Weighted>
4.0707

> <Gold.Chemscore.Internal.Correction.Weighted>
   9.000000E+99

> <Gold.Protein.RotatedTorsions>
[ 6907 6896 6895 6894 ] final  164.69 input  -60.11 | X-H torsion
[ 7974 7965 7964 7962 ] final  165.57 input  175.53 | X-H torsion
[ 8008 7997 7996 7995 ] final   81.12 input   59.86 | X-H torsion
[ 10167 10162 10161 10158 ] final  -65.05 input  -65.29 | X-H torsion
[ 10718 10713 10712 10709 ] final  -82.75 input   66.30 | X-H torsion
[ 10763 10752 10751 10750 ] final  114.65 input  -60.55 | X-H torsion
[ 11005 11000 10999 10996 ] final  -81.05 input  -57.11 | X-H torsion

> <Gold.Protein.ActiveResidues>
 VAL166  LYS551  ARG553  GLY616  TRP617  ASP618  TYR619  PRO620  LYS621  CYS622 
 ASP623  PHE694  ASN695  SER759  ASP760  ASP761  ALA762  ILE779  LEU786  VAL792 
 PHE793  MET794  SER795  GLU796  ALA797  LYS798  CYS799  TRP800  GLU811  SER814 

> <Gold.Protein.RotatedAtoms>
  151.9060  133.3549  159.3846 H   0  0  0  0  0  0  0  0  0  0  0  0  # atno 6907 bound_to 6896
  150.7069  134.4780  159.5466 H   0  0  0  0  0  0  0  0  0  0  0  0  # atno 6908 bound_to 6896
  152.2377  134.8259  160.0515 H   0  0  0  0  0  0  0  0  0  0  0  0  # atno 6909 bound_to 6896
  144.7497  139.8489  143.6370 H   0  0  0  0  0  0  0  0  0  0  0  0  # atno 7974 bound_to 7965
  155.8928  140.3438  155.5968 H   0  0  0  0  0  0  0  0  0  0  0  0  # atno 8008 bound_to 7997
  155.7591  140.0830  157.2183 H   0  0  0  0  0  0  0  0  0  0  0  0  # atno 8009 bound_to 7997
  154.4035  140.1539  156.2799 H   0  0  0  0  0  0  0  0  0  0  0  0  # atno 8010 bound_to 7997
  140.5758  143.2322  151.6446 H   0  0  0  0  0  0  0  0  0  0  0  0  # atno 10167 bound_to 10162
  156.0028  130.4644  150.4153 H   0  0  0  0  0  0  0  0  0  0  0  0  # atno 10718 bound_to 10713
  153.5104  135.3619  155.2584 H   0  0  0  0  0  0  0  0  0  0  0  0  # atno 10763 bound_to 10752
  154.8742  135.4021  154.3375 H   0  0  0  0  0  0  0  0  0  0  0  0  # atno 10764 bound_to 10752
  153.4027  135.7075  153.6481 H   0  0  0  0  0  0  0  0  0  0  0  0  # atno 10765 bound_to 10752
  141.1667  133.7178  156.8364 H   0  0  0  0  0  0  0  0  0  0  0  0  # atno 11005 bound_to 11000
  146.1430  139.4492  143.0097 LP  0  0  0  0  0  0  0  0  0  0  0  0  # atno 17320 bound_to 7965
  145.6989  141.0142  143.1515 LP  0  0  0  0  0  0  0  0  0  0  0  0  # atno 17321 bound_to 7965
  139.5142  144.3419  152.0732 LP  0  0  0  0  0  0  0  0  0  0  0  0  # atno 17342 bound_to 10162
  140.2563  144.4115  150.6202 LP  0  0  0  0  0  0  0  0  0  0  0  0  # atno 17343 bound_to 10162
  157.2213  131.0483  151.2545 LP  0  0  0  0  0  0  0  0  0  0  0  0  # atno 17370 bound_to 10713
  157.3798  130.7225  149.6622 LP  0  0  0  0  0  0  0  0  0  0  0  0  # atno 17371 bound_to 10713
  140.2014  134.8894  157.3173 LP  0  0  0  0  0  0  0  0  0  0  0  0  # atno 17394 bound_to 11000
  140.2183  134.4054  155.7578 LP  0  0  0  0  0  0  0  0  0  0  0  0  # atno 17395 bound_to 11000

$$$$
