AV-unprocessed.smi:265|AV-procd|sdf|2026|dock7
  -GOLD-   2262021233D 1   1.00000     0.00000
 Structure written by MMmdl.
 52 56  0  0  0  0  0  0  0  0  1 V2000
  142.8049  132.6827  151.1636 C   0  0  0  0  0  0  0  0  0  0  0  0
  144.3197  132.5203  151.3593 C   0  0  1  0  0  0  0  0  0  0  0  0
  144.9954  132.5344  150.1045 O   0  0  0  0  0  0  0  0  0  0  0  0
  146.2771  133.1414  150.2427 C   0  0  0  0  0  0  0  0  0  0  0  0
  146.4584  133.3902  151.7372 C   0  0  0  0  0  0  0  0  0  0  0  0
  145.0262  133.5858  152.2190 C   0  0  2  0  0  0  0  0  0  0  0  0
  144.9553  133.2391  153.5890 O   0  0  0  0  0  0  0  0  0  0  0  0
  144.4826  135.0266  152.0126 C   0  0  0  0  0  0  0  0  0  0  0  0
  145.3204  136.0656  152.5898 N   0  0  0  0  0  0  0  0  0  0  0  0
  145.7882  137.1945  151.9559 C   0  0  0  0  0  0  0  0  0  0  0  0
  146.5263  137.9803  152.6912 N   0  0  0  0  0  0  0  0  0  0  0  0
  146.5545  137.3565  153.9331 C   0  0  0  0  0  0  0  0  0  0  0  0
  147.1645  137.6625  155.1825 C   0  0  0  0  0  0  0  0  0  0  0  0
  147.9052  138.7827  155.3812 N   0  0  0  0  0  0  0  0  0  0  0  0
  148.1615  139.6428  154.2261 C   0  0  0  0  0  0  0  0  0  0  0  0
  148.6443  141.0298  154.6775 C   0  0  0  0  0  0  0  0  0  0  0  0
  149.8511  140.9356  155.6252 C   0  0  2  0  0  0  0  0  0  0  0  0
  150.9933  140.4630  154.9227 O   0  0  0  0  0  0  0  0  0  0  0  0
  152.2012  140.5167  155.6837 C   0  0  0  0  0  0  0  0  0  0  0  0
  152.0389  139.9003  157.0859 C   0  0  0  0  0  0  0  0  0  0  0  0
  153.0333  139.6076  157.7455 O   0  0  0  0  0  0  0  0  0  0  0  0
  150.7954  139.7387  157.5658 N   0  0  0  0  0  0  0  0  0  0  0  0
  149.5803  139.9560  156.7878 C   0  0  2  0  0  0  0  0  0  0  0  0
  149.0473  138.6026  156.2754 C   0  0  0  0  0  0  0  0  0  0  0  0
  146.9772  136.7812  156.2016 N   0  0  0  0  0  0  0  0  0  0  0  0
  146.2371  135.6840  156.0185 C   0  0  0  0  0  0  0  0  0  0  0  0
  145.6057  135.2779  154.9155 N   0  0  0  0  0  0  0  0  0  0  0  0
  145.7996  136.1503  153.8855 C   0  0  0  0  0  0  0  0  0  0  0  0
  150.0655  141.9331  156.0137 H   0  0  0  0  0  0  0  0  0  0  0  0
  148.8330  140.3952  157.4497 H   0  0  0  0  0  0  0  0  0  0  0  0
  142.2863  132.7089  152.1223 H   0  0  0  0  0  0  0  0  0  0  0  0
  142.3997  131.8484  150.5910 H   0  0  0  0  0  0  0  0  0  0  0  0
  142.5624  133.5965  150.6212 H   0  0  0  0  0  0  0  0  0  0  0  0
  144.5087  131.5364  151.7936 H   0  0  0  0  0  0  0  0  0  0  0  0
  147.0630  132.5085  149.8305 H   0  0  0  0  0  0  0  0  0  0  0  0
  146.2786  134.0834  149.6935 H   0  0  0  0  0  0  0  0  0  0  0  0
  146.8892  132.4958  152.1912 H   0  0  0  0  0  0  0  0  0  0  0  0
  147.1330  134.2164  151.9571 H   0  0  0  0  0  0  0  0  0  0  0  0
  144.2318  132.6435  153.7113 H   0  0  0  0  0  0  0  0  0  0  0  0
  144.3680  135.2403  150.9493 H   0  0  0  0  0  0  0  0  0  0  0  0
  143.4877  135.1232  152.4486 H   0  0  0  0  0  0  0  0  0  0  0  0
  145.5709  137.4134  150.9205 H   0  0  0  0  0  0  0  0  0  0  0  0
  148.9132  139.1756  153.5882 H   0  0  0  0  0  0  0  0  0  0  0  0
  147.2552  139.7534  153.6291 H   0  0  0  0  0  0  0  0  0  0  0  0
  148.8935  141.6418  153.8103 H   0  0  0  0  0  0  0  0  0  0  0  0
  147.8277  141.5401  155.1898 H   0  0  0  0  0  0  0  0  0  0  0  0
  152.9872  139.9926  155.1399 H   0  0  0  0  0  0  0  0  0  0  0  0
  152.5177  141.5551  155.7887 H   0  0  0  0  0  0  0  0  0  0  0  0
  150.6875  139.3697  158.4994 H   0  0  0  0  0  0  0  0  0  0  0  0
  148.7931  137.9704  157.1256 H   0  0  0  0  0  0  0  0  0  0  0  0
  149.8293  138.0771  155.7249 H   0  0  0  0  0  0  0  0  0  0  0  0
  146.1365  135.0388  156.8789 H   0  0  0  0  0  0  0  0  0  0  0  0
  1  2  1  0  0  0  0
  1 31  1  0  0  0  0
  1 32  1  0  0  0  0
  1 33  1  0  0  0  0
  2  6  1  0  0  0  0
  2  3  1  0  0  0  0
  2 34  1  0  0  0  0
  3  4  1  0  0  0  0
  4  5  1  0  0  0  0
  4 35  1  0  0  0  0
  4 36  1  0  0  0  0
  5  6  1  0  0  0  0
  5 37  1  0  0  0  0
  5 38  1  0  0  0  0
  6  7  1  0  0  0  0
  6  8  1  0  0  0  0
  7 39  1  0  0  0  0
  8  9  1  0  0  0  0
  8 40  1  0  0  0  0
  8 41  1  0  0  0  0
  9 28  1  0  0  0  0
  9 10  1  0  0  0  0
 10 11  2  0  0  0  0
 10 42  1  0  0  0  0
 11 12  1  0  0  0  0
 12 28  2  0  0  0  0
 12 13  1  0  0  0  0
 13 14  1  0  0  0  0
 13 25  2  0  0  0  0
 14 24  1  0  0  0  0
 14 15  1  0  0  0  0
 15 16  1  0  0  0  0
 15 43  1  0  0  0  0
 15 44  1  0  0  0  0
 16 17  1  0  0  0  0
 16 45  1  0  0  0  0
 16 46  1  0  0  0  0
 17 29  1  0  0  0  0
 17 23  1  0  0  0  0
 17 18  1  0  0  0  0
 18 19  1  0  0  0  0
 19 20  1  0  0  0  0
 19 47  1  0  0  0  0
 19 48  1  0  0  0  0
 20 21  2  0  0  0  0
 20 22  1  0  0  0  0
 22 23  1  0  0  0  0
 22 49  1  0  0  0  0
 23 30  1  0  0  0  0
 23 24  1  0  0  0  0
 24 50  1  0  0  0  0
 24 51  1  0  0  0  0
 25 26  1  0  0  0  0
 26 27  2  0  0  0  0
 26 52  1  0  0  0  0
 27 28  1  0  0  0  0
M  END
> <s_m_source_file>
AV-unprocessed.smi

> <i_m_source_file_index>
265

> <i_lp_mmshare_version>
43012

> <i_f3d_flags>
0

> <s_epik_input>
W0NIMl0xW0NIMl1PW0NAQEhdKFtDSDNdKVtDQEBdMShbT0hdKVtDSDJdbihbY0hdbjIpYyhjMjMpbltjSF1uYzNOKFtDSDJdW0NIMl00KVtDSDJdW0NAQEhdKFtDQEhdNDUpW05IXUMoPU8pW0NIMl1PNQ==

> <s_epik_cmdline>
J2VwaWtfcHl0aG9uJywgJy1waCcsICc3LjAnLCAnLXRuJywgJzgnLCAnLW1hJywgJzIwMCcsICctbWV0YWxfYmluZGluZycsICctaW1hZScsICc8aW5maWxlLm1hZT4nLCAnLW9tYWUnLCAnPG91dGZpbGUubWFlPic=

> <r_lp_tautomer_probability>
1

> <r_epik_Ionization_Penalty>
0.00221504

> <r_epik_Ionization_Penalty_Charging>
0

> <r_epik_Ionization_Penalty_Neutral>
0.00221504

> <r_epik_State_Penalty>
-0

> <r_epik_Charging_Adjusted_Penalty>
0

> <i_epik_Tot_Q>
0

> <i_epik_Tot_abs_Q>
0

> <r_epik_Metal_State_Penalty>
-0

> <b_epik_Metal_Only>
0

> <s_lp_Force_Field>
OPLS_2005

> <r_lp_Energy>
44.4274

> <b_lp_Chiralities_Consistent>
1

> <s_lp_Variant>
AV-unprocessed.smi:265-12

> <Gold.Version>
5.8.1

> <Gold.Id.Protein>
6NUR|6NUR_protein|mol2

> <Gold.PLP.Fitness>
37.8590

> <Gold.PLP.PLP>
-26.6711

> <Gold.PLP.part.hbond>
-3.0000

> <Gold.PLP.part.metal>
0.0000

> <Gold.PLP.part.buried>
-1.3442

> <Gold.PLP.part.nonpolar>
-23.2213

> <Gold.PLP.part.repulsive>
1.4049

> <Gold.PLP.ligand.clash>
0.0000

> <Gold.PLP.ligand.torsion>
0.4959

> <Gold.PLP.Chemscore.Hbond>
3.0000

> <Gold.PLP.Chemscore.CHOScore>
0.9366

> <Gold.PLP.Chemscore.Metal>
0.0000

> <Gold.Chemscore.Hbonds>
donor molecule, donor type, donor heavy atom, donor atom, acceptor molecule, acceptor atom, score
      L1  H     7    39       P1 10957  0.88
      P1  H  7989  7998       L1    18  0.85
      P1  H  7997  8010       L1    21  1.00
      L1  C    10    42       P1 10171  1.00

> <Gold.PLP.Chemscore.Internal.Correction>
0.3697

> <Gold.Rescore>
     Score         DG    S(hbond)    S(metal)    S(lipo)     H(rot)  DE(clash)    DE(int)     intcor
      8.71     -14.08       1.87        0.00      69.20       2.25       1.81       3.56       ----

> <Gold.Chemscore.Fitness>
8.7107

> <Gold.Chemscore.DG>
-14.0753

> <Gold.Chemscore.ZeroCoef>
-5.4800

> <Gold.Chemscore.Hbond>
1.8703

> <Gold.Chemscore.Metal>
0.0000

> <Gold.Chemscore.Lipo>
69.2002

> <Gold.Chemscore.Internal_Hbond>
0.0000

> <Gold.Chemscore.DEClash>
1.8088

> <Gold.Chemscore.DEInternal>
3.5557

> <Gold.Chemscore.Rot>
2.2453

> <Gold.Chemscore.Internal.Correction>
   9.000000E+99

> <Gold.Chemscore.Hbonds>
donor molecule, donor type, donor heavy atom, donor atom, acceptor molecule, acceptor atom, score
      L1  H     7    39       P1 10957  0.46
      P1  H  7989  7998       L1    18  0.14
      P1  H  7997  8010       L1    21  0.90

> <Gold.Chemscore.Hbond.Weighted>
-6.2468

> <Gold.Chemscore.Metal.Weighted>
-0.0000

> <Gold.Chemscore.Lipo.Weighted>
-8.0964

> <Gold.Chemscore.Internal_Hbond.Weighted>
0.0000

> <Gold.Chemscore.DEClash.Weighted>
1.8088

> <Gold.Chemscore.DEInternal.Weighted>
3.5557

> <Gold.Chemscore.Rot.Weighted>
5.7479

> <Gold.Chemscore.Internal.Correction.Weighted>
   9.000000E+99

> <Gold.Protein.RotatedTorsions>
[ 6907 6896 6895 6894 ] final -125.64 input  -60.11 | X-H torsion
[ 7974 7965 7964 7962 ] final  118.42 input  175.53 | X-H torsion
[ 8008 7997 7996 7995 ] final   35.31 input   59.86 | X-H torsion
[ 10167 10162 10161 10158 ] final   65.80 input  -65.29 | X-H torsion
[ 10718 10713 10712 10709 ] final -147.67 input   66.30 | X-H torsion
[ 10763 10752 10751 10750 ] final  137.01 input  -60.55 | X-H torsion
[ 11005 11000 10999 10996 ] final -142.94 input  -57.11 | X-H torsion

> <Gold.Protein.ActiveResidues>
 VAL166  LYS551  ARG553  GLY616  TRP617  ASP618  TYR619  PRO620  LYS621  CYS622 
 ASP623  PHE694  ASN695  SER759  ASP760  ASP761  ALA762  ILE779  LEU786  VAL792 
 PHE793  MET794  SER795  GLU796  ALA797  LYS798  CYS799  TRP800  GLU811  SER814 

> <Gold.Protein.RotatedAtoms>
  150.8888  133.7271  159.2910 H   0  0  0  0  0  0  0  0  0  0  0  0  # atno 6907 bound_to 6896
  151.4829  135.1052  159.9792 H   0  0  0  0  0  0  0  0  0  0  0  0  # atno 6908 bound_to 6896
  152.4807  133.8200  159.7104 H   0  0  0  0  0  0  0  0  0  0  0  0  # atno 6909 bound_to 6896
  145.1554  139.3185  143.4544 H   0  0  0  0  0  0  0  0  0  0  0  0  # atno 7974 bound_to 7965
  155.1689  140.3290  155.4396 H   0  0  0  0  0  0  0  0  0  0  0  0  # atno 8008 bound_to 7997
  156.2517  140.1947  156.6744 H   0  0  0  0  0  0  0  0  0  0  0  0  # atno 8009 bound_to 7997
  154.6351  140.0577  156.9765 H   0  0  0  0  0  0  0  0  0  0  0  0  # atno 8010 bound_to 7997
  140.1074  144.4849  150.6999 H   0  0  0  0  0  0  0  0  0  0  0  0  # atno 10167 bound_to 10162
  156.4105  130.7979  151.2196 H   0  0  0  0  0  0  0  0  0  0  0  0  # atno 10718 bound_to 10713
  153.8660  135.3061  155.3440 H   0  0  0  0  0  0  0  0  0  0  0  0  # atno 10763 bound_to 10752
  154.7827  135.4826  153.9882 H   0  0  0  0  0  0  0  0  0  0  0  0  # atno 10764 bound_to 10752
  153.1434  135.6828  153.9087 H   0  0  0  0  0  0  0  0  0  0  0  0  # atno 10765 bound_to 10752
  140.8175  134.2671  157.4915 H   0  0  0  0  0  0  0  0  0  0  0  0  # atno 11005 bound_to 11000
  146.3489  140.1645  142.8590 LP  0  0  0  0  0  0  0  0  0  0  0  0  # atno 17320 bound_to 7965
  145.0386  140.8928  143.5066 LP  0  0  0  0  0  0  0  0  0  0  0  0  # atno 17321 bound_to 7965
  140.6945  143.2395  151.5040 LP  0  0  0  0  0  0  0  0  0  0  0  0  # atno 17342 bound_to 10162
  139.5638  144.2092  152.1733 LP  0  0  0  0  0  0  0  0  0  0  0  0  # atno 17343 bound_to 10162
  157.7507  131.0259  150.3939 LP  0  0  0  0  0  0  0  0  0  0  0  0  # atno 17370 bound_to 10713
  156.4236  130.3958  149.6808 LP  0  0  0  0  0  0  0  0  0  0  0  0  # atno 17371 bound_to 10713
  139.8710  134.9517  156.4092 LP  0  0  0  0  0  0  0  0  0  0  0  0  # atno 17394 bound_to 11000
  140.9134  133.7696  155.9819 LP  0  0  0  0  0  0  0  0  0  0  0  0  # atno 17395 bound_to 11000

$$$$
