#       Name:                AV-unprocessed.smi:1180
#       Creating user name   scv26
#       Creation time:       Fri Mar 27 03:55:29 2020


#       File generated by GOLD software.
#

@<TRIPOS>MOLECULE
AV-unprocessed.smi:1180
    45    46     1
SMALL
NO_CHARGES


@<TRIPOS>ATOM
      1 ****        -6.2091  -1.2805   1.2059 C.3            1 S1                 0.0000
      2 ****        -4.7107  -1.0627   1.2027 C.2            1 S1                 0.0000
      3 ****        -4.1513   0.0989   1.2921 N.2            1 S1                 0.0000
      4 ****        -2.7515   0.1757   1.2748 C.2            1 S1                 0.0000
      5 ****        -2.1693   1.5748   1.3766 C.3            1 S1                 0.0000
      6 ****        -1.9745  -0.9422   1.1712 C.2            1 S1                 0.0000
      7 ****        -0.4471  -0.8921   1.1445 C.3            1 S1                 0.0000
      8 ****         0.1969  -0.5928  -0.2123 C.2            1 S1                 0.0000
      9 ****        -0.4773  -0.5942  -1.2429 O.2            1 S1                 0.0000
     10 ****         1.5124  -0.3368  -0.1964 N.am           1 S1                 0.0000
     11 ****         2.3049  -0.0269  -1.3793 C.3            1 S1                 0.0000
     12 ****         3.7642   0.3001  -1.0054 C.3            1 S1                 0.0000
     13 ****         4.6212   0.6100  -2.2198 C.3            1 S1                 0.0000
     14 ****         4.4036   2.1085  -2.4375 C.3            1 S1                 0.0000
     15 ****         3.9334   2.6311  -1.1979 O.3            1 S1                 0.0000
     16 ****         3.9154   1.6024  -0.2165 C.3            1 S1                 0.0000
     17 ****        -2.6242  -2.2635   1.0704 C.2            1 S1                 0.0000
     18 ****        -2.0219  -3.3309   0.9674 O.2            1 S1                 0.0000
     19 ****        -3.9757  -2.2419   1.0926 N.am           1 S1                 0.0000
     20 ****        -4.4670  -3.1212   1.0243 H              1 S1                 0.0000
     21 ****        -6.6687  -0.7377   0.3795 H              1 S1                 0.0000
     22 ****        -6.6392  -0.9140   2.1383 H              1 S1                 0.0000
     23 ****        -6.4636  -2.3364   1.1040 H              1 S1                 0.0000
     24 ****        -1.6088   1.6881   2.3049 H              1 S1                 0.0000
     25 ****        -2.9541   2.3323   1.3653 H              1 S1                 0.0000
     26 ****        -1.5009   1.7764   0.5394 H              1 S1                 0.0000
     27 ****        -0.1119  -0.1333   1.8521 H              1 S1                 0.0000
     28 ****        -0.0315  -1.8269   1.5225 H              1 S1                 0.0000
     29 ****         1.9949  -0.3571   0.6903 H              1 S1                 0.0000
     30 ****         2.2787  -0.8861  -2.0513 H              1 S1                 0.0000
     31 ****         1.8503   0.8092  -1.9136 H              1 S1                 0.0000
     32 ****         4.1819  -0.5398  -0.4483 H              1 S1                 0.0000
     33 ****         5.6696   0.4251  -1.9820 H              1 S1                 0.0000
     34 ****         4.3703   0.0117  -3.0964 H              1 S1                 0.0000
     35 ****         5.3195   2.6092  -2.7519 H              1 S1                 0.0000
     36 ****         3.6442   2.2846  -3.2000 H              1 S1                 0.0000
     37 ****         3.1271   1.7647   0.5188 H              1 S1                 0.0000
     38 ****         4.8697   1.6124   0.3121 H              1 S1                 0.0000
     39 ****        -4.7062   0.9270   1.3721 LP             1 S1                 0.0000
     40 ****        -1.4565  -0.7922  -1.1995 LP             1 S1                 0.0000
     41 ****        -0.0455  -0.3972  -2.1231 LP             1 S1                 0.0000
     42 ****         3.0081   2.9906  -1.3189 LP             1 S1                 0.0000
     43 ****         4.5400   3.3668  -0.8964 LP             1 S1                 0.0000
     44 ****        -1.0221  -3.3409   0.9475 LP             1 S1                 0.0000
     45 ****        -2.5319  -4.1886   0.9037 LP             1 S1                 0.0000
@<TRIPOS>BOND
    1    1    2 1     
    2    1   21 1     
    3    1   22 1     
    4    1   23 1     
    5    2   19 1     
    6    2    3 2     
    7    3    4 1     
    8    4    5 1     
    9    4    6 2     
   10    5   24 1     
   11    5   25 1     
   12    5   26 1     
   13    6    7 1     
   14    6   17 1     
   15    7    8 1     
   16    7   27 1     
   17    7   28 1     
   18    8    9 2     
   19    8   10 am    
   20   10   11 1     
   21   10   29 1     
   22   11   12 1     
   23   11   30 1     
   24   11   31 1     
   25   12   16 1     
   26   12   13 1     
   27   12   32 1     
   28   13   14 1     
   29   13   33 1     
   30   13   34 1     
   31   14   15 1     
   32   14   35 1     
   33   14   36 1     
   34   15   16 1     
   35   16   37 1     
   36   16   38 1     
   37   17   18 2     
   38   17   19 am    
   39   19   20 1     
   40    3   39 1     
   41    9   40 1     
   42    9   41 1     
   43   15   42 1     
   44   15   43 1     
   45   18   44 1     
   46   18   45 1     
@<TRIPOS>SUBSTRUCTURE
      1 S1             1
@<TRIPOS>SET
LONE_PAIRS      STATIC     ATOMS    <user>   **** ""
7 39 40 41 42 43 44 45
DONOR_HYDROGENS      STATIC     ATOMS    <user>   **** ""
2 29 20
ATOM$BLUE        STATIC     ATOMS    COLORGROUP SYSTEM
7 39 40 41 42 43 44 45
ATOM$RED        STATIC     ATOMS    COLORGROUP SYSTEM
2 29 20
