#       Name:                AV-unprocessed.smi:2458
#       Creating user name   scv26
#       Creation time:       Fri Mar 27 13:34:56 2020


#       File generated by GOLD software.
#

@<TRIPOS>MOLECULE
AV-unprocessed.smi:2458
    52    53     1
SMALL
NO_CHARGES


@<TRIPOS>ATOM
      1 ****        -4.5964  -1.9898   0.8466 C.3            1 S1                 0.0000
      2 ****        -3.8305  -2.1135  -0.4849 C.3            1 S1                 0.0000
      3 ****        -4.2095  -3.4505  -1.1511 C.3            1 S1                 0.0000
      4 ****        -2.2922  -1.9420  -0.3136 C.3            1 S1                 0.0000
      5 ****        -1.5338  -2.0555  -1.6593 C.3            1 S1                 0.0000
      6 ****        -0.0164  -1.8696  -1.4983 C.3            1 S1                 0.0000
      7 ****         0.3161  -0.5197  -0.8374 C.3            1 S1                 0.0000
      8 ****         1.8294  -0.3365  -0.6650 C.2            1 S1                 0.0000
      9 ****         2.4947  -1.1775  -0.0595 O.2            1 S1                 0.0000
     10 ****         2.3577   0.7812  -1.1856 N.am           1 S1                 0.0000
     11 ****         3.7552   1.1850  -1.0632 C.3            1 S1                 0.0000
     12 ****         4.1207   1.6660   0.3596 C.3            1 S1                 0.0000
     13 ****         5.4137   2.2335   0.3204 O.3            1 S1                 0.0000
     14 ****         3.0923   2.6234   0.9471 C.ar           1 S1                 0.0000
     15 ****         2.2312   2.2076   1.9847 C.ar           1 S1                 0.0000
     16 ****         1.2769   3.1149   2.4828 C.ar           1 S1                 0.0000
     17 ****         1.2232   4.4061   1.9219 C.ar           1 S1                 0.0000
     18 ****         2.0405   4.8171   0.9288 N.ar           1 S1                 0.0000
     19 ****         2.9523   3.9402   0.4562 C.ar           1 S1                 0.0000
     20 ****        -0.4022  -0.4188   0.5199 C.3            1 S1                 0.0000
     21 ****        -1.9203  -0.6011   0.3666 C.3            1 S1                 0.0000
     22 ****        -1.9383  -2.7474   0.3323 H              1 S1                 0.0000
     23 ****        -0.0563   0.2776  -1.4835 H              1 S1                 0.0000
     24 ****        -4.2182  -2.6934   1.5888 H              1 S1                 0.0000
     25 ****        -5.6586  -2.1943   0.7097 H              1 S1                 0.0000
     26 ****        -4.5296  -0.9865   1.2655 H              1 S1                 0.0000
     27 ****        -4.1892  -1.3156  -1.1366 H              1 S1                 0.0000
     28 ****        -3.7926  -4.2977  -0.6059 H              1 S1                 0.0000
     29 ****        -3.8623  -3.5073  -2.1821 H              1 S1                 0.0000
     30 ****        -5.2915  -3.5808  -1.1847 H              1 S1                 0.0000
     31 ****        -1.7005  -3.0306  -2.1151 H              1 S1                 0.0000
     32 ****        -1.9182  -1.3150  -2.3622 H              1 S1                 0.0000
     33 ****         0.3826  -2.6920  -0.9023 H              1 S1                 0.0000
     34 ****         0.4634  -1.9365  -2.4758 H              1 S1                 0.0000
     35 ****         1.7400   1.4187  -1.6669 H              1 S1                 0.0000
     36 ****         4.4142   0.3748  -1.3798 H              1 S1                 0.0000
     37 ****         3.9057   1.9985  -1.7740 H              1 S1                 0.0000
     38 ****         4.1836   0.7957   1.0142 H              1 S1                 0.0000
     39 ****         5.6938   2.4024   1.2070 H              1 S1                 0.0000
     40 ****         2.2918   1.2070   2.3874 H              1 S1                 0.0000
     41 ****         0.6005   2.8272   3.2740 H              1 S1                 0.0000
     42 ****         0.5031   5.1272   2.2793 H              1 S1                 0.0000
     43 ****         3.5839   4.2988  -0.3434 H              1 S1                 0.0000
     44 ****        -0.0170  -1.1732   1.2081 H              1 S1                 0.0000
     45 ****        -0.1992   0.5492   0.9800 H              1 S1                 0.0000
     46 ****        -2.3301   0.2299  -0.2091 H              1 S1                 0.0000
     47 ****        -2.3616  -0.5364   1.3603 H              1 S1                 0.0000
     48 ****         2.0488  -1.9865   0.3236 LP             1 S1                 0.0000
     49 ****         3.4807  -1.0515   0.0490 LP             1 S1                 0.0000
     50 ****         5.3907   3.0901  -0.1952 LP             1 S1                 0.0000
     51 ****         6.0482   1.5973  -0.1185 LP             1 S1                 0.0000
     52 ****         1.9727   5.7421   0.5548 LP             1 S1                 0.0000
@<TRIPOS>BOND
    1    1    2 1     
    2    1   24 1     
    3    1   25 1     
    4    1   26 1     
    5    2    3 1     
    6    2    4 1     
    7    2   27 1     
    8    3   28 1     
    9    3   29 1     
   10    3   30 1     
   11    4   22 1     
   12    4   21 1     
   13    4    5 1     
   14    5    6 1     
   15    5   31 1     
   16    5   32 1     
   17    6    7 1     
   18    6   33 1     
   19    6   34 1     
   20    7   23 1     
   21    7    8 1     
   22    7   20 1     
   23    8    9 2     
   24    8   10 am    
   25   10   11 1     
   26   10   35 1     
   27   11   12 1     
   28   11   36 1     
   29   11   37 1     
   30   12   13 1     
   31   12   14 1     
   32   12   38 1     
   33   13   39 1     
   34   14   19 ar    
   35   14   15 ar    
   36   15   16 ar    
   37   15   40 1     
   38   16   17 ar    
   39   16   41 1     
   40   17   18 ar    
   41   17   42 1     
   42   18   19 ar    
   43   19   43 1     
   44   20   21 1     
   45   20   44 1     
   46   20   45 1     
   47   21   46 1     
   48   21   47 1     
   49    9   48 1     
   50    9   49 1     
   51   13   50 1     
   52   13   51 1     
   53   18   52 1     
@<TRIPOS>SUBSTRUCTURE
      1 S1             1
@<TRIPOS>SET
LONE_PAIRS      STATIC     ATOMS    <user>   **** ""
5 48 49 50 51 52
DONOR_HYDROGENS      STATIC     ATOMS    <user>   **** ""
2 35 39
ATOM$BLUE        STATIC     ATOMS    COLORGROUP SYSTEM
5 48 49 50 51 52
ATOM$RED        STATIC     ATOMS    COLORGROUP SYSTEM
2 35 39
