#       Name:                AV-unprocessed.smi:3241
#       Creating user name   scv26
#       Creation time:       Fri Mar 27 18:26:25 2020


#       File generated by GOLD software.
#

@<TRIPOS>MOLECULE
AV-unprocessed.smi:3241
    47    48     1
SMALL
NO_CHARGES


@<TRIPOS>ATOM
      1 ****        -1.7172  -0.1129  -3.1211 C.3            1 S1                 0.0000
      2 ****        -2.1565   0.5063  -1.7842 C.3            1 S1                 0.0000
      3 ****        -3.5923   1.0588  -1.8896 C.3            1 S1                 0.0000
      4 ****        -4.0623   1.6815  -0.5669 C.3            1 S1                 0.0000
      5 ****        -3.9578   0.6706   0.5825 C.3            1 S1                 0.0000
      6 ****        -2.5279   0.1248   0.7071 C.3            1 S1                 0.0000
      7 ****        -2.0384  -0.5018  -0.6173 C.3            1 S1                 0.0000
      8 ****        -0.6682  -0.8683  -0.5044 O.3            1 S1                 0.0000
      9 ****        -0.4274  -2.0801   0.1962 C.3            1 S1                 0.0000
     10 ****         1.0806  -2.3509   0.2009 C.3            1 S1                 0.0000
     11 ****         1.7736  -1.4210   1.0857 N.3            1 S1                 0.0000
     12 ****         3.2125  -1.6506   1.1704 C.3            1 S1                 0.0000
     13 ****         3.8951  -0.6307   2.0966 C.3            1 S1                 0.0000
     14 ****         3.8877   0.7102   1.5389 N.pl3          1 S1                 0.0000
     15 ****         4.7572   1.2573   0.6188 C.2            1 S1                 0.0000
     16 ****         4.3526   2.5412   0.3903 C.2            1 S1                 0.0000
     17 ****         3.2107   2.6893   1.2267 C.2            1 S1                 0.0000
     18 ****         2.9376   1.5935   1.9164 N.2            1 S1                 0.0000
     19 ****        -2.3352  -0.9726  -3.3821 H              1 S1                 0.0000
     20 ****        -0.6804  -0.4479  -3.0829 H              1 S1                 0.0000
     21 ****        -1.7950   0.6112  -3.9324 H              1 S1                 0.0000
     22 ****        -1.4913   1.3454  -1.5738 H              1 S1                 0.0000
     23 ****        -3.6466   1.8062  -2.6818 H              1 S1                 0.0000
     24 ****        -4.2756   0.2576  -2.1751 H              1 S1                 0.0000
     25 ****        -3.4575   2.5602  -0.3390 H              1 S1                 0.0000
     26 ****        -5.0910   2.0298  -0.6637 H              1 S1                 0.0000
     27 ****        -4.2600   1.1399   1.5190 H              1 S1                 0.0000
     28 ****        -4.6513  -0.1537   0.4109 H              1 S1                 0.0000
     29 ****        -1.8551   0.9324   0.9988 H              1 S1                 0.0000
     30 ****        -2.4995  -0.6058   1.5146 H              1 S1                 0.0000
     31 ****        -2.6419  -1.3804  -0.8538 H              1 S1                 0.0000
     32 ****        -0.8079  -2.0431   1.2170 H              1 S1                 0.0000
     33 ****        -0.9391  -2.8978  -0.3128 H              1 S1                 0.0000
     34 ****         1.2544  -3.3726   0.5401 H              1 S1                 0.0000
     35 ****         1.4766  -2.2847  -0.8132 H              1 S1                 0.0000
     36 ****         1.3616  -1.4506   2.0128 H              1 S1                 0.0000
     37 ****         3.3995  -2.6552   1.5512 H              1 S1                 0.0000
     38 ****         3.6616  -1.6068   0.1774 H              1 S1                 0.0000
     39 ****         3.4203  -0.6187   3.0793 H              1 S1                 0.0000
     40 ****         4.9340  -0.9201   2.2575 H              1 S1                 0.0000
     41 ****         5.5809   0.6928   0.2073 H              1 S1                 0.0000
     42 ****         4.8023   3.2637  -0.2746 H              1 S1                 0.0000
     43 ****         2.5784   3.5556   1.3543 H              1 S1                 0.0000
     44 ****        -0.1886  -0.1327  -0.0261 LP             1 S1                 0.0000
     45 ****        -0.2956  -0.9642  -1.4274 LP             1 S1                 0.0000
     46 ****         1.6580  -0.5128   0.6834 LP             1 S1                 0.0000
     47 ****         2.1946   1.4511   2.5703 LP             1 S1                 0.0000
@<TRIPOS>BOND
    1    1    2 1     
    2    1   19 1     
    3    1   20 1     
    4    1   21 1     
    5    2    7 1     
    6    2    3 1     
    7    2   22 1     
    8    3    4 1     
    9    3   23 1     
   10    3   24 1     
   11    4    5 1     
   12    4   25 1     
   13    4   26 1     
   14    5    6 1     
   15    5   27 1     
   16    5   28 1     
   17    6    7 1     
   18    6   29 1     
   19    6   30 1     
   20    7    8 1     
   21    7   31 1     
   22    8    9 1     
   23    9   10 1     
   24    9   32 1     
   25    9   33 1     
   26   10   11 1     
   27   10   34 1     
   28   10   35 1     
   29   11   12 1     
   30   11   36 1     
   31   12   13 1     
   32   12   37 1     
   33   12   38 1     
   34   13   14 1     
   35   13   39 1     
   36   13   40 1     
   37   14   18 1     
   38   14   15 1     
   39   15   16 2     
   40   15   41 1     
   41   16   17 1     
   42   16   42 1     
   43   17   18 2     
   44   17   43 1     
   45    8   44 1     
   46    8   45 1     
   47   11   46 1     
   48   18   47 1     
@<TRIPOS>SUBSTRUCTURE
      1 S1             1
@<TRIPOS>SET
LONE_PAIRS      STATIC     ATOMS    <user>   **** ""
4 44 45 46 47
DONOR_HYDROGENS      STATIC     ATOMS    <user>   **** ""
1 36
ATOM$BLUE        STATIC     ATOMS    COLORGROUP SYSTEM
4 44 45 46 47
ATOM$RED        STATIC     ATOMS    COLORGROUP SYSTEM
1 36
