#       Name:                AV-unprocessed.smi:169
#       Creating user name   scv26
#       Creation time:       Thu Mar 26 19:15:50 2020


#       File generated by GOLD software.
#

@<TRIPOS>MOLECULE
AV-unprocessed.smi:169
    64    68     1
SMALL
NO_CHARGES


@<TRIPOS>ATOM
      1 ****        -4.9023  -2.8008   0.8445 C.3            1 S1                 0.0000
      2 ****        -5.1802  -1.5207   0.0363 C.3            1 S1                 0.0000
      3 ****        -4.1021  -0.5015   0.1319 N.4            1 S1                 1.0000
      4 ****        -3.9360   0.0519   1.4998 C.3            1 S1                 0.0000
      5 ****        -3.6023   1.5571   1.4984 C.3            1 S1                 0.0000
      6 ****        -2.4848   2.0123   0.5327 C.3            1 S1                 0.0000
      7 ****        -2.9937   2.3238  -0.8905 C.3            1 S1                 0.0000
      8 ****        -2.4100   1.2255  -1.7853 C.3            1 S1                 0.0000
      9 ****        -1.8349   0.1972  -0.8061 C.3            1 S1                 0.0000
     10 ****        -2.8214  -0.9485  -0.4838 C.3            1 S1                 0.0000
     11 ****        -1.4623   0.9788   0.3697 N.3            1 S1                 0.0000
     12 ****        -0.1425   1.2873   0.4607 C.ar           1 S1                 0.0000
     13 ****         0.2769   2.5788   0.3951 N.ar           1 S1                 0.0000
     14 ****         1.5785   2.8704   0.4754 C.ar           1 S1                 0.0000
     15 ****         2.6120   2.0387   0.6170 N.ar           1 S1                 0.0000
     16 ****         2.1994   0.7409   0.6798 C.ar           1 S1                 0.0000
     17 ****         0.8534   0.2832   0.6137 C.ar           1 S1                 0.0000
     18 ****         0.8156  -1.1014   0.7252 N.2            1 S1                 0.0000
     19 ****         2.0693  -1.4432   0.8471 C.2            1 S1                 0.0000
     20 ****         2.9695  -0.4010   0.8169 N.pl3          1 S1                 0.0000
     21 ****         4.4171  -0.5024   0.9258 C.3            1 S1                 0.0000
     22 ****         5.1576  -0.4495  -0.4271 C.3            1 S1                 0.0000
     23 ****         4.5914  -1.4940  -1.4055 C.3            1 S1                 0.0000
     24 ****         4.7191  -2.8063  -0.8961 O.3            1 S1                 0.0000
     25 ****         5.3449   0.9474  -1.0369 C.3            1 S1                 0.0000
     26 ****         6.7579   0.7317  -1.2337 O.3            1 S1                 0.0000
     27 ****         6.6899  -0.4066  -0.3489 C.3            1 S1                 0.0000
     28 ****        -5.7380  -3.4951   0.7559 H              1 S1                 0.0000
     29 ****        -4.7669  -2.5894   1.9052 H              1 S1                 0.0000
     30 ****        -4.0128  -3.3202   0.4883 H              1 S1                 0.0000
     31 ****        -5.3338  -1.7772  -1.0126 H              1 S1                 0.0000
     32 ****        -6.1169  -1.0736   0.3714 H              1 S1                 0.0000
     33 ****        -4.8552  -0.0787   2.0729 H              1 S1                 0.0000
     34 ****        -3.1713  -0.5115   2.0374 H              1 S1                 0.0000
     35 ****        -4.5062   2.1382   1.3116 H              1 S1                 0.0000
     36 ****        -3.3031   1.8203   2.5137 H              1 S1                 0.0000
     37 ****        -2.0742   2.9313   0.9516 H              1 S1                 0.0000
     38 ****        -4.0827   2.3357  -0.9429 H              1 S1                 0.0000
     39 ****        -2.6454   3.3029  -1.2219 H              1 S1                 0.0000
     40 ****        -3.1439   0.8017  -2.4716 H              1 S1                 0.0000
     41 ****        -1.6028   1.6439  -2.3882 H              1 S1                 0.0000
     42 ****        -0.9557  -0.2540  -1.2686 H              1 S1                 0.0000
     43 ****        -2.3328  -1.6741   0.1677 H              1 S1                 0.0000
     44 ****        -3.0396  -1.4768  -1.4128 H              1 S1                 0.0000
     45 ****         1.8281   3.9198   0.4173 H              1 S1                 0.0000
     46 ****         2.3763  -2.4736   0.9544 H              1 S1                 0.0000
     47 ****         4.7582   0.3008   1.5803 H              1 S1                 0.0000
     48 ****         4.6543  -1.4267   1.4539 H              1 S1                 0.0000
     49 ****         3.5450  -1.3003  -1.6416 H              1 S1                 0.0000
     50 ****         5.1245  -1.4542  -2.3561 H              1 S1                 0.0000
     51 ****         4.4138  -3.4138  -1.5529 H              1 S1                 0.0000
     52 ****         4.8056   1.1015  -1.9722 H              1 S1                 0.0000
     53 ****         5.1624   1.7689  -0.3431 H              1 S1                 0.0000
     54 ****         7.0768  -0.1714   0.6441 H              1 S1                 0.0000
     55 ****         7.1832  -1.2883  -0.7595 H              1 S1                 0.0000
     56 ****        -4.4284   0.2672  -0.4365 H              1 S1                 0.0000
     57 ****        -1.4858   0.4426   1.2135 LP             1 S1                 0.0000
     58 ****        -0.3919   3.3142   0.2862 LP             1 S1                 0.0000
     59 ****         3.5672   2.3300   0.6702 LP             1 S1                 0.0000
     60 ****         0.0132  -1.6981   0.7145 LP             1 S1                 0.0000
     61 ****         4.1686  -2.9014  -0.0667 LP             1 S1                 0.0000
     62 ****         5.6780  -2.9937  -0.6830 LP             1 S1                 0.0000
     63 ****         7.3372   1.4760  -0.9015 LP             1 S1                 0.0000
     64 ****         7.0118   0.5061  -2.1743 LP             1 S1                 0.0000
@<TRIPOS>BOND
    1    1    2 1     
    2    1   28 1     
    3    1   29 1     
    4    1   30 1     
    5    2    3 1     
    6    2   31 1     
    7    2   32 1     
    8    3   10 1     
    9    3    4 1     
   10    3   56 1     
   11    4    5 1     
   12    4   33 1     
   13    4   34 1     
   14    5    6 1     
   15    5   35 1     
   16    5   36 1     
   17    6   11 1     
   18    6    7 1     
   19    6   37 1     
   20    7    8 1     
   21    7   38 1     
   22    7   39 1     
   23    8    9 1     
   24    8   40 1     
   25    8   41 1     
   26    9   10 1     
   27    9   11 1     
   28    9   42 1     
   29   10   43 1     
   30   10   44 1     
   31   11   12 1     
   32   12   17 ar    
   33   12   13 ar    
   34   13   14 ar    
   35   14   15 ar    
   36   14   45 1     
   37   15   16 ar    
   38   16   20 1     
   39   16   17 ar    
   40   17   18 1     
   41   18   19 2     
   42   19   20 1     
   43   19   46 1     
   44   20   21 1     
   45   21   22 1     
   46   21   47 1     
   47   21   48 1     
   48   22   27 1     
   49   22   23 1     
   50   22   25 1     
   51   23   24 1     
   52   23   49 1     
   53   23   50 1     
   54   24   51 1     
   55   25   26 1     
   56   25   52 1     
   57   25   53 1     
   58   26   27 1     
   59   27   54 1     
   60   27   55 1     
   61   11   57 1     
   62   13   58 1     
   63   15   59 1     
   64   18   60 1     
   65   24   61 1     
   66   24   62 1     
   67   26   63 1     
   68   26   64 1     
@<TRIPOS>SUBSTRUCTURE
      1 S1             1
@<TRIPOS>SET
LONE_PAIRS      STATIC     ATOMS    <user>   **** ""
8 57 58 59 60 61 62 63 64
DONOR_HYDROGENS      STATIC     ATOMS    <user>   **** ""
2 56 51
ATOM$BLUE        STATIC     ATOMS    COLORGROUP SYSTEM
8 57 58 59 60 61 62 63 64
ATOM$RED        STATIC     ATOMS    COLORGROUP SYSTEM
2 56 51
