AV-unprocessed.smi:110|AV-procd|sdf|1074|dock4
  -GOLD-   2262018163D 1   1.00000     0.00000
 Structure written by MMmdl.
 46 50  0  0  0  0  0  0  0  0  1 V2000
  152.0226  132.8069  157.2952 O   0  0  0  0  0  0  0  0  0  0  0  0
  150.7243  133.0825  156.8149 C   0  0  0  0  0  0  0  0  0  0  0  0
  150.7904  134.1096  155.6732 C   0  0  2  0  0  0  0  0  0  0  0  0
  151.6164  135.1898  156.1028 O   0  0  0  0  0  0  0  0  0  0  0  0
  151.0594  136.3945  155.6981 C   0  0  2  0  0  0  0  0  0  0  0  0
  151.5384  137.4763  156.6085 N   0  0  0  0  0  0  0  0  0  0  0  0
  152.2852  137.3739  157.7611 C   0  0  0  0  0  0  0  0  0  0  0  0
  152.5491  138.5074  158.3530 N   0  0  0  0  0  0  0  0  0  0  0  0
  151.9380  139.4659  157.5511 C   0  0  0  0  0  0  0  0  0  0  0  0
  151.8306  140.8866  157.5948 C   0  0  0  0  0  0  0  0  0  0  0  0
  152.3581  141.6504  158.5863 N   0  0  0  0  0  0  0  0  0  0  0  0
  153.1744  141.0110  159.6298 C   0  0  0  0  0  0  0  0  0  0  0  0
  153.1872  141.9385  160.8577 C   0  0  0  0  0  0  0  0  0  0  0  0
  152.4442  143.1195  160.3273 C   0  0  0  0  0  0  0  0  0  0  0  0
  152.1996  144.3346  160.9903 C   0  0  0  0  0  0  0  0  0  0  0  0
  151.4834  145.3361  160.3014 C   0  0  0  0  0  0  0  0  0  0  0  0
  151.0361  145.1113  158.9792 C   0  0  0  0  0  0  0  0  0  0  0  0
  151.2937  143.8821  158.3330 C   0  0  0  0  0  0  0  0  0  0  0  0
  151.9984  142.8774  159.0308 C   0  0  0  0  0  0  0  0  0  0  0  0
  151.1338  141.4866  156.5947 N   0  0  0  0  0  0  0  0  0  0  0  0
  150.5843  140.7588  155.6185 C   0  0  0  0  0  0  0  0  0  0  0  0
  150.6059  139.4355  155.4519 N   0  0  0  0  0  0  0  0  0  0  0  0
  151.3031  138.8230  156.4510 C   0  0  0  0  0  0  0  0  0  0  0  0
  149.5440  136.1966  155.7600 C   0  0  2  0  0  0  0  0  0  0  0  0
  149.0082  136.4080  157.0540 O   0  0  0  0  0  0  0  0  0  0  0  0
  149.4154  134.7357  155.3483 C   0  0  1  0  0  0  0  0  0  0  0  0
  149.1784  134.6523  153.9560 O   0  0  0  0  0  0  0  0  0  0  0  0
  151.2234  133.6553  154.7798 H   0  0  0  0  0  0  0  0  0  0  0  0
  151.4215  136.6594  154.7035 H   0  0  0  0  0  0  0  0  0  0  0  0
  149.0516  136.8831  155.0696 H   0  0  0  0  0  0  0  0  0  0  0  0
  148.5900  134.2373  155.8588 H   0  0  0  0  0  0  0  0  0  0  0  0
  152.4139  132.1468  156.7437 H   0  0  0  0  0  0  0  0  0  0  0  0
  150.3079  132.1420  156.4534 H   0  0  0  0  0  0  0  0  0  0  0  0
  150.0842  133.4308  157.6262 H   0  0  0  0  0  0  0  0  0  0  0  0
  152.6293  136.4280  158.1536 H   0  0  0  0  0  0  0  0  0  0  0  0
  152.7814  140.0268  159.8889 H   0  0  0  0  0  0  0  0  0  0  0  0
  154.1899  140.8781  159.2556 H   0  0  0  0  0  0  0  0  0  0  0  0
  152.6544  141.5040  161.7040 H   0  0  0  0  0  0  0  0  0  0  0  0
  154.1985  142.2082  161.1636 H   0  0  0  0  0  0  0  0  0  0  0  0
  152.5531  144.4991  161.9976 H   0  0  0  0  0  0  0  0  0  0  0  0
  151.2818  146.2810  160.7841 H   0  0  0  0  0  0  0  0  0  0  0  0
  150.4970  145.8879  158.4570 H   0  0  0  0  0  0  0  0  0  0  0  0
  150.9600  143.7309  157.3174 H   0  0  0  0  0  0  0  0  0  0  0  0
  150.0493  141.3169  154.8645 H   0  0  0  0  0  0  0  0  0  0  0  0
  148.8654  137.3349  157.1699 H   0  0  0  0  0  0  0  0  0  0  0  0
  149.1823  135.5269  153.5975 H   0  0  0  0  0  0  0  0  0  0  0  0
  1  2  1  0  0  0  0
  1 32  1  0  0  0  0
  2  3  1  0  0  0  0
  2 33  1  0  0  0  0
  2 34  1  0  0  0  0
  3 28  1  0  0  0  0
  3 26  1  0  0  0  0
  3  4  1  0  0  0  0
  4  5  1  0  0  0  0
  5 29  1  0  0  0  0
  5  6  1  0  0  0  0
  5 24  1  0  0  0  0
  6 23  1  0  0  0  0
  6  7  1  0  0  0  0
  7  8  2  0  0  0  0
  7 35  1  0  0  0  0
  8  9  1  0  0  0  0
  9 23  2  0  0  0  0
  9 10  1  0  0  0  0
 10 11  1  0  0  0  0
 10 20  2  0  0  0  0
 11 19  1  0  0  0  0
 11 12  1  0  0  0  0
 12 13  1  0  0  0  0
 12 36  1  0  0  0  0
 12 37  1  0  0  0  0
 13 14  1  0  0  0  0
 13 38  1  0  0  0  0
 13 39  1  0  0  0  0
 14 19  2  0  0  0  0
 14 15  1  0  0  0  0
 15 16  2  0  0  0  0
 15 40  1  0  0  0  0
 16 17  1  0  0  0  0
 16 41  1  0  0  0  0
 17 18  2  0  0  0  0
 17 42  1  0  0  0  0
 18 19  1  0  0  0  0
 18 43  1  0  0  0  0
 20 21  1  0  0  0  0
 21 22  2  0  0  0  0
 21 44  1  0  0  0  0
 22 23  1  0  0  0  0
 24 30  1  0  0  0  0
 24 25  1  0  0  0  0
 24 26  1  0  0  0  0
 25 45  1  0  0  0  0
 26 31  1  0  0  0  0
 26 27  1  0  0  0  0
 27 46  1  0  0  0  0
M  END
> <s_m_source_file>
AV-unprocessed.smi

> <i_m_source_file_index>
110

> <i_lp_mmshare_version>
43012

> <i_f3d_flags>
0

> <s_epik_input>
W09IXVtDSDJdW0NASF0xT1tDQEhdKFtDQEhdKFtPSF0pW0NAQEhdMVtPSF0pbihbY0hdbjIpYyhjMjMpbltjSF1uYzNOKFtDSDJdW0NIMl00KWMoYzQ1KVtjSF1bY0hdW2NIXVtjSF01

> <s_epik_cmdline>
J2VwaWtfcHl0aG9uJywgJy1waCcsICc3LjAnLCAnLXRuJywgJzgnLCAnLW1hJywgJzIwMCcsICctbWV0YWxfYmluZGluZycsICctaW1hZScsICc8aW5maWxlLm1hZT4nLCAnLW9tYWUnLCAnPG91dGZpbGUubWFlPic=

> <r_lp_tautomer_probability>
1

> <r_epik_Ionization_Penalty>
0.00068475

> <r_epik_Ionization_Penalty_Charging>
0

> <r_epik_Ionization_Penalty_Neutral>
0.00068475

> <r_epik_State_Penalty>
0.000417442

> <r_epik_Charging_Adjusted_Penalty>
0.000417442

> <i_epik_Tot_Q>
0

> <i_epik_Tot_abs_Q>
0

> <r_epik_Metal_State_Penalty>
-0

> <b_epik_Metal_Only>
0

> <s_epik_Chemistry_Notes>
This compound contains an acetal/aminal-like group ( X-CH(R)-Y where X, Y are N, S, or O) that may be acid/base labile, releasing an aldehyde.

> <s_lp_Force_Field>
OPLS_2005

> <r_lp_Energy>
59.3181

> <b_lp_Chiralities_Consistent>
1

> <s_lp_Variant>
AV-unprocessed.smi:110-12

> <Gold.Version>
5.8.1

> <Gold.Id.Protein>
6NUR|6NUR_protein|mol2

> <Gold.PLP.Fitness>
54.0998

> <Gold.PLP.PLP>
-47.9234

> <Gold.PLP.part.hbond>
-3.0000

> <Gold.PLP.part.metal>
0.0000

> <Gold.PLP.part.buried>
-5.7308

> <Gold.PLP.part.nonpolar>
-39.1864

> <Gold.PLP.part.repulsive>
0.0831

> <Gold.PLP.ligand.clash>
0.0000

> <Gold.PLP.ligand.torsion>
0.3457

> <Gold.PLP.Chemscore.Hbond>
2.2528

> <Gold.PLP.Chemscore.CHOScore>
0.0000

> <Gold.PLP.Chemscore.Metal>
0.0000

> <Gold.Chemscore.Hbonds>
donor molecule, donor type, donor heavy atom, donor atom, acceptor molecule, acceptor atom, score
      L1  H    27    46       P1  7948  0.66
      P1  H  6896  6908       L1     1  0.59
      P1  H 10752 10764       L1     4  0.76

> <Gold.PLP.Chemscore.Internal.Correction>
0.1095

> <Gold.Rescore>
     Score         DG    S(hbond)    S(metal)    S(lipo)     H(rot)  DE(clash)    DE(int)     intcor
     12.38     -15.31       1.70        0.00     109.62       3.38       0.12       2.82       ----

> <Gold.Chemscore.Fitness>
12.3793

> <Gold.Chemscore.DG>
-15.3136

> <Gold.Chemscore.ZeroCoef>
-5.4800

> <Gold.Chemscore.Hbond>
1.6975

> <Gold.Chemscore.Metal>
0.0000

> <Gold.Chemscore.Lipo>
109.6247

> <Gold.Chemscore.Internal_Hbond>
0.0000

> <Gold.Chemscore.DEClash>
0.1190

> <Gold.Chemscore.DEInternal>
2.8154

> <Gold.Chemscore.Rot>
3.3837

> <Gold.Chemscore.Internal.Correction>
   9.000000E+99

> <Gold.Chemscore.Hbonds>
donor molecule, donor type, donor heavy atom, donor atom, acceptor molecule, acceptor atom, score
      L1  H    27    46       P1  7948  0.36
      P1  H  6896  6908       L1     1  0.06
      P1  H 10752 10764       L1     4  0.12

> <Gold.Chemscore.Hbond.Weighted>
-5.6697

> <Gold.Chemscore.Metal.Weighted>
-0.0000

> <Gold.Chemscore.Lipo.Weighted>
-12.8261

> <Gold.Chemscore.Internal_Hbond.Weighted>
0.0000

> <Gold.Chemscore.DEClash.Weighted>
0.1190

> <Gold.Chemscore.DEInternal.Weighted>
2.8154

> <Gold.Chemscore.Rot.Weighted>
8.6622

> <Gold.Chemscore.Internal.Correction.Weighted>
   9.000000E+99

> <Gold.Protein.RotatedTorsions>
[ 6907 6896 6895 6894 ] final   65.56 input  -60.11 | X-H torsion
[ 7974 7965 7964 7962 ] final   76.23 input  175.53 | X-H torsion
[ 8008 7997 7996 7995 ] final -177.26 input   59.86 | X-H torsion
[ 10167 10162 10161 10158 ] final   58.48 input  -65.29 | X-H torsion
[ 10718 10713 10712 10709 ] final -112.07 input   66.30 | X-H torsion
[ 10763 10752 10751 10750 ] final  -15.18 input  -60.55 | X-H torsion
[ 11005 11000 10999 10996 ] final  130.06 input  -57.11 | X-H torsion

> <Gold.Protein.ActiveResidues>
 VAL166  LYS551  ARG553  GLY616  TRP617  ASP618  TYR619  PRO620  LYS621  CYS622 
 ASP623  PHE694  ASN695  SER759  ASP760  ASP761  ALA762  ILE779  LEU786  VAL792 
 PHE793  MET794  SER795  GLU796  ALA797  LYS798  CYS799  TRP800  GLU811  SER814 

> <Gold.Protein.RotatedAtoms>
  152.4417  134.5578  159.9885 H   0  0  0  0  0  0  0  0  0  0  0  0  # atno 6907 bound_to 6896
  151.5674  133.3389  159.2991 H   0  0  0  0  0  0  0  0  0  0  0  0  # atno 6908 bound_to 6896
  150.8324  134.7616  159.6928 H   0  0  0  0  0  0  0  0  0  0  0  0  # atno 6909 bound_to 6896
  145.7054  139.2597  143.1681 H   0  0  0  0  0  0  0  0  0  0  0  0  # atno 7974 bound_to 7965
  156.0047  140.1228  157.0512 H   0  0  0  0  0  0  0  0  0  0  0  0  # atno 8008 bound_to 7997
  154.4255  140.1099  156.5815 H   0  0  0  0  0  0  0  0  0  0  0  0  # atno 8009 bound_to 7997
  155.6163  140.3472  155.4640 H   0  0  0  0  0  0  0  0  0  0  0  0  # atno 8010 bound_to 7997
  140.1868  144.4126  150.6589 H   0  0  0  0  0  0  0  0  0  0  0  0  # atno 10167 bound_to 10162
  156.0684  130.5900  150.8458 H   0  0  0  0  0  0  0  0  0  0  0  0  # atno 10718 bound_to 10713
  153.5395  135.7013  153.5644 H   0  0  0  0  0  0  0  0  0  0  0  0  # atno 10763 bound_to 10752
  153.3616  135.3968  155.1722 H   0  0  0  0  0  0  0  0  0  0  0  0  # atno 10764 bound_to 10752
  154.8675  135.3790  154.4898 H   0  0  0  0  0  0  0  0  0  0  0  0  # atno 10765 bound_to 10752
  139.9650  134.9593  156.9238 H   0  0  0  0  0  0  0  0  0  0  0  0  # atno 11005 bound_to 11000
  146.0760  140.7817  142.9665 LP  0  0  0  0  0  0  0  0  0  0  0  0  # atno 17320 bound_to 7965
  144.6956  140.3415  143.7198 LP  0  0  0  0  0  0  0  0  0  0  0  0  # atno 17321 bound_to 7965
  140.6483  143.2218  151.6136 LP  0  0  0  0  0  0  0  0  0  0  0  0  # atno 17342 bound_to 10162
  139.5273  144.3021  152.1064 LP  0  0  0  0  0  0  0  0  0  0  0  0  # atno 17343 bound_to 10162
  157.5739  131.0946  150.9375 LP  0  0  0  0  0  0  0  0  0  0  0  0  # atno 17370 bound_to 10713
  156.9585  130.5446  149.5285 LP  0  0  0  0  0  0  0  0  0  0  0  0  # atno 17371 bound_to 10713
  140.5416  134.0714  155.7343 LP  0  0  0  0  0  0  0  0  0  0  0  0  # atno 17394 bound_to 11000
  141.1329  133.9270  157.2496 LP  0  0  0  0  0  0  0  0  0  0  0  0  # atno 17395 bound_to 11000

$$$$
