AV-unprocessed.smi:2188|AV-procd|sdf|8883|dock7
  -GOLD-   2272012 83D 1   1.00000     0.00000
 Structure written by MMmdl.
 39 41  0  0  0  0  0  0  0  0  3 V2000
  147.8866  136.8840  154.8654 O   0  0  0  0  0  0  0  0  0  0  0  0
  147.1367  137.6749  154.2777 C   0  0  0  0  0  0  0  0  0  0  0  0
  146.0553  137.3122  153.5197 N   0  5  0  0  0  0  0  0  0  0  0  0
  145.6729  135.9420  153.1819 C   0  0  0  0  0  0  0  0  0  0  0  0
  146.1320  135.6189  151.7464 C   0  0  0  0  0  0  0  0  0  0  0  0
  145.3981  134.4404  151.1215 C   0  0  0  0  0  0  0  0  0  0  0  0
  146.1008  133.2755  150.7339 C   0  0  0  0  0  0  0  0  0  0  0  0
  145.3965  132.2023  150.1500 C   0  0  0  0  0  0  0  0  0  0  0  0
  144.0045  132.3174  149.9605 C   0  0  0  0  0  0  0  0  0  0  0  0
  143.3657  133.4470  150.3362 N   0  3  0  0  0  0  0  0  0  0  0  0
  144.0034  134.4967  150.8990 C   0  0  0  0  0  0  0  0  0  0  0  0
  147.4184  139.1232  154.3577 C   0  0  0  0  0  0  0  0  0  0  0  0
  146.4536  139.9957  153.9613 C   0  0  0  0  0  0  0  0  0  0  0  0
  146.6433  141.4233  154.0228 C   0  0  0  0  0  0  0  0  0  0  0  0
  147.8224  141.8816  154.4549 C   0  0  0  0  0  0  0  0  0  0  0  0
  148.8686  141.0482  154.8460 N   0  0  0  0  0  0  0  0  0  0  0  0
  150.1295  141.6929  155.1964 C   0  0  0  0  0  0  0  0  0  0  0  0
  150.7452  141.0252  156.4121 C   0  0  0  0  0  0  0  0  0  0  0  0
  151.1166  139.3095  155.9014 S   0  0  0  0  0  0  0  0  0  0  0  0
  152.0531  139.3640  154.7679 O   0  0  0  0  0  0  0  0  0  0  0  0
  151.4829  138.5448  157.1032 O   0  0  0  0  0  0  0  0  0  0  0  0
  149.6108  138.8241  155.3517 N   0  0  0  0  0  0  0  0  0  0  0  0
  148.7079  139.6335  154.8734 C   0  0  0  0  0  0  0  0  0  0  0  0
  146.1138  135.2083  153.8582 H   0  0  0  0  0  0  0  0  0  0  0  0
  144.5938  135.8012  153.2510 H   0  0  0  0  0  0  0  0  0  0  0  0
  145.9957  136.4932  151.1079 H   0  0  0  0  0  0  0  0  0  0  0  0
  147.2015  135.4024  151.7388 H   0  0  0  0  0  0  0  0  0  0  0  0
  147.1679  133.2039  150.8877 H   0  0  0  0  0  0  0  0  0  0  0  0
  145.9181  131.3041  149.8531 H   0  0  0  0  0  0  0  0  0  0  0  0
  143.3877  131.5464  149.5225 H   0  0  0  0  0  0  0  0  0  0  0  0
  143.3838  135.3435  151.1570 H   0  0  0  0  0  0  0  0  0  0  0  0
  145.5081  139.6434  153.5741 H   0  0  0  0  0  0  0  0  0  0  0  0
  145.8560  142.1012  153.7287 H   0  0  0  0  0  0  0  0  0  0  0  0
  148.0250  142.9407  154.5220 H   0  0  0  0  0  0  0  0  0  0  0  0
  150.8060  141.6490  154.3423 H   0  0  0  0  0  0  0  0  0  0  0  0
  149.9748  142.7494  155.4174 H   0  0  0  0  0  0  0  0  0  0  0  0
  151.6729  141.5094  156.7155 H   0  0  0  0  0  0  0  0  0  0  0  0
  150.0638  141.0112  157.2635 H   0  0  0  0  0  0  0  0  0  0  0  0
  142.3581  133.5104  150.1894 H   0  0  0  0  0  0  0  0  0  0  0  0
  1  2  2  0  0  0  0
  2  3  1  0  0  0  0
  2 12  1  0  0  0  0
  3  4  1  0  0  0  0
  4  5  1  0  0  0  0
  4 24  1  0  0  0  0
  4 25  1  0  0  0  0
  5  6  1  0  0  0  0
  5 26  1  0  0  0  0
  5 27  1  0  0  0  0
  6 11  1  0  0  0  0
  6  7  2  0  0  0  0
  7  8  1  0  0  0  0
  7 28  1  0  0  0  0
  8  9  2  0  0  0  0
  8 29  1  0  0  0  0
  9 10  1  0  0  0  0
  9 30  1  0  0  0  0
 10 11  2  0  0  0  0
 10 39  1  0  0  0  0
 11 31  1  0  0  0  0
 12 23  1  0  0  0  0
 12 13  2  0  0  0  0
 13 14  1  0  0  0  0
 13 32  1  0  0  0  0
 14 15  2  0  0  0  0
 14 33  1  0  0  0  0
 15 16  1  0  0  0  0
 15 34  1  0  0  0  0
 16 23  1  0  0  0  0
 16 17  1  0  0  0  0
 17 18  1  0  0  0  0
 17 35  1  0  0  0  0
 17 36  1  0  0  0  0
 18 19  1  0  0  0  0
 18 37  1  0  0  0  0
 18 38  1  0  0  0  0
 19 20  2  0  0  0  0
 19 21  2  0  0  0  0
 19 22  1  0  0  0  0
 22 23  2  0  0  0  0
M  CHG  1   3  -1
M  CHG  1  10   1
M  END
> <s_m_source_file>
AV-unprocessed.smi

> <i_m_source_file_index>
2188

> <i_lp_mmshare_version>
43012

> <i_f3d_flags>
0

> <s_epik_input>
W0NIMl0xW0NIMl1TKD1PKSg9TylOPUMoTjEyKUMoPVtDSF1bQ0hdPVtDSF0yKUMoPU8pW05IXVtDSDJdW0NIMl1jM1tjSF1bY0hdW2NIXW5bY0hdMw==

> <s_epik_cmdline>
J2VwaWtfcHl0aG9uJywgJy1waCcsICc3LjAnLCAnLXRuJywgJzgnLCAnLW1hJywgJzIwMCcsICctbWV0YWxfYmluZGluZycsICctaW1hZScsICc8aW5maWxlLm1hZT4nLCAnLW9tYWUnLCAnPG91dGZpbGUubWFlPic=

> <r_epik_Ionization_Penalty>
7.27179

> <r_epik_Ionization_Penalty_Charging>
7.27179

> <r_epik_Ionization_Penalty_Neutral>
0

> <r_epik_State_Penalty>
7.89047

> <r_epik_Charging_Adjusted_Penalty>
15.1623

> <i_epik_Tot_Q>
0

> <i_epik_Tot_abs_Q>
2

> <r_epik_Metal_State_Penalty>
3.9241

> <b_epik_Metal_Only>
1

> <s_lp_Force_Field>
OPLS_2005

> <r_lp_Energy>
37.465

> <b_lp_Chiralities_Consistent>
1

> <s_lp_Variant>
AV-unprocessed.smi:2188-4

> <Gold.Version>
5.8.1

> <Gold.Id.Protein>
6NUR|6NUR_protein|mol2

> <Gold.PLP.Fitness>
44.1088

> <Gold.PLP.PLP>
-32.8808

> <Gold.PLP.part.hbond>
-2.0000

> <Gold.PLP.part.metal>
0.0000

> <Gold.PLP.part.buried>
-0.3699

> <Gold.PLP.part.nonpolar>
-30.2885

> <Gold.PLP.part.repulsive>
0.5095

> <Gold.PLP.ligand.clash>
0.0534

> <Gold.PLP.ligand.torsion>
0.3284

> <Gold.PLP.Chemscore.Hbond>
2.8800

> <Gold.PLP.Chemscore.CHOScore>
1.0000

> <Gold.PLP.Chemscore.Metal>
0.0000

> <Gold.Chemscore.Hbonds>
donor molecule, donor type, donor heavy atom, donor atom, acceptor molecule, acceptor atom, score
      L1  H    10    39       P1 10186  1.92
      P1  H  7989  7998       L1    20  0.90
      L1  C    15    34       P1  8028  1.00

> <Gold.PLP.Chemscore.Internal.Correction>
0.2984

> <Gold.Rescore>
     Score         DG    S(hbond)    S(metal)    S(lipo)     H(rot)  DE(clash)    DE(int)     intcor
     14.42     -17.68       1.90        0.00      83.22       1.51       1.32       1.94       ----

> <Gold.Chemscore.Fitness>
14.4209

> <Gold.Chemscore.DG>
-17.6806

> <Gold.Chemscore.ZeroCoef>
-5.4800

> <Gold.Chemscore.Hbond>
1.8959

> <Gold.Chemscore.Metal>
0.0000

> <Gold.Chemscore.Lipo>
83.2168

> <Gold.Chemscore.Internal_Hbond>
0.0000

> <Gold.Chemscore.DEClash>
1.3189

> <Gold.Chemscore.DEInternal>
1.9409

> <Gold.Chemscore.Rot>
1.5109

> <Gold.Chemscore.Internal.Correction>
   9.000000E+99

> <Gold.Chemscore.Hbonds>
donor molecule, donor type, donor heavy atom, donor atom, acceptor molecule, acceptor atom, score
      L1  H    10    39       P1 10186  0.92
      P1  H  7989  7998       L1    20  0.75

> <Gold.Chemscore.Hbond.Weighted>
-6.3323

> <Gold.Chemscore.Metal.Weighted>
-0.0000

> <Gold.Chemscore.Lipo.Weighted>
-9.7364

> <Gold.Chemscore.Internal_Hbond.Weighted>
0.0000

> <Gold.Chemscore.DEClash.Weighted>
1.3189

> <Gold.Chemscore.DEInternal.Weighted>
1.9409

> <Gold.Chemscore.Rot.Weighted>
3.8680

> <Gold.Chemscore.Internal.Correction.Weighted>
   9.000000E+99

> <Gold.Protein.RotatedTorsions>
[ 6907 6896 6895 6894 ] final   40.21 input  -60.11 | X-H torsion
[ 7974 7965 7964 7962 ] final   42.59 input  175.53 | X-H torsion
[ 8008 7997 7996 7995 ] final  179.95 input   59.86 | X-H torsion
[ 10167 10162 10161 10158 ] final   -9.12 input  -65.29 | X-H torsion
[ 10718 10713 10712 10709 ] final  152.41 input   66.30 | X-H torsion
[ 10763 10752 10751 10750 ] final  121.96 input  -60.55 | X-H torsion
[ 11005 11000 10999 10996 ] final  -59.69 input  -57.11 | X-H torsion

> <Gold.Protein.ActiveResidues>
 VAL166  LYS551  ARG553  GLY616  TRP617  ASP618  TYR619  PRO620  LYS621  CYS622 
 ASP623  PHE694  ASN695  SER759  ASP760  ASP761  ALA762  ILE779  LEU786  VAL792 
 PHE793  MET794  SER795  GLU796  ALA797  LYS798  CYS799  TRP800  GLU811  SER814 

> <Gold.Protein.RotatedAtoms>
  152.1795  134.8766  160.0527 H   0  0  0  0  0  0  0  0  0  0  0  0  # atno 6907 bound_to 6896
  151.9695  133.3716  159.4074 H   0  0  0  0  0  0  0  0  0  0  0  0  # atno 6908 bound_to 6896
  150.6915  134.4078  159.5192 H   0  0  0  0  0  0  0  0  0  0  0  0  # atno 6909 bound_to 6896
  146.0727  139.5282  142.9587 H   0  0  0  0  0  0  0  0  0  0  0  0  # atno 7974 bound_to 7965
  156.0376  140.1296  157.0191 H   0  0  0  0  0  0  0  0  0  0  0  0  # atno 8008 bound_to 7997
  154.4377  140.1037  156.6260 H   0  0  0  0  0  0  0  0  0  0  0  0  # atno 8009 bound_to 7997
  155.5715  140.3466  155.4518 H   0  0  0  0  0  0  0  0  0  0  0  0  # atno 8010 bound_to 7997
  140.7078  143.5893  150.8910 H   0  0  0  0  0  0  0  0  0  0  0  0  # atno 10167 bound_to 10162
  157.2581  131.0792  151.1684 H   0  0  0  0  0  0  0  0  0  0  0  0  # atno 10718 bound_to 10713
  153.6223  135.3411  155.3015 H   0  0  0  0  0  0  0  0  0  0  0  0  # atno 10763 bound_to 10752
  154.8597  135.4276  154.2194 H   0  0  0  0  0  0  0  0  0  0  0  0  # atno 10764 bound_to 10752
  153.3070  135.7029  153.7223 H   0  0  0  0  0  0  0  0  0  0  0  0  # atno 10765 bound_to 10752
  141.1258  133.6617  156.5109 H   0  0  0  0  0  0  0  0  0  0  0  0  # atno 11005 bound_to 11000
  145.6362  141.0294  143.1836 LP  0  0  0  0  0  0  0  0  0  0  0  0  # atno 17320 bound_to 7965
  144.7242  139.7930  143.7371 LP  0  0  0  0  0  0  0  0  0  0  0  0  # atno 17321 bound_to 7965
  139.9619  143.6154  152.3000 LP  0  0  0  0  0  0  0  0  0  0  0  0  # atno 17342 bound_to 10162
  139.6710  144.7661  151.1783 LP  0  0  0  0  0  0  0  0  0  0  0  0  # atno 17343 bound_to 10162
  157.3205  130.6935  149.6266 LP  0  0  0  0  0  0  0  0  0  0  0  0  # atno 17370 bound_to 10713
  155.9664  130.4337  150.5016 LP  0  0  0  0  0  0  0  0  0  0  0  0  # atno 17371 bound_to 10713
  140.4369  134.7051  157.4971 LP  0  0  0  0  0  0  0  0  0  0  0  0  # atno 17394 bound_to 11000
  140.0255  134.6483  155.9179 LP  0  0  0  0  0  0  0  0  0  0  0  0  # atno 17395 bound_to 11000

$$$$
