AV-unprocessed.smi:148|AV-procd|sdf|1208|dock5
  -GOLD-   2262018383D 1   1.00000     0.00000
 Structure written by MMmdl.
 63 67  0  0  0  0  0  0  0  0  1 V2000
  147.9939  135.2508  154.4022 O   0  0  0  0  0  0  0  0  0  0  0  0
  148.2770  133.8718  154.5158 C   0  0  0  0  0  0  0  0  0  0  0  0
  149.3525  133.6071  155.5939 C   0  0  2  0  0  0  0  0  0  0  0  0
  150.6238  134.4590  155.3430 C   0  0  0  0  0  0  0  0  0  0  0  0
  150.5325  135.7894  155.9182 N   0  0  0  0  0  0  0  0  0  0  0  0
  149.8508  136.1544  157.0584 C   0  0  0  0  0  0  0  0  0  0  0  0
  149.9126  137.4226  157.3624 N   0  0  0  0  0  0  0  0  0  0  0  0
  150.6919  137.9709  156.3522 C   0  0  0  0  0  0  0  0  0  0  0  0
  151.1433  139.2832  156.0565 C   0  0  0  0  0  0  0  0  0  0  0  0
  150.8289  140.3390  156.8383 N   0  0  0  0  0  0  0  0  0  0  0  0
  152.0315  140.8300  157.5150 C   0  0  0  0  0  0  0  0  0  0  0  0
  151.6831  141.8302  158.6209 C   0  0  0  0  0  0  0  0  0  0  0  0
  150.8586  142.9784  158.0377 C   0  0  0  0  0  0  0  0  0  0  0  0
  149.6117  142.4214  157.3391 C   0  0  0  0  0  0  0  0  0  0  0  0
  149.9504  141.3701  156.2466 C   0  0  2  0  0  0  0  0  0  0  0  0
  148.6326  140.7934  155.6178 C   0  0  1  0  0  0  0  0  0  0  0  0
  147.5538  141.8405  155.2788 C   0  0  0  0  0  0  0  0  0  0  0  0
  146.5820  141.1657  154.3039 C   0  0  0  0  0  0  0  0  0  0  0  0
  147.3116  139.9337  153.7578 C   0  0  0  0  0  0  0  0  0  0  0  0
  148.7490  140.0252  154.2805 C   0  0  1  0  0  0  0  0  0  0  0  0
  149.5291  140.7414  153.3412 O   0  0  0  0  0  0  0  0  0  0  0  0
  151.9179  139.4599  154.9534 N   0  0  0  0  0  0  0  0  0  0  0  0
  152.2140  138.4148  154.1745 C   0  0  0  0  0  0  0  0  0  0  0  0
  151.8515  137.1375  154.3171 N   0  0  0  0  0  0  0  0  0  0  0  0
  151.0874  136.9602  155.4334 C   0  0  0  0  0  0  0  0  0  0  0  0
  149.6509  132.0916  155.7598 C   0  0  2  0  0  0  0  0  0  0  0  0
  150.8855  131.7541  156.5985 C   0  0  0  0  0  0  0  0  0  0  0  0
  151.6792  130.7851  155.7229 C   0  0  0  0  0  0  0  0  0  0  0  0
  150.7016  130.2266  154.8607 O   0  0  0  0  0  0  0  0  0  0  0  0
  149.8579  131.2946  154.4637 C   0  0  0  0  0  0  0  0  0  0  0  0
  148.2921  135.5510  153.5570 H   0  0  0  0  0  0  0  0  0  0  0  0
  147.3579  133.3303  154.7405 H   0  0  0  0  0  0  0  0  0  0  0  0
  148.6129  133.5325  153.5362 H   0  0  0  0  0  0  0  0  0  0  0  0
  148.9315  133.9375  156.5448 H   0  0  0  0  0  0  0  0  0  0  0  0
  151.5098  133.9851  155.7633 H   0  0  0  0  0  0  0  0  0  0  0  0
  150.8111  134.5655  154.2748 H   0  0  0  0  0  0  0  0  0  0  0  0
  149.3045  135.4456  157.6637 H   0  0  0  0  0  0  0  0  0  0  0  0
  152.5849  139.9937  157.9460 H   0  0  0  0  0  0  0  0  0  0  0  0
  152.6910  141.3064  156.7878 H   0  0  0  0  0  0  0  0  0  0  0  0
  151.1197  141.3296  159.4095 H   0  0  0  0  0  0  0  0  0  0  0  0
  152.5939  142.2152  159.0801 H   0  0  0  0  0  0  0  0  0  0  0  0
  150.5702  143.6740  158.8261 H   0  0  0  0  0  0  0  0  0  0  0  0
  151.4609  143.5429  157.3248 H   0  0  0  0  0  0  0  0  0  0  0  0
  148.9537  141.9732  158.0850 H   0  0  0  0  0  0  0  0  0  0  0  0
  149.0680  143.2639  156.9126 H   0  0  0  0  0  0  0  0  0  0  0  0
  150.5191  141.8838  155.4704 H   0  0  0  0  0  0  0  0  0  0  0  0
  148.1864  140.1161  156.3487 H   0  0  0  0  0  0  0  0  0  0  0  0
  147.0366  142.2091  156.1653 H   0  0  0  0  0  0  0  0  0  0  0  0
  148.0124  142.6991  154.7860 H   0  0  0  0  0  0  0  0  0  0  0  0
  145.6667  140.8643  154.8146 H   0  0  0  0  0  0  0  0  0  0  0  0
  146.2991  141.8506  153.5039 H   0  0  0  0  0  0  0  0  0  0  0  0
  146.8405  139.0360  154.1603 H   0  0  0  0  0  0  0  0  0  0  0  0
  147.2587  139.8612  152.6707 H   0  0  0  0  0  0  0  0  0  0  0  0
  149.1640  139.0257  154.3916 H   0  0  0  0  0  0  0  0  0  0  0  0
  149.8506  140.1330  152.6935 H   0  0  0  0  0  0  0  0  0  0  0  0
  152.8258  138.6346  153.3122 H   0  0  0  0  0  0  0  0  0  0  0  0
  148.8084  131.6339  156.2801 H   0  0  0  0  0  0  0  0  0  0  0  0
  151.4816  132.6206  156.8842 H   0  0  0  0  0  0  0  0  0  0  0  0
  150.5789  131.2602  157.5215 H   0  0  0  0  0  0  0  0  0  0  0  0
  152.4212  131.3212  155.1287 H   0  0  0  0  0  0  0  0  0  0  0  0
  152.1936  130.0175  156.3019 H   0  0  0  0  0  0  0  0  0  0  0  0
  148.9208  130.9270  154.0447 H   0  0  0  0  0  0  0  0  0  0  0  0
  150.3695  131.8706  153.6934 H   0  0  0  0  0  0  0  0  0  0  0  0
  1  2  1  0  0  0  0
  1 31  1  0  0  0  0
  2  3  1  0  0  0  0
  2 32  1  0  0  0  0
  2 33  1  0  0  0  0
  3  4  1  0  0  0  0
  3 26  1  0  0  0  0
  3 34  1  0  0  0  0
  4  5  1  0  0  0  0
  4 35  1  0  0  0  0
  4 36  1  0  0  0  0
  5 25  1  0  0  0  0
  5  6  1  0  0  0  0
  6  7  2  0  0  0  0
  6 37  1  0  0  0  0
  7  8  1  0  0  0  0
  8 25  2  0  0  0  0
  8  9  1  0  0  0  0
  9 10  1  0  0  0  0
  9 22  2  0  0  0  0
 10 15  1  0  0  0  0
 10 11  1  0  0  0  0
 11 12  1  0  0  0  0
 11 38  1  0  0  0  0
 11 39  1  0  0  0  0
 12 13  1  0  0  0  0
 12 40  1  0  0  0  0
 12 41  1  0  0  0  0
 13 14  1  0  0  0  0
 13 42  1  0  0  0  0
 13 43  1  0  0  0  0
 14 15  1  0  0  0  0
 14 44  1  0  0  0  0
 14 45  1  0  0  0  0
 15 16  1  0  0  0  0
 15 46  1  0  0  0  0
 16 20  1  0  0  0  0
 16 17  1  0  0  0  0
 16 47  1  0  0  0  0
 17 18  1  0  0  0  0
 17 48  1  0  0  0  0
 17 49  1  0  0  0  0
 18 19  1  0  0  0  0
 18 50  1  0  0  0  0
 18 51  1  0  0  0  0
 19 20  1  0  0  0  0
 19 52  1  0  0  0  0
 19 53  1  0  0  0  0
 20 21  1  0  0  0  0
 20 54  1  0  0  0  0
 21 55  1  0  0  0  0
 22 23  1  0  0  0  0
 23 24  2  0  0  0  0
 23 56  1  0  0  0  0
 24 25  1  0  0  0  0
 26 30  1  0  0  0  0
 26 27  1  0  0  0  0
 26 57  1  0  0  0  0
 27 28  1  0  0  0  0
 27 58  1  0  0  0  0
 27 59  1  0  0  0  0
 28 29  1  0  0  0  0
 28 60  1  0  0  0  0
 28 61  1  0  0  0  0
 29 30  1  0  0  0  0
 30 62  1  0  0  0  0
 30 63  1  0  0  0  0
M  END
> <s_m_source_file>
AV-unprocessed.smi

> <i_m_source_file_index>
148

> <i_lp_mmshare_version>
43012

> <i_f3d_flags>
0

> <s_epik_input>
W0NIMl0xT1tDSDJdW0NIMl1bQ0BIXTFbQ0BIXShbQ0gyXVtPSF0pW0NIMl1uKFtjSF1uMiljKGMyMyluW2NIXW5jM040W0NIMl1bQ0gyXVtDSDJdW0NIMl1bQ0BIXTRbQ0BASF01W0NIMl1bQ0gyXVtDSDJdW0NASF01W09IXQ==

> <s_epik_cmdline>
J2VwaWtfcHl0aG9uJywgJy1waCcsICc3LjAnLCAnLXRuJywgJzgnLCAnLW1hJywgJzIwMCcsICctbWV0YWxfYmluZGluZycsICctaW1hZScsICc8aW5maWxlLm1hZT4nLCAnLW9tYWUnLCAnPG91dGZpbGUubWFlPic=

> <r_lp_tautomer_probability>
1

> <r_epik_Ionization_Penalty>
0.00556303

> <r_epik_Ionization_Penalty_Charging>
0

> <r_epik_Ionization_Penalty_Neutral>
0.00556303

> <r_epik_State_Penalty>
0.00401767

> <r_epik_Charging_Adjusted_Penalty>
0.00401767

> <i_epik_Tot_Q>
0

> <i_epik_Tot_abs_Q>
0

> <r_epik_Metal_State_Penalty>
-0

> <b_epik_Metal_Only>
0

> <s_lp_Force_Field>
OPLS_2005

> <r_lp_Energy>
70.8238

> <b_lp_Chiralities_Consistent>
1

> <s_lp_Variant>
AV-unprocessed.smi:148-7

> <Gold.Version>
5.8.1

> <Gold.Id.Protein>
6NUR|6NUR_protein|mol2

> <Gold.PLP.Fitness>
53.5362

> <Gold.PLP.PLP>
-42.0242

> <Gold.PLP.part.hbond>
-5.0178

> <Gold.PLP.part.metal>
0.0000

> <Gold.PLP.part.buried>
-3.8181

> <Gold.PLP.part.nonpolar>
-33.4094

> <Gold.PLP.part.repulsive>
0.4055

> <Gold.PLP.ligand.clash>
0.0000

> <Gold.PLP.ligand.torsion>
1.3194

> <Gold.PLP.Chemscore.Hbond>
4.4824

> <Gold.PLP.Chemscore.CHOScore>
0.0000

> <Gold.PLP.Chemscore.Metal>
0.0000

> <Gold.Chemscore.Hbonds>
donor molecule, donor type, donor heavy atom, donor atom, acceptor molecule, acceptor atom, score
      L1  H     1    31       P1  7948  1.00
      L1  H    21    55       P1  7957  0.64
      P1  H  7989  7998       L1    22  0.87
      P1  H  8011  8017       L1    21  0.90
      P1  H 10752 10763       L1    24  1.00

> <Gold.PLP.Chemscore.Internal.Correction>
0.7037

> <Gold.Rescore>
     Score         DG    S(hbond)    S(metal)    S(lipo)     H(rot)  DE(clash)    DE(int)     intcor
     16.09     -17.91       2.80        0.00      99.01       3.32       0.51       1.31       ----

> <Gold.Chemscore.Fitness>
16.0920

> <Gold.Chemscore.DG>
-17.9135

> <Gold.Chemscore.ZeroCoef>
-5.4800

> <Gold.Chemscore.Hbond>
2.7993

> <Gold.Chemscore.Metal>
0.0000

> <Gold.Chemscore.Lipo>
99.0077

> <Gold.Chemscore.Internal_Hbond>
0.0000

> <Gold.Chemscore.DEClash>
0.5082

> <Gold.Chemscore.DEInternal>
1.3134

> <Gold.Chemscore.Rot>
3.3203

> <Gold.Chemscore.Internal.Correction>
   9.000000E+99

> <Gold.Chemscore.Hbonds>
donor molecule, donor type, donor heavy atom, donor atom, acceptor molecule, acceptor atom, score
      L1  H     1    31       P1  7948  0.99
      L1  H    21    55       P1  7957  0.61
      P1  H  7989  7998       L1    22  0.15
      P1  H  8011  8017       L1    21  0.18
      P1  H 10752 10763       L1    24  0.63

> <Gold.Chemscore.Hbond.Weighted>
-9.3496

> <Gold.Chemscore.Metal.Weighted>
-0.0000

> <Gold.Chemscore.Lipo.Weighted>
-11.5839

> <Gold.Chemscore.Internal_Hbond.Weighted>
0.0000

> <Gold.Chemscore.DEClash.Weighted>
0.5082

> <Gold.Chemscore.DEInternal.Weighted>
1.3134

> <Gold.Chemscore.Rot.Weighted>
8.5000

> <Gold.Chemscore.Internal.Correction.Weighted>
   9.000000E+99

> <Gold.Protein.RotatedTorsions>
[ 6907 6896 6895 6894 ] final   10.38 input  -60.11 | X-H torsion
[ 7974 7965 7964 7962 ] final   85.68 input  175.53 | X-H torsion
[ 8008 7997 7996 7995 ] final   -7.12 input   59.86 | X-H torsion
[ 10167 10162 10161 10158 ] final  -87.34 input  -65.29 | X-H torsion
[ 10718 10713 10712 10709 ] final  -42.54 input   66.30 | X-H torsion
[ 10763 10752 10751 10750 ] final   34.20 input  -60.55 | X-H torsion
[ 11005 11000 10999 10996 ] final    5.62 input  -57.11 | X-H torsion

> <Gold.Protein.ActiveResidues>
 VAL166  LYS551  ARG553  GLY616  TRP617  ASP618  TYR619  PRO620  LYS621  CYS622 
 ASP623  PHE694  ASN695  SER759  ASP760  ASP761  ALA762  ILE779  LEU786  VAL792 
 PHE793  MET794  SER795  GLU796  ALA797  LYS798  CYS799  TRP800  GLU811  SER814 

> <Gold.Protein.RotatedAtoms>
  151.7373  135.0862  160.0309 H   0  0  0  0  0  0  0  0  0  0  0  0  # atno 6907 bound_to 6896
  152.3502  133.6166  159.5948 H   0  0  0  0  0  0  0  0  0  0  0  0  # atno 6908 bound_to 6896
  150.7535  133.9502  159.3525 H   0  0  0  0  0  0  0  0  0  0  0  0  # atno 6909 bound_to 6896
  145.5824  139.2327  143.2345 H   0  0  0  0  0  0  0  0  0  0  0  0  # atno 7974 bound_to 7965
  154.5870  140.2415  155.7974 H   0  0  0  0  0  0  0  0  0  0  0  0  # atno 8008 bound_to 7997
  156.2220  140.2994  155.9931 H   0  0  0  0  0  0  0  0  0  0  0  0  # atno 8009 bound_to 7997
  155.2441  140.0408  157.2969 H   0  0  0  0  0  0  0  0  0  0  0  0  # atno 8010 bound_to 7997
  140.3853  143.2729  151.9332 H   0  0  0  0  0  0  0  0  0  0  0  0  # atno 10167 bound_to 10162
  156.2585  130.4194  149.8569 H   0  0  0  0  0  0  0  0  0  0  0  0  # atno 10718 bound_to 10713
  153.0175  135.6366  154.1632 H   0  0  0  0  0  0  0  0  0  0  0  0  # atno 10763 bound_to 10752
  154.1370  135.2837  155.3172 H   0  0  0  0  0  0  0  0  0  0  0  0  # atno 10764 bound_to 10752
  154.6153  135.5543  153.7578 H   0  0  0  0  0  0  0  0  0  0  0  0  # atno 10765 bound_to 10752
  140.5687  134.0123  155.8000 H   0  0  0  0  0  0  0  0  0  0  0  0  # atno 11005 bound_to 11000
  146.1707  140.6650  142.9234 LP  0  0  0  0  0  0  0  0  0  0  0  0  # atno 17320 bound_to 7965
  144.7388  140.4884  143.6884 LP  0  0  0  0  0  0  0  0  0  0  0  0  # atno 17321 bound_to 7965
  139.4792  144.5779  151.7981 LP  0  0  0  0  0  0  0  0  0  0  0  0  # atno 17342 bound_to 10162
  140.4895  144.1331  150.5947 LP  0  0  0  0  0  0  0  0  0  0  0  0  # atno 17343 bound_to 10162
  156.6093  130.8580  151.3450 LP  0  0  0  0  0  0  0  0  0  0  0  0  # atno 17370 bound_to 10713
  157.7241  130.9599  150.1562 LP  0  0  0  0  0  0  0  0  0  0  0  0  # atno 17371 bound_to 10713
  141.1069  133.9678  157.2980 LP  0  0  0  0  0  0  0  0  0  0  0  0  # atno 17394 bound_to 11000
  139.9372  135.0195  156.8594 LP  0  0  0  0  0  0  0  0  0  0  0  0  # atno 17395 bound_to 11000

$$$$
