AV-unprocessed.smi:2822|AV-procd|sdf|10862|dock2
  -GOLD-   2272015303D 1   1.00000     0.00000
 Structure written by MMmdl.
 41 43  0  0  0  0  0  0  0  0  3 V2000
  149.6094  136.2612  157.8378 Cl  0  0  0  0  0  0  0  0  0  0  0  0
  150.4899  137.0378  156.5684 C   0  0  0  0  0  0  0  0  0  0  0  0
  150.3415  136.5757  155.2443 C   0  0  0  0  0  0  0  0  0  0  0  0
  151.0223  137.1691  154.2411 N   0  3  0  0  0  0  0  0  0  0  0  0
  151.8585  138.2092  154.4434 C   0  0  0  0  0  0  0  0  0  0  0  0
  152.0483  138.7164  155.7450 C   0  0  0  0  0  0  0  0  0  0  0  0
  151.3575  138.1265  156.8333 C   0  0  0  0  0  0  0  0  0  0  0  0
  151.5024  138.5854  158.1521 N   0  0  0  0  0  0  0  0  0  0  0  0
  152.6469  139.3952  158.5421 C   0  0  0  0  0  0  0  0  0  0  0  0
  152.2255  140.8161  158.9438 C   0  0  2  0  0  0  0  0  0  0  0  0
  151.5500  141.5577  157.7684 C   0  0  0  0  0  0  0  0  0  0  0  0
  151.2526  142.9696  158.1119 N   0  3  1  0  0  0  0  0  0  0  0  0
  150.0547  143.1260  158.9814 C   0  0  0  0  0  0  0  0  0  0  0  0
  149.7507  144.6059  159.2552 C   0  0  0  0  0  0  0  0  0  0  0  0
  150.9643  145.3014  159.8811 C   0  0  0  0  0  0  0  0  0  0  0  0
  152.1876  145.1348  158.9695 C   0  0  0  0  0  0  0  0  0  0  0  0
  152.4704  143.6574  158.6232 C   0  0  1  0  0  0  0  0  0  0  0  0
  153.1060  142.8545  159.7777 C   0  0  0  0  0  0  0  0  0  0  0  0
  153.3941  141.5351  159.3280 O   0  0  0  0  0  0  0  0  0  0  0  0
  149.7016  135.7532  154.9595 H   0  0  0  0  0  0  0  0  0  0  0  0
  152.3469  138.6032  153.5640 H   0  0  0  0  0  0  0  0  0  0  0  0
  152.7184  139.5513  155.8853 H   0  0  0  0  0  0  0  0  0  0  0  0
  150.9520  138.1523  158.8809 H   0  0  0  0  0  0  0  0  0  0  0  0
  153.1792  138.9145  159.3639 H   0  0  0  0  0  0  0  0  0  0  0  0
  153.3339  139.4497  157.6969 H   0  0  0  0  0  0  0  0  0  0  0  0
  151.5389  140.7526  159.7895 H   0  0  0  0  0  0  0  0  0  0  0  0
  152.2145  141.5514  156.9033 H   0  0  0  0  0  0  0  0  0  0  0  0
  150.6371  141.0469  157.4592 H   0  0  0  0  0  0  0  0  0  0  0  0
  149.1948  142.6639  158.4950 H   0  0  0  0  0  0  0  0  0  0  0  0
  150.1955  142.6036  159.9276 H   0  0  0  0  0  0  0  0  0  0  0  0
  149.4777  145.1054  158.3247 H   0  0  0  0  0  0  0  0  0  0  0  0
  148.8890  144.6924  159.9179 H   0  0  0  0  0  0  0  0  0  0  0  0
  150.7525  146.3602  160.0331 H   0  0  0  0  0  0  0  0  0  0  0  0
  151.1683  144.8814  160.8665 H   0  0  0  0  0  0  0  0  0  0  0  0
  152.0132  145.6881  158.0455 H   0  0  0  0  0  0  0  0  0  0  0  0
  153.0647  145.5899  159.4308 H   0  0  0  0  0  0  0  0  0  0  0  0
  153.1950  143.6597  157.8073 H   0  0  0  0  0  0  0  0  0  0  0  0
  154.0391  143.3226  160.0917 H   0  0  0  0  0  0  0  0  0  0  0  0
  152.4607  142.8196  160.6561 H   0  0  0  0  0  0  0  0  0  0  0  0
  151.0128  143.4288  157.2447 H   0  0  0  0  0  0  0  0  0  0  0  0
  150.8990  136.8170  153.2912 H   0  0  0  0  0  0  0  0  0  0  0  0
  1  2  1  0  0  0  0
  2  7  1  0  0  0  0
  2  3  2  0  0  0  0
  3  4  1  0  0  0  0
  3 20  1  0  0  0  0
  4  5  2  0  0  0  0
  4 41  1  0  0  0  0
  5  6  1  0  0  0  0
  5 21  1  0  0  0  0
  6  7  2  0  0  0  0
  6 22  1  0  0  0  0
  7  8  1  0  0  0  0
  8  9  1  0  0  0  0
  8 23  1  0  0  0  0
  9 10  1  0  0  0  0
  9 24  1  0  0  0  0
  9 25  1  0  0  0  0
 10 19  1  0  0  0  0
 10 11  1  0  0  0  0
 10 26  1  0  0  0  0
 11 12  1  0  0  0  0
 11 27  1  0  0  0  0
 11 28  1  0  0  0  0
 12 17  1  0  0  0  0
 12 13  1  0  0  0  0
 12 40  1  0  0  0  0
 13 14  1  0  0  0  0
 13 29  1  0  0  0  0
 13 30  1  0  0  0  0
 14 15  1  0  0  0  0
 14 31  1  0  0  0  0
 14 32  1  0  0  0  0
 15 16  1  0  0  0  0
 15 33  1  0  0  0  0
 15 34  1  0  0  0  0
 16 17  1  0  0  0  0
 16 35  1  0  0  0  0
 16 36  1  0  0  0  0
 17 18  1  0  0  0  0
 17 37  1  0  0  0  0
 18 19  1  0  0  0  0
 18 38  1  0  0  0  0
 18 39  1  0  0  0  0
M  CHG  1   4   1
M  CHG  1  12   1
M  END
> <s_m_source_file>
AV-unprocessed.smi

> <i_m_source_file_index>
2822

> <i_lp_mmshare_version>
43012

> <i_f3d_flags>
0

> <s_epik_input>
Q2xjMVtjSF1uW2NIXVtjSF1jMVtOSF1bQ0gyXVtDQEhdKFtDSDJdMilPW0NIMl1bQ0BASF0oTjIzKVtDSDJdW0NIMl1bQ0gyXVtDSDJdMw==

> <s_epik_cmdline>
J2VwaWtfcHl0aG9uJywgJy1waCcsICc3LjAnLCAnLXRuJywgJzgnLCAnLW1hJywgJzIwMCcsICctbWV0YWxfYmluZGluZycsICctaW1hZScsICc8aW5maWxlLm1hZT4nLCAnLW9tYWUnLCAnPG91dGZpbGUubWFlPic=

> <r_lp_tautomer_probability>
1

> <r_epik_Ionization_Penalty>
0.254999

> <r_epik_Ionization_Penalty_Charging>
0.254956

> <r_epik_Ionization_Penalty_Neutral>
4.33524e-05

> <r_epik_State_Penalty>
0.230978

> <r_epik_Charging_Adjusted_Penalty>
0.485934

> <i_epik_Tot_Q>
2

> <i_epik_Tot_abs_Q>
2

> <r_epik_Metal_State_Penalty>
3.47007

> <b_epik_Metal_Only>
0

> <s_lp_Force_Field>
OPLS_2005

> <r_lp_Energy>
40.6949

> <b_lp_Chiralities_Consistent>
1

> <s_lp_Variant>
AV-unprocessed.smi:2822-3

> <Gold.Version>
5.8.1

> <Gold.Id.Protein>
6NUR|6NUR_protein|mol2

> <Gold.PLP.Fitness>
41.0572

> <Gold.PLP.PLP>
-35.2463

> <Gold.PLP.part.hbond>
-1.2488

> <Gold.PLP.part.metal>
0.0000

> <Gold.PLP.part.buried>
-5.3517

> <Gold.PLP.part.nonpolar>
-29.1844

> <Gold.PLP.part.repulsive>
0.1916

> <Gold.PLP.ligand.clash>
0.0000

> <Gold.PLP.ligand.torsion>
0.0948

> <Gold.PLP.Chemscore.Hbond>
2.0000

> <Gold.PLP.Chemscore.CHOScore>
0.0000

> <Gold.PLP.Chemscore.Metal>
0.0000

> <Gold.Chemscore.Hbonds>
donor molecule, donor type, donor heavy atom, donor atom, acceptor molecule, acceptor atom, score
      L1  H     4    41       P1  7949  1.80

> <Gold.PLP.Chemscore.Internal.Correction>
0.0004

> <Gold.Rescore>
     Score         DG    S(hbond)    S(metal)    S(lipo)     H(rot)  DE(clash)    DE(int)     intcor
     19.30     -19.34       0.96        0.00     117.10       1.20       0.02       0.02       ----

> <Gold.Chemscore.Fitness>
19.2963

> <Gold.Chemscore.DG>
-19.3401

> <Gold.Chemscore.ZeroCoef>
-5.4800

> <Gold.Chemscore.Hbond>
0.9646

> <Gold.Chemscore.Metal>
0.0000

> <Gold.Chemscore.Lipo>
117.0988

> <Gold.Chemscore.Internal_Hbond>
0.0000

> <Gold.Chemscore.DEClash>
0.0243

> <Gold.Chemscore.DEInternal>
0.0195

> <Gold.Chemscore.Rot>
1.1962

> <Gold.Chemscore.Internal.Correction>
   9.000000E+99

> <Gold.Chemscore.Hbonds>
donor molecule, donor type, donor heavy atom, donor atom, acceptor molecule, acceptor atom, score
      L1  H     4    41       P1  7949  0.17

> <Gold.Chemscore.Hbond.Weighted>
-3.2219

> <Gold.Chemscore.Metal.Weighted>
-0.0000

> <Gold.Chemscore.Lipo.Weighted>
-13.7006

> <Gold.Chemscore.Internal_Hbond.Weighted>
0.0000

> <Gold.Chemscore.DEClash.Weighted>
0.0243

> <Gold.Chemscore.DEInternal.Weighted>
0.0195

> <Gold.Chemscore.Rot.Weighted>
3.0623

> <Gold.Chemscore.Internal.Correction.Weighted>
   9.000000E+99

> <Gold.Protein.RotatedTorsions>
[ 6907 6896 6895 6894 ] final -116.44 input  -60.11 | X-H torsion
[ 7974 7965 7964 7962 ] final   20.46 input  175.53 | X-H torsion
[ 8008 7997 7996 7995 ] final  -40.24 input   59.86 | X-H torsion
[ 10167 10162 10161 10158 ] final -164.06 input  -65.29 | X-H torsion
[ 10718 10713 10712 10709 ] final  -87.98 input   66.30 | X-H torsion
[ 10763 10752 10751 10750 ] final -165.28 input  -60.55 | X-H torsion
[ 11005 11000 10999 10996 ] final  151.78 input  -57.11 | X-H torsion

> <Gold.Protein.ActiveResidues>
 VAL166  LYS551  ARG553  GLY616  TRP617  ASP618  TYR619  PRO620  LYS621  CYS622 
 ASP623  PHE694  ASN695  SER759  ASP760  ASP761  ALA762  ILE779  LEU786  VAL792 
 PHE793  MET794  SER795  GLU796  ALA797  LYS798  CYS799  TRP800  GLU811  SER814 

> <Gold.Protein.RotatedAtoms>
  150.8056  133.8516  159.3206 H   0  0  0  0  0  0  0  0  0  0  0  0  # atno 6907 bound_to 6896
  151.6316  135.1020  160.0132 H   0  0  0  0  0  0  0  0  0  0  0  0  # atno 6908 bound_to 6896
  152.4147  133.6979  159.6463 H   0  0  0  0  0  0  0  0  0  0  0  0  # atno 6909 bound_to 6896
  146.2110  139.8167  142.8688 H   0  0  0  0  0  0  0  0  0  0  0  0  # atno 7974 bound_to 7965
  154.4014  140.1530  156.2995 H   0  0  0  0  0  0  0  0  0  0  0  0  # atno 8008 bound_to 7997
  155.8713  140.3448  155.5802 H   0  0  0  0  0  0  0  0  0  0  0  0  # atno 8009 bound_to 7997
  155.7771  140.0838  157.2069 H   0  0  0  0  0  0  0  0  0  0  0  0  # atno 8010 bound_to 7997
  139.6277  144.0501  152.1989 H   0  0  0  0  0  0  0  0  0  0  0  0  # atno 10167 bound_to 10162
  155.9984  130.4819  150.4949 H   0  0  0  0  0  0  0  0  0  0  0  0  # atno 10718 bound_to 10713
  154.6947  135.2977  154.9429 H   0  0  0  0  0  0  0  0  0  0  0  0  # atno 10763 bound_to 10752
  154.0381  135.6661  153.4791 H   0  0  0  0  0  0  0  0  0  0  0  0  # atno 10764 bound_to 10752
  153.0637  135.5100  154.8058 H   0  0  0  0  0  0  0  0  0  0  0  0  # atno 10765 bound_to 10752
  140.1249  134.8840  157.2124 H   0  0  0  0  0  0  0  0  0  0  0  0  # atno 11005 bound_to 11000
  145.3139  141.0227  143.3538 LP  0  0  0  0  0  0  0  0  0  0  0  0  # atno 17320 bound_to 7965
  144.8915  139.4768  143.6675 LP  0  0  0  0  0  0  0  0  0  0  0  0  # atno 17321 bound_to 7965
  140.0158  144.6190  150.7608 LP  0  0  0  0  0  0  0  0  0  0  0  0  # atno 17342 bound_to 10162
  140.7420  143.2826  151.3553 LP  0  0  0  0  0  0  0  0  0  0  0  0  # atno 17343 bound_to 10162
  157.2940  131.0632  151.2114 LP  0  0  0  0  0  0  0  0  0  0  0  0  # atno 17370 bound_to 10713
  157.3116  130.6893  149.6219 LP  0  0  0  0  0  0  0  0  0  0  0  0  # atno 17371 bound_to 10713
  140.2917  134.3233  155.7313 LP  0  0  0  0  0  0  0  0  0  0  0  0  # atno 17394 bound_to 11000
  141.2159  133.7538  156.9512 LP  0  0  0  0  0  0  0  0  0  0  0  0  # atno 17395 bound_to 11000

$$$$
