AV-unprocessed.smi:2202|AV-procd|sdf|8929|dock1
  -GOLD-   2272012143D 1   1.00000     0.00000
 Structure written by MMmdl.
 42 44  0  0  0  0  0  0  0  0  1 V2000
  146.9489  141.7183  160.3979 O   0  0  0  0  0  0  0  0  0  0  0  0
  147.7584  142.0092  159.5159 C   0  0  0  0  0  0  0  0  0  0  0  0
  148.1382  140.9981  158.4239 C   0  0  0  0  0  0  0  0  0  0  0  0
  149.1873  140.0560  158.8402 N   0  0  0  0  0  0  0  0  0  0  0  0
  150.4880  140.3663  158.9146 C   0  0  0  0  0  0  0  0  0  0  0  0
  150.9860  141.4569  158.6328 O   0  0  0  0  0  0  0  0  0  0  0  0
  151.3182  139.1844  159.4207 C   0  0  2  0  0  0  0  0  0  0  0  0
  152.4623  138.8260  158.4361 C   0  0  0  0  0  0  0  0  0  0  0  0
  151.9961  137.9503  157.2915 C   0  0  0  0  0  0  0  0  0  0  0  0
  151.0682  137.0024  157.4778 C   0  0  0  0  0  0  0  0  0  0  0  0
  150.4486  136.7690  158.8401 C   0  0  0  0  0  0  0  0  0  0  0  0
  150.2417  138.0837  159.6378 C   0  0  2  0  0  0  0  0  0  0  0  0
  148.9511  138.7955  159.2260 C   0  0  0  0  0  0  0  0  0  0  0  0
  147.8479  138.2499  159.2688 O   0  0  0  0  0  0  0  0  0  0  0  0
  148.3648  143.2037  159.4447 N   0  0  0  0  0  0  0  0  0  0  0  0
  148.1553  144.3006  160.3827 C   0  0  0  0  0  0  0  0  0  0  0  0
  149.2786  145.3470  160.2885 C   0  0  0  0  0  0  0  0  0  0  0  0
  150.6346  144.7128  160.0456 C   0  0  0  0  0  0  0  0  0  0  0  0
  151.3432  144.9586  158.8500 C   0  0  0  0  0  0  0  0  0  0  0  0
  152.6017  144.3494  158.6792 C   0  0  0  0  0  0  0  0  0  0  0  0
  153.1007  143.5239  159.7053 C   0  0  0  0  0  0  0  0  0  0  0  0
  152.3158  143.3436  160.8618 C   0  0  0  0  0  0  0  0  0  0  0  0
  151.1088  143.9234  161.0358 N   0  0  0  0  0  0  0  0  0  0  0  0
  147.2429  140.4505  158.1238 H   0  0  0  0  0  0  0  0  0  0  0  0
  148.4575  141.5477  157.5368 H   0  0  0  0  0  0  0  0  0  0  0  0
  151.7499  139.4777  160.3787 H   0  0  0  0  0  0  0  0  0  0  0  0
  152.9227  139.7261  158.0265 H   0  0  0  0  0  0  0  0  0  0  0  0
  153.2556  138.2955  158.9637 H   0  0  0  0  0  0  0  0  0  0  0  0
  152.4730  138.0766  156.3305 H   0  0  0  0  0  0  0  0  0  0  0  0
  150.7787  136.3454  156.6707 H   0  0  0  0  0  0  0  0  0  0  0  0
  149.5054  136.2365  158.7113 H   0  0  0  0  0  0  0  0  0  0  0  0
  151.1016  136.0948  159.3953 H   0  0  0  0  0  0  0  0  0  0  0  0
  150.1572  137.8481  160.6995 H   0  0  0  0  0  0  0  0  0  0  0  0
  149.0160  143.3640  158.6896 H   0  0  0  0  0  0  0  0  0  0  0  0
  147.1954  144.7654  160.1558 H   0  0  0  0  0  0  0  0  0  0  0  0
  148.0784  143.9105  161.3993 H   0  0  0  0  0  0  0  0  0  0  0  0
  149.0741  146.0509  159.4803 H   0  0  0  0  0  0  0  0  0  0  0  0
  149.3162  145.9372  161.2051 H   0  0  0  0  0  0  0  0  0  0  0  0
  150.9345  145.5985  158.0817 H   0  0  0  0  0  0  0  0  0  0  0  0
  153.1740  144.5125  157.7779 H   0  0  0  0  0  0  0  0  0  0  0  0
  154.0615  143.0403  159.6089 H   0  0  0  0  0  0  0  0  0  0  0  0
  152.6666  142.7176  161.6688 H   0  0  0  0  0  0  0  0  0  0  0  0
  1  2  2  0  0  0  0
  2  3  1  0  0  0  0
  2 15  1  0  0  0  0
  3  4  1  0  0  0  0
  3 24  1  0  0  0  0
  3 25  1  0  0  0  0
  4 13  1  0  0  0  0
  4  5  1  0  0  0  0
  5  6  2  0  0  0  0
  5  7  1  0  0  0  0
  7 12  1  0  0  0  0
  7  8  1  0  0  0  0
  7 26  1  0  0  0  0
  8  9  1  0  0  0  0
  8 27  1  0  0  0  0
  8 28  1  0  0  0  0
  9 10  2  0  0  0  0
  9 29  1  0  0  0  0
 10 11  1  0  0  0  0
 10 30  1  0  0  0  0
 11 12  1  0  0  0  0
 11 31  1  0  0  0  0
 11 32  1  0  0  0  0
 12 13  1  0  0  0  0
 12 33  1  0  0  0  0
 13 14  2  0  0  0  0
 15 16  1  0  0  0  0
 15 34  1  0  0  0  0
 16 17  1  0  0  0  0
 16 35  1  0  0  0  0
 16 36  1  0  0  0  0
 17 18  1  0  0  0  0
 17 37  1  0  0  0  0
 17 38  1  0  0  0  0
 18 23  1  0  0  0  0
 18 19  2  0  0  0  0
 19 20  1  0  0  0  0
 19 39  1  0  0  0  0
 20 21  2  0  0  0  0
 20 40  1  0  0  0  0
 21 22  1  0  0  0  0
 21 41  1  0  0  0  0
 22 23  2  0  0  0  0
 22 42  1  0  0  0  0
M  END
> <s_m_source_file>
AV-unprocessed.smi

> <i_m_source_file_index>
2202

> <i_lp_mmshare_version>
43012

> <i_f3d_flags>
0

> <s_epik_input>
W0NIMl0xW0NIXT1bQ0hdW0NIMl1bQ0BIXShbQ0BIXTEyKUMoPU8pTihDMj1PKVtDSDJdQyg9TylbTkhdW0NIMl1bQ0gyXWMzW2NIXVtjSF1bY0hdW2NIXW4z

> <s_epik_cmdline>
J2VwaWtfcHl0aG9uJywgJy1waCcsICc3LjAnLCAnLXRuJywgJzgnLCAnLW1hJywgJzIwMCcsICctbWV0YWxfYmluZGluZycsICctaW1hZScsICc8aW5maWxlLm1hZT4nLCAnLW9tYWUnLCAnPG91dGZpbGUubWFlPic=

> <r_lp_tautomer_probability>
1

> <r_epik_Ionization_Penalty>
0.0244696

> <r_epik_Ionization_Penalty_Charging>
0

> <r_epik_Ionization_Penalty_Neutral>
0.0244696

> <r_epik_State_Penalty>
0.0198648

> <r_epik_Charging_Adjusted_Penalty>
0.0198648

> <i_epik_Tot_Q>
0

> <i_epik_Tot_abs_Q>
0

> <r_epik_Metal_State_Penalty>
0.0190699

> <b_epik_Metal_Only>
0

> <s_lp_Force_Field>
OPLS_2005

> <r_lp_Energy>
13.8656

> <b_lp_Chiralities_Consistent>
1

> <s_lp_Variant>
AV-unprocessed.smi:2202-1

> <Gold.Version>
5.8.1

> <Gold.Id.Protein>
6NUR|6NUR_protein|mol2

> <Gold.PLP.Fitness>
42.6159

> <Gold.PLP.PLP>
-41.3843

> <Gold.PLP.part.hbond>
-3.0000

> <Gold.PLP.part.metal>
0.0000

> <Gold.PLP.part.buried>
-3.5956

> <Gold.PLP.part.nonpolar>
-34.1791

> <Gold.PLP.part.repulsive>
0.3218

> <Gold.PLP.ligand.clash>
0.0000

> <Gold.PLP.ligand.torsion>
0.8294

> <Gold.PLP.Chemscore.Hbond>
0.9446

> <Gold.PLP.Chemscore.CHOScore>
0.0000

> <Gold.PLP.Chemscore.Metal>
0.0000

> <Gold.Chemscore.Hbonds>
donor molecule, donor type, donor heavy atom, donor atom, acceptor molecule, acceptor atom, score
      P1  H  6934  6947       L1    14  0.24

> <Gold.PLP.Chemscore.Internal.Correction>
0.0565

> <Gold.Rescore>
     Score         DG    S(hbond)    S(metal)    S(lipo)     H(rot)  DE(clash)    DE(int)     intcor
     15.43     -16.33       0.92        0.00     107.12       1.85       0.37       0.52       ----

> <Gold.Chemscore.Fitness>
15.4344

> <Gold.Chemscore.DG>
-16.3335

> <Gold.Chemscore.ZeroCoef>
-5.4800

> <Gold.Chemscore.Hbond>
0.9183

> <Gold.Chemscore.Metal>
0.0000

> <Gold.Chemscore.Lipo>
107.1170

> <Gold.Chemscore.Internal_Hbond>
0.0000

> <Gold.Chemscore.DEClash>
0.3747

> <Gold.Chemscore.DEInternal>
0.5244

> <Gold.Chemscore.Rot>
1.8540

> <Gold.Chemscore.Internal.Correction>
   9.000000E+99

> <Gold.Chemscore.Hbonds>
donor molecule, donor type, donor heavy atom, donor atom, acceptor molecule, acceptor atom, score
      P1  H  6934  6947       L1    14  0.05

> <Gold.Chemscore.Hbond.Weighted>
-3.0671

> <Gold.Chemscore.Metal.Weighted>
-0.0000

> <Gold.Chemscore.Lipo.Weighted>
-12.5327

> <Gold.Chemscore.Internal_Hbond.Weighted>
0.0000

> <Gold.Chemscore.DEClash.Weighted>
0.3747

> <Gold.Chemscore.DEInternal.Weighted>
0.5244

> <Gold.Chemscore.Rot.Weighted>
4.7462

> <Gold.Chemscore.Internal.Correction.Weighted>
   9.000000E+99

> <Gold.Protein.RotatedTorsions>
[ 6907 6896 6895 6894 ] final   20.88 input  -60.11 | X-H torsion
[ 7974 7965 7964 7962 ] final   25.92 input  175.53 | X-H torsion
[ 8008 7997 7996 7995 ] final  164.10 input   59.86 | X-H torsion
[ 10167 10162 10161 10158 ] final   63.49 input  -65.29 | X-H torsion
[ 10718 10713 10712 10709 ] final   83.24 input   66.30 | X-H torsion
[ 10763 10752 10751 10750 ] final -168.31 input  -60.55 | X-H torsion
[ 11005 11000 10999 10996 ] final -119.81 input  -57.11 | X-H torsion

> <Gold.Protein.ActiveResidues>
 VAL166  LYS551  ARG553  GLY616  TRP617  ASP618  TYR619  PRO620  LYS621  CYS622 
 ASP623  PHE694  ASN695  SER759  ASP760  ASP761  ALA762  ILE779  LEU786  VAL792 
 PHE793  MET794  SER795  GLU796  ALA797  LYS798  CYS799  TRP800  GLU811  SER814 

> <Gold.Protein.RotatedAtoms>
  151.9031  135.0370  160.0507 H   0  0  0  0  0  0  0  0  0  0  0  0  # atno 6907 bound_to 6896
  152.2341  133.5078  159.5241 H   0  0  0  0  0  0  0  0  0  0  0  0  # atno 6908 bound_to 6896
  150.7034  134.1093  159.4037 H   0  0  0  0  0  0  0  0  0  0  0  0  # atno 6909 bound_to 6896
  146.1864  139.7400  142.8863 H   0  0  0  0  0  0  0  0  0  0  0  0  # atno 7974 bound_to 7965
  156.1906  140.1706  156.8099 H   0  0  0  0  0  0  0  0  0  0  0  0  # atno 8008 bound_to 7997
  154.5467  140.0726  156.8632 H   0  0  0  0  0  0  0  0  0  0  0  0  # atno 8009 bound_to 7997
  155.3108  140.3367  155.4246 H   0  0  0  0  0  0  0  0  0  0  0  0  # atno 8010 bound_to 7997
  140.1325  144.4630  150.6857 H   0  0  0  0  0  0  0  0  0  0  0  0  # atno 10167 bound_to 10162
  157.6875  131.0082  150.2494 H   0  0  0  0  0  0  0  0  0  0  0  0  # atno 10718 bound_to 10713
  154.6642  135.2929  154.9827 H   0  0  0  0  0  0  0  0  0  0  0  0  # atno 10763 bound_to 10752
  154.0877  135.6595  153.4851 H   0  0  0  0  0  0  0  0  0  0  0  0  # atno 10764 bound_to 10752
  153.0447  135.5212  154.7607 H   0  0  0  0  0  0  0  0  0  0  0  0  # atno 10765 bound_to 10752
  141.0189  134.0154  157.3311 H   0  0  0  0  0  0  0  0  0  0  0  0  # atno 11005 bound_to 11000
  145.3925  141.0374  143.3116 LP  0  0  0  0  0  0  0  0  0  0  0  0  # atno 17320 bound_to 7965
  144.8405  139.5479  143.6902 LP  0  0  0  0  0  0  0  0  0  0  0  0  # atno 17321 bound_to 7965
  140.6808  143.2326  151.5388 LP  0  0  0  0  0  0  0  0  0  0  0  0  # atno 17342 bound_to 10162
  139.5512  144.2390  152.1534 LP  0  0  0  0  0  0  0  0  0  0  0  0  # atno 17343 bound_to 10162
  156.3093  130.3769  149.7676 LP  0  0  0  0  0  0  0  0  0  0  0  0  # atno 17370 bound_to 10713
  156.5282  130.8245  151.3227 LP  0  0  0  0  0  0  0  0  0  0  0  0  # atno 17371 bound_to 10713
  139.9134  135.0193  156.7783 LP  0  0  0  0  0  0  0  0  0  0  0  0  # atno 17394 bound_to 11000
  140.6607  133.9648  155.7803 LP  0  0  0  0  0  0  0  0  0  0  0  0  # atno 17395 bound_to 11000

$$$$
