AV-unprocessed.smi:2439|AV-procd|sdf|9609|dock8
  -GOLD-   2272013243D 1   1.00000     0.00000
 Structure written by MMmdl.
 41 43  0  0  0  0  0  0  0  0  2 V2000
  153.3042  139.0008  154.8201 N   0  0  0  0  0  0  0  0  0  0  0  0
  152.4303  139.5916  155.2952 C   0  0  0  0  0  0  0  0  0  0  0  0
  151.3304  140.3377  155.8942 C   0  0  0  0  0  0  0  0  0  0  0  0
  151.5299  140.9678  157.1406 C   0  0  0  0  0  0  0  0  0  0  0  0
  150.4697  141.6857  157.7233 C   0  0  0  0  0  0  0  0  0  0  0  0
  149.2461  141.7461  157.0321 C   0  0  0  0  0  0  0  0  0  0  0  0
  149.0414  141.1483  155.8396 N   0  0  0  0  0  0  0  0  0  0  0  0
  150.0581  140.4536  155.2723 C   0  0  0  0  0  0  0  0  0  0  0  0
  149.8125  139.8408  154.0307 N   0  0  0  0  0  0  0  0  0  0  0  0
  149.1005  138.5738  153.9448 C   0  0  0  0  0  0  0  0  0  0  0  0
  147.6080  138.7380  154.2928 C   0  0  2  0  0  0  0  0  0  0  0  0
  146.8675  137.3930  154.4162 C   0  0  0  0  0  0  0  0  0  0  0  0
  146.6871  136.7531  153.0917 N   0  3  1  0  0  0  0  0  0  0  0  0
  146.0116  135.4344  153.1943 C   0  0  0  0  0  0  0  0  0  0  0  0
  145.9139  134.7513  151.8213 C   0  0  0  0  0  0  0  0  0  0  0  0
  145.1971  135.6573  150.8127 C   0  0  0  0  0  0  0  0  0  0  0  0
  145.8990  137.0196  150.7418 C   0  0  0  0  0  0  0  0  0  0  0  0
  146.0089  137.6702  152.1359 C   0  0  2  0  0  0  0  0  0  0  0  0
  146.7659  139.0100  152.0617 C   0  0  0  0  0  0  0  0  0  0  0  0
  146.9166  139.5710  153.3616 O   0  0  0  0  0  0  0  0  0  0  0  0
  152.4814  140.9039  157.6491 H   0  0  0  0  0  0  0  0  0  0  0  0
  150.5919  142.1778  158.6769 H   0  0  0  0  0  0  0  0  0  0  0  0
  148.4090  142.2873  157.4474 H   0  0  0  0  0  0  0  0  0  0  0  0
  150.2387  140.2173  153.1955 H   0  0  0  0  0  0  0  0  0  0  0  0
  149.2258  138.1417  152.9522 H   0  0  0  0  0  0  0  0  0  0  0  0
  149.5605  137.8769  154.6465 H   0  0  0  0  0  0  0  0  0  0  0  0
  147.5498  139.2361  155.2615 H   0  0  0  0  0  0  0  0  0  0  0  0
  147.4142  136.7237  155.0816 H   0  0  0  0  0  0  0  0  0  0  0  0
  145.8882  137.5567  154.8689 H   0  0  0  0  0  0  0  0  0  0  0  0
  146.5652  134.7933  153.8814 H   0  0  0  0  0  0  0  0  0  0  0  0
  145.0144  135.5662  153.6174 H   0  0  0  0  0  0  0  0  0  0  0  0
  146.9139  134.5128  151.4566 H   0  0  0  0  0  0  0  0  0  0  0  0
  145.3830  133.8032  151.9132 H   0  0  0  0  0  0  0  0  0  0  0  0
  145.1829  135.1885  149.8283 H   0  0  0  0  0  0  0  0  0  0  0  0
  144.1565  135.7923  151.1108 H   0  0  0  0  0  0  0  0  0  0  0  0
  146.8946  136.8906  150.3140 H   0  0  0  0  0  0  0  0  0  0  0  0
  145.3552  137.6778  150.0631 H   0  0  0  0  0  0  0  0  0  0  0  0
  145.0025  137.8643  152.5115 H   0  0  0  0  0  0  0  0  0  0  0  0
  147.7372  138.8899  151.5813 H   0  0  0  0  0  0  0  0  0  0  0  0
  146.2085  139.7179  151.4479 H   0  0  0  0  0  0  0  0  0  0  0  0
  147.6112  136.5791  152.7227 H   0  0  0  0  0  0  0  0  0  0  0  0
  1  2  3  0  0  0  0
  2  3  1  0  0  0  0
  3  8  1  0  0  0  0
  3  4  2  0  0  0  0
  4  5  1  0  0  0  0
  4 21  1  0  0  0  0
  5  6  2  0  0  0  0
  5 22  1  0  0  0  0
  6  7  1  0  0  0  0
  6 23  1  0  0  0  0
  7  8  2  0  0  0  0
  8  9  1  0  0  0  0
  9 10  1  0  0  0  0
  9 24  1  0  0  0  0
 10 11  1  0  0  0  0
 10 25  1  0  0  0  0
 10 26  1  0  0  0  0
 11 20  1  0  0  0  0
 11 12  1  0  0  0  0
 11 27  1  0  0  0  0
 12 13  1  0  0  0  0
 12 28  1  0  0  0  0
 12 29  1  0  0  0  0
 13 18  1  0  0  0  0
 13 14  1  0  0  0  0
 13 41  1  0  0  0  0
 14 15  1  0  0  0  0
 14 30  1  0  0  0  0
 14 31  1  0  0  0  0
 15 16  1  0  0  0  0
 15 32  1  0  0  0  0
 15 33  1  0  0  0  0
 16 17  1  0  0  0  0
 16 34  1  0  0  0  0
 16 35  1  0  0  0  0
 17 18  1  0  0  0  0
 17 36  1  0  0  0  0
 17 37  1  0  0  0  0
 18 19  1  0  0  0  0
 18 38  1  0  0  0  0
 19 20  1  0  0  0  0
 19 39  1  0  0  0  0
 19 40  1  0  0  0  0
M  CHG  1  13   1
M  END
> <s_m_source_file>
AV-unprocessed.smi

> <i_m_source_file_index>
2439

> <i_lp_mmshare_version>
43012

> <i_f3d_flags>
0

> <s_epik_input>
TiNDYzFbY0hdW2NIXVtjSF1uYzFbTkhdW0NIMl1bQ0BIXShbQ0gyXTIpT1tDSDJdW0NAQEhdKE4yMylbQ0gyXVtDSDJdW0NIMl1bQ0gyXTM=

> <s_epik_cmdline>
J2VwaWtfcHl0aG9uJywgJy1waCcsICc3LjAnLCAnLXRuJywgJzgnLCAnLW1hJywgJzIwMCcsICctbWV0YWxfYmluZGluZycsICctaW1hZScsICc8aW5maWxlLm1hZT4nLCAnLW9tYWUnLCAnPG91dGZpbGUubWFlPic=

> <r_epik_Ionization_Penalty>
0.0803594

> <r_epik_Ionization_Penalty_Charging>
0.0803403

> <r_epik_Ionization_Penalty_Neutral>
1.90988e-05

> <r_epik_State_Penalty>
0.0711481

> <r_epik_Charging_Adjusted_Penalty>
0.151488

> <i_epik_Tot_Q>
1

> <i_epik_Tot_abs_Q>
1

> <r_epik_Metal_State_Penalty>
0.0711482

> <b_epik_Metal_Only>
0

> <s_lp_Force_Field>
OPLS_2005

> <r_lp_Energy>
31.556

> <b_lp_Chiralities_Consistent>
1

> <s_lp_Variant>
AV-unprocessed.smi:2439-7

> <Gold.Version>
5.8.1

> <Gold.Id.Protein>
6NUR|6NUR_protein|mol2

> <Gold.PLP.Fitness>
39.8830

> <Gold.PLP.PLP>
-31.7500

> <Gold.PLP.part.hbond>
-3.0000

> <Gold.PLP.part.metal>
0.0000

> <Gold.PLP.part.buried>
3.4033

> <Gold.PLP.part.nonpolar>
-32.6281

> <Gold.PLP.part.repulsive>
1.0725

> <Gold.PLP.ligand.clash>
0.0000

> <Gold.PLP.ligand.torsion>
0.8008

> <Gold.PLP.Chemscore.Hbond>
3.2422

> <Gold.PLP.Chemscore.CHOScore>
0.0000

> <Gold.PLP.Chemscore.Metal>
0.0000

> <Gold.Chemscore.Hbonds>
donor molecule, donor type, donor heavy atom, donor atom, acceptor molecule, acceptor atom, score
      L1  H     9    24       P1  7957  0.44
      L1  H    13    41       P1  7948  2.00
      P1  H  7997  8008       L1     1  0.62

> <Gold.PLP.Chemscore.Internal.Correction>
0.0078

> <Gold.Rescore>
     Score         DG    S(hbond)    S(metal)    S(lipo)     H(rot)  DE(clash)    DE(int)     intcor
     16.64     -17.96       2.36        0.00      67.08       1.27       0.51       0.81       ----

> <Gold.Chemscore.Fitness>
16.6393

> <Gold.Chemscore.DG>
-17.9563

> <Gold.Chemscore.ZeroCoef>
-5.4800

> <Gold.Chemscore.Hbond>
2.3559

> <Gold.Chemscore.Metal>
0.0000

> <Gold.Chemscore.Lipo>
67.0795

> <Gold.Chemscore.Internal_Hbond>
0.0000

> <Gold.Chemscore.DEClash>
0.5086

> <Gold.Chemscore.DEInternal>
0.8083

> <Gold.Chemscore.Rot>
1.2659

> <Gold.Chemscore.Internal.Correction>
   9.000000E+99

> <Gold.Chemscore.Hbonds>
donor molecule, donor type, donor heavy atom, donor atom, acceptor molecule, acceptor atom, score
      L1  H     9    24       P1  7957  0.45
      L1  H    13    41       P1  7948  0.99
      P1  H  7997  8008       L1     1  0.05

> <Gold.Chemscore.Hbond.Weighted>
-7.8687

> <Gold.Chemscore.Metal.Weighted>
-0.0000

> <Gold.Chemscore.Lipo.Weighted>
-7.8483

> <Gold.Chemscore.Internal_Hbond.Weighted>
0.0000

> <Gold.Chemscore.DEClash.Weighted>
0.5086

> <Gold.Chemscore.DEInternal.Weighted>
0.8083

> <Gold.Chemscore.Rot.Weighted>
3.2408

> <Gold.Chemscore.Internal.Correction.Weighted>
   9.000000E+99

> <Gold.Protein.RotatedTorsions>
[ 6907 6896 6895 6894 ] final   46.34 input  -60.11 | X-H torsion
[ 7974 7965 7964 7962 ] final  133.87 input  175.53 | X-H torsion
[ 8008 7997 7996 7995 ] final    7.61 input   59.86 | X-H torsion
[ 10167 10162 10161 10158 ] final  -59.00 input  -65.29 | X-H torsion
[ 10718 10713 10712 10709 ] final  -77.83 input   66.30 | X-H torsion
[ 10763 10752 10751 10750 ] final -138.84 input  -60.55 | X-H torsion
[ 11005 11000 10999 10996 ] final  -21.54 input  -57.11 | X-H torsion

> <Gold.Protein.ActiveResidues>
 VAL166  LYS551  ARG553  GLY616  TRP617  ASP618  TYR619  PRO620  LYS621  CYS622 
 ASP623  PHE694  ASN695  SER759  ASP760  ASP761  ALA762  ILE779  LEU786  VAL792 
 PHE793  MET794  SER795  GLU796  ALA797  LYS798  CYS799  TRP800  GLU811  SER814 

> <Gold.Protein.RotatedAtoms>
  152.2552  134.8091  160.0439 H   0  0  0  0  0  0  0  0  0  0  0  0  # atno 6907 bound_to 6896
  151.8757  133.3479  159.3758 H   0  0  0  0  0  0  0  0  0  0  0  0  # atno 6908 bound_to 6896
  150.7097  134.4995  159.5598 H   0  0  0  0  0  0  0  0  0  0  0  0  # atno 6909 bound_to 6896
  144.9821  139.4493  143.5381 H   0  0  0  0  0  0  0  0  0  0  0  0  # atno 7974 bound_to 7965
  154.7561  140.2776  155.6252 H   0  0  0  0  0  0  0  0  0  0  0  0  # atno 8008 bound_to 7997
  156.2906  140.2669  156.2254 H   0  0  0  0  0  0  0  0  0  0  0  0  # atno 8009 bound_to 7997
  155.0075  140.0372  157.2375 H   0  0  0  0  0  0  0  0  0  0  0  0  # atno 8010 bound_to 7997
  140.6162  143.2403  151.5590 H   0  0  0  0  0  0  0  0  0  0  0  0  # atno 10167 bound_to 10162
  156.0134  130.4502  150.3405 H   0  0  0  0  0  0  0  0  0  0  0  0  # atno 10718 bound_to 10713
  154.8626  135.3600  154.5449 H   0  0  0  0  0  0  0  0  0  0  0  0  # atno 10763 bound_to 10752
  153.6069  135.7011  153.5367 H   0  0  0  0  0  0  0  0  0  0  0  0  # atno 10764 bound_to 10752
  153.3242  135.4142  155.1403 H   0  0  0  0  0  0  0  0  0  0  0  0  # atno 10765 bound_to 10752
  140.8571  133.7815  156.0032 H   0  0  0  0  0  0  0  0  0  0  0  0  # atno 11005 bound_to 11000
  146.3411  139.9101  142.8781 LP  0  0  0  0  0  0  0  0  0  0  0  0  # atno 17320 bound_to 7965
  145.2406  141.0007  143.3938 LP  0  0  0  0  0  0  0  0  0  0  0  0  # atno 17321 bound_to 7965
  139.5401  144.2672  152.1333 LP  0  0  0  0  0  0  0  0  0  0  0  0  # atno 17342 bound_to 10162
  140.1882  144.4778  150.6493 LP  0  0  0  0  0  0  0  0  0  0  0  0  # atno 17343 bound_to 10162
  157.1500  131.0318  151.2889 LP  0  0  0  0  0  0  0  0  0  0  0  0  # atno 17370 bound_to 10713
  157.4400  130.7538  149.7061 LP  0  0  0  0  0  0  0  0  0  0  0  0  # atno 17371 bound_to 10713
  140.8725  134.2709  157.5184 LP  0  0  0  0  0  0  0  0  0  0  0  0  # atno 17394 bound_to 11000
  139.8705  134.9574  156.4268 LP  0  0  0  0  0  0  0  0  0  0  0  0  # atno 17395 bound_to 11000

$$$$
