AV-unprocessed.smi:1760|AV-procd|sdf|7092|dock10
  -GOLD-   22720 8313D 1   1.00000     0.00000
 Structure written by MMmdl.
 43 45  0  0  0  0  0  0  0  0  3 V2000
  148.5154  139.9476  157.0957 O   0  0  0  0  0  0  0  0  0  0  0  0
  149.2280  140.2389  156.1355 C   0  0  0  0  0  0  0  0  0  0  0  0
  150.4042  140.8893  156.1926 N   0  0  0  0  0  0  0  0  0  0  0  0
  151.1155  141.3523  157.3126 C   0  0  0  0  0  0  0  0  0  0  0  0
  150.9771  142.5891  157.8660 C   0  0  0  0  0  0  0  0  0  0  0  0
  151.7374  143.0068  159.0376 C   0  0  0  0  0  0  0  0  0  0  0  0
  151.6375  144.3784  159.6792 C   0  0  0  0  0  0  0  0  0  0  0  0
  150.3592  144.7142  159.8494 F   0  0  0  0  0  0  0  0  0  0  0  0
  152.2245  144.3724  160.8755 F   0  0  0  0  0  0  0  0  0  0  0  0
  152.2215  145.3123  158.9282 F   0  0  0  0  0  0  0  0  0  0  0  0
  152.5790  142.0149  159.4996 C   0  0  0  0  0  0  0  0  0  0  0  0
  152.7652  140.7654  159.0208 N   0  5  0  0  0  0  0  0  0  0  0  0
  152.0515  140.3852  157.9236 C   0  0  0  0  0  0  0  0  0  0  0  0
  152.1704  139.2606  157.4354 O   0  0  0  0  0  0  0  0  0  0  0  0
  148.9063  139.9546  154.8650 N   0  0  0  0  0  0  0  0  0  0  0  0
  147.6932  139.2736  154.4204 C   0  0  2  0  0  0  0  0  0  0  0  0
  147.7340  137.7963  154.8453 C   0  0  0  0  0  0  0  0  0  0  0  0
  146.5249  137.0260  154.2887 C   0  0  0  0  0  0  0  0  0  0  0  0
  146.4510  137.1469  152.8114 N   0  3  1  0  0  0  0  0  0  0  0  0
  145.3669  136.3207  152.2374 C   0  0  0  0  0  0  0  0  0  0  0  0
  145.8310  134.9748  151.7310 C   0  0  0  0  0  0  0  0  0  0  0  0
  145.5078  136.0817  150.7522 C   0  0  0  0  0  0  0  0  0  0  0  0
  146.3621  138.5641  152.3798 C   0  0  0  0  0  0  0  0  0  0  0  0
  147.5656  139.3736  152.8910 C   0  0  0  0  0  0  0  0  0  0  0  0
  150.8352  141.1175  155.3086 H   0  0  0  0  0  0  0  0  0  0  0  0
  150.2782  143.3006  157.4588 H   0  0  0  0  0  0  0  0  0  0  0  0
  153.1951  142.2664  160.3892 H   0  0  0  0  0  0  0  0  0  0  0  0
  149.5552  140.2395  154.1460 H   0  0  0  0  0  0  0  0  0  0  0  0
  146.8093  139.7322  154.8677 H   0  0  0  0  0  0  0  0  0  0  0  0
  148.6545  137.3312  154.4890 H   0  0  0  0  0  0  0  0  0  0  0  0
  147.7506  137.7205  155.9333 H   0  0  0  0  0  0  0  0  0  0  0  0
  146.6044  135.9745  154.5673 H   0  0  0  0  0  0  0  0  0  0  0  0
  145.6017  137.4020  154.7329 H   0  0  0  0  0  0  0  0  0  0  0  0
  144.3824  136.4317  152.6889 H   0  0  0  0  0  0  0  0  0  0  0  0
  146.8786  134.7082  151.8583 H   0  0  0  0  0  0  0  0  0  0  0  0
  145.1294  134.1454  151.7943 H   0  0  0  0  0  0  0  0  0  0  0  0
  144.5937  135.9814  150.1705 H   0  0  0  0  0  0  0  0  0  0  0  0
  146.3415  136.5486  150.2307 H   0  0  0  0  0  0  0  0  0  0  0  0
  146.3263  138.6137  151.2909 H   0  0  0  0  0  0  0  0  0  0  0  0
  145.4317  139.0001  152.7474 H   0  0  0  0  0  0  0  0  0  0  0  0
  147.4618  140.4174  152.5921 H   0  0  0  0  0  0  0  0  0  0  0  0
  148.4765  139.0052  152.4166 H   0  0  0  0  0  0  0  0  0  0  0  0
  147.3184  136.7824  152.4440 H   0  0  0  0  0  0  0  0  0  0  0  0
  1  2  2  0  0  0  0
  2  3  1  0  0  0  0
  2 15  1  0  0  0  0
  3  4  1  0  0  0  0
  3 25  1  0  0  0  0
  4 13  1  0  0  0  0
  4  5  2  0  0  0  0
  5  6  1  0  0  0  0
  5 26  1  0  0  0  0
  6  7  1  0  0  0  0
  6 11  2  0  0  0  0
  7  8  1  0  0  0  0
  7  9  1  0  0  0  0
  7 10  1  0  0  0  0
 11 12  1  0  0  0  0
 11 27  1  0  0  0  0
 12 13  1  0  0  0  0
 13 14  2  0  0  0  0
 15 16  1  0  0  0  0
 15 28  1  0  0  0  0
 16 24  1  0  0  0  0
 16 17  1  0  0  0  0
 16 29  1  0  0  0  0
 17 18  1  0  0  0  0
 17 30  1  0  0  0  0
 17 31  1  0  0  0  0
 18 19  1  0  0  0  0
 18 32  1  0  0  0  0
 18 33  1  0  0  0  0
 19 20  1  0  0  0  0
 19 23  1  0  0  0  0
 19 43  1  0  0  0  0
 20 22  1  0  0  0  0
 20 21  1  0  0  0  0
 20 34  1  0  0  0  0
 21 22  1  0  0  0  0
 21 35  1  0  0  0  0
 21 36  1  0  0  0  0
 22 37  1  0  0  0  0
 22 38  1  0  0  0  0
 23 24  1  0  0  0  0
 23 39  1  0  0  0  0
 23 40  1  0  0  0  0
 24 41  1  0  0  0  0
 24 42  1  0  0  0  0
M  CHG  1  12  -1
M  CHG  1  19   1
M  END
> <s_m_source_file>
AV-unprocessed.smi

> <i_m_source_file_index>
1760

> <i_lp_mmshare_version>
43012

> <i_f3d_flags>
0

> <s_epik_input>
W0NIMl0xW0NIMl1bQ0hdMU4oW0NIMl1bQ0gyXTIpW0NIMl1bQ0gyXVtDSF0yW05IXUMoPU8pW05IXWMzW2NIXWMoQyhGKShGKUYpW2NIXVtuSF1jMz1P

> <s_epik_cmdline>
J2VwaWtfcHl0aG9uJywgJy1waCcsICc3LjAnLCAnLXRuJywgJzgnLCAnLW1hJywgJzIwMCcsICctbWV0YWxfYmluZGluZycsICctaW1hZScsICc8aW5maWxlLm1hZT4nLCAnLW9tYWUnLCAnPG91dGZpbGUubWFlPic=

> <r_lp_tautomer_probability>
0.999

> <r_epik_Ionization_Penalty>
3.16043

> <r_epik_Ionization_Penalty_Charging>
0.268029

> <r_epik_Ionization_Penalty_Neutral>
2.8924

> <r_epik_State_Penalty>
3.0039

> <r_epik_Charging_Adjusted_Penalty>
3.27193

> <i_epik_Tot_Q>
0

> <i_epik_Tot_abs_Q>
2

> <r_epik_Metal_State_Penalty>
0.560618

> <b_epik_Metal_Only>
1

> <s_lp_Force_Field>
OPLS_2005

> <r_lp_Energy>
39.9714

> <b_lp_Chiralities_Consistent>
1

> <s_lp_Variant>
AV-unprocessed.smi:1760-4

> <Gold.Version>
5.8.1

> <Gold.Id.Protein>
6NUR|6NUR_protein|mol2

> <Gold.PLP.Fitness>
44.4356

> <Gold.PLP.PLP>
-41.0575

> <Gold.PLP.part.hbond>
-1.0000

> <Gold.PLP.part.metal>
0.0000

> <Gold.PLP.part.buried>
-4.7942

> <Gold.PLP.part.nonpolar>
-36.0156

> <Gold.PLP.part.repulsive>
0.1701

> <Gold.PLP.ligand.clash>
0.0000

> <Gold.PLP.ligand.torsion>
1.9461

> <Gold.PLP.Chemscore.Hbond>
2.0000

> <Gold.PLP.Chemscore.CHOScore>
0.0000

> <Gold.PLP.Chemscore.Metal>
0.0000

> <Gold.Chemscore.Hbonds>
donor molecule, donor type, donor heavy atom, donor atom, acceptor molecule, acceptor atom, score
      L1  H    19    43       P1  7948  2.00

> <Gold.PLP.Chemscore.Internal.Correction>
1.2704

> <Gold.Rescore>
     Score         DG    S(hbond)    S(metal)    S(lipo)     H(rot)  DE(clash)    DE(int)     intcor
     13.02     -15.09       1.00        0.00      81.57       1.28       0.56       1.51       ----

> <Gold.Chemscore.Fitness>
13.0165

> <Gold.Chemscore.DG>
-15.0900

> <Gold.Chemscore.ZeroCoef>
-5.4800

> <Gold.Chemscore.Hbond>
0.9998

> <Gold.Chemscore.Metal>
0.0000

> <Gold.Chemscore.Lipo>
81.5728

> <Gold.Chemscore.Internal_Hbond>
0.0000

> <Gold.Chemscore.DEClash>
0.5594

> <Gold.Chemscore.DEInternal>
1.5141

> <Gold.Chemscore.Rot>
1.2787

> <Gold.Chemscore.Internal.Correction>
   9.000000E+99

> <Gold.Chemscore.Hbonds>
donor molecule, donor type, donor heavy atom, donor atom, acceptor molecule, acceptor atom, score
      L1  H    19    43       P1  7948  1.00

> <Gold.Chemscore.Hbond.Weighted>
-3.3395

> <Gold.Chemscore.Metal.Weighted>
-0.0000

> <Gold.Chemscore.Lipo.Weighted>
-9.5440

> <Gold.Chemscore.Internal_Hbond.Weighted>
0.0000

> <Gold.Chemscore.DEClash.Weighted>
0.5594

> <Gold.Chemscore.DEInternal.Weighted>
1.5141

> <Gold.Chemscore.Rot.Weighted>
3.2735

> <Gold.Chemscore.Internal.Correction.Weighted>
   9.000000E+99

> <Gold.Protein.RotatedTorsions>
[ 6907 6896 6895 6894 ] final -131.88 input  -60.11 | X-H torsion
[ 7974 7965 7964 7962 ] final   -5.18 input  175.53 | X-H torsion
[ 8008 7997 7996 7995 ] final  -97.77 input   59.86 | X-H torsion
[ 10167 10162 10161 10158 ] final -171.53 input  -65.29 | X-H torsion
[ 10718 10713 10712 10709 ] final   25.63 input   66.30 | X-H torsion
[ 10763 10752 10751 10750 ] final  162.36 input  -60.55 | X-H torsion
[ 11005 11000 10999 10996 ] final   72.42 input  -57.11 | X-H torsion

> <Gold.Protein.ActiveResidues>
 VAL166  LYS551  ARG553  GLY616  TRP617  ASP618  TYR619  PRO620  LYS621  CYS622 
 ASP623  PHE694  ASN695  SER759  ASP760  ASP761  ALA762  ILE779  LEU786  VAL792 
 PHE793  MET794  SER795  GLU796  ALA797  LYS798  CYS799  TRP800  GLU811  SER814 

> <Gold.Protein.RotatedAtoms>
  150.9560  133.6496  159.2762 H   0  0  0  0  0  0  0  0  0  0  0  0  # atno 6907 bound_to 6896
  151.3835  135.0943  159.9513 H   0  0  0  0  0  0  0  0  0  0  0  0  # atno 6908 bound_to 6896
  152.5129  133.9090  159.7533 H   0  0  0  0  0  0  0  0  0  0  0  0  # atno 6909 bound_to 6896
  146.2358  140.1982  142.8333 H   0  0  0  0  0  0  0  0  0  0  0  0  # atno 7974 bound_to 7965
  154.7922  140.0460  157.1210 H   0  0  0  0  0  0  0  0  0  0  0  0  # atno 8008 bound_to 7997
  154.9577  140.3073  155.5025 H   0  0  0  0  0  0  0  0  0  0  0  0  # atno 8009 bound_to 7997
  156.2951  140.2276  156.4660 H   0  0  0  0  0  0  0  0  0  0  0  0  # atno 8010 bound_to 7997
  139.5797  144.1451  152.1499 H   0  0  0  0  0  0  0  0  0  0  0  0  # atno 10167 bound_to 10162
  157.1960  130.6868  149.6169 H   0  0  0  0  0  0  0  0  0  0  0  0  # atno 10718 bound_to 10713
  154.2772  135.2764  155.2713 H   0  0  0  0  0  0  0  0  0  0  0  0  # atno 10763 bound_to 10752
  154.5250  135.5746  153.6715 H   0  0  0  0  0  0  0  0  0  0  0  0  # atno 10764 bound_to 10752
  152.9935  135.6213  154.2930 H   0  0  0  0  0  0  0  0  0  0  0  0  # atno 10765 bound_to 10752
  139.9492  134.7258  156.0905 H   0  0  0  0  0  0  0  0  0  0  0  0  # atno 11005 bound_to 11000
  144.9803  140.8453  143.5401 LP  0  0  0  0  0  0  0  0  0  0  0  0  # atno 17320 bound_to 7965
  145.1975  139.2269  143.5210 LP  0  0  0  0  0  0  0  0  0  0  0  0  # atno 17321 bound_to 7965
  140.1002  144.5546  150.6994 LP  0  0  0  0  0  0  0  0  0  0  0  0  # atno 17342 bound_to 10162
  140.7077  143.2480  151.4678 LP  0  0  0  0  0  0  0  0  0  0  0  0  # atno 17343 bound_to 10162
  155.9706  130.4599  150.6052 LP  0  0  0  0  0  0  0  0  0  0  0  0  # atno 17370 bound_to 10713
  157.3814  131.0781  151.1473 LP  0  0  0  0  0  0  0  0  0  0  0  0  # atno 17371 bound_to 10713
  141.1150  133.6630  156.3072 LP  0  0  0  0  0  0  0  0  0  0  0  0  # atno 17394 bound_to 11000
  140.5761  134.5792  157.5469 LP  0  0  0  0  0  0  0  0  0  0  0  0  # atno 17395 bound_to 11000

$$$$
