AV-unprocessed.smi:1514|AV-procd|sdf|6116|dock6
  -GOLD-   22720 6253D 1   1.00000     0.00000
 Structure written by MMmdl.
 47 48  0  0  0  0  0  0  0  0  1 V2000
  151.8744  144.6871  158.8553 C   0  0  0  0  0  0  0  0  0  0  0  0
  151.7282  143.1619  158.9530 C   0  0  0  0  0  0  0  0  0  0  0  0
  151.4672  142.4859  157.6839 N   0  0  0  0  0  0  0  0  0  0  0  0
  150.0414  142.1989  157.5279 C   0  0  0  0  0  0  0  0  0  0  0  0
  149.7432  141.5035  156.1866 C   0  0  0  0  0  0  0  0  0  0  0  0
  150.4808  140.2438  156.0574 N   0  0  0  0  0  0  0  0  0  0  0  0
  150.2231  139.5724  154.7854 C   0  0  0  0  0  0  0  0  0  0  0  0
  151.3379  138.6244  154.3149 C   0  0  0  0  0  0  0  0  0  0  0  0
  150.7729  137.3456  153.9087 N   0  0  0  0  0  0  0  0  0  0  0  0
  151.1320  136.1610  154.4207 C   0  0  0  0  0  0  0  0  0  0  0  0
  151.9799  136.0344  155.3044 O   0  0  0  0  0  0  0  0  0  0  0  0
  150.4467  135.1573  153.8456 N   0  0  0  0  0  0  0  0  0  0  0  0
  150.5549  133.8196  154.0621 C   0  0  0  0  0  0  0  0  0  0  0  0
  151.4792  133.1395  154.8072 C   0  0  0  0  0  0  0  0  0  0  0  0
  151.0778  131.7819  154.6414 C   0  0  0  0  0  0  0  0  0  0  0  0
  151.7129  130.5524  155.2208 C   0  0  0  0  0  0  0  0  0  0  0  0
  150.0052  131.6554  153.8683 N   0  0  0  0  0  0  0  0  0  0  0  0
  149.6790  132.9147  153.5053 N   0  0  0  0  0  0  0  0  0  0  0  0
  148.5373  133.1487  152.6427 C   0  0  0  0  0  0  0  0  0  0  0  0
  151.9067  140.5307  156.2159 C   0  0  0  0  0  0  0  0  0  0  0  0
  152.2035  141.2258  157.5575 C   0  0  0  0  0  0  0  0  0  0  0  0
  151.9596  145.1272  159.8489 H   0  0  0  0  0  0  0  0  0  0  0  0
  151.0073  145.1348  158.3689 H   0  0  0  0  0  0  0  0  0  0  0  0
  152.7638  144.9772  158.2964 H   0  0  0  0  0  0  0  0  0  0  0  0
  152.6174  142.7396  159.4234 H   0  0  0  0  0  0  0  0  0  0  0  0
  150.9022  142.9572  159.6356 H   0  0  0  0  0  0  0  0  0  0  0  0
  149.6936  141.5715  158.3501 H   0  0  0  0  0  0  0  0  0  0  0  0
  149.4709  143.1267  157.5821 H   0  0  0  0  0  0  0  0  0  0  0  0
  148.6711  141.3210  156.1244 H   0  0  0  0  0  0  0  0  0  0  0  0
  149.9957  142.1726  155.3624 H   0  0  0  0  0  0  0  0  0  0  0  0
  149.2789  139.0280  154.8414 H   0  0  0  0  0  0  0  0  0  0  0  0
  150.0866  140.3305  154.0128 H   0  0  0  0  0  0  0  0  0  0  0  0
  151.8753  139.0691  153.4757 H   0  0  0  0  0  0  0  0  0  0  0  0
  152.0631  138.4460  155.1092 H   0  0  0  0  0  0  0  0  0  0  0  0
  150.0679  137.3649  153.1864 H   0  0  0  0  0  0  0  0  0  0  0  0
  149.7699  135.4254  153.1465 H   0  0  0  0  0  0  0  0  0  0  0  0
  152.3098  133.5264  155.3781 H   0  0  0  0  0  0  0  0  0  0  0  0
  152.6539  130.7913  155.7166 H   0  0  0  0  0  0  0  0  0  0  0  0
  151.9256  129.8164  154.4450 H   0  0  0  0  0  0  0  0  0  0  0  0
  151.0593  130.0831  155.9563 H   0  0  0  0  0  0  0  0  0  0  0  0
  148.8444  133.7401  151.7799 H   0  0  0  0  0  0  0  0  0  0  0  0
  147.7694  133.6924  153.1931 H   0  0  0  0  0  0  0  0  0  0  0  0
  148.1203  132.2036  152.2919 H   0  0  0  0  0  0  0  0  0  0  0  0
  152.4768  139.6026  156.1630 H   0  0  0  0  0  0  0  0  0  0  0  0
  152.2563  141.1579  155.3942 H   0  0  0  0  0  0  0  0  0  0  0  0
  153.2758  141.4078  157.6218 H   0  0  0  0  0  0  0  0  0  0  0  0
  151.9488  140.5576  158.3817 H   0  0  0  0  0  0  0  0  0  0  0  0
  1  2  1  0  0  0  0
  1 22  1  0  0  0  0
  1 23  1  0  0  0  0
  1 24  1  0  0  0  0
  2  3  1  0  0  0  0
  2 25  1  0  0  0  0
  2 26  1  0  0  0  0
  3 21  1  0  0  0  0
  3  4  1  0  0  0  0
  4  5  1  0  0  0  0
  4 27  1  0  0  0  0
  4 28  1  0  0  0  0
  5  6  1  0  0  0  0
  5 29  1  0  0  0  0
  5 30  1  0  0  0  0
  6  7  1  0  0  0  0
  6 20  1  0  0  0  0
  7  8  1  0  0  0  0
  7 31  1  0  0  0  0
  7 32  1  0  0  0  0
  8  9  1  0  0  0  0
  8 33  1  0  0  0  0
  8 34  1  0  0  0  0
  9 10  1  0  0  0  0
  9 35  1  0  0  0  0
 10 11  2  0  0  0  0
 10 12  1  0  0  0  0
 12 13  1  0  0  0  0
 12 36  1  0  0  0  0
 13 18  1  0  0  0  0
 13 14  2  0  0  0  0
 14 15  1  0  0  0  0
 14 37  1  0  0  0  0
 15 16  1  0  0  0  0
 15 17  2  0  0  0  0
 16 38  1  0  0  0  0
 16 39  1  0  0  0  0
 16 40  1  0  0  0  0
 17 18  1  0  0  0  0
 18 19  1  0  0  0  0
 19 41  1  0  0  0  0
 19 42  1  0  0  0  0
 19 43  1  0  0  0  0
 20 21  1  0  0  0  0
 20 44  1  0  0  0  0
 20 45  1  0  0  0  0
 21 46  1  0  0  0  0
 21 47  1  0  0  0  0
M  END
> <s_m_source_file>
AV-unprocessed.smi

> <i_m_source_file_index>
1514

> <i_lp_mmshare_version>
43012

> <i_f3d_flags>
0

> <s_epik_input>
W0NIM11bQ0gyXU4xW0NIMl1bQ0gyXU4oW0NIMl1bQ0gyXTEpW0NIMl1bQ0gyXVtOSF1DKD1PKVtOSF1jMltjSF1jKFtDSDNdKW5uMltDSDNd

> <s_epik_cmdline>
J2VwaWtfcHl0aG9uJywgJy1waCcsICc3LjAnLCAnLXRuJywgJzgnLCAnLW1hJywgJzIwMCcsICctbWV0YWxfYmluZGluZycsICctaW1hZScsICc8aW5maWxlLm1hZT4nLCAnLW9tYWUnLCAnPG91dGZpbGUubWFlPic=

> <r_lp_tautomer_probability>
1

> <r_epik_Ionization_Penalty>
2.12169

> <r_epik_Ionization_Penalty_Charging>
0

> <r_epik_Ionization_Penalty_Neutral>
2.12169

> <r_epik_State_Penalty>
1.63644

> <r_epik_Charging_Adjusted_Penalty>
1.63644

> <i_epik_Tot_Q>
0

> <i_epik_Tot_abs_Q>
0

> <r_epik_Metal_State_Penalty>
1.63644

> <b_epik_Metal_Only>
0

> <s_lp_Force_Field>
OPLS_2005

> <r_lp_Energy>
34.6539

> <b_lp_Chiralities_Consistent>
1

> <s_lp_Variant>
AV-unprocessed.smi:1514-3

> <Gold.Version>
5.8.1

> <Gold.Id.Protein>
6NUR|6NUR_protein|mol2

> <Gold.PLP.Fitness>
46.2542

> <Gold.PLP.PLP>
-40.3132

> <Gold.PLP.part.hbond>
-4.9681

> <Gold.PLP.part.metal>
0.0000

> <Gold.PLP.part.buried>
-1.6266

> <Gold.PLP.part.nonpolar>
-32.3916

> <Gold.PLP.part.repulsive>
0.2889

> <Gold.PLP.ligand.clash>
0.0000

> <Gold.PLP.ligand.torsion>
1.1987

> <Gold.PLP.Chemscore.Hbond>
2.7620

> <Gold.PLP.Chemscore.CHOScore>
0.0000

> <Gold.PLP.Chemscore.Metal>
0.0000

> <Gold.Chemscore.Hbonds>
donor molecule, donor type, donor heavy atom, donor atom, acceptor molecule, acceptor atom, score
      L1  H     9    35       P1  7948  0.81
      L1  H    12    36       P1  7948  0.20
      P1  H 10752 10764       L1    11  0.45

> <Gold.PLP.Chemscore.Internal.Correction>
0.0523

> <Gold.Rescore>
     Score         DG    S(hbond)    S(metal)    S(lipo)     H(rot)  DE(clash)    DE(int)     intcor
     15.24     -17.69       2.01        0.00      82.93       1.64       0.22       2.23       ----

> <Gold.Chemscore.Fitness>
15.2404

> <Gold.Chemscore.DG>
-17.6912

> <Gold.Chemscore.ZeroCoef>
-5.4800

> <Gold.Chemscore.Hbond>
2.0106

> <Gold.Chemscore.Metal>
0.0000

> <Gold.Chemscore.Lipo>
82.9256

> <Gold.Chemscore.Internal_Hbond>
0.0000

> <Gold.Chemscore.DEClash>
0.2227

> <Gold.Chemscore.DEInternal>
2.2282

> <Gold.Chemscore.Rot>
1.6432

> <Gold.Chemscore.Internal.Correction>
   9.000000E+99

> <Gold.Chemscore.Hbonds>
donor molecule, donor type, donor heavy atom, donor atom, acceptor molecule, acceptor atom, score
      L1  H     9    35       P1  7948  0.15
      P1  H 10752 10764       L1    11  0.43

> <Gold.Chemscore.Hbond.Weighted>
-6.7154

> <Gold.Chemscore.Metal.Weighted>
-0.0000

> <Gold.Chemscore.Lipo.Weighted>
-9.7023

> <Gold.Chemscore.Internal_Hbond.Weighted>
0.0000

> <Gold.Chemscore.DEClash.Weighted>
0.2227

> <Gold.Chemscore.DEInternal.Weighted>
2.2282

> <Gold.Chemscore.Rot.Weighted>
4.2065

> <Gold.Chemscore.Internal.Correction.Weighted>
   9.000000E+99

> <Gold.Protein.RotatedTorsions>
[ 6907 6896 6895 6894 ] final -103.35 input  -60.11 | X-H torsion
[ 7974 7965 7964 7962 ] final  168.39 input  175.53 | X-H torsion
[ 8008 7997 7996 7995 ] final  -32.07 input   59.86 | X-H torsion
[ 10167 10162 10161 10158 ] final  177.62 input  -65.29 | X-H torsion
[ 10718 10713 10712 10709 ] final   57.89 input   66.30 | X-H torsion
[ 10763 10752 10751 10750 ] final  -28.13 input  -60.55 | X-H torsion
[ 11005 11000 10999 10996 ] final  127.52 input  -57.11 | X-H torsion

> <Gold.Protein.ActiveResidues>
 VAL166  LYS551  ARG553  GLY616  TRP617  ASP618  TYR619  PRO620  LYS621  CYS622 
 ASP623  PHE694  ASN695  SER759  ASP760  ASP761  ALA762  ILE779  LEU786  VAL792 
 PHE793  MET794  SER795  GLU796  ALA797  LYS798  CYS799  TRP800  GLU811  SER814 

> <Gold.Protein.RotatedAtoms>
  150.7236  134.0442  159.3775 H   0  0  0  0  0  0  0  0  0  0  0  0  # atno 6907 bound_to 6896
  151.8417  135.0586  160.0458 H   0  0  0  0  0  0  0  0  0  0  0  0  # atno 6908 bound_to 6896
  152.2857  133.5477  159.5562 H   0  0  0  0  0  0  0  0  0  0  0  0  # atno 6909 bound_to 6896
  144.7390  139.8900  143.6402 H   0  0  0  0  0  0  0  0  0  0  0  0  # atno 7974 bound_to 7965
  154.4192  140.1747  156.1668 H   0  0  0  0  0  0  0  0  0  0  0  0  # atno 8008 bound_to 7997
  155.9793  140.3379  155.6623 H   0  0  0  0  0  0  0  0  0  0  0  0  # atno 8009 bound_to 7997
  155.6522  140.0691  157.2574 H   0  0  0  0  0  0  0  0  0  0  0  0  # atno 8010 bound_to 7997
  139.5260  144.2777  152.0574 H   0  0  0  0  0  0  0  0  0  0  0  0  # atno 10167 bound_to 10162
  157.5552  130.8794  149.9024 H   0  0  0  0  0  0  0  0  0  0  0  0  # atno 10718 bound_to 10713
  153.7433  135.6931  153.4962 H   0  0  0  0  0  0  0  0  0  0  0  0  # atno 10763 bound_to 10752
  153.2054  135.4422  155.0315 H   0  0  0  0  0  0  0  0  0  0  0  0  # atno 10764 bound_to 10752
  154.8213  135.3423  154.6958 H   0  0  0  0  0  0  0  0  0  0  0  0  # atno 10765 bound_to 10752
  139.9512  134.9621  156.8867 H   0  0  0  0  0  0  0  0  0  0  0  0  # atno 11005 bound_to 11000
  146.1149  139.4158  143.0265 LP  0  0  0  0  0  0  0  0  0  0  0  0  # atno 17320 bound_to 7965
  145.7390  141.0015  143.1311 LP  0  0  0  0  0  0  0  0  0  0  0  0  # atno 17321 bound_to 7965
  140.2233  144.4443  150.6332 LP  0  0  0  0  0  0  0  0  0  0  0  0  # atno 17342 bound_to 10162
  140.6404  143.2202  151.6303 LP  0  0  0  0  0  0  0  0  0  0  0  0  # atno 17343 bound_to 10162
  156.0612  130.3699  150.0979 LP  0  0  0  0  0  0  0  0  0  0  0  0  # atno 17370 bound_to 10713
  156.9148  130.9663  151.3557 LP  0  0  0  0  0  0  0  0  0  0  0  0  # atno 17371 bound_to 10713
  140.5715  134.0439  155.7432 LP  0  0  0  0  0  0  0  0  0  0  0  0  # atno 17394 bound_to 11000
  141.1175  133.9516  157.2794 LP  0  0  0  0  0  0  0  0  0  0  0  0  # atno 17395 bound_to 11000

$$$$
