#       Name:                AV-unprocessed.smi:2475
#       Creating user name   scv26
#       Creation time:       Fri Mar 27 13:39:46 2020


#       File generated by GOLD software.
#

@<TRIPOS>MOLECULE
AV-unprocessed.smi:2475
    43    44     1
SMALL
NO_CHARGES


@<TRIPOS>ATOM
      1 ****        -1.2202  -4.5007  -0.1949 C.3            1 S1                 0.0000
      2 ****        -0.4706  -3.1860  -0.2364 C.ar           1 S1                 0.0000
      3 ****        -1.1486  -1.9493  -0.2629 C.ar           1 S1                 0.0000
      4 ****        -0.3562  -0.7802  -0.2997 C.ar           1 S1                 0.0000
      5 ****        -1.0657   0.4483  -0.3265 N.am           1 S1                 0.0000
      6 ****        -0.5681   1.6981  -0.3958 C.2            1 S1                 0.0000
      7 ****         0.6313   1.9635  -0.4847 O.2            1 S1                 0.0000
      8 ****        -1.5966   2.8394  -0.3976 C.3            1 S1                 0.0000
      9 ****        -1.1806   4.0816   0.4153 C.3            1 S1                 0.0000
     10 ****        -2.3352   4.3012   1.3791 C.3            1 S1                 0.0000
     11 ****        -3.4775   3.5376   0.7243 C.3            1 S1                 0.0000
     12 ****        -2.8186   2.4012   0.1941 O.3            1 S1                 0.0000
     13 ****         0.9959  -0.8800  -0.3050 N.ar           1 S1                 0.0000
     14 ****         1.5410  -2.1007  -0.2815 C.ar           1 S1                 0.0000
     15 ****         3.0622  -2.1785  -0.2787 C.3            1 S1                 0.0000
     16 ****         3.6630  -1.6023   1.0125 C.3            1 S1                 0.0000
     17 ****         3.6736  -1.5678  -1.5494 C.3            1 S1                 0.0000
     18 ****         0.8768  -3.2591  -0.2459 N.ar           1 S1                 0.0000
     19 ****        -2.2983  -4.3395  -0.1777 H              1 S1                 0.0000
     20 ****        -0.9459  -5.0654   0.6965 H              1 S1                 0.0000
     21 ****        -0.9790  -5.1023  -1.0716 H              1 S1                 0.0000
     22 ****        -2.2280  -1.9007  -0.2560 H              1 S1                 0.0000
     23 ****        -2.0716   0.3741  -0.2806 H              1 S1                 0.0000
     24 ****        -1.7997   3.1279  -1.4300 H              1 S1                 0.0000
     25 ****        -0.2420   3.9630   0.9586 H              1 S1                 0.0000
     26 ****        -1.0676   4.9387  -0.2494 H              1 S1                 0.0000
     27 ****        -2.1002   3.8536   2.3456 H              1 S1                 0.0000
     28 ****        -2.5647   5.3549   1.5389 H              1 S1                 0.0000
     29 ****        -4.2597   3.2589   1.4308 H              1 S1                 0.0000
     30 ****        -3.9270   4.1166  -0.0842 H              1 S1                 0.0000
     31 ****         3.3294  -3.2367  -0.2929 H              1 S1                 0.0000
     32 ****         3.2630  -2.1106   1.8902 H              1 S1                 0.0000
     33 ****         3.4436  -0.5389   1.1138 H              1 S1                 0.0000
     34 ****         4.7468  -1.7202   1.0275 H              1 S1                 0.0000
     35 ****         3.2763  -2.0474  -2.4444 H              1 S1                 0.0000
     36 ****         4.7568  -1.6905  -1.5615 H              1 S1                 0.0000
     37 ****         3.4611  -0.5005  -1.6207 H              1 S1                 0.0000
     38 ****         1.3061   1.2259  -0.5095 LP             1 S1                 0.0000
     39 ****         0.9304   2.9165  -0.5321 LP             1 S1                 0.0000
     40 ****        -2.6265   1.7475   0.9261 LP             1 S1                 0.0000
     41 ****        -3.3947   1.9666  -0.4982 LP             1 S1                 0.0000
     42 ****         1.5706  -0.0619  -0.3259 LP             1 S1                 0.0000
     43 ****         1.3546  -4.1374  -0.2272 LP             1 S1                 0.0000
@<TRIPOS>BOND
    1    1    2 1     
    2    1   19 1     
    3    1   20 1     
    4    1   21 1     
    5    2   18 ar    
    6    2    3 ar    
    7    3    4 ar    
    8    3   22 1     
    9    4    5 1     
   10    4   13 ar    
   11    5    6 am    
   12    5   23 1     
   13    6    7 2     
   14    6    8 1     
   15    8   12 1     
   16    8    9 1     
   17    8   24 1     
   18    9   10 1     
   19    9   25 1     
   20    9   26 1     
   21   10   11 1     
   22   10   27 1     
   23   10   28 1     
   24   11   12 1     
   25   11   29 1     
   26   11   30 1     
   27   13   14 ar    
   28   14   15 1     
   29   14   18 ar    
   30   15   16 1     
   31   15   17 1     
   32   15   31 1     
   33   16   32 1     
   34   16   33 1     
   35   16   34 1     
   36   17   35 1     
   37   17   36 1     
   38   17   37 1     
   39    7   38 1     
   40    7   39 1     
   41   12   40 1     
   42   12   41 1     
   43   13   42 1     
   44   18   43 1     
@<TRIPOS>SUBSTRUCTURE
      1 S1             1
@<TRIPOS>SET
LONE_PAIRS      STATIC     ATOMS    <user>   **** ""
6 38 39 40 41 42 43
DONOR_HYDROGENS      STATIC     ATOMS    <user>   **** ""
1 23
ATOM$BLUE        STATIC     ATOMS    COLORGROUP SYSTEM
6 38 39 40 41 42 43
ATOM$RED        STATIC     ATOMS    COLORGROUP SYSTEM
1 23
