AV-unprocessed.smi:3306|AV-procd|sdf|12705|dock2
  -GOLD-   2272019 43D 1   1.00000     0.00000
 Structure written by MMmdl.
 44 45  0  0  0  0  0  0  0  0  2 V2000
  148.5266  135.3887  156.4811 C   0  0  0  0  0  0  0  0  0  0  0  0
  148.6747  135.4852  154.9476 C   0  0  0  0  0  0  0  0  0  0  0  0
  149.2982  134.1678  154.4383 C   0  0  0  0  0  0  0  0  0  0  0  0
  149.4492  136.7004  154.5296 N   0  3  2  0  0  0  0  0  0  0  0  0
  150.8839  136.6422  154.9337 C   0  0  0  0  0  0  0  0  0  0  0  0
  151.6916  137.8354  154.3942 C   0  0  0  0  0  0  0  0  0  0  0  0
  151.0885  139.1877  154.8140 C   0  0  2  0  0  0  0  0  0  0  0  0
  151.2390  139.4484  156.2408 N   0  0  0  0  0  0  0  0  0  0  0  0
  150.7993  140.7807  156.6329 C   0  0  0  0  0  0  0  0  0  0  0  0
  150.7891  140.9124  158.1656 C   0  0  0  0  0  0  0  0  0  0  0  0
  151.1130  142.3184  158.6466 C   0  0  0  0  0  0  0  0  0  0  0  0
  152.1830  142.5409  159.5396 C   0  0  0  0  0  0  0  0  0  0  0  0
  152.4326  143.8568  159.9750 C   0  0  0  0  0  0  0  0  0  0  0  0
  151.6051  144.8950  159.5054 C   0  0  0  0  0  0  0  0  0  0  0  0
  150.5617  144.5699  158.6161 C   0  0  0  0  0  0  0  0  0  0  0  0
  150.3139  143.3119  158.1929 N   0  0  0  0  0  0  0  0  0  0  0  0
  149.5981  139.2170  154.4482 C   0  0  0  0  0  0  0  0  0  0  0  0
  148.8333  137.9859  154.9709 C   0  0  0  0  0  0  0  0  0  0  0  0
  148.0759  134.4396  156.7728 H   0  0  0  0  0  0  0  0  0  0  0  0
  147.8772  136.1623  156.8882 H   0  0  0  0  0  0  0  0  0  0  0  0
  149.4942  135.4577  156.9792 H   0  0  0  0  0  0  0  0  0  0  0  0
  147.6744  135.5609  154.5179 H   0  0  0  0  0  0  0  0  0  0  0  0
  148.7849  133.3026  154.8593 H   0  0  0  0  0  0  0  0  0  0  0  0
  150.3503  134.0906  154.7150 H   0  0  0  0  0  0  0  0  0  0  0  0
  149.2179  134.0628  153.3567 H   0  0  0  0  0  0  0  0  0  0  0  0
  150.9555  136.6007  156.0220 H   0  0  0  0  0  0  0  0  0  0  0  0
  151.3602  135.7413  154.5534 H   0  0  0  0  0  0  0  0  0  0  0  0
  152.7336  137.7470  154.6983 H   0  0  0  0  0  0  0  0  0  0  0  0
  151.7029  137.7833  153.3048 H   0  0  0  0  0  0  0  0  0  0  0  0
  151.5877  139.9932  154.2734 H   0  0  0  0  0  0  0  0  0  0  0  0
  150.7165  138.7659  156.7719 H   0  0  0  0  0  0  0  0  0  0  0  0
  151.4459  141.5500  156.2132 H   0  0  0  0  0  0  0  0  0  0  0  0
  149.7973  140.9522  156.2380 H   0  0  0  0  0  0  0  0  0  0  0  0
  149.8052  140.6339  158.5445 H   0  0  0  0  0  0  0  0  0  0  0  0
  151.4916  140.2052  158.6097 H   0  0  0  0  0  0  0  0  0  0  0  0
  152.7975  141.7229  159.8865 H   0  0  0  0  0  0  0  0  0  0  0  0
  153.2428  144.0657  160.6578 H   0  0  0  0  0  0  0  0  0  0  0  0
  151.7673  145.9161  159.8176 H   0  0  0  0  0  0  0  0  0  0  0  0
  149.9076  145.3404  158.2358 H   0  0  0  0  0  0  0  0  0  0  0  0
  149.1325  140.1320  154.8173 H   0  0  0  0  0  0  0  0  0  0  0  0
  149.5040  139.2518  153.3620 H   0  0  0  0  0  0  0  0  0  0  0  0
  147.8134  138.0756  154.6018 H   0  0  0  0  0  0  0  0  0  0  0  0
  148.7805  138.0070  156.0607 H   0  0  0  0  0  0  0  0  0  0  0  0
  149.4345  136.7123  153.5198 H   0  0  0  0  0  0  0  0  0  0  0  0
  1  2  1  0  0  0  0
  1 19  1  0  0  0  0
  1 20  1  0  0  0  0
  1 21  1  0  0  0  0
  2  3  1  0  0  0  0
  2  4  1  0  0  0  0
  2 22  1  0  0  0  0
  3 23  1  0  0  0  0
  3 24  1  0  0  0  0
  3 25  1  0  0  0  0
  4 18  1  0  0  0  0
  4  5  1  0  0  0  0
  4 44  1  0  0  0  0
  5  6  1  0  0  0  0
  5 26  1  0  0  0  0
  5 27  1  0  0  0  0
  6  7  1  0  0  0  0
  6 28  1  0  0  0  0
  6 29  1  0  0  0  0
  7  8  1  0  0  0  0
  7 17  1  0  0  0  0
  7 30  1  0  0  0  0
  8  9  1  0  0  0  0
  8 31  1  0  0  0  0
  9 10  1  0  0  0  0
  9 32  1  0  0  0  0
  9 33  1  0  0  0  0
 10 11  1  0  0  0  0
 10 34  1  0  0  0  0
 10 35  1  0  0  0  0
 11 16  1  0  0  0  0
 11 12  2  0  0  0  0
 12 13  1  0  0  0  0
 12 36  1  0  0  0  0
 13 14  2  0  0  0  0
 13 37  1  0  0  0  0
 14 15  1  0  0  0  0
 14 38  1  0  0  0  0
 15 16  2  0  0  0  0
 15 39  1  0  0  0  0
 17 18  1  0  0  0  0
 17 40  1  0  0  0  0
 17 41  1  0  0  0  0
 18 42  1  0  0  0  0
 18 43  1  0  0  0  0
M  CHG  1   4   1
M  END
> <s_m_source_file>
AV-unprocessed.smi

> <i_m_source_file_index>
3306

> <i_lp_mmshare_version>
43012

> <i_f3d_flags>
0

> <s_epik_input>
W0NIM11bQ0hdKFtDSDNdKU4xW0NIMl1bQ0gyXVtDSF0oW0NIMl1bQ0gyXTEpW05IXVtDSDJdW0NIMl1jMltjSF1bY0hdW2NIXVtjSF1uMg==

> <s_epik_cmdline>
J2VwaWtfcHl0aG9uJywgJy1waCcsICc3LjAnLCAnLXRuJywgJzgnLCAnLW1hJywgJzIwMCcsICctbWV0YWxfYmluZGluZycsICctaW1hZScsICc8aW5maWxlLm1hZT4nLCAnLW9tYWUnLCAnPG91dGZpbGUubWFlPic=

> <r_epik_Ionization_Penalty>
2.29993

> <r_epik_Ionization_Penalty_Charging>
0.000386008

> <r_epik_Ionization_Penalty_Neutral>
2.29954

> <r_epik_State_Penalty>
2.40593

> <r_epik_Charging_Adjusted_Penalty>
2.40631

> <i_epik_Tot_Q>
1

> <i_epik_Tot_abs_Q>
1

> <r_epik_Metal_State_Penalty>
2.31593

> <b_epik_Metal_Only>
0

> <s_lp_Force_Field>
OPLS_2005

> <r_lp_Energy>
27.2023

> <b_lp_Chiralities_Consistent>
1

> <s_lp_Variant>
AV-unprocessed.smi:3306-5

> <Gold.Version>
5.8.1

> <Gold.Id.Protein>
6NUR|6NUR_protein|mol2

> <Gold.PLP.Fitness>
45.0998

> <Gold.PLP.PLP>
-36.5309

> <Gold.PLP.part.hbond>
-1.0000

> <Gold.PLP.part.metal>
0.0000

> <Gold.PLP.part.buried>
-3.1541

> <Gold.PLP.part.nonpolar>
-32.8854

> <Gold.PLP.part.repulsive>
0.1739

> <Gold.PLP.ligand.clash>
0.0000

> <Gold.PLP.ligand.torsion>
0.2744

> <Gold.PLP.Chemscore.Hbond>
2.0000

> <Gold.PLP.Chemscore.CHOScore>
1.0064

> <Gold.PLP.Chemscore.Metal>
0.0000

> <Gold.Chemscore.Hbonds>
donor molecule, donor type, donor heavy atom, donor atom, acceptor molecule, acceptor atom, score
      L1  H     4    44       P1  7948  2.00
      L1  C    15    39       P1  8029  1.00

> <Gold.PLP.Chemscore.Internal.Correction>
0.0986

> <Gold.Rescore>
     Score         DG    S(hbond)    S(metal)    S(lipo)     H(rot)  DE(clash)    DE(int)     intcor
     18.11     -18.38       0.97        0.00     113.27       1.41       0.01       0.25       ----

> <Gold.Chemscore.Fitness>
18.1141

> <Gold.Chemscore.DG>
-18.3751

> <Gold.Chemscore.ZeroCoef>
-5.4800

> <Gold.Chemscore.Hbond>
0.9720

> <Gold.Chemscore.Metal>
0.0000

> <Gold.Chemscore.Lipo>
113.2719

> <Gold.Chemscore.Internal_Hbond>
0.0000

> <Gold.Chemscore.DEClash>
0.0076

> <Gold.Chemscore.DEInternal>
0.2535

> <Gold.Chemscore.Rot>
1.4078

> <Gold.Chemscore.Internal.Correction>
   9.000000E+99

> <Gold.Chemscore.Hbonds>
donor molecule, donor type, donor heavy atom, donor atom, acceptor molecule, acceptor atom, score
      L1  H     4    44       P1  7948  0.85

> <Gold.Chemscore.Hbond.Weighted>
-3.2464

> <Gold.Chemscore.Metal.Weighted>
-0.0000

> <Gold.Chemscore.Lipo.Weighted>
-13.2528

> <Gold.Chemscore.Internal_Hbond.Weighted>
0.0000

> <Gold.Chemscore.DEClash.Weighted>
0.0076

> <Gold.Chemscore.DEInternal.Weighted>
0.2535

> <Gold.Chemscore.Rot.Weighted>
3.6041

> <Gold.Chemscore.Internal.Correction.Weighted>
   9.000000E+99

> <Gold.Protein.RotatedTorsions>
[ 6907 6896 6895 6894 ] final  172.19 input  -60.11 | X-H torsion
[ 7974 7965 7964 7962 ] final   74.02 input  175.53 | X-H torsion
[ 8008 7997 7996 7995 ] final  164.28 input   59.86 | X-H torsion
[ 10167 10162 10161 10158 ] final  -99.16 input  -65.29 | X-H torsion
[ 10718 10713 10712 10709 ] final -138.75 input   66.30 | X-H torsion
[ 10763 10752 10751 10750 ] final  -35.03 input  -60.55 | X-H torsion
[ 11005 11000 10999 10996 ] final  -29.09 input  -57.11 | X-H torsion

> <Gold.Protein.ActiveResidues>
 VAL166  LYS551  ARG553  GLY616  TRP617  ASP618  TYR619  PRO620  LYS621  CYS622 
 ASP623  PHE694  ASN695  SER759  ASP760  ASP761  ALA762  ILE779  LEU786  VAL792 
 PHE793  MET794  SER795  GLU796  ALA797  LYS798  CYS799  TRP800  GLU811  SER814 

> <Gold.Protein.RotatedAtoms>
  151.7883  133.3356  159.3491 H   0  0  0  0  0  0  0  0  0  0  0  0  # atno 6907 bound_to 6896
  150.7401  134.5866  159.5975 H   0  0  0  0  0  0  0  0  0  0  0  0  # atno 6908 bound_to 6896
  152.3228  134.7360  160.0361 H   0  0  0  0  0  0  0  0  0  0  0  0  # atno 6909 bound_to 6896
  145.7336  139.2693  143.1527 H   0  0  0  0  0  0  0  0  0  0  0  0  # atno 7974 bound_to 7965
  156.1892  140.1701  156.8125 H   0  0  0  0  0  0  0  0  0  0  0  0  # atno 8008 bound_to 7997
  154.5451  140.0729  156.8607 H   0  0  0  0  0  0  0  0  0  0  0  0  # atno 8009 bound_to 7997
  155.3138  140.3369  155.4245 H   0  0  0  0  0  0  0  0  0  0  0  0  # atno 8010 bound_to 7997
  140.2653  143.3380  152.0586 H   0  0  0  0  0  0  0  0  0  0  0  0  # atno 10167 bound_to 10162
  156.3028  130.7438  151.1494 H   0  0  0  0  0  0  0  0  0  0  0  0  # atno 10718 bound_to 10713
  153.8565  135.6844  153.4787 H   0  0  0  0  0  0  0  0  0  0  0  0  # atno 10763 bound_to 10752
  153.1367  135.4675  154.9430 H   0  0  0  0  0  0  0  0  0  0  0  0  # atno 10764 bound_to 10752
  154.7778  135.3259  154.8003 H   0  0  0  0  0  0  0  0  0  0  0  0  # atno 10765 bound_to 10752
  140.9266  133.7365  156.0876 H   0  0  0  0  0  0  0  0  0  0  0  0  # atno 11005 bound_to 11000
  146.0514  140.8065  142.9779 LP  0  0  0  0  0  0  0  0  0  0  0  0  # atno 17320 bound_to 7965
  144.6887  140.3059  143.7256 LP  0  0  0  0  0  0  0  0  0  0  0  0  # atno 17321 bound_to 7965
  139.5004  144.6692  151.6284 LP  0  0  0  0  0  0  0  0  0  0  0  0  # atno 17342 bound_to 10162
  140.5933  143.9741  150.6338 LP  0  0  0  0  0  0  0  0  0  0  0  0  # atno 17343 bound_to 10162
  157.7372  131.0554  150.5368 LP  0  0  0  0  0  0  0  0  0  0  0  0  # atno 17370 bound_to 10713
  156.5498  130.4228  149.6113 LP  0  0  0  0  0  0  0  0  0  0  0  0  # atno 17371 bound_to 10713
  140.7918  134.3608  157.5462 LP  0  0  0  0  0  0  0  0  0  0  0  0  # atno 17394 bound_to 11000
  139.8787  134.9145  156.3108 LP  0  0  0  0  0  0  0  0  0  0  0  0  # atno 17395 bound_to 11000

$$$$
