AV-unprocessed.smi:1830|AV-procd|sdf|7453|dock5
  -GOLD-   22720 9143D 1   1.00000     0.00000
 Structure written by MMmdl.
 53 56  0  0  0  0  0  0  0  0  2 V2000
  149.2123  134.6891  156.2670 O   0  0  0  0  0  0  0  0  0  0  0  0
  148.9228  135.0044  155.1131 C   0  0  0  0  0  0  0  0  0  0  0  0
  149.1860  136.2038  154.5768 N   0  0  0  0  0  0  0  0  0  0  0  0
  149.8969  137.2887  155.2450 C   0  0  0  0  0  0  0  0  0  0  0  0
  150.3831  138.3447  154.2305 C   0  0  1  0  0  0  0  0  0  0  0  0
  149.2556  139.2990  153.7697 C   0  0  0  0  0  0  0  0  0  0  0  0
  148.9531  140.2742  154.8000 N   0  0  0  0  0  0  0  0  0  0  0  0
  147.9814  141.2898  154.4676 C   0  0  0  0  0  0  0  0  0  0  0  0
  148.1785  142.3714  155.5434 C   0  0  0  0  0  0  0  0  0  0  0  0
  149.5998  142.1147  156.0905 C   0  0  0  0  0  0  0  0  0  0  0  0
  150.1280  141.0172  155.1644 C   0  0  1  0  0  0  0  0  0  0  0  0
  151.2068  140.0820  155.7238 C   0  0  0  0  0  0  0  0  0  0  0  0
  151.5036  139.0904  154.7347 O   0  0  0  0  0  0  0  0  0  0  0  0
  148.3292  134.1932  154.2231 N   0  0  0  0  0  0  0  0  0  0  0  0
  147.9853  132.8247  154.4035 C   0  0  0  0  0  0  0  0  0  0  0  0
  148.5474  132.0532  155.4518 C   0  0  0  0  0  0  0  0  0  0  0  0
  148.1483  130.7142  155.6258 C   0  0  0  0  0  0  0  0  0  0  0  0
  147.1862  130.1713  154.7558 C   0  0  0  0  0  0  0  0  0  0  0  0
  146.6615  130.9368  153.7760 N   0  3  0  0  0  0  0  0  0  0  0  0
  147.0068  132.2304  153.5603 C   0  0  0  0  0  0  0  0  0  0  0  0
  146.4120  132.9275  152.4861 N   0  0  0  0  0  0  0  0  0  0  0  0
  146.7655  132.4134  151.1645 C   0  0  0  0  0  0  0  0  0  0  0  0
  145.5068  132.5279  150.3012 C   0  0  0  0  0  0  0  0  0  0  0  0
  144.3777  132.4806  151.3230 C   0  0  0  0  0  0  0  0  0  0  0  0
  144.9807  133.2252  152.5119 C   0  0  0  0  0  0  0  0  0  0  0  0
  148.9057  136.3706  153.6217 H   0  0  0  0  0  0  0  0  0  0  0  0
  149.1997  137.7522  155.9432 H   0  0  0  0  0  0  0  0  0  0  0  0
  150.7204  136.9108  155.8525 H   0  0  0  0  0  0  0  0  0  0  0  0
  150.7381  137.8081  153.3501 H   0  0  0  0  0  0  0  0  0  0  0  0
  149.5724  139.8149  152.8620 H   0  0  0  0  0  0  0  0  0  0  0  0
  148.3591  138.7349  153.5102 H   0  0  0  0  0  0  0  0  0  0  0  0
  148.1939  141.7058  153.4813 H   0  0  0  0  0  0  0  0  0  0  0  0
  146.9676  140.8887  154.4548 H   0  0  0  0  0  0  0  0  0  0  0  0
  148.0767  143.3707  155.1192 H   0  0  0  0  0  0  0  0  0  0  0  0
  147.4414  142.2685  156.3406 H   0  0  0  0  0  0  0  0  0  0  0  0
  150.2264  143.0067  156.0704 H   0  0  0  0  0  0  0  0  0  0  0  0
  149.5468  141.7593  157.1205 H   0  0  0  0  0  0  0  0  0  0  0  0
  150.5300  141.5017  154.2720 H   0  0  0  0  0  0  0  0  0  0  0  0
  152.1151  140.6372  155.9571 H   0  0  0  0  0  0  0  0  0  0  0  0
  150.8724  139.6118  156.6485 H   0  0  0  0  0  0  0  0  0  0  0  0
  148.2374  134.5503  153.2833 H   0  0  0  0  0  0  0  0  0  0  0  0
  149.2690  132.4760  156.1348 H   0  0  0  0  0  0  0  0  0  0  0  0
  148.5699  130.1150  156.4197 H   0  0  0  0  0  0  0  0  0  0  0  0
  146.8205  129.1564  154.8144 H   0  0  0  0  0  0  0  0  0  0  0  0
  147.5920  132.9763  150.7303 H   0  0  0  0  0  0  0  0  0  0  0  0
  147.0741  131.3691  151.2369 H   0  0  0  0  0  0  0  0  0  0  0  0
  145.4965  133.4902  149.7875 H   0  0  0  0  0  0  0  0  0  0  0  0
  145.4356  131.7431  149.5479 H   0  0  0  0  0  0  0  0  0  0  0  0
  143.4539  132.9334  150.9621 H   0  0  0  0  0  0  0  0  0  0  0  0
  144.1663  131.4463  151.5980 H   0  0  0  0  0  0  0  0  0  0  0  0
  144.4767  132.9726  153.4442 H   0  0  0  0  0  0  0  0  0  0  0  0
  144.8638  134.3002  152.3723 H   0  0  0  0  0  0  0  0  0  0  0  0
  145.9675  130.5150  153.1587 H   0  0  0  0  0  0  0  0  0  0  0  0
  1  2  2  0  0  0  0
  2  3  1  0  0  0  0
  2 14  1  0  0  0  0
  3  4  1  0  0  0  0
  3 26  1  0  0  0  0
  4  5  1  0  0  0  0
  4 27  1  0  0  0  0
  4 28  1  0  0  0  0
  5 13  1  0  0  0  0
  5  6  1  0  0  0  0
  5 29  1  0  0  0  0
  6  7  1  0  0  0  0
  6 30  1  0  0  0  0
  6 31  1  0  0  0  0
  7 11  1  0  0  0  0
  7  8  1  0  0  0  0
  8  9  1  0  0  0  0
  8 32  1  0  0  0  0
  8 33  1  0  0  0  0
  9 10  1  0  0  0  0
  9 34  1  0  0  0  0
  9 35  1  0  0  0  0
 10 11  1  0  0  0  0
 10 36  1  0  0  0  0
 10 37  1  0  0  0  0
 11 12  1  0  0  0  0
 11 38  1  0  0  0  0
 12 13  1  0  0  0  0
 12 39  1  0  0  0  0
 12 40  1  0  0  0  0
 14 15  1  0  0  0  0
 14 41  1  0  0  0  0
 15 20  1  0  0  0  0
 15 16  2  0  0  0  0
 16 17  1  0  0  0  0
 16 42  1  0  0  0  0
 17 18  2  0  0  0  0
 17 43  1  0  0  0  0
 18 19  1  0  0  0  0
 18 44  1  0  0  0  0
 19 20  2  0  0  0  0
 19 53  1  0  0  0  0
 20 21  1  0  0  0  0
 21 25  1  0  0  0  0
 21 22  1  0  0  0  0
 22 23  1  0  0  0  0
 22 45  1  0  0  0  0
 22 46  1  0  0  0  0
 23 24  1  0  0  0  0
 23 47  1  0  0  0  0
 23 48  1  0  0  0  0
 24 25  1  0  0  0  0
 24 49  1  0  0  0  0
 24 50  1  0  0  0  0
 25 51  1  0  0  0  0
 25 52  1  0  0  0  0
M  CHG  1  19   1
M  END
> <s_m_source_file>
AV-unprocessed.smi

> <i_m_source_file_index>
1830

> <i_lp_mmshare_version>
43012

> <i_f3d_flags>
0

> <s_epik_input>
W0NIMl0xW0NIMl1bQ0gyXVtDQEhdKE4xMilbQ0gyXU9bQ0BASF0oW0NIMl0yKVtDSDJdW05IXUMoPU8pW05IXWMzW2NIXVtjSF1bY0hdbmMzTjRbQ0gyXVtDSDJdW0NIMl1bQ0gyXTQ=

> <s_epik_cmdline>
J2VwaWtfcHl0aG9uJywgJy1waCcsICc3LjAnLCAnLXRuJywgJzgnLCAnLW1hJywgJzIwMCcsICctbWV0YWxfYmluZGluZycsICctaW1hZScsICc8aW5maWxlLm1hZT4nLCAnLW9tYWUnLCAnPG91dGZpbGUubWFlPic=

> <r_epik_Ionization_Penalty>
2.19264

> <r_epik_Ionization_Penalty_Charging>
1.12452

> <r_epik_Ionization_Penalty_Neutral>
1.06812

> <r_epik_State_Penalty>
2.334

> <r_epik_Charging_Adjusted_Penalty>
3.45852

> <i_epik_Tot_Q>
1

> <i_epik_Tot_abs_Q>
1

> <r_epik_Metal_State_Penalty>
2.41144

> <b_epik_Metal_Only>
0

> <s_lp_Force_Field>
OPLS_2005

> <r_lp_Energy>
84.2953

> <b_lp_Chiralities_Consistent>
1

> <s_lp_Variant>
AV-unprocessed.smi:1830-22

> <Gold.Version>
5.8.1

> <Gold.Id.Protein>
6NUR|6NUR_protein|mol2

> <Gold.PLP.Fitness>
49.5051

> <Gold.PLP.PLP>
-42.2390

> <Gold.PLP.part.hbond>
-4.1786

> <Gold.PLP.part.metal>
0.0000

> <Gold.PLP.part.buried>
-4.3075

> <Gold.PLP.part.nonpolar>
-34.2202

> <Gold.PLP.part.repulsive>
0.3317

> <Gold.PLP.ligand.clash>
0.0000

> <Gold.PLP.ligand.torsion>
0.4689

> <Gold.PLP.Chemscore.Hbond>
2.6800

> <Gold.PLP.Chemscore.CHOScore>
0.0000

> <Gold.PLP.Chemscore.Metal>
0.0000

> <Gold.Chemscore.Hbonds>
donor molecule, donor type, donor heavy atom, donor atom, acceptor molecule, acceptor atom, score
      L1  H     3    26       P1  7948  1.00
      L1  H    14    41       P1  7948  0.33
      P1  H  7989  7998       L1    13  0.03

> <Gold.PLP.Chemscore.Internal.Correction>
0.1640

> <Gold.Rescore>
     Score         DG    S(hbond)    S(metal)    S(lipo)     H(rot)  DE(clash)    DE(int)     intcor
     16.20     -18.01       1.50        0.00      94.86       1.40       0.12       1.69       ----

> <Gold.Chemscore.Fitness>
16.2005

> <Gold.Chemscore.DG>
-18.0139

> <Gold.Chemscore.ZeroCoef>
-5.4800

> <Gold.Chemscore.Hbond>
1.4995

> <Gold.Chemscore.Metal>
0.0000

> <Gold.Chemscore.Lipo>
94.8650

> <Gold.Chemscore.Internal_Hbond>
0.0000

> <Gold.Chemscore.DEClash>
0.1244

> <Gold.Chemscore.DEInternal>
1.6890

> <Gold.Chemscore.Rot>
1.3959

> <Gold.Chemscore.Internal.Correction>
   9.000000E+99

> <Gold.Chemscore.Hbonds>
donor molecule, donor type, donor heavy atom, donor atom, acceptor molecule, acceptor atom, score
      L1  H     3    26       P1  7948  0.98
      L1  H    14    41       P1  7948  0.21

> <Gold.Chemscore.Hbond.Weighted>
-5.0083

> <Gold.Chemscore.Metal.Weighted>
-0.0000

> <Gold.Chemscore.Lipo.Weighted>
-11.0992

> <Gold.Chemscore.Internal_Hbond.Weighted>
0.0000

> <Gold.Chemscore.DEClash.Weighted>
0.1244

> <Gold.Chemscore.DEInternal.Weighted>
1.6890

> <Gold.Chemscore.Rot.Weighted>
3.5736

> <Gold.Chemscore.Internal.Correction.Weighted>
   9.000000E+99

> <Gold.Protein.RotatedTorsions>
[ 6907 6896 6895 6894 ] final  111.98 input  -60.11 | X-H torsion
[ 7974 7965 7964 7962 ] final   47.54 input  175.53 | X-H torsion
[ 8008 7997 7996 7995 ] final  132.27 input   59.86 | X-H torsion
[ 10167 10162 10161 10158 ] final -171.12 input  -65.29 | X-H torsion
[ 10718 10713 10712 10709 ] final -150.73 input   66.30 | X-H torsion
[ 10763 10752 10751 10750 ] final  122.83 input  -60.55 | X-H torsion
[ 11005 11000 10999 10996 ] final  129.64 input  -57.11 | X-H torsion

> <Gold.Protein.ActiveResidues>
 VAL166  LYS551  ARG553  GLY616  TRP617  ASP618  TYR619  PRO620  LYS621  CYS622 
 ASP623  PHE694  ASN695  SER759  ASP760  ASP761  ALA762  ILE779  LEU786  VAL792 
 PHE793  MET794  SER795  GLU796  ALA797  LYS798  CYS799  TRP800  GLU811  SER814 

> <Gold.Protein.RotatedAtoms>
  152.4941  133.8581  159.7235 H   0  0  0  0  0  0  0  0  0  0  0  0  # atno 6907 bound_to 6896
  150.9100  133.7001  159.2864 H   0  0  0  0  0  0  0  0  0  0  0  0  # atno 6908 bound_to 6896
  151.4413  135.1024  159.9723 H   0  0  0  0  0  0  0  0  0  0  0  0  # atno 6909 bound_to 6896
  146.0288  139.4739  142.9850 H   0  0  0  0  0  0  0  0  0  0  0  0  # atno 7974 bound_to 7965
  156.2980  140.2550  156.3062 H   0  0  0  0  0  0  0  0  0  0  0  0  # atno 8008 bound_to 7997
  154.9370  140.0397  157.2096 H   0  0  0  0  0  0  0  0  0  0  0  0  # atno 8009 bound_to 7997
  154.8163  140.2853  155.5822 H   0  0  0  0  0  0  0  0  0  0  0  0  # atno 8010 bound_to 7997
  139.5821  144.1400  152.1528 H   0  0  0  0  0  0  0  0  0  0  0  0  # atno 10167 bound_to 10162
  156.4500  130.8163  151.2394 H   0  0  0  0  0  0  0  0  0  0  0  0  # atno 10718 bound_to 10713
  153.6359  135.3388  155.3056 H   0  0  0  0  0  0  0  0  0  0  0  0  # atno 10763 bound_to 10752
  154.8570  135.4306  154.2056 H   0  0  0  0  0  0  0  0  0  0  0  0  # atno 10764 bound_to 10752
  153.2963  135.7021  153.7318 H   0  0  0  0  0  0  0  0  0  0  0  0  # atno 10765 bound_to 10752
  139.9627  134.9598  156.9177 H   0  0  0  0  0  0  0  0  0  0  0  0  # atno 11005 bound_to 11000
  145.7074  141.0117  143.1472 LP  0  0  0  0  0  0  0  0  0  0  0  0  # atno 17320 bound_to 7965
  144.7021  139.8716  143.7441 LP  0  0  0  0  0  0  0  0  0  0  0  0  # atno 17321 bound_to 7965
  140.0956  144.5584  150.7024 LP  0  0  0  0  0  0  0  0  0  0  0  0  # atno 17342 bound_to 10162
  140.7098  143.2496  151.4617 LP  0  0  0  0  0  0  0  0  0  0  0  0  # atno 17343 bound_to 10162
  157.7503  131.0141  150.3450 LP  0  0  0  0  0  0  0  0  0  0  0  0  # atno 17370 bound_to 10713
  156.3826  130.3883  149.7090 LP  0  0  0  0  0  0  0  0  0  0  0  0  # atno 17371 bound_to 10713
  140.5465  134.0668  155.7356 LP  0  0  0  0  0  0  0  0  0  0  0  0  # atno 17394 bound_to 11000
  141.1305  133.9311  157.2546 LP  0  0  0  0  0  0  0  0  0  0  0  0  # atno 17395 bound_to 11000

$$$$
