AV-unprocessed.smi:197|AV-procd|sdf|1551|dock9
  -GOLD-   2262019423D 1   1.00000     0.00000
 Structure written by MMmdl.
 54 57  0  0  0  0  0  0  0  0  1 V2000
  149.3916  141.2783  154.7655 C   0  0  0  0  0  0  0  0  0  0  0  0
  150.0490  140.1541  154.2011 O   0  0  0  0  0  0  0  0  0  0  0  0
  150.4379  139.1688  155.1483 C   0  0  0  0  0  0  0  0  0  0  0  0
  150.5505  137.7730  154.5075 C   0  0  0  0  0  0  0  0  0  0  0  0
  150.8292  136.6402  155.5261 C   0  0  1  0  0  0  0  0  0  0  0  0
  152.0207  136.9467  156.4600 C   0  0  0  0  0  0  0  0  0  0  0  0
  151.6860  138.0053  157.3523 O   0  0  0  0  0  0  0  0  0  0  0  0
  150.6004  137.6586  158.2052 C   0  0  0  0  0  0  0  0  0  0  0  0
  149.3508  137.3598  157.3618 C   0  0  0  0  0  0  0  0  0  0  0  0
  149.6553  136.3446  156.3540 N   0  0  0  0  0  0  0  0  0  0  0  0
  148.6156  135.7215  155.7375 C   0  0  0  0  0  0  0  0  0  0  0  0
  147.3625  136.2399  155.8456 N   0  0  0  0  0  0  0  0  0  0  0  0
  146.3318  135.6575  155.2271 C   0  0  0  0  0  0  0  0  0  0  0  0
  146.3280  134.5655  154.4615 N   0  0  0  0  0  0  0  0  0  0  0  0
  147.5787  134.0330  154.3543 C   0  0  0  0  0  0  0  0  0  0  0  0
  148.7659  134.5389  154.9571 C   0  0  0  0  0  0  0  0  0  0  0  0
  149.8405  133.7166  154.6376 N   0  0  0  0  0  0  0  0  0  0  0  0
  149.3227  132.7907  153.8782 C   0  0  0  0  0  0  0  0  0  0  0  0
  147.9709  132.9088  153.6490 N   0  0  0  0  0  0  0  0  0  0  0  0
  147.1454  132.0236  152.8417 C   0  0  0  0  0  0  0  0  0  0  0  0
  146.5990  132.6961  151.5550 C   0  0  2  0  0  0  0  0  0  0  0  0
  147.7055  132.9997  150.7212 O   0  0  0  0  0  0  0  0  0  0  0  0
  145.8403  133.9934  151.8150 C   0  0  0  0  0  0  0  0  0  0  0  0
  144.8860  134.0713  150.6333 C   0  0  0  0  0  0  0  0  0  0  0  0
  144.4782  132.7237  150.4765 O   0  0  0  0  0  0  0  0  0  0  0  0
  145.5913  131.8639  150.7126 C   0  0  2  0  0  0  0  0  0  0  0  0
  145.0466  130.5806  151.3595 C   0  0  0  0  0  0  0  0  0  0  0  0
  149.0774  141.9507  153.9675 H   0  0  0  0  0  0  0  0  0  0  0  0
  150.0437  141.8421  155.4319 H   0  0  0  0  0  0  0  0  0  0  0  0
  148.5005  140.9786  155.3184 H   0  0  0  0  0  0  0  0  0  0  0  0
  151.3690  139.4525  155.6415 H   0  0  0  0  0  0  0  0  0  0  0  0
  149.6703  139.1579  155.9210 H   0  0  0  0  0  0  0  0  0  0  0  0
  149.6427  137.5588  153.9427 H   0  0  0  0  0  0  0  0  0  0  0  0
  151.3587  137.7927  153.7778 H   0  0  0  0  0  0  0  0  0  0  0  0
  151.0965  135.7514  154.9581 H   0  0  0  0  0  0  0  0  0  0  0  0
  152.2906  136.0582  157.0336 H   0  0  0  0  0  0  0  0  0  0  0  0
  152.9095  137.2230  155.8948 H   0  0  0  0  0  0  0  0  0  0  0  0
  150.8685  136.7967  158.8185 H   0  0  0  0  0  0  0  0  0  0  0  0
  150.4043  138.4858  158.8874 H   0  0  0  0  0  0  0  0  0  0  0  0
  148.5488  137.0148  158.0160 H   0  0  0  0  0  0  0  0  0  0  0  0
  149.0008  138.2699  156.8731 H   0  0  0  0  0  0  0  0  0  0  0  0
  145.3735  136.1367  155.3635 H   0  0  0  0  0  0  0  0  0  0  0  0
  149.9168  131.9927  153.4567 H   0  0  0  0  0  0  0  0  0  0  0  0
  147.7390  131.1442  152.5885 H   0  0  0  0  0  0  0  0  0  0  0  0
  146.3259  131.6726  153.4692 H   0  0  0  0  0  0  0  0  0  0  0  0
  148.2475  132.2286  150.6522 H   0  0  0  0  0  0  0  0  0  0  0  0
  145.2549  133.9077  152.7310 H   0  0  0  0  0  0  0  0  0  0  0  0
  146.4819  134.8705  151.9108 H   0  0  0  0  0  0  0  0  0  0  0  0
  144.0371  134.7298  150.8172 H   0  0  0  0  0  0  0  0  0  0  0  0
  145.3997  134.4091  149.7321 H   0  0  0  0  0  0  0  0  0  0  0  0
  146.0253  131.6035  149.7451 H   0  0  0  0  0  0  0  0  0  0  0  0
  145.8438  129.8648  151.5606 H   0  0  0  0  0  0  0  0  0  0  0  0
  144.3307  130.0919  150.6981 H   0  0  0  0  0  0  0  0  0  0  0  0
  144.5316  130.7923  152.2968 H   0  0  0  0  0  0  0  0  0  0  0  0
  1  2  1  0  0  0  0
  1 28  1  0  0  0  0
  1 29  1  0  0  0  0
  1 30  1  0  0  0  0
  2  3  1  0  0  0  0
  3  4  1  0  0  0  0
  3 31  1  0  0  0  0
  3 32  1  0  0  0  0
  4  5  1  0  0  0  0
  4 33  1  0  0  0  0
  4 34  1  0  0  0  0
  5 10  1  0  0  0  0
  5  6  1  0  0  0  0
  5 35  1  0  0  0  0
  6  7  1  0  0  0  0
  6 36  1  0  0  0  0
  6 37  1  0  0  0  0
  7  8  1  0  0  0  0
  8  9  1  0  0  0  0
  8 38  1  0  0  0  0
  8 39  1  0  0  0  0
  9 10  1  0  0  0  0
  9 40  1  0  0  0  0
  9 41  1  0  0  0  0
 10 11  1  0  0  0  0
 11 16  1  0  0  0  0
 11 12  2  0  0  0  0
 12 13  1  0  0  0  0
 13 14  2  0  0  0  0
 13 42  1  0  0  0  0
 14 15  1  0  0  0  0
 15 19  1  0  0  0  0
 15 16  2  0  0  0  0
 16 17  1  0  0  0  0
 17 18  2  0  0  0  0
 18 19  1  0  0  0  0
 18 43  1  0  0  0  0
 19 20  1  0  0  0  0
 20 21  1  0  0  0  0
 20 44  1  0  0  0  0
 20 45  1  0  0  0  0
 21 26  1  0  0  0  0
 21 22  1  0  0  0  0
 21 23  1  0  0  0  0
 22 46  1  0  0  0  0
 23 24  1  0  0  0  0
 23 47  1  0  0  0  0
 23 48  1  0  0  0  0
 24 25  1  0  0  0  0
 24 49  1  0  0  0  0
 24 50  1  0  0  0  0
 25 26  1  0  0  0  0
 26 27  1  0  0  0  0
 26 51  1  0  0  0  0
 27 52  1  0  0  0  0
 27 53  1  0  0  0  0
 27 54  1  0  0  0  0
M  END
> <s_m_source_file>
AV-unprocessed.smi

> <i_m_source_file_index>
197

> <i_lp_mmshare_version>
43012

> <i_f3d_flags>
0

> <s_epik_input>
W0NIM11PW0NIMl1bQ0gyXVtDQEBIXTFbQ0gyXU9bQ0gyXVtDSDJdTjFjKG5bY0hdbjIpYyhjMjMpbltjSF1uM1tDSDJdW0NAQF00KFtPSF0pW0NIMl1bQ0gyXU9bQ0BIXTRbQ0gzXQ==

> <s_epik_cmdline>
J2VwaWtfcHl0aG9uJywgJy1waCcsICc3LjAnLCAnLXRuJywgJzgnLCAnLW1hJywgJzIwMCcsICctbWV0YWxfYmluZGluZycsICctaW1hZScsICc8aW5maWxlLm1hZT4nLCAnLW9tYWUnLCAnPG91dGZpbGUubWFlPic=

> <r_lp_tautomer_probability>
1

> <r_epik_Ionization_Penalty>
0.000106218

> <r_epik_Ionization_Penalty_Charging>
0

> <r_epik_Ionization_Penalty_Neutral>
0.000106218

> <r_epik_State_Penalty>
-0

> <r_epik_Charging_Adjusted_Penalty>
0

> <i_epik_Tot_Q>
0

> <i_epik_Tot_abs_Q>
0

> <r_epik_Metal_State_Penalty>
-0

> <b_epik_Metal_Only>
0

> <s_lp_Force_Field>
OPLS_2005

> <r_lp_Energy>
41.9523

> <b_lp_Chiralities_Consistent>
1

> <s_lp_Variant>
AV-unprocessed.smi:197-8

> <Gold.Version>
5.8.1

> <Gold.Id.Protein>
6NUR|6NUR_protein|mol2

> <Gold.PLP.Fitness>
39.6082

> <Gold.PLP.PLP>
-34.2074

> <Gold.PLP.part.hbond>
-2.1627

> <Gold.PLP.part.metal>
0.0000

> <Gold.PLP.part.buried>
-2.8866

> <Gold.PLP.part.nonpolar>
-29.8758

> <Gold.PLP.part.repulsive>
0.9144

> <Gold.PLP.ligand.clash>
0.0000

> <Gold.PLP.ligand.torsion>
0.5282

> <Gold.PLP.Chemscore.Hbond>
1.9760

> <Gold.PLP.Chemscore.CHOScore>
0.0000

> <Gold.PLP.Chemscore.Metal>
0.0000

> <Gold.Chemscore.Hbonds>
donor molecule, donor type, donor heavy atom, donor atom, acceptor molecule, acceptor atom, score
      L1  H    22    46       P1 10747  1.00
      P1  H  7989  7998       L1     2  0.94

> <Gold.PLP.Chemscore.Internal.Correction>
0.5293

> <Gold.Rescore>
     Score         DG    S(hbond)    S(metal)    S(lipo)     H(rot)  DE(clash)    DE(int)     intcor
      8.04     -13.66       1.78        0.00      81.20       2.84       1.32       4.30       ----

> <Gold.Chemscore.Fitness>
8.0430

> <Gold.Chemscore.DG>
-13.6625

> <Gold.Chemscore.ZeroCoef>
-5.4800

> <Gold.Chemscore.Hbond>
1.7790

> <Gold.Chemscore.Metal>
0.0000

> <Gold.Chemscore.Lipo>
81.1989

> <Gold.Chemscore.Internal_Hbond>
0.0000

> <Gold.Chemscore.DEClash>
1.3195

> <Gold.Chemscore.DEInternal>
4.3000

> <Gold.Chemscore.Rot>
2.8358

> <Gold.Chemscore.Internal.Correction>
   9.000000E+99

> <Gold.Chemscore.Hbonds>
donor molecule, donor type, donor heavy atom, donor atom, acceptor molecule, acceptor atom, score
      L1  H    22    46       P1 10747  0.98
      P1  H  7989  7998       L1     2  0.25

> <Gold.Chemscore.Hbond.Weighted>
-5.9418

> <Gold.Chemscore.Metal.Weighted>
-0.0000

> <Gold.Chemscore.Lipo.Weighted>
-9.5003

> <Gold.Chemscore.Internal_Hbond.Weighted>
0.0000

> <Gold.Chemscore.DEClash.Weighted>
1.3195

> <Gold.Chemscore.DEInternal.Weighted>
4.3000

> <Gold.Chemscore.Rot.Weighted>
7.2596

> <Gold.Chemscore.Internal.Correction.Weighted>
   9.000000E+99

> <Gold.Protein.RotatedTorsions>
[ 6907 6896 6895 6894 ] final   42.77 input  -60.11 | X-H torsion
[ 7974 7965 7964 7962 ] final -164.17 input  175.53 | X-H torsion
[ 8008 7997 7996 7995 ] final   65.05 input   59.86 | X-H torsion
[ 10167 10162 10161 10158 ] final   91.00 input  -65.29 | X-H torsion
[ 10718 10713 10712 10709 ] final   -7.74 input   66.30 | X-H torsion
[ 10763 10752 10751 10750 ] final   16.43 input  -60.55 | X-H torsion
[ 11005 11000 10999 10996 ] final  176.95 input  -57.11 | X-H torsion

> <Gold.Protein.ActiveResidues>
 VAL166  LYS551  ARG553  GLY616  TRP617  ASP618  TYR619  PRO620  LYS621  CYS622 
 ASP623  PHE694  ASN695  SER759  ASP760  ASP761  ALA762  ILE779  LEU786  VAL792 
 PHE793  MET794  SER795  GLU796  ALA797  LYS798  CYS799  TRP800  GLU811  SER814 

> <Gold.Protein.RotatedAtoms>
  152.2120  134.8493  160.0496 H   0  0  0  0  0  0  0  0  0  0  0  0  # atno 6907 bound_to 6896
  151.9308  133.3605  159.3938 H   0  0  0  0  0  0  0  0  0  0  0  0  # atno 6908 bound_to 6896
  150.6978  134.4464  159.5360 H   0  0  0  0  0  0  0  0  0  0  0  0  # atno 6909 bound_to 6896
  144.7304  140.3000  143.6206 H   0  0  0  0  0  0  0  0  0  0  0  0  # atno 7974 bound_to 7965
  155.6557  140.3497  155.4764 H   0  0  0  0  0  0  0  0  0  0  0  0  # atno 8008 bound_to 7997
  155.9811  140.1174  157.0749 H   0  0  0  0  0  0  0  0  0  0  0  0  # atno 8009 bound_to 7997
  154.4192  140.1138  156.5422 H   0  0  0  0  0  0  0  0  0  0  0  0  # atno 8010 bound_to 7997
  139.8417  144.6637  150.9275 H   0  0  0  0  0  0  0  0  0  0  0  0  # atno 10167 bound_to 10162
  156.7128  130.5127  149.5887 H   0  0  0  0  0  0  0  0  0  0  0  0  # atno 10718 bound_to 10713
  153.1431  135.6764  153.8996 H   0  0  0  0  0  0  0  0  0  0  0  0  # atno 10763 bound_to 10752
  153.8446  135.3101  155.3429 H   0  0  0  0  0  0  0  0  0  0  0  0  # atno 10764 bound_to 10752
  154.7803  135.4892  153.9916 H   0  0  0  0  0  0  0  0  0  0  0  0  # atno 10765 bound_to 10752
  140.3787  134.6966  157.4437 H   0  0  0  0  0  0  0  0  0  0  0  0  # atno 11005 bound_to 11000
  145.7770  139.1877  143.2180 LP  0  0  0  0  0  0  0  0  0  0  0  0  # atno 17320 bound_to 7965
  146.0865  140.7705  142.9616 LP  0  0  0  0  0  0  0  0  0  0  0  0  # atno 17321 bound_to 7965
  140.7797  143.3906  151.1316 LP  0  0  0  0  0  0  0  0  0  0  0  0  # atno 17342 bound_to 10162
  139.7552  143.8718  152.3087 LP  0  0  0  0  0  0  0  0  0  0  0  0  # atno 17343 bound_to 10162
  156.1649  130.6398  151.0765 LP  0  0  0  0  0  0  0  0  0  0  0  0  # atno 17370 bound_to 10713
  157.6929  131.0804  150.7054 LP  0  0  0  0  0  0  0  0  0  0  0  0  # atno 17371 bound_to 10713
  140.0495  134.6151  155.8879 LP  0  0  0  0  0  0  0  0  0  0  0  0  # atno 17394 bound_to 11000
  141.1931  133.6577  156.5531 LP  0  0  0  0  0  0  0  0  0  0  0  0  # atno 17395 bound_to 11000

$$$$
