AV-unprocessed.smi:837|AV-procd|sdf|3900|dock1
  -GOLD-   22720 1363D 1   1.00000     0.00000
 Structure written by MMmdl.
 48 50  0  0  0  0  0  0  0  0  2 V2000
  150.3317  142.0444  157.4382 C   0  0  0  0  0  0  0  0  0  0  0  0
  151.2017  141.2320  158.4223 C   0  0  2  0  0  0  0  0  0  0  0  0
  152.3646  142.0908  158.9648 C   0  0  0  0  0  0  0  0  0  0  0  0
  153.1752  141.3437  160.0343 C   0  0  0  0  0  0  0  0  0  0  0  0
  153.7062  140.0084  159.4964 C   0  0  0  0  0  0  0  0  0  0  0  0
  152.5648  139.1318  158.9516 C   0  0  0  0  0  0  0  0  0  0  0  0
  151.7136  139.8583  157.8776 C   0  0  2  0  0  0  0  0  0  0  0  0
  152.4807  140.0153  156.6516 N   0  5  0  0  0  0  0  0  0  0  0  0
  151.8745  139.3204  155.6616 C   0  0  0  0  0  0  0  0  0  0  0  0
  152.2424  139.2375  154.4902 O   0  0  0  0  0  0  0  0  0  0  0  0
  150.7679  138.6997  156.1129 N   0  0  0  0  0  0  0  0  0  0  0  0
  149.8677  137.8861  155.2849 C   0  0  0  0  0  0  0  0  0  0  0  0
  149.8100  136.4202  155.7346 C   0  0  0  0  0  0  0  0  0  0  0  0
  149.9723  136.1175  156.9174 O   0  0  0  0  0  0  0  0  0  0  0  0
  149.6036  135.5143  154.7671 N   0  0  0  0  0  0  0  0  0  0  0  0
  149.5297  134.0714  154.9728 C   0  0  0  0  0  0  0  0  0  0  0  0
  149.2124  133.3076  153.6737 C   0  0  0  0  0  0  0  0  0  0  0  0
  147.8262  133.6030  153.1277 C   0  0  0  0  0  0  0  0  0  0  0  0
  146.9497  134.4768  153.8040 C   0  0  0  0  0  0  0  0  0  0  0  0
  145.6725  134.7113  153.2591 C   0  0  0  0  0  0  0  0  0  0  0  0
  145.3254  134.0598  152.0587 C   0  0  0  0  0  0  0  0  0  0  0  0
  146.1563  133.2209  151.4032 N   0  0  0  0  0  0  0  0  0  0  0  0
  147.3797  133.0029  151.9312 C   0  0  0  0  0  0  0  0  0  0  0  0
  150.5788  138.9562  157.4120 C   0  0  0  0  0  0  0  0  0  0  0  0
  149.6601  138.5587  158.1301 O   0  0  0  0  0  0  0  0  0  0  0  0
  150.8882  142.3194  156.5420 H   0  0  0  0  0  0  0  0  0  0  0  0
  149.9822  142.9674  157.9009 H   0  0  0  0  0  0  0  0  0  0  0  0
  149.4468  141.4912  157.1238 H   0  0  0  0  0  0  0  0  0  0  0  0
  150.5600  141.0134  159.2778 H   0  0  0  0  0  0  0  0  0  0  0  0
  153.0225  142.3850  158.1458 H   0  0  0  0  0  0  0  0  0  0  0  0
  151.9765  143.0164  159.3906 H   0  0  0  0  0  0  0  0  0  0  0  0
  154.0058  141.9646  160.3705 H   0  0  0  0  0  0  0  0  0  0  0  0
  152.5490  141.1634  160.9088 H   0  0  0  0  0  0  0  0  0  0  0  0
  154.4364  140.1955  158.7083 H   0  0  0  0  0  0  0  0  0  0  0  0
  154.2372  139.4757  160.2855 H   0  0  0  0  0  0  0  0  0  0  0  0
  152.9769  138.2024  158.5542 H   0  0  0  0  0  0  0  0  0  0  0  0
  151.9257  138.8412  159.7871 H   0  0  0  0  0  0  0  0  0  0  0  0
  148.8662  138.3198  155.2997 H   0  0  0  0  0  0  0  0  0  0  0  0
  150.1841  137.9105  154.2410 H   0  0  0  0  0  0  0  0  0  0  0  0
  149.4875  135.8487  153.8216 H   0  0  0  0  0  0  0  0  0  0  0  0
  150.4580  133.7034  155.4124 H   0  0  0  0  0  0  0  0  0  0  0  0
  148.7474  133.8827  155.7084 H   0  0  0  0  0  0  0  0  0  0  0  0
  149.9553  133.5492  152.9122 H   0  0  0  0  0  0  0  0  0  0  0  0
  149.2991  132.2348  153.8492 H   0  0  0  0  0  0  0  0  0  0  0  0
  147.2474  134.9560  154.7253 H   0  0  0  0  0  0  0  0  0  0  0  0
  144.9748  135.3734  153.7500 H   0  0  0  0  0  0  0  0  0  0  0  0
  144.3537  134.2157  151.6141 H   0  0  0  0  0  0  0  0  0  0  0  0
  148.0199  132.3257  151.3852 H   0  0  0  0  0  0  0  0  0  0  0  0
  1  2  1  0  0  0  0
  1 26  1  0  0  0  0
  1 27  1  0  0  0  0
  1 28  1  0  0  0  0
  2  7  1  0  0  0  0
  2  3  1  0  0  0  0
  2 29  1  0  0  0  0
  3  4  1  0  0  0  0
  3 30  1  0  0  0  0
  3 31  1  0  0  0  0
  4  5  1  0  0  0  0
  4 32  1  0  0  0  0
  4 33  1  0  0  0  0
  5  6  1  0  0  0  0
  5 34  1  0  0  0  0
  5 35  1  0  0  0  0
  6  7  1  0  0  0  0
  6 36  1  0  0  0  0
  6 37  1  0  0  0  0
  7 24  1  0  0  0  0
  7  8  1  0  0  0  0
  8  9  1  0  0  0  0
  9 10  2  0  0  0  0
  9 11  1  0  0  0  0
 11 12  1  0  0  0  0
 11 24  1  0  0  0  0
 12 13  1  0  0  0  0
 12 38  1  0  0  0  0
 12 39  1  0  0  0  0
 13 14  2  0  0  0  0
 13 15  1  0  0  0  0
 15 16  1  0  0  0  0
 15 40  1  0  0  0  0
 16 17  1  0  0  0  0
 16 41  1  0  0  0  0
 16 42  1  0  0  0  0
 17 18  1  0  0  0  0
 17 43  1  0  0  0  0
 17 44  1  0  0  0  0
 18 23  1  0  0  0  0
 18 19  2  0  0  0  0
 19 20  1  0  0  0  0
 19 45  1  0  0  0  0
 20 21  2  0  0  0  0
 20 46  1  0  0  0  0
 21 22  1  0  0  0  0
 21 47  1  0  0  0  0
 22 23  2  0  0  0  0
 23 48  1  0  0  0  0
 24 25  2  0  0  0  0
M  CHG  1   8  -1
M  END
> <s_m_source_file>
AV-unprocessed.smi

> <i_m_source_file_index>
837

> <i_lp_mmshare_version>
43012

> <i_f3d_flags>
0

> <s_epik_input>
W0NIMl0xW0NIMl1bQ0gyXVtDSDJdW0NAQEhdKFtDSDNdKVtDQEBdMTJbTkhdQyg9TylOKEMyPU8pW0NIMl1DKD1PKVtOSF1bQ0gyXVtDSDJdYzNbY0hdW2NIXVtjSF1uW2NIXTM=

> <s_epik_cmdline>
J2VwaWtfcHl0aG9uJywgJy1waCcsICc3LjAnLCAnLXRuJywgJzgnLCAnLW1hJywgJzIwMCcsICctbWV0YWxfYmluZGluZycsICctaW1hZScsICc8aW5maWxlLm1hZT4nLCAnLW9tYWUnLCAnPG91dGZpbGUubWFlPic=

> <r_lp_tautomer_probability>
1

> <r_epik_Ionization_Penalty>
6.03002

> <r_epik_Ionization_Penalty_Charging>
6.01728

> <r_epik_Ionization_Penalty_Neutral>
0.0127382

> <r_epik_State_Penalty>
6.02713

> <r_epik_Charging_Adjusted_Penalty>
12.0444

> <i_epik_Tot_Q>
-1

> <i_epik_Tot_abs_Q>
1

> <r_epik_Metal_State_Penalty>
1.99078

> <b_epik_Metal_Only>
1

> <s_lp_Force_Field>
OPLS_2005

> <r_lp_Energy>
20.4671

> <b_lp_Chiralities_Consistent>
1

> <s_lp_Variant>
AV-unprocessed.smi:837-9

> <Gold.Version>
5.8.1

> <Gold.Id.Protein>
6NUR|6NUR_protein|mol2

> <Gold.PLP.Fitness>
49.1493

> <Gold.PLP.PLP>
-35.6296

> <Gold.PLP.part.hbond>
-2.9892

> <Gold.PLP.part.metal>
0.0000

> <Gold.PLP.part.buried>
-2.3019

> <Gold.PLP.part.nonpolar>
-30.4099

> <Gold.PLP.part.repulsive>
0.2702

> <Gold.PLP.ligand.clash>
0.0000

> <Gold.PLP.ligand.torsion>
0.4029

> <Gold.PLP.Chemscore.Hbond>
3.7593

> <Gold.PLP.Chemscore.CHOScore>
1.0000

> <Gold.PLP.Chemscore.Metal>
0.0000

> <Gold.Chemscore.Hbonds>
donor molecule, donor type, donor heavy atom, donor atom, acceptor molecule, acceptor atom, score
      L1  H    15    40       P1  7948  0.99
      P1  H  7989  7998       L1    10  0.75
      P1  H  7997  8010       L1     8  2.00
      L1  C    23    48       P1 10747  1.00

> <Gold.PLP.Chemscore.Internal.Correction>
0.0479

> <Gold.Rescore>
     Score         DG    S(hbond)    S(metal)    S(lipo)     H(rot)  DE(clash)    DE(int)     intcor
     15.79     -18.87       2.67        0.00      77.89       1.81       0.06       3.02       ----

> <Gold.Chemscore.Fitness>
15.7917

> <Gold.Chemscore.DG>
-18.8720

> <Gold.Chemscore.ZeroCoef>
-5.4800

> <Gold.Chemscore.Hbond>
2.6675

> <Gold.Chemscore.Metal>
0.0000

> <Gold.Chemscore.Lipo>
77.8930

> <Gold.Chemscore.Internal_Hbond>
0.0000

> <Gold.Chemscore.DEClash>
0.0559

> <Gold.Chemscore.DEInternal>
3.0244

> <Gold.Chemscore.Rot>
1.8090

> <Gold.Chemscore.Internal.Correction>
   9.000000E+99

> <Gold.Chemscore.Hbonds>
donor molecule, donor type, donor heavy atom, donor atom, acceptor molecule, acceptor atom, score
      L1  H    15    40       P1  7948  0.46
      P1  H  7989  7998       L1    10  0.55
      P1  H  7997  8010       L1     8  0.92

> <Gold.Chemscore.Hbond.Weighted>
-8.9096

> <Gold.Chemscore.Metal.Weighted>
-0.0000

> <Gold.Chemscore.Lipo.Weighted>
-9.1135

> <Gold.Chemscore.Internal_Hbond.Weighted>
0.0000

> <Gold.Chemscore.DEClash.Weighted>
0.0559

> <Gold.Chemscore.DEInternal.Weighted>
3.0244

> <Gold.Chemscore.Rot.Weighted>
4.6310

> <Gold.Chemscore.Internal.Correction.Weighted>
   9.000000E+99

> <Gold.Protein.RotatedTorsions>
[ 6907 6896 6895 6894 ] final   39.55 input  -60.11 | X-H torsion
[ 7974 7965 7964 7962 ] final -160.68 input  175.53 | X-H torsion
[ 8008 7997 7996 7995 ] final   58.05 input   59.86 | X-H torsion
[ 10167 10162 10161 10158 ] final   73.37 input  -65.29 | X-H torsion
[ 10718 10713 10712 10709 ] final  133.09 input   66.30 | X-H torsion
[ 10763 10752 10751 10750 ] final   -6.43 input  -60.55 | X-H torsion
[ 11005 11000 10999 10996 ] final  161.34 input  -57.11 | X-H torsion

> <Gold.Protein.ActiveResidues>
 VAL166  LYS551  ARG553  GLY616  TRP617  ASP618  TYR619  PRO620  LYS621  CYS622 
 ASP623  PHE694  ASN695  SER759  ASP760  ASP761  ALA762  ILE779  LEU786  VAL792 
 PHE793  MET794  SER795  GLU796  ALA797  LYS798  CYS799  TRP800  GLU811  SER814 

> <Gold.Protein.RotatedAtoms>
  152.1710  134.8834  160.0534 H   0  0  0  0  0  0  0  0  0  0  0  0  # atno 6907 bound_to 6896
  151.9794  133.3747  159.4110 H   0  0  0  0  0  0  0  0  0  0  0  0  # atno 6908 bound_to 6896
  150.6902  134.3978  159.5149 H   0  0  0  0  0  0  0  0  0  0  0  0  # atno 6909 bound_to 6896
  144.7418  140.3507  143.6116 H   0  0  0  0  0  0  0  0  0  0  0  0  # atno 7974 bound_to 7965
  155.5436  140.3485  155.4452 H   0  0  0  0  0  0  0  0  0  0  0  0  # atno 8008 bound_to 7997
  156.0633  140.1345  156.9941 H   0  0  0  0  0  0  0  0  0  0  0  0  # atno 8009 bound_to 7997
  154.4491  140.0981  156.6534 H   0  0  0  0  0  0  0  0  0  0  0  0  # atno 8010 bound_to 7997
  140.0252  144.5509  150.7550 H   0  0  0  0  0  0  0  0  0  0  0  0  # atno 10167 bound_to 10162
  157.4807  131.1085  150.9685 H   0  0  0  0  0  0  0  0  0  0  0  0  # atno 10718 bound_to 10713
  153.4123  135.7008  153.6351 H   0  0  0  0  0  0  0  0  0  0  0  0  # atno 10763 bound_to 10752
  153.4839  135.3687  155.2457 H   0  0  0  0  0  0  0  0  0  0  0  0  # atno 10764 bound_to 10752
  154.8717  135.4072  154.3477 H   0  0  0  0  0  0  0  0  0  0  0  0  # atno 10765 bound_to 10752
  140.2148  134.8240  157.3159 H   0  0  0  0  0  0  0  0  0  0  0  0  # atno 11005 bound_to 11000
  145.7279  139.1728  143.2447 LP  0  0  0  0  0  0  0  0  0  0  0  0  # atno 17320 bound_to 7965
  146.1228  140.7286  142.9449 LP  0  0  0  0  0  0  0  0  0  0  0  0  # atno 17321 bound_to 7965
  140.7326  143.2707  151.3898 LP  0  0  0  0  0  0  0  0  0  0  0  0  # atno 17342 bound_to 10162
  139.6113  144.1093  152.2301 LP  0  0  0  0  0  0  0  0  0  0  0  0  # atno 17343 bound_to 10162
  157.0419  130.5752  149.5357 LP  0  0  0  0  0  0  0  0  0  0  0  0  # atno 17370 bound_to 10713
  156.0120  130.5212  150.8018 LP  0  0  0  0  0  0  0  0  0  0  0  0  # atno 17371 bound_to 10713
  140.1912  134.4369  155.7714 LP  0  0  0  0  0  0  0  0  0  0  0  0  # atno 17394 bound_to 11000
  141.2225  133.7028  156.8031 LP  0  0  0  0  0  0  0  0  0  0  0  0  # atno 17395 bound_to 11000

$$$$
