AV-unprocessed.smi:1620|AV-procd|sdf|6492|dock8
  -GOLD-   22720 7153D 1   1.00000     0.00000
 Structure written by MMmdl.
 40 40  0  0  0  0  0  0  0  0  1 V2000
  151.5704  141.7186  159.0878 C   0  0  0  0  0  0  0  0  0  0  0  0
  152.6709  142.7431  159.4253 C   0  0  0  0  0  0  0  0  0  0  0  0
  152.8708  142.7961  160.9508 C   0  0  0  0  0  0  0  0  0  0  0  0
  152.3910  144.1497  158.8208 C   0  0  1  0  0  0  0  0  0  0  0  0
  152.1949  144.1584  157.2895 C   0  0  0  0  0  0  0  0  0  0  0  0
  151.2580  144.8362  159.4950 N   0  0  0  0  0  0  0  0  0  0  0  0
  151.6195  145.9833  160.3388 C   0  0  0  0  0  0  0  0  0  0  0  0
  149.9593  144.4319  159.4770 C   0  0  0  0  0  0  0  0  0  0  0  0
  149.5449  143.5735  158.6961 O   0  0  0  0  0  0  0  0  0  0  0  0
  149.1860  144.9868  160.4304 N   0  0  0  0  0  0  0  0  0  0  0  0
  147.8080  144.7631  160.6765 C   0  0  0  0  0  0  0  0  0  0  0  0
  146.8423  144.4998  159.6708 C   0  0  0  0  0  0  0  0  0  0  0  0
  145.6373  144.3353  160.1946 N   0  0  0  0  0  0  0  0  0  0  0  0
  145.8103  144.4908  161.5316 N   0  0  0  0  0  0  0  0  0  0  0  0
  144.6687  144.3792  162.4226 C   0  0  0  0  0  0  0  0  0  0  0  0
  143.5700  143.5072  161.8118 C   0  0  0  0  0  0  0  0  0  0  0  0
  142.4266  144.1115  161.4769 N   0  0  0  0  0  0  0  0  0  0  0  0
  143.7525  142.3039  161.6403 O   0  0  0  0  0  0  0  0  0  0  0  0
  147.1263  144.7520  161.8605 C   0  0  0  0  0  0  0  0  0  0  0  0
  150.5975  142.0470  159.4547 H   0  0  0  0  0  0  0  0  0  0  0  0
  151.7842  140.7496  159.5398 H   0  0  0  0  0  0  0  0  0  0  0  0
  151.4850  141.5537  158.0138 H   0  0  0  0  0  0  0  0  0  0  0  0
  153.5998  142.3635  158.9992 H   0  0  0  0  0  0  0  0  0  0  0  0
  151.9982  143.2171  161.4514 H   0  0  0  0  0  0  0  0  0  0  0  0
  153.7378  143.3964  161.2249 H   0  0  0  0  0  0  0  0  0  0  0  0
  153.0364  141.7992  161.3597 H   0  0  0  0  0  0  0  0  0  0  0  0
  153.3093  144.7197  158.9597 H   0  0  0  0  0  0  0  0  0  0  0  0
  153.1109  143.8806  156.7689 H   0  0  0  0  0  0  0  0  0  0  0  0
  151.9226  145.1540  156.9370 H   0  0  0  0  0  0  0  0  0  0  0  0
  151.4163  143.4664  156.9687 H   0  0  0  0  0  0  0  0  0  0  0  0
  150.9191  146.8093  160.2042 H   0  0  0  0  0  0  0  0  0  0  0  0
  152.6088  146.3781  160.1108 H   0  0  0  0  0  0  0  0  0  0  0  0
  151.6100  145.6972  161.3913 H   0  0  0  0  0  0  0  0  0  0  0  0
  149.6377  145.6536  161.0394 H   0  0  0  0  0  0  0  0  0  0  0  0
  146.9720  144.4241  158.6012 H   0  0  0  0  0  0  0  0  0  0  0  0
  144.9879  143.9632  163.3796 H   0  0  0  0  0  0  0  0  0  0  0  0
  144.2827  145.3800  162.6211 H   0  0  0  0  0  0  0  0  0  0  0  0
  141.6781  143.5761  161.0608 H   0  0  0  0  0  0  0  0  0  0  0  0
  142.3192  145.1035  161.6315 H   0  0  0  0  0  0  0  0  0  0  0  0
  147.4410  144.9045  162.8823 H   0  0  0  0  0  0  0  0  0  0  0  0
  1  2  1  0  0  0  0
  1 20  1  0  0  0  0
  1 21  1  0  0  0  0
  1 22  1  0  0  0  0
  2  3  1  0  0  0  0
  2  4  1  0  0  0  0
  2 23  1  0  0  0  0
  3 24  1  0  0  0  0
  3 25  1  0  0  0  0
  3 26  1  0  0  0  0
  4  5  1  0  0  0  0
  4  6  1  0  0  0  0
  4 27  1  0  0  0  0
  5 28  1  0  0  0  0
  5 29  1  0  0  0  0
  5 30  1  0  0  0  0
  6  7  1  0  0  0  0
  6  8  1  0  0  0  0
  7 31  1  0  0  0  0
  7 32  1  0  0  0  0
  7 33  1  0  0  0  0
  8  9  2  0  0  0  0
  8 10  1  0  0  0  0
 10 11  1  0  0  0  0
 10 34  1  0  0  0  0
 11 19  2  0  0  0  0
 11 12  1  0  0  0  0
 12 13  2  0  0  0  0
 12 35  1  0  0  0  0
 13 14  1  0  0  0  0
 14 15  1  0  0  0  0
 14 19  1  0  0  0  0
 15 16  1  0  0  0  0
 15 36  1  0  0  0  0
 15 37  1  0  0  0  0
 16 17  1  0  0  0  0
 16 18  2  0  0  0  0
 17 38  1  0  0  0  0
 17 39  1  0  0  0  0
 19 40  1  0  0  0  0
M  END
> <s_m_source_file>
AV-unprocessed.smi

> <i_m_source_file_index>
1620

> <i_lp_mmshare_version>
43012

> <i_f3d_flags>
0

> <s_epik_input>
W0NIM11bQ0hdKFtDSDNdKVtDQEhdKFtDSDNdKU4oW0NIM10pQyg9TylbTkhdYzFbY0hdbm4oW2NIXTEpW0NIMl1DKD1PKVtOSDJd

> <s_epik_cmdline>
J2VwaWtfcHl0aG9uJywgJy1waCcsICc3LjAnLCAnLXRuJywgJzgnLCAnLW1hJywgJzIwMCcsICctbWV0YWxfYmluZGluZycsICctaW1hZScsICc8aW5maWxlLm1hZT4nLCAnLW9tYWUnLCAnPG91dGZpbGUubWFlPic=

> <r_lp_tautomer_probability>
1

> <r_epik_Ionization_Penalty>
4.85642e-05

> <r_epik_Ionization_Penalty_Charging>
0

> <r_epik_Ionization_Penalty_Neutral>
4.85642e-05

> <r_epik_State_Penalty>
-0

> <r_epik_Charging_Adjusted_Penalty>
0

> <i_epik_Tot_Q>
0

> <i_epik_Tot_abs_Q>
0

> <r_epik_Metal_State_Penalty>
-0

> <b_epik_Metal_Only>
0

> <s_lp_Force_Field>
OPLS_2005

> <r_lp_Energy>
32.9866

> <b_lp_Chiralities_Consistent>
1

> <s_lp_Variant>
AV-unprocessed.smi:1620-2

> <Gold.Version>
5.8.1

> <Gold.Id.Protein>
6NUR|6NUR_protein|mol2

> <Gold.PLP.Fitness>
39.9484

> <Gold.PLP.PLP>
-42.6419

> <Gold.PLP.part.hbond>
-1.7042

> <Gold.PLP.part.metal>
0.0000

> <Gold.PLP.part.buried>
-3.1308

> <Gold.PLP.part.nonpolar>
-38.8609

> <Gold.PLP.part.repulsive>
0.6115

> <Gold.PLP.ligand.clash>
4.2270

> <Gold.PLP.ligand.torsion>
0.8313

> <Gold.PLP.Chemscore.Hbond>
0.0000

> <Gold.PLP.Chemscore.CHOScore>
1.0000

> <Gold.PLP.Chemscore.Metal>
0.0000

> <Gold.Chemscore.Hbonds>
donor molecule, donor type, donor heavy atom, donor atom, acceptor molecule, acceptor atom, score
      L1  C    12    35       P1  8029  0.94

> <Gold.PLP.Chemscore.Internal.Correction>
0.1961

> <Gold.Rescore>
     Score         DG    S(hbond)    S(metal)    S(lipo)     H(rot)  DE(clash)    DE(int)     intcor
      4.70     -11.33       0.00        0.00      96.06       2.10       2.43       4.20       ----

> <Gold.Chemscore.Fitness>
4.6976

> <Gold.Chemscore.DG>
-11.3334

> <Gold.Chemscore.ZeroCoef>
-5.4800

> <Gold.Chemscore.Hbond>
0.0000

> <Gold.Chemscore.Metal>
0.0000

> <Gold.Chemscore.Lipo>
96.0628

> <Gold.Chemscore.Internal_Hbond>
0.0000

> <Gold.Chemscore.DEClash>
2.4345

> <Gold.Chemscore.DEInternal>
4.2013

> <Gold.Chemscore.Rot>
2.1039

> <Gold.Chemscore.Internal.Correction>
   9.000000E+99

> <Gold.Chemscore.Hbond.Weighted>
-0.0000

> <Gold.Chemscore.Metal.Weighted>
-0.0000

> <Gold.Chemscore.Lipo.Weighted>
-11.2394

> <Gold.Chemscore.Internal_Hbond.Weighted>
0.0000

> <Gold.Chemscore.DEClash.Weighted>
2.4345

> <Gold.Chemscore.DEInternal.Weighted>
4.2013

> <Gold.Chemscore.Rot.Weighted>
5.3860

> <Gold.Chemscore.Internal.Correction.Weighted>
   9.000000E+99

> <Gold.Protein.RotatedTorsions>
[ 6907 6896 6895 6894 ] final  -84.46 input  -60.11 | X-H torsion
[ 7974 7965 7964 7962 ] final  -71.82 input  175.53 | X-H torsion
[ 8008 7997 7996 7995 ] final -124.73 input   59.86 | X-H torsion
[ 10167 10162 10161 10158 ] final  170.98 input  -65.29 | X-H torsion
[ 10718 10713 10712 10709 ] final  114.64 input   66.30 | X-H torsion
[ 10763 10752 10751 10750 ] final  -77.01 input  -60.55 | X-H torsion
[ 11005 11000 10999 10996 ] final  -75.99 input  -57.11 | X-H torsion

> <Gold.Protein.ActiveResidues>
 VAL166  LYS551  ARG553  GLY616  TRP617  ASP618  TYR619  PRO620  LYS621  CYS622 
 ASP623  PHE694  ASN695  SER759  ASP760  ASP761  ALA762  ILE779  LEU786  VAL792 
 PHE793  MET794  SER795  GLU796  ALA797  LYS798  CYS799  TRP800  GLU811  SER814 

> <Gold.Protein.RotatedAtoms>
  150.6876  134.3355  159.4845 H   0  0  0  0  0  0  0  0  0  0  0  0  # atno 6907 bound_to 6896
  152.1214  134.9200  160.0572 H   0  0  0  0  0  0  0  0  0  0  0  0  # atno 6908 bound_to 6896
  152.0404  133.3940  159.4371 H   0  0  0  0  0  0  0  0  0  0  0  0  # atno 6909 bound_to 6896
  145.6731  140.9214  143.0872 H   0  0  0  0  0  0  0  0  0  0  0  0  # atno 7974 bound_to 7965
  155.2016  140.0416  157.2918 H   0  0  0  0  0  0  0  0  0  0  0  0  # atno 8008 bound_to 7997
  154.6071  140.2467  155.7689 H   0  0  0  0  0  0  0  0  0  0  0  0  # atno 8009 bound_to 7997
  156.2356  140.2922  156.0314 H   0  0  0  0  0  0  0  0  0  0  0  0  # atno 8010 bound_to 7997
  139.5034  144.3536  151.9897 H   0  0  0  0  0  0  0  0  0  0  0  0  # atno 10167 bound_to 10162
  157.6269  131.1001  150.7215 H   0  0  0  0  0  0  0  0  0  0  0  0  # atno 10718 bound_to 10713
  154.5073  135.5778  153.6578 H   0  0  0  0  0  0  0  0  0  0  0  0  # atno 10763 bound_to 10752
  152.9890  135.6150  154.2924 H   0  0  0  0  0  0  0  0  0  0  0  0  # atno 10764 bound_to 10752
  154.2836  135.2850  155.2665 H   0  0  0  0  0  0  0  0  0  0  0  0  # atno 10765 bound_to 10752
  141.1650  133.6967  156.7601 H   0  0  0  0  0  0  0  0  0  0  0  0  # atno 11005 bound_to 11000
  144.7050  139.8598  143.7432 LP  0  0  0  0  0  0  0  0  0  0  0  0  # atno 17320 bound_to 7965
  146.1029  139.4026  143.0336 LP  0  0  0  0  0  0  0  0  0  0  0  0  # atno 17321 bound_to 7965
  140.2973  144.3687  150.6070 LP  0  0  0  0  0  0  0  0  0  0  0  0  # atno 17342 bound_to 10162
  140.5901  143.2168  151.7269 LP  0  0  0  0  0  0  0  0  0  0  0  0  # atno 17343 bound_to 10162
  156.7562  130.4784  149.5446 LP  0  0  0  0  0  0  0  0  0  0  0  0  # atno 17370 bound_to 10713
  156.1447  130.6269  151.0515 LP  0  0  0  0  0  0  0  0  0  0  0  0  # atno 17371 bound_to 10713
  140.2540  134.8518  157.3695 LP  0  0  0  0  0  0  0  0  0  0  0  0  # atno 17394 bound_to 11000
  140.1675  134.4650  155.7853 LP  0  0  0  0  0  0  0  0  0  0  0  0  # atno 17395 bound_to 11000

$$$$
