AV-unprocessed.smi:2784|AV-procd|sdf|10732|dock2
  -GOLD-   2272015173D 1   1.00000     0.00000
 Structure written by MMmdl.
 32 33  0  0  0  0  0  0  0  0  2 V2000
  148.8421  144.8631  160.5421 C   0  0  0  0  0  0  0  0  0  0  0  0
  149.5400  144.3819  159.4042 O   0  0  0  0  0  0  0  0  0  0  0  0
  150.8210  143.8323  159.7026 C   0  0  2  0  0  0  0  0  0  0  0  0
  151.7037  144.9190  160.3270 C   0  0  0  0  0  0  0  0  0  0  0  0
  152.2247  145.7087  159.1302 C   0  0  0  0  0  0  0  0  0  0  0  0
  152.4530  144.6586  158.0398 C   0  0  0  0  0  0  0  0  0  0  0  0
  151.5539  143.4576  158.3929 C   0  0  2  0  0  0  0  0  0  0  0  0
  150.6419  143.1403  157.2955 N   0  0  0  0  0  0  0  0  0  0  0  0
  150.5397  141.9380  156.7113 C   0  0  0  0  0  0  0  0  0  0  0  0
  151.2268  140.9658  157.0261 O   0  0  0  0  0  0  0  0  0  0  0  0
  149.5987  141.9308  155.7553 N   0  0  0  0  0  0  0  0  0  0  0  0
  149.2408  140.8179  154.9605 C   0  0  0  0  0  0  0  0  0  0  0  0
  147.9943  140.5444  154.5780 N   0  3  0  0  0  0  0  0  0  0  0  0
  148.0071  139.3995  153.8203 C   0  0  0  0  0  0  0  0  0  0  0  0
  149.3214  139.0010  153.7683 C   0  0  0  0  0  0  0  0  0  0  0  0
  150.1092  139.8826  154.4807 O   0  0  0  0  0  0  0  0  0  0  0  0
  147.8816  145.2741  160.2316 H   0  0  0  0  0  0  0  0  0  0  0  0
  149.3925  145.6522  161.0539 H   0  0  0  0  0  0  0  0  0  0  0  0
  148.6464  144.0575  161.2509 H   0  0  0  0  0  0  0  0  0  0  0  0
  150.7225  142.9582  160.3489 H   0  0  0  0  0  0  0  0  0  0  0  0
  151.1836  145.5482  161.0489 H   0  0  0  0  0  0  0  0  0  0  0  0
  152.5426  144.4527  160.8454 H   0  0  0  0  0  0  0  0  0  0  0  0
  151.4627  146.4177  158.8036 H   0  0  0  0  0  0  0  0  0  0  0  0
  153.1271  146.2750  159.3624 H   0  0  0  0  0  0  0  0  0  0  0  0
  152.2453  145.0722  157.0519 H   0  0  0  0  0  0  0  0  0  0  0  0
  153.4976  144.3444  158.0403 H   0  0  0  0  0  0  0  0  0  0  0  0
  152.2013  142.5988  158.5813 H   0  0  0  0  0  0  0  0  0  0  0  0
  150.0367  143.8843  156.9804 H   0  0  0  0  0  0  0  0  0  0  0  0
  147.1524  141.0655  154.7890 H   0  0  0  0  0  0  0  0  0  0  0  0
  147.0986  138.9904  153.4020 H   0  0  0  0  0  0  0  0  0  0  0  0
  149.8323  138.1721  153.3004 H   0  0  0  0  0  0  0  0  0  0  0  0
  149.0953  142.7889  155.5857 H   0  0  0  0  0  0  0  0  0  0  0  0
  1  2  1  0  0  0  0
  1 17  1  0  0  0  0
  1 18  1  0  0  0  0
  1 19  1  0  0  0  0
  2  3  1  0  0  0  0
  3  7  1  0  0  0  0
  3  4  1  0  0  0  0
  3 20  1  0  0  0  0
  4  5  1  0  0  0  0
  4 21  1  0  0  0  0
  4 22  1  0  0  0  0
  5  6  1  0  0  0  0
  5 23  1  0  0  0  0
  5 24  1  0  0  0  0
  6  7  1  0  0  0  0
  6 25  1  0  0  0  0
  6 26  1  0  0  0  0
  7  8  1  0  0  0  0
  7 27  1  0  0  0  0
  8 28  1  0  0  0  0
  8  9  1  0  0  0  0
  9 11  1  0  0  0  0
  9 10  2  0  0  0  0
 11 12  1  0  0  0  0
 11 32  1  0  0  0  0
 12 16  1  0  0  0  0
 12 13  2  0  0  0  0
 13 29  1  0  0  0  0
 13 14  1  0  0  0  0
 14 30  1  0  0  0  0
 14 15  2  0  0  0  0
 15 31  1  0  0  0  0
 15 16  1  0  0  0  0
M  CHG  1  13   1
M  END
> <s_m_source_file>
AV-unprocessed.smi

> <i_m_source_file_index>
2784

> <i_lp_mmshare_version>
43012

> <i_f3d_flags>
0

> <s_epik_input>
W0NIM11PW0NAQEhdMVtDSDJdW0NIMl1bQ0gyXVtDQEhdMVtOSF1DKD1PKVtOSF1jMm5bY0hdW2NIXW8y

> <s_epik_cmdline>
J2VwaWtfcHl0aG9uJywgJy1waCcsICc3LjAnLCAnLXRuJywgJzgnLCAnLW1hJywgJzIwMCcsICctbWV0YWxfYmluZGluZycsICctaW1hZScsICc8aW5maWxlLm1hZT4nLCAnLW9tYWUnLCAnPG91dGZpbGUubWFlPic=

> <r_epik_Ionization_Penalty>
6.73843

> <r_epik_Ionization_Penalty_Charging>
6.66704

> <r_epik_Ionization_Penalty_Neutral>
0.0713889

> <r_epik_State_Penalty>
1.94951

> <r_epik_Charging_Adjusted_Penalty>
8.61656

> <i_epik_Tot_Q>
1

> <i_epik_Tot_abs_Q>
1

> <r_epik_Metal_State_Penalty>
1.97013

> <b_epik_Metal_Only>
0

> <s_lp_Force_Field>
OPLS_2005

> <r_lp_Energy>
28.2598

> <b_lp_Chiralities_Consistent>
1

> <s_lp_Variant>
AV-unprocessed.smi:2784-7

> <Gold.Version>
5.8.1

> <Gold.Id.Protein>
6NUR|6NUR_protein|mol2

> <Gold.PLP.Fitness>
41.4127

> <Gold.PLP.PLP>
-30.0652

> <Gold.PLP.part.hbond>
-3.0000

> <Gold.PLP.part.metal>
0.0000

> <Gold.PLP.part.buried>
-2.3936

> <Gold.PLP.part.nonpolar>
-25.4567

> <Gold.PLP.part.repulsive>
0.5757

> <Gold.PLP.ligand.clash>
0.0000

> <Gold.PLP.ligand.torsion>
0.3045

> <Gold.PLP.Chemscore.Hbond>
3.0000

> <Gold.PLP.Chemscore.CHOScore>
0.9807

> <Gold.PLP.Chemscore.Metal>
0.0000

> <Gold.Chemscore.Hbonds>
donor molecule, donor type, donor heavy atom, donor atom, acceptor molecule, acceptor atom, score
      L1  H     8    28       P1  8028  1.00
      L1  H    11    32       P1  8028  1.00
      P1  H  7989  7998       L1    16  0.93
      L1  C    15    31       P1  7948  1.00

> <Gold.PLP.Chemscore.Internal.Correction>
0.0145

> <Gold.Rescore>
     Score         DG    S(hbond)    S(metal)    S(lipo)     H(rot)  DE(clash)    DE(int)     intcor
     17.39     -20.14       2.68        0.00      77.97       1.34       1.57       1.19       ----

> <Gold.Chemscore.Fitness>
17.3853

> <Gold.Chemscore.DG>
-20.1392

> <Gold.Chemscore.ZeroCoef>
-5.4800

> <Gold.Chemscore.Hbond>
2.6811

> <Gold.Chemscore.Metal>
0.0000

> <Gold.Chemscore.Lipo>
77.9677

> <Gold.Chemscore.Internal_Hbond>
0.0000

> <Gold.Chemscore.DEClash>
1.5660

> <Gold.Chemscore.DEInternal>
1.1880

> <Gold.Chemscore.Rot>
1.3351

> <Gold.Chemscore.Internal.Correction>
   9.000000E+99

> <Gold.Chemscore.Hbonds>
donor molecule, donor type, donor heavy atom, donor atom, acceptor molecule, acceptor atom, score
      L1  H     8    28       P1  8028  0.93
      L1  H    11    32       P1  8028  0.97
      P1  H  7989  7998       L1    16  0.55

> <Gold.Chemscore.Hbond.Weighted>
-8.9547

> <Gold.Chemscore.Metal.Weighted>
-0.0000

> <Gold.Chemscore.Lipo.Weighted>
-9.1222

> <Gold.Chemscore.Internal_Hbond.Weighted>
0.0000

> <Gold.Chemscore.DEClash.Weighted>
1.5660

> <Gold.Chemscore.DEInternal.Weighted>
1.1880

> <Gold.Chemscore.Rot.Weighted>
3.4177

> <Gold.Chemscore.Internal.Correction.Weighted>
   9.000000E+99

> <Gold.Protein.RotatedTorsions>
[ 6907 6896 6895 6894 ] final  145.25 input  -60.11 | X-H torsion
[ 7974 7965 7964 7962 ] final -102.94 input  175.53 | X-H torsion
[ 8008 7997 7996 7995 ] final  112.07 input   59.86 | X-H torsion
[ 10167 10162 10161 10158 ] final -147.52 input  -65.29 | X-H torsion
[ 10718 10713 10712 10709 ] final   77.44 input   66.30 | X-H torsion
[ 10763 10752 10751 10750 ] final  158.47 input  -60.55 | X-H torsion
[ 11005 11000 10999 10996 ] final   65.65 input  -57.11 | X-H torsion

> <Gold.Protein.ActiveResidues>
 VAL166  LYS551  ARG553  GLY616  TRP617  ASP618  TYR619  PRO620  LYS621  CYS622 
 ASP623  PHE694  ASN695  SER759  ASP760  ASP761  ALA762  ILE779  LEU786  VAL792 
 PHE793  MET794  SER795  GLU796  ALA797  LYS798  CYS799  TRP800  GLU811  SER814 

> <Gold.Protein.RotatedAtoms>
  152.1833  133.4722  159.4969 H   0  0  0  0  0  0  0  0  0  0  0  0  # atno 6907 bound_to 6896
  150.6938  134.1806  159.4256 H   0  0  0  0  0  0  0  0  0  0  0  0  # atno 6908 bound_to 6896
  151.9718  135.0073  160.0604 H   0  0  0  0  0  0  0  0  0  0  0  0  # atno 6909 bound_to 6896
  145.2622  140.9273  143.3034 H   0  0  0  0  0  0  0  0  0  0  0  0  # atno 7974 bound_to 7965
  156.2167  140.3007  155.9856 H   0  0  0  0  0  0  0  0  0  0  0  0  # atno 8008 bound_to 7997
  155.2587  140.0429  157.3012 H   0  0  0  0  0  0  0  0  0  0  0  0  # atno 8009 bound_to 7997
  154.5779  140.2367  155.8105 H   0  0  0  0  0  0  0  0  0  0  0  0  # atno 8010 bound_to 7997
  139.7614  143.8371  152.2608 H   0  0  0  0  0  0  0  0  0  0  0  0  # atno 10167 bound_to 10162
  157.6710  130.9821  150.1641 H   0  0  0  0  0  0  0  0  0  0  0  0  # atno 10718 bound_to 10713
  154.2166  135.2784  155.2939 H   0  0  0  0  0  0  0  0  0  0  0  0  # atno 10763 bound_to 10752
  154.5736  135.5611  153.7121 H   0  0  0  0  0  0  0  0  0  0  0  0  # atno 10764 bound_to 10752
  153.0051  135.6327  154.2306 H   0  0  0  0  0  0  0  0  0  0  0  0  # atno 10765 bound_to 10752
  139.9881  134.6635  156.0140 H   0  0  0  0  0  0  0  0  0  0  0  0  # atno 11005 bound_to 11000
  144.9408  139.4191  143.6450 LP  0  0  0  0  0  0  0  0  0  0  0  0  # atno 17320 bound_to 7965
  146.3272  139.8367  142.8898 LP  0  0  0  0  0  0  0  0  0  0  0  0  # atno 17321 bound_to 7965
  139.8378  144.7224  150.9369 LP  0  0  0  0  0  0  0  0  0  0  0  0  # atno 17342 bound_to 10162
  140.7807  143.4011  151.1148 LP  0  0  0  0  0  0  0  0  0  0  0  0  # atno 17343 bound_to 10162
  156.2410  130.3691  149.8337 LP  0  0  0  0  0  0  0  0  0  0  0  0  # atno 17370 bound_to 10713
  156.6137  130.8597  151.3460 LP  0  0  0  0  0  0  0  0  0  0  0  0  # atno 17371 bound_to 10713
  141.1542  133.6544  156.4109 LP  0  0  0  0  0  0  0  0  0  0  0  0  # atno 17394 bound_to 11000
  140.4962  134.6528  157.5230 LP  0  0  0  0  0  0  0  0  0  0  0  0  # atno 17395 bound_to 11000

$$$$
