AV-unprocessed.smi:1950|AV-procd|sdf|7880|dock4
  -GOLD-   2272010 33D 1   1.00000     0.00000
 Structure written by MMmdl.
 32 33  0  0  0  0  0  0  0  0  2 V2000
  151.1281  141.4101  158.1701 C   0  0  0  0  0  0  0  0  0  0  0  0
  151.9327  140.4454  157.2961 C   0  0  0  0  0  0  0  0  0  0  0  0
  152.8791  139.8509  157.8127 O   0  0  0  0  0  0  0  0  0  0  0  0
  151.5824  140.2777  155.9980 N   0  0  0  0  0  0  0  0  0  0  0  0
  152.2581  139.3241  155.1100 C   0  0  0  0  0  0  0  0  0  0  0  0
  151.2943  138.1657  154.7942 C   0  0  0  0  0  0  0  0  0  0  0  0
  149.9724  138.6832  154.1884 C   0  0  0  0  0  0  0  0  0  0  0  0
  149.0235  137.5796  154.0668 N   0  0  0  0  0  0  0  0  0  0  0  0
  148.4312  136.9311  155.0802 C   0  0  0  0  0  0  0  0  0  0  0  0
  148.6786  137.2514  156.2451 O   0  0  0  0  0  0  0  0  0  0  0  0
  147.5879  135.9516  154.6811 N   0  5  0  0  0  0  0  0  0  0  0  0
  146.4441  136.2650  154.0502 C   0  0  0  0  0  0  0  0  0  0  0  0
  145.4237  135.3990  153.9420 N   0  0  0  0  0  0  0  0  0  0  0  0
  144.3384  135.9175  153.2486 N   0  0  0  0  0  0  0  0  0  0  0  0
  144.5719  137.1654  152.8437 C   0  0  0  0  0  0  0  0  0  0  0  0
  146.1400  137.8187  153.2678 S   0  0  0  0  0  0  0  0  0  0  0  0
  149.3756  139.8272  155.0398 C   0  0  0  0  0  0  0  0  0  0  0  0
  150.4302  140.9071  155.3402 C   0  0  0  0  0  0  0  0  0  0  0  0
  150.0788  141.1162  158.2073 H   0  0  0  0  0  0  0  0  0  0  0  0
  151.1989  142.4285  157.7870 H   0  0  0  0  0  0  0  0  0  0  0  0
  151.5092  141.4115  159.1919 H   0  0  0  0  0  0  0  0  0  0  0  0
  152.5488  139.8315  154.1890 H   0  0  0  0  0  0  0  0  0  0  0  0
  153.1818  138.9304  155.5359 H   0  0  0  0  0  0  0  0  0  0  0  0
  151.7693  137.4627  154.1090 H   0  0  0  0  0  0  0  0  0  0  0  0
  151.0895  137.6124  155.7122 H   0  0  0  0  0  0  0  0  0  0  0  0
  150.1967  139.0731  153.1939 H   0  0  0  0  0  0  0  0  0  0  0  0
  148.7917  137.2806  153.1310 H   0  0  0  0  0  0  0  0  0  0  0  0
  143.8178  137.7029  152.2886 H   0  0  0  0  0  0  0  0  0  0  0  0
  148.5243  140.2747  154.5258 H   0  0  0  0  0  0  0  0  0  0  0  0
  148.9929  139.4280  155.9804 H   0  0  0  0  0  0  0  0  0  0  0  0
  149.9800  141.7111  155.9202 H   0  0  0  0  0  0  0  0  0  0  0  0
  150.7601  141.3711  154.4096 H   0  0  0  0  0  0  0  0  0  0  0  0
  1  2  1  0  0  0  0
  1 19  1  0  0  0  0
  1 20  1  0  0  0  0
  1 21  1  0  0  0  0
  2  3  2  0  0  0  0
  2  4  1  0  0  0  0
  4 18  1  0  0  0  0
  4  5  1  0  0  0  0
  5  6  1  0  0  0  0
  5 22  1  0  0  0  0
  5 23  1  0  0  0  0
  6  7  1  0  0  0  0
  6 24  1  0  0  0  0
  6 25  1  0  0  0  0
  7  8  1  0  0  0  0
  7 17  1  0  0  0  0
  7 26  1  0  0  0  0
  8  9  1  0  0  0  0
  8 27  1  0  0  0  0
  9 10  2  0  0  0  0
  9 11  1  0  0  0  0
 11 12  1  0  0  0  0
 12 16  1  0  0  0  0
 12 13  2  0  0  0  0
 13 14  1  0  0  0  0
 14 15  2  0  0  0  0
 15 16  1  0  0  0  0
 15 28  1  0  0  0  0
 17 18  1  0  0  0  0
 17 29  1  0  0  0  0
 17 30  1  0  0  0  0
 18 31  1  0  0  0  0
 18 32  1  0  0  0  0
M  CHG  1  11  -1
M  END
> <s_m_source_file>
AV-unprocessed.smi

> <i_m_source_file_index>
1950

> <i_lp_mmshare_version>
43012

> <i_f3d_flags>
0

> <s_epik_input>
W0NIM11DKD1PKU4xW0NIMl1bQ0gyXVtDSF0oW0NIMl1bQ0gyXTEpW05IXUMoPU8pW05IXWMybm5bY0hdczI=

> <s_epik_cmdline>
J2VwaWtfcHl0aG9uJywgJy1waCcsICc3LjAnLCAnLXRuJywgJzgnLCAnLW1hJywgJzIwMCcsICctbWV0YWxfYmluZGluZycsICctaW1hZScsICc8aW5maWxlLm1hZT4nLCAnLW9tYWUnLCAnPG91dGZpbGUubWFlPic=

> <r_lp_tautomer_probability>
1

> <r_epik_Ionization_Penalty>
3.45176

> <r_epik_Ionization_Penalty_Charging>
3.40771

> <r_epik_Ionization_Penalty_Neutral>
0.0440522

> <r_epik_State_Penalty>
3.40583

> <r_epik_Charging_Adjusted_Penalty>
6.81354

> <i_epik_Tot_Q>
-1

> <i_epik_Tot_abs_Q>
1

> <r_epik_Metal_State_Penalty>
0.49593

> <b_epik_Metal_Only>
1

> <s_lp_Force_Field>
OPLS_2005

> <r_lp_Energy>
20.3266

> <b_lp_Chiralities_Consistent>
1

> <s_lp_Variant>
AV-unprocessed.smi:1950-2

> <Gold.Version>
5.8.1

> <Gold.Id.Protein>
6NUR|6NUR_protein|mol2

> <Gold.PLP.Fitness>
33.7643

> <Gold.PLP.PLP>
-23.7965

> <Gold.PLP.part.hbond>
-2.0000

> <Gold.PLP.part.metal>
0.0000

> <Gold.PLP.part.buried>
-1.5008

> <Gold.PLP.part.nonpolar>
-21.0262

> <Gold.PLP.part.repulsive>
0.2462

> <Gold.PLP.ligand.clash>
0.0000

> <Gold.PLP.ligand.torsion>
0.7745

> <Gold.PLP.Chemscore.Hbond>
2.0000

> <Gold.PLP.Chemscore.CHOScore>
1.8332

> <Gold.PLP.Chemscore.Metal>
0.0000

> <Gold.Chemscore.Hbonds>
donor molecule, donor type, donor heavy atom, donor atom, acceptor molecule, acceptor atom, score
      L1  H     8    27       P1  7948  1.00
      P1  H  7997  8010       L1     3  1.00
      L1  C    15    28       P1 10171  0.78
      L1  C    15    28       P1 10175  0.39

> <Gold.PLP.Chemscore.Internal.Correction>
0.0173

> <Gold.Rescore>
     Score         DG    S(hbond)    S(metal)    S(lipo)     H(rot)  DE(clash)    DE(int)     intcor
     12.51     -15.00       1.89        0.00      49.20       1.00       0.30       2.19       ----

> <Gold.Chemscore.Fitness>
12.5077

> <Gold.Chemscore.DG>
-14.9998

> <Gold.Chemscore.ZeroCoef>
-5.4800

> <Gold.Chemscore.Hbond>
1.8932

> <Gold.Chemscore.Metal>
0.0000

> <Gold.Chemscore.Lipo>
49.1999

> <Gold.Chemscore.Internal_Hbond>
0.0000

> <Gold.Chemscore.DEClash>
0.3023

> <Gold.Chemscore.DEInternal>
2.1898

> <Gold.Chemscore.Rot>
1.0000

> <Gold.Chemscore.Internal.Correction>
   9.000000E+99

> <Gold.Chemscore.Hbonds>
donor molecule, donor type, donor heavy atom, donor atom, acceptor molecule, acceptor atom, score
      L1  H     8    27       P1  7948  0.95
      P1  H  7997  8010       L1     3  0.64

> <Gold.Chemscore.Hbond.Weighted>
-6.3234

> <Gold.Chemscore.Metal.Weighted>
-0.0000

> <Gold.Chemscore.Lipo.Weighted>
-5.7564

> <Gold.Chemscore.Internal_Hbond.Weighted>
0.0000

> <Gold.Chemscore.DEClash.Weighted>
0.3023

> <Gold.Chemscore.DEInternal.Weighted>
2.1898

> <Gold.Chemscore.Rot.Weighted>
2.5600

> <Gold.Chemscore.Internal.Correction.Weighted>
   9.000000E+99

> <Gold.Protein.RotatedTorsions>
[ 6907 6896 6895 6894 ] final  178.95 input  -60.11 | X-H torsion
[ 7974 7965 7964 7962 ] final -114.05 input  175.53 | X-H torsion
[ 8008 7997 7996 7995 ] final   56.97 input   59.86 | X-H torsion
[ 10167 10162 10161 10158 ] final   22.30 input  -65.29 | X-H torsion
[ 10718 10713 10712 10709 ] final  -82.18 input   66.30 | X-H torsion
[ 10763 10752 10751 10750 ] final  137.88 input  -60.55 | X-H torsion
[ 11005 11000 10999 10996 ] final   34.21 input  -57.11 | X-H torsion

> <Gold.Protein.ActiveResidues>
 VAL166  LYS551  ARG553  GLY616  TRP617  ASP618  TYR619  PRO620  LYS621  CYS622 
 ASP623  PHE694  ASN695  SER759  ASP760  ASP761  ALA762  ILE779  LEU786  VAL792 
 PHE793  MET794  SER795  GLU796  ALA797  LYS798  CYS799  TRP800  GLU811  SER814 

> <Gold.Protein.RotatedAtoms>
  151.6796  133.3312  159.3216 H   0  0  0  0  0  0  0  0  0  0  0  0  # atno 6907 bound_to 6896
  150.7829  134.6792  159.6444 H   0  0  0  0  0  0  0  0  0  0  0  0  # atno 6908 bound_to 6896
  152.3891  134.6473  160.0166 H   0  0  0  0  0  0  0  0  0  0  0  0  # atno 6909 bound_to 6896
  145.1247  140.8690  143.3793 H   0  0  0  0  0  0  0  0  0  0  0  0  # atno 7974 bound_to 7965
  155.5261  140.3481  155.4417 H   0  0  0  0  0  0  0  0  0  0  0  0  # atno 8008 bound_to 7997
  156.0750  140.1372  156.9809 H   0  0  0  0  0  0  0  0  0  0  0  0  # atno 8009 bound_to 7997
  154.4548  140.0958  156.6702 H   0  0  0  0  0  0  0  0  0  0  0  0  # atno 8010 bound_to 7997
  140.5359  143.9761  150.6491 H   0  0  0  0  0  0  0  0  0  0  0  0  # atno 10167 bound_to 10162
  156.0037  130.4626  150.4065 H   0  0  0  0  0  0  0  0  0  0  0  0  # atno 10718 bound_to 10713
  153.8804  135.3045  155.3445 H   0  0  0  0  0  0  0  0  0  0  0  0  # atno 10763 bound_to 10752
  154.7764  135.4859  153.9756 H   0  0  0  0  0  0  0  0  0  0  0  0  # atno 10764 bound_to 10752
  153.1355  135.6813  153.9207 H   0  0  0  0  0  0  0  0  0  0  0  0  # atno 10765 bound_to 10752
  140.2552  134.3257  155.7876 H   0  0  0  0  0  0  0  0  0  0  0  0  # atno 11005 bound_to 11000
  145.0701  139.3038  143.5836 LP  0  0  0  0  0  0  0  0  0  0  0  0  # atno 17320 bound_to 7965
  146.3518  140.0173  142.8661 LP  0  0  0  0  0  0  0  0  0  0  0  0  # atno 17321 bound_to 7965
  140.3149  143.3174  152.0842 LP  0  0  0  0  0  0  0  0  0  0  0  0  # atno 17342 bound_to 10162
  139.4971  144.6612  151.6460 LP  0  0  0  0  0  0  0  0  0  0  0  0  # atno 17343 bound_to 10162
  157.2130  131.0465  151.2588 LP  0  0  0  0  0  0  0  0  0  0  0  0  # atno 17370 bound_to 10713
  157.3871  130.7262  149.6671 LP  0  0  0  0  0  0  0  0  0  0  0  0  # atno 17371 bound_to 10713
  141.2197  133.7377  156.9100 LP  0  0  0  0  0  0  0  0  0  0  0  0  # atno 17394 bound_to 11000
  140.1519  134.9224  157.2603 LP  0  0  0  0  0  0  0  0  0  0  0  0  # atno 17395 bound_to 11000

$$$$
