AV-unprocessed.smi:162|AV-procd|sdf|1379|dock2
  -GOLD-   2262019103D 1   1.00000     0.00000
 Structure written by MMmdl.
 54 57  0  0  0  0  0  0  0  0  1 V2000
  154.2928  140.6780  161.5901 C   0  0  0  0  0  0  0  0  0  0  0  0
  153.8608  141.9368  161.1047 O   0  0  0  0  0  0  0  0  0  0  0  0
  153.6925  141.9480  159.6972 C   0  0  0  0  0  0  0  0  0  0  0  0
  152.2186  142.2451  159.3722 C   0  0  1  0  0  0  0  0  0  0  0  0
  151.8356  143.7146  159.5384 C   0  0  0  0  0  0  0  0  0  0  0  0
  150.5838  143.8690  158.6674 C   0  0  2  0  0  0  0  0  0  0  0  0
  149.4298  143.8325  159.4960 O   0  0  0  0  0  0  0  0  0  0  0  0
  149.2743  144.9886  160.3033 C   0  0  0  0  0  0  0  0  0  0  0  0
  150.6187  142.6529  157.7211 C   0  0  0  0  0  0  0  0  0  0  0  0
  151.8693  141.9567  157.9885 N   0  0  0  0  0  0  0  0  0  0  0  0
  151.8784  140.6561  157.6230 C   0  0  0  0  0  0  0  0  0  0  0  0
  152.3964  139.7763  158.5142 N   0  0  0  0  0  0  0  0  0  0  0  0
  152.4286  138.4721  158.2247 C   0  0  0  0  0  0  0  0  0  0  0  0
  152.0027  137.8503  157.1231 N   0  0  0  0  0  0  0  0  0  0  0  0
  151.4835  138.7346  156.2234 C   0  0  0  0  0  0  0  0  0  0  0  0
  151.3847  140.1447  156.3888 C   0  0  0  0  0  0  0  0  0  0  0  0
  150.8064  140.7136  155.2601 N   0  0  0  0  0  0  0  0  0  0  0  0
  150.5698  139.6973  154.4763 C   0  0  0  0  0  0  0  0  0  0  0  0
  150.9383  138.4701  154.9794 N   0  0  0  0  0  0  0  0  0  0  0  0
  150.7852  137.1788  154.3269 C   0  0  0  0  0  0  0  0  0  0  0  0
  149.7065  136.2754  154.9743 C   0  0  0  0  0  0  0  0  0  0  0  0
  148.4383  136.7874  154.6015 O   0  0  0  0  0  0  0  0  0  0  0  0
  149.8230  134.8322  154.4440 C   0  0  0  0  0  0  0  0  0  0  0  0
  148.8801  133.8650  155.1820 C   0  0  0  0  0  0  0  0  0  0  0  0
  149.1232  133.9219  156.5823 O   0  0  0  0  0  0  0  0  0  0  0  0
  148.8547  135.2043  157.1361 C   0  0  0  0  0  0  0  0  0  0  0  0
  149.7917  136.2564  156.5166 C   0  0  0  0  0  0  0  0  0  0  0  0
  151.5850  141.6499  160.0304 H   0  0  0  0  0  0  0  0  0  0  0  0
  150.6331  144.8114  158.1189 H   0  0  0  0  0  0  0  0  0  0  0  0
  154.3970  140.7208  162.6740 H   0  0  0  0  0  0  0  0  0  0  0  0
  155.2616  140.4054  161.1696 H   0  0  0  0  0  0  0  0  0  0  0  0
  153.5733  139.8937  161.3513 H   0  0  0  0  0  0  0  0  0  0  0  0
  154.3411  142.6982  159.2417 H   0  0  0  0  0  0  0  0  0  0  0  0
  153.9821  140.9764  159.2935 H   0  0  0  0  0  0  0  0  0  0  0  0
  151.6740  143.9957  160.5796 H   0  0  0  0  0  0  0  0  0  0  0  0
  152.6295  144.3508  159.1441 H   0  0  0  0  0  0  0  0  0  0  0  0
  148.3769  144.8879  160.9135 H   0  0  0  0  0  0  0  0  0  0  0  0
  149.1686  145.8912  159.7007 H   0  0  0  0  0  0  0  0  0  0  0  0
  150.1234  145.1155  160.9759 H   0  0  0  0  0  0  0  0  0  0  0  0
  149.7613  142.0001  157.8898 H   0  0  0  0  0  0  0  0  0  0  0  0
  150.5898  142.9719  156.6787 H   0  0  0  0  0  0  0  0  0  0  0  0
  152.8543  137.8350  158.9858 H   0  0  0  0  0  0  0  0  0  0  0  0
  150.1106  139.8143  153.5055 H   0  0  0  0  0  0  0  0  0  0  0  0
  150.5544  137.3528  153.2749 H   0  0  0  0  0  0  0  0  0  0  0  0
  151.7528  136.6753  154.3441 H   0  0  0  0  0  0  0  0  0  0  0  0
  148.4545  136.9858  153.6776 H   0  0  0  0  0  0  0  0  0  0  0  0
  149.6272  134.8010  153.3713 H   0  0  0  0  0  0  0  0  0  0  0  0
  150.8472  134.4810  154.5767 H   0  0  0  0  0  0  0  0  0  0  0  0
  147.8348  134.0959  154.9721 H   0  0  0  0  0  0  0  0  0  0  0  0
  149.0517  132.8447  154.8386 H   0  0  0  0  0  0  0  0  0  0  0  0
  147.8079  135.4687  156.9793 H   0  0  0  0  0  0  0  0  0  0  0  0
  149.0090  135.1592  158.2144 H   0  0  0  0  0  0  0  0  0  0  0  0
  150.8152  136.0268  156.8163 H   0  0  0  0  0  0  0  0  0  0  0  0
  149.5635  137.2385  156.9323 H   0  0  0  0  0  0  0  0  0  0  0  0
  1  2  1  0  0  0  0
  1 30  1  0  0  0  0
  1 31  1  0  0  0  0
  1 32  1  0  0  0  0
  2  3  1  0  0  0  0
  3  4  1  0  0  0  0
  3 33  1  0  0  0  0
  3 34  1  0  0  0  0
  4 28  1  0  0  0  0
  4 10  1  0  0  0  0
  4  5  1  0  0  0  0
  5  6  1  0  0  0  0
  5 35  1  0  0  0  0
  5 36  1  0  0  0  0
  6 29  1  0  0  0  0
  6  7  1  0  0  0  0
  6  9  1  0  0  0  0
  7  8  1  0  0  0  0
  8 37  1  0  0  0  0
  8 38  1  0  0  0  0
  8 39  1  0  0  0  0
  9 10  1  0  0  0  0
  9 40  1  0  0  0  0
  9 41  1  0  0  0  0
 10 11  1  0  0  0  0
 11 16  1  0  0  0  0
 11 12  2  0  0  0  0
 12 13  1  0  0  0  0
 13 14  2  0  0  0  0
 13 42  1  0  0  0  0
 14 15  1  0  0  0  0
 15 19  1  0  0  0  0
 15 16  2  0  0  0  0
 16 17  1  0  0  0  0
 17 18  2  0  0  0  0
 18 19  1  0  0  0  0
 18 43  1  0  0  0  0
 19 20  1  0  0  0  0
 20 21  1  0  0  0  0
 20 44  1  0  0  0  0
 20 45  1  0  0  0  0
 21 27  1  0  0  0  0
 21 22  1  0  0  0  0
 21 23  1  0  0  0  0
 22 46  1  0  0  0  0
 23 24  1  0  0  0  0
 23 47  1  0  0  0  0
 23 48  1  0  0  0  0
 24 25  1  0  0  0  0
 24 49  1  0  0  0  0
 24 50  1  0  0  0  0
 25 26  1  0  0  0  0
 26 27  1  0  0  0  0
 26 51  1  0  0  0  0
 26 52  1  0  0  0  0
 27 53  1  0  0  0  0
 27 54  1  0  0  0  0
M  END
> <s_m_source_file>
AV-unprocessed.smi

> <i_m_source_file_index>
162

> <i_lp_mmshare_version>
43012

> <i_f3d_flags>
0

> <s_epik_input>
W0NIM11PW0NIMl1bQ0BASF0xW0NIMl1bQ0BASF0oT1tDSDNdKVtDSDJdTjFjKG5bY0hdbjIpYyhjMjMpbltjSF1uM1tDSDJdQzQoW09IXSlbQ0gyXVtDSDJdT1tDSDJdW0NIMl00

> <s_epik_cmdline>
J2VwaWtfcHl0aG9uJywgJy1waCcsICc3LjAnLCAnLXRuJywgJzgnLCAnLW1hJywgJzIwMCcsICctbWV0YWxfYmluZGluZycsICctaW1hZScsICc8aW5maWxlLm1hZT4nLCAnLW9tYWUnLCAnPG91dGZpbGUubWFlPic=

> <r_lp_tautomer_probability>
1

> <r_epik_Ionization_Penalty>
0.00660334

> <r_epik_Ionization_Penalty_Charging>
0

> <r_epik_Ionization_Penalty_Neutral>
0.00660334

> <r_epik_State_Penalty>
0.00469459

> <r_epik_Charging_Adjusted_Penalty>
0.00469459

> <i_epik_Tot_Q>
0

> <i_epik_Tot_abs_Q>
0

> <r_epik_Metal_State_Penalty>
-0

> <b_epik_Metal_Only>
0

> <s_lp_Force_Field>
OPLS_2005

> <r_lp_Energy>
43.1058

> <b_lp_Chiralities_Consistent>
1

> <s_lp_Variant>
AV-unprocessed.smi:162-4

> <Gold.Version>
5.8.1

> <Gold.Id.Protein>
6NUR|6NUR_protein|mol2

> <Gold.PLP.Fitness>
45.8038

> <Gold.PLP.PLP>
-41.6705

> <Gold.PLP.part.hbond>
-2.7693

> <Gold.PLP.part.metal>
0.0000

> <Gold.PLP.part.buried>
-2.6387

> <Gold.PLP.part.nonpolar>
-35.9680

> <Gold.PLP.part.repulsive>
0.2121

> <Gold.PLP.ligand.clash>
0.0000

> <Gold.PLP.ligand.torsion>
1.0497

> <Gold.PLP.Chemscore.Hbond>
1.0000

> <Gold.PLP.Chemscore.CHOScore>
1.0000

> <Gold.PLP.Chemscore.Metal>
0.0000

> <Gold.Chemscore.Hbonds>
donor molecule, donor type, donor heavy atom, donor atom, acceptor molecule, acceptor atom, score
      L1  H    22    46       P1  7948  0.86
      L1  C    18    43       P1  7957  1.00

> <Gold.PLP.Chemscore.Internal.Correction>
0.2327

> <Gold.Rescore>
     Score         DG    S(hbond)    S(metal)    S(lipo)     H(rot)  DE(clash)    DE(int)     intcor
     10.02     -12.88       1.00        0.00      97.41       2.86       0.21       2.65       ----

> <Gold.Chemscore.Fitness>
10.0223

> <Gold.Chemscore.DG>
-12.8804

> <Gold.Chemscore.ZeroCoef>
-5.4800

> <Gold.Chemscore.Hbond>
0.9989

> <Gold.Chemscore.Metal>
0.0000

> <Gold.Chemscore.Lipo>
97.4070

> <Gold.Chemscore.Internal_Hbond>
0.0000

> <Gold.Chemscore.DEClash>
0.2115

> <Gold.Chemscore.DEInternal>
2.6467

> <Gold.Chemscore.Rot>
2.8642

> <Gold.Chemscore.Internal.Correction>
   9.000000E+99

> <Gold.Chemscore.Hbonds>
donor molecule, donor type, donor heavy atom, donor atom, acceptor molecule, acceptor atom, score
      L1  H    22    46       P1  7948  0.80

> <Gold.Chemscore.Hbond.Weighted>
-3.3362

> <Gold.Chemscore.Metal.Weighted>
-0.0000

> <Gold.Chemscore.Lipo.Weighted>
-11.3966

> <Gold.Chemscore.Internal_Hbond.Weighted>
0.0000

> <Gold.Chemscore.DEClash.Weighted>
0.2115

> <Gold.Chemscore.DEInternal.Weighted>
2.6467

> <Gold.Chemscore.Rot.Weighted>
7.3324

> <Gold.Chemscore.Internal.Correction.Weighted>
   9.000000E+99

> <Gold.Protein.RotatedTorsions>
[ 6907 6896 6895 6894 ] final   46.75 input  -60.11 | X-H torsion
[ 7974 7965 7964 7962 ] final  -77.14 input  175.53 | X-H torsion
[ 8008 7997 7996 7995 ] final -105.41 input   59.86 | X-H torsion
[ 10167 10162 10161 10158 ] final   82.51 input  -65.29 | X-H torsion
[ 10718 10713 10712 10709 ] final   67.18 input   66.30 | X-H torsion
[ 10763 10752 10751 10750 ] final  110.71 input  -60.55 | X-H torsion
[ 11005 11000 10999 10996 ] final -175.63 input  -57.11 | X-H torsion

> <Gold.Protein.ActiveResidues>
 VAL166  LYS551  ARG553  GLY616  TRP617  ASP618  TYR619  PRO620  LYS621  CYS622 
 ASP623  PHE694  ASN695  SER759  ASP760  ASP761  ALA762  ILE779  LEU786  VAL792 
 PHE793  MET794  SER795  GLU796  ALA797  LYS798  CYS799  TRP800  GLU811  SER814 

> <Gold.Protein.RotatedAtoms>
  152.2600  134.8044  160.0431 H   0  0  0  0  0  0  0  0  0  0  0  0  # atno 6907 bound_to 6896
  151.8693  133.3467  159.3738 H   0  0  0  0  0  0  0  0  0  0  0  0  # atno 6908 bound_to 6896
  150.7113  134.5055  159.5626 H   0  0  0  0  0  0  0  0  0  0  0  0  # atno 6909 bound_to 6896
  145.6036  140.9403  143.1227 H   0  0  0  0  0  0  0  0  0  0  0  0  # atno 7974 bound_to 7965
  154.8994  140.0413  157.1884 H   0  0  0  0  0  0  0  0  0  0  0  0  # atno 8008 bound_to 7997
  154.8459  140.2921  155.5608 H   0  0  0  0  0  0  0  0  0  0  0  0  # atno 8009 bound_to 7997
  156.2994  140.2474  156.3409 H   0  0  0  0  0  0  0  0  0  0  0  0  # atno 8010 bound_to 7997
  139.9281  144.6170  150.8373 H   0  0  0  0  0  0  0  0  0  0  0  0  # atno 10167 bound_to 10162
  157.6214  130.9307  150.0207 H   0  0  0  0  0  0  0  0  0  0  0  0  # atno 10718 bound_to 10713
  153.4528  135.3740  155.2294 H   0  0  0  0  0  0  0  0  0  0  0  0  # atno 10763 bound_to 10752
  154.8756  135.3890  154.4017 H   0  0  0  0  0  0  0  0  0  0  0  0  # atno 10764 bound_to 10752
  153.4579  135.7086  153.6132 H   0  0  0  0  0  0  0  0  0  0  0  0  # atno 10765 bound_to 10752
  140.4611  134.6253  157.4843 H   0  0  0  0  0  0  0  0  0  0  0  0  # atno 11005 bound_to 11000
  144.7299  139.7757  143.7351 LP  0  0  0  0  0  0  0  0  0  0  0  0  # atno 17320 bound_to 7965
  146.1558  139.4655  143.0020 LP  0  0  0  0  0  0  0  0  0  0  0  0  # atno 17321 bound_to 7965
  140.7645  143.3250  151.2537 LP  0  0  0  0  0  0  0  0  0  0  0  0  # atno 17342 bound_to 10162
  139.6805  143.9862  152.2806 LP  0  0  0  0  0  0  0  0  0  0  0  0  # atno 17343 bound_to 10162
  156.1362  130.3642  149.9653 LP  0  0  0  0  0  0  0  0  0  0  0  0  # atno 17370 bound_to 10713
  156.7704  130.9184  151.3644 LP  0  0  0  0  0  0  0  0  0  0  0  0  # atno 17371 bound_to 10713
  139.9944  134.6934  155.9634 LP  0  0  0  0  0  0  0  0  0  0  0  0  # atno 17394 bound_to 11000
  141.1621  133.6538  156.4353 LP  0  0  0  0  0  0  0  0  0  0  0  0  # atno 17395 bound_to 11000

$$$$
