AV-unprocessed.smi:2083|AV-procd|sdf|8507|dock7
  -GOLD-   2272011223D 1   1.00000     0.00000
 Structure written by MMmdl.
 44 45  0  0  0  0  0  0  0  0  3 V2000
  153.6170  140.9635  160.3921 C   0  0  0  0  0  0  0  0  0  0  0  0
  152.8137  140.6816  159.1690 C   0  0  0  0  0  0  0  0  0  0  0  0
  151.6093  141.1452  158.7206 C   0  0  0  0  0  0  0  0  0  0  0  0
  151.4396  140.4600  157.4881 C   0  0  0  0  0  0  0  0  0  0  0  0
  150.2810  140.6735  156.6958 N   0  0  0  0  0  0  0  0  0  0  0  0
  150.0862  140.3950  155.3938 C   0  0  0  0  0  0  0  0  0  0  0  0
  150.9883  139.8787  154.7233 O   0  0  0  0  0  0  0  0  0  0  0  0
  148.8399  140.7468  154.9750 N   0  5  0  0  0  0  0  0  0  0  0  0
  148.5232  141.2325  153.6329 C   0  0  0  0  0  0  0  0  0  0  0  0
  147.0824  140.7906  153.2193 C   0  0  1  0  0  0  0  0  0  0  0  0
  146.9738  139.2825  152.8898 C   0  0  0  0  0  0  0  0  0  0  0  0
  145.9836  141.1890  154.1652 N   0  3  1  0  0  0  0  0  0  0  0  0
  145.8459  140.4026  155.4275 C   0  0  0  0  0  0  0  0  0  0  0  0
  144.4942  140.6919  156.0982 C   0  0  0  0  0  0  0  0  0  0  0  0
  144.3208  142.1939  156.3604 C   0  0  0  0  0  0  0  0  0  0  0  0
  144.4955  142.9912  155.0560 C   0  0  1  0  0  0  0  0  0  0  0  0
  144.3448  144.5000  155.2967 C   0  0  0  0  0  0  0  0  0  0  0  0
  145.8508  142.6556  154.4015 C   0  0  0  0  0  0  0  0  0  0  0  0
  152.4508  139.6501  157.2104 N   0  0  0  0  0  0  0  0  0  0  0  0
  153.3361  139.7879  158.2861 O   0  0  0  0  0  0  0  0  0  0  0  0
  153.2546  141.8584  160.8980 H   0  0  0  0  0  0  0  0  0  0  0  0
  154.6660  141.1196  160.1400 H   0  0  0  0  0  0  0  0  0  0  0  0
  153.5569  140.1306  161.0927 H   0  0  0  0  0  0  0  0  0  0  0  0
  150.9557  141.8596  159.1987 H   0  0  0  0  0  0  0  0  0  0  0  0
  149.4989  141.0955  157.1737 H   0  0  0  0  0  0  0  0  0  0  0  0
  148.5948  142.3186  153.5598 H   0  0  0  0  0  0  0  0  0  0  0  0
  149.2339  140.8422  152.9041 H   0  0  0  0  0  0  0  0  0  0  0  0
  146.8518  141.3049  152.2848 H   0  0  0  0  0  0  0  0  0  0  0  0
  147.6071  139.0005  152.0465 H   0  0  0  0  0  0  0  0  0  0  0  0
  145.9528  139.0239  152.6084 H   0  0  0  0  0  0  0  0  0  0  0  0
  147.2498  138.6430  153.7296 H   0  0  0  0  0  0  0  0  0  0  0  0
  145.9174  139.3347  155.2242 H   0  0  0  0  0  0  0  0  0  0  0  0
  146.6526  140.6490  156.1196 H   0  0  0  0  0  0  0  0  0  0  0  0
  143.6848  140.3340  155.4607 H   0  0  0  0  0  0  0  0  0  0  0  0
  144.4180  140.1389  157.0348 H   0  0  0  0  0  0  0  0  0  0  0  0
  143.3368  142.3829  156.7910 H   0  0  0  0  0  0  0  0  0  0  0  0
  145.0529  142.5236  157.0992 H   0  0  0  0  0  0  0  0  0  0  0  0
  143.7048  142.6886  154.3675 H   0  0  0  0  0  0  0  0  0  0  0  0
  145.1122  144.8719  155.9765 H   0  0  0  0  0  0  0  0  0  0  0  0
  143.3729  144.7329  155.7332 H   0  0  0  0  0  0  0  0  0  0  0  0
  144.4278  145.0575  154.3634 H   0  0  0  0  0  0  0  0  0  0  0  0
  146.6661  143.0086  155.0346 H   0  0  0  0  0  0  0  0  0  0  0  0
  145.9322  143.1896  153.4537 H   0  0  0  0  0  0  0  0  0  0  0  0
  145.1503  140.9600  153.6436 H   0  0  0  0  0  0  0  0  0  0  0  0
  1  2  1  0  0  0  0
  1 21  1  0  0  0  0
  1 22  1  0  0  0  0
  1 23  1  0  0  0  0
  2 20  1  0  0  0  0
  2  3  2  0  0  0  0
  3  4  1  0  0  0  0
  3 24  1  0  0  0  0
  4  5  1  0  0  0  0
  4 19  2  0  0  0  0
  5  6  1  0  0  0  0
  5 25  1  0  0  0  0
  6  7  2  0  0  0  0
  6  8  1  0  0  0  0
  8  9  1  0  0  0  0
  9 10  1  0  0  0  0
  9 26  1  0  0  0  0
  9 27  1  0  0  0  0
 10 11  1  0  0  0  0
 10 12  1  0  0  0  0
 10 28  1  0  0  0  0
 11 29  1  0  0  0  0
 11 30  1  0  0  0  0
 11 31  1  0  0  0  0
 12 18  1  0  0  0  0
 12 13  1  0  0  0  0
 12 44  1  0  0  0  0
 13 14  1  0  0  0  0
 13 32  1  0  0  0  0
 13 33  1  0  0  0  0
 14 15  1  0  0  0  0
 14 34  1  0  0  0  0
 14 35  1  0  0  0  0
 15 16  1  0  0  0  0
 15 36  1  0  0  0  0
 15 37  1  0  0  0  0
 16 17  1  0  0  0  0
 16 18  1  0  0  0  0
 16 38  1  0  0  0  0
 17 39  1  0  0  0  0
 17 40  1  0  0  0  0
 17 41  1  0  0  0  0
 18 42  1  0  0  0  0
 18 43  1  0  0  0  0
 19 20  1  0  0  0  0
M  CHG  1   8  -1
M  CHG  1  12   1
M  END
> <s_m_source_file>
AV-unprocessed.smi

> <i_m_source_file_index>
2083

> <i_lp_mmshare_version>
43012

> <i_f3d_flags>
0

> <s_epik_input>
W0NIM11jMVtjSF1jKG5vMSlbTkhdQyg9TylbTkhdW0NIMl1bQ0BIXShbQ0gzXSlOMltDSDJdW0NIMl1bQ0gyXVtDQEBIXShbQ0gzXSlbQ0gyXTI=

> <s_epik_cmdline>
J2VwaWtfcHl0aG9uJywgJy1waCcsICc3LjAnLCAnLXRuJywgJzgnLCAnLW1hJywgJzIwMCcsICctbWV0YWxfYmluZGluZycsICctaW1hZScsICc8aW5maWxlLm1hZT4nLCAnLW9tYWUnLCAnPG91dGZpbGUubWFlPic=

> <r_epik_Ionization_Penalty>
6.76934

> <r_epik_Ionization_Penalty_Charging>
6.76934

> <r_epik_Ionization_Penalty_Neutral>
5.77849e-06

> <r_epik_State_Penalty>
6.79457

> <r_epik_Charging_Adjusted_Penalty>
13.5639

> <i_epik_Tot_Q>
0

> <i_epik_Tot_abs_Q>
2

> <r_epik_Metal_State_Penalty>
2.72837

> <b_epik_Metal_Only>
1

> <s_lp_Force_Field>
OPLS_2005

> <r_lp_Energy>
21.1768

> <b_lp_Chiralities_Consistent>
1

> <s_lp_Variant>
AV-unprocessed.smi:2083-18

> <Gold.Version>
5.8.1

> <Gold.Id.Protein>
6NUR|6NUR_protein|mol2

> <Gold.PLP.Fitness>
41.6901

> <Gold.PLP.PLP>
-31.6778

> <Gold.PLP.part.hbond>
-4.0000

> <Gold.PLP.part.metal>
0.0000

> <Gold.PLP.part.buried>
-1.8583

> <Gold.PLP.part.nonpolar>
-25.4714

> <Gold.PLP.part.repulsive>
0.2110

> <Gold.PLP.ligand.clash>
0.0000

> <Gold.PLP.ligand.torsion>
0.6266

> <Gold.PLP.Chemscore.Hbond>
3.6768

> <Gold.PLP.Chemscore.CHOScore>
0.0000

> <Gold.PLP.Chemscore.Metal>
0.0000

> <Gold.Chemscore.Hbonds>
donor molecule, donor type, donor heavy atom, donor atom, acceptor molecule, acceptor atom, score
      L1  H    12    44       P1 10175  2.00
      P1  H  7989  7998       L1     7  1.00
      P1  H  7997  8008       L1    20  0.71

> <Gold.PLP.Chemscore.Internal.Correction>
0.2352

> <Gold.Rescore>
     Score         DG    S(hbond)    S(metal)    S(lipo)     H(rot)  DE(clash)    DE(int)     intcor
     14.68     -16.60       2.33        0.00      61.59       1.52       0.02       1.90       ----

> <Gold.Chemscore.Fitness>
14.6837

> <Gold.Chemscore.DG>
-16.5952

> <Gold.Chemscore.ZeroCoef>
-5.4800

> <Gold.Chemscore.Hbond>
2.3349

> <Gold.Chemscore.Metal>
0.0000

> <Gold.Chemscore.Lipo>
61.5852

> <Gold.Chemscore.Internal_Hbond>
0.0000

> <Gold.Chemscore.DEClash>
0.0154

> <Gold.Chemscore.DEInternal>
1.8962

> <Gold.Chemscore.Rot>
1.5190

> <Gold.Chemscore.Internal.Correction>
   9.000000E+99

> <Gold.Chemscore.Hbonds>
donor molecule, donor type, donor heavy atom, donor atom, acceptor molecule, acceptor atom, score
      L1  H    12    44       P1 10175  0.78
      P1  H  7989  7998       L1     7  0.91
      P1  H  7997  8008       L1    20  0.14

> <Gold.Chemscore.Hbond.Weighted>
-7.7984

> <Gold.Chemscore.Metal.Weighted>
-0.0000

> <Gold.Chemscore.Lipo.Weighted>
-7.2055

> <Gold.Chemscore.Internal_Hbond.Weighted>
0.0000

> <Gold.Chemscore.DEClash.Weighted>
0.0154

> <Gold.Chemscore.DEInternal.Weighted>
1.8962

> <Gold.Chemscore.Rot.Weighted>
3.8886

> <Gold.Chemscore.Internal.Correction.Weighted>
   9.000000E+99

> <Gold.Protein.RotatedTorsions>
[ 6907 6896 6895 6894 ] final -163.33 input  -60.11 | X-H torsion
[ 7974 7965 7964 7962 ] final  -89.82 input  175.53 | X-H torsion
[ 8008 7997 7996 7995 ] final -113.08 input   59.86 | X-H torsion
[ 10167 10162 10161 10158 ] final  -38.19 input  -65.29 | X-H torsion
[ 10718 10713 10712 10709 ] final   94.53 input   66.30 | X-H torsion
[ 10763 10752 10751 10750 ] final -124.12 input  -60.55 | X-H torsion
[ 11005 11000 10999 10996 ] final  -79.92 input  -57.11 | X-H torsion

> <Gold.Protein.ActiveResidues>
 VAL166  LYS551  ARG553  GLY616  TRP617  ASP618  TYR619  PRO620  LYS621  CYS622 
 ASP623  PHE694  ASN695  SER759  ASP760  ASP761  ALA762  ILE779  LEU786  VAL792 
 PHE793  MET794  SER795  GLU796  ALA797  LYS798  CYS799  TRP800  GLU811  SER814 

> <Gold.Protein.RotatedAtoms>
  151.3943  133.3778  159.2724 H   0  0  0  0  0  0  0  0  0  0  0  0  # atno 6907 bound_to 6896
  150.9481  134.8885  159.7665 H   0  0  0  0  0  0  0  0  0  0  0  0  # atno 6908 bound_to 6896
  152.5100  134.3897  159.9432 H   0  0  0  0  0  0  0  0  0  0  0  0  # atno 6909 bound_to 6896
  145.4346  140.9557  143.2109 H   0  0  0  0  0  0  0  0  0  0  0  0  # atno 7974 bound_to 7965
  155.0152  140.0393  157.2415 H   0  0  0  0  0  0  0  0  0  0  0  0  # atno 8008 bound_to 7997
  154.7425  140.2751  155.6337 H   0  0  0  0  0  0  0  0  0  0  0  0  # atno 8009 bound_to 7997
  156.2867  140.2662  156.2157 H   0  0  0  0  0  0  0  0  0  0  0  0  # atno 8010 bound_to 7997
  140.7099  143.3293  151.2606 H   0  0  0  0  0  0  0  0  0  0  0  0  # atno 10167 bound_to 10162
  157.6947  131.0515  150.4200 H   0  0  0  0  0  0  0  0  0  0  0  0  # atno 10718 bound_to 10713
  154.8718  135.4074  154.3055 H   0  0  0  0  0  0  0  0  0  0  0  0  # atno 10763 bound_to 10752
  153.3907  135.7015  153.6502 H   0  0  0  0  0  0  0  0  0  0  0  0  # atno 10764 bound_to 10752
  153.5286  135.3672  155.2636 H   0  0  0  0  0  0  0  0  0  0  0  0  # atno 10765 bound_to 10752
  141.1668  133.7127  156.8195 H   0  0  0  0  0  0  0  0  0  0  0  0  # atno 11005 bound_to 11000
  144.8160  139.5875  143.7008 LP  0  0  0  0  0  0  0  0  0  0  0  0  # atno 17320 bound_to 7965
  146.2589  139.6364  142.9376 LP  0  0  0  0  0  0  0  0  0  0  0  0  # atno 17321 bound_to 7965
  139.6771  143.9919  152.2787 LP  0  0  0  0  0  0  0  0  0  0  0  0  # atno 17342 bound_to 10162
  139.9537  144.6604  150.8147 LP  0  0  0  0  0  0  0  0  0  0  0  0  # atno 17343 bound_to 10162
  156.4576  130.4025  149.6596 LP  0  0  0  0  0  0  0  0  0  0  0  0  # atno 17370 bound_to 10713
  156.3723  130.7537  151.2521 LP  0  0  0  0  0  0  0  0  0  0  0  0  # atno 17371 bound_to 10713
  140.2129  134.8814  157.3294 LP  0  0  0  0  0  0  0  0  0  0  0  0  # atno 17394 bound_to 11000
  140.2068  134.4188  155.7633 LP  0  0  0  0  0  0  0  0  0  0  0  0  # atno 17395 bound_to 11000

$$$$
