AV-unprocessed.smi:2618|AV-procd|sdf|10219|dock2
  -GOLD-   2272014223D 1   1.00000     0.00000
 Structure written by MMmdl.
 39 40  0  0  0  0  0  0  0  0  1 V2000
  150.4331  135.1832  155.0260 C   0  0  0  0  0  0  0  0  0  0  0  0
  151.4025  136.1459  155.4002 O   0  0  0  0  0  0  0  0  0  0  0  0
  151.2829  137.3548  154.6661 C   0  0  0  0  0  0  0  0  0  0  0  0
  152.3755  138.3452  155.1119 C   0  0  0  0  0  0  0  0  0  0  0  0
  151.8506  139.5485  155.8577 C   0  0  0  0  0  0  0  0  0  0  0  0
  152.3305  139.9857  156.9633 N   0  0  0  0  0  0  0  0  0  0  0  0
  151.6665  141.0630  157.3812 N   0  0  0  0  0  0  0  0  0  0  0  0
  152.0287  141.7859  158.5240 C   0  0  0  0  0  0  0  0  0  0  0  0
  151.7204  143.0882  158.5702 N   0  0  0  0  0  0  0  0  0  0  0  0
  152.0767  143.7810  159.6730 C   0  0  0  0  0  0  0  0  0  0  0  0
  151.7115  145.2497  159.6992 C   0  0  0  0  0  0  0  0  0  0  0  0
  152.7581  143.1705  160.7448 C   0  0  0  0  0  0  0  0  0  0  0  0
  153.0401  141.7979  160.5946 C   0  0  0  0  0  0  0  0  0  0  0  0
  153.7692  141.0155  161.6657 C   0  0  0  0  0  0  0  0  0  0  0  0
  152.6749  141.1141  159.4889 N   0  0  0  0  0  0  0  0  0  0  0  0
  150.5206  141.3642  156.5101 C   0  0  2  0  0  0  0  0  0  0  0  0
  150.5053  142.6629  155.9396 O   0  0  0  0  0  0  0  0  0  0  0  0
  149.1544  141.1139  157.2098 C   0  0  0  0  0  0  0  0  0  0  0  0
  149.0924  139.8612  157.6650 F   0  0  0  0  0  0  0  0  0  0  0  0
  148.9555  141.9347  158.2400 F   0  0  0  0  0  0  0  0  0  0  0  0
  148.1569  141.2847  156.3404 F   0  0  0  0  0  0  0  0  0  0  0  0
  150.7295  140.3811  155.3504 C   0  0  0  0  0  0  0  0  0  0  0  0
  150.5629  134.2818  155.6247 H   0  0  0  0  0  0  0  0  0  0  0  0
  150.5380  134.9072  153.9758 H   0  0  0  0  0  0  0  0  0  0  0  0
  149.4216  135.5560  155.1920 H   0  0  0  0  0  0  0  0  0  0  0  0
  151.3441  137.1670  153.5926 H   0  0  0  0  0  0  0  0  0  0  0  0
  150.3008  137.7906  154.8560 H   0  0  0  0  0  0  0  0  0  0  0  0
  153.0923  137.8254  155.7479 H   0  0  0  0  0  0  0  0  0  0  0  0
  152.9323  138.6786  154.2358 H   0  0  0  0  0  0  0  0  0  0  0  0
  151.8321  145.6664  160.6996 H   0  0  0  0  0  0  0  0  0  0  0  0
  150.6739  145.3918  159.3951 H   0  0  0  0  0  0  0  0  0  0  0  0
  152.3502  145.8091  159.0154 H   0  0  0  0  0  0  0  0  0  0  0  0
  153.0477  143.7220  161.6274 H   0  0  0  0  0  0  0  0  0  0  0  0
  154.0470  141.6566  162.5027 H   0  0  0  0  0  0  0  0  0  0  0  0
  154.6789  140.5727  161.2594 H   0  0  0  0  0  0  0  0  0  0  0  0
  153.1359  140.2133  162.0456 H   0  0  0  0  0  0  0  0  0  0  0  0
  149.6980  143.0876  156.1856 H   0  0  0  0  0  0  0  0  0  0  0  0
  151.0253  140.8717  154.4216 H   0  0  0  0  0  0  0  0  0  0  0  0
  149.8494  139.7707  155.1460 H   0  0  0  0  0  0  0  0  0  0  0  0
  1  2  1  0  0  0  0
  1 23  1  0  0  0  0
  1 24  1  0  0  0  0
  1 25  1  0  0  0  0
  2  3  1  0  0  0  0
  3  4  1  0  0  0  0
  3 26  1  0  0  0  0
  3 27  1  0  0  0  0
  4  5  1  0  0  0  0
  4 28  1  0  0  0  0
  4 29  1  0  0  0  0
  5 22  1  0  0  0  0
  5  6  2  0  0  0  0
  6  7  1  0  0  0  0
  7  8  1  0  0  0  0
  7 16  1  0  0  0  0
  8 15  1  0  0  0  0
  8  9  2  0  0  0  0
  9 10  1  0  0  0  0
 10 11  1  0  0  0  0
 10 12  2  0  0  0  0
 11 30  1  0  0  0  0
 11 31  1  0  0  0  0
 11 32  1  0  0  0  0
 12 13  1  0  0  0  0
 12 33  1  0  0  0  0
 13 14  1  0  0  0  0
 13 15  2  0  0  0  0
 14 34  1  0  0  0  0
 14 35  1  0  0  0  0
 14 36  1  0  0  0  0
 16 17  1  0  0  0  0
 16 18  1  0  0  0  0
 16 22  1  0  0  0  0
 17 37  1  0  0  0  0
 18 19  1  0  0  0  0
 18 20  1  0  0  0  0
 18 21  1  0  0  0  0
 22 38  1  0  0  0  0
 22 39  1  0  0  0  0
M  END
> <s_m_source_file>
AV-unprocessed.smi

> <i_m_source_file_index>
2618

> <i_lp_mmshare_version>
43012

> <i_f3d_flags>
0

> <s_epik_input>
W0NIM11PW0NIMl1bQ0gyXUMoW0NIMl0xKT1OTihbQ0BAXTEoW09IXSlDKEYpKEYpRiljMm5jKFtDSDNdKVtjSF1jKG4yKVtDSDNd

> <s_epik_cmdline>
J2VwaWtfcHl0aG9uJywgJy1waCcsICc3LjAnLCAnLXRuJywgJzgnLCAnLW1hJywgJzIwMCcsICctbWV0YWxfYmluZGluZycsICctaW1hZScsICc8aW5maWxlLm1hZT4nLCAnLW9tYWUnLCAnPG91dGZpbGUubWFlPic=

> <r_lp_tautomer_probability>
1

> <r_epik_Ionization_Penalty>
0.0648608

> <r_epik_Ionization_Penalty_Charging>
0

> <r_epik_Ionization_Penalty_Neutral>
0.0648608

> <r_epik_State_Penalty>
0.0551477

> <r_epik_Charging_Adjusted_Penalty>
0.0551477

> <i_epik_Tot_Q>
0

> <i_epik_Tot_abs_Q>
0

> <r_epik_Metal_State_Penalty>
0.0550619

> <b_epik_Metal_Only>
0

> <s_epik_Chemistry_Notes>
This compound has an imine and may undergo hydrolysis.

> <s_lp_Force_Field>
OPLS_2005

> <r_lp_Energy>
16.3005

> <b_lp_Chiralities_Consistent>
1

> <s_lp_Variant>
AV-unprocessed.smi:2618-2

> <Gold.Version>
5.8.1

> <Gold.Id.Protein>
6NUR|6NUR_protein|mol2

> <Gold.PLP.Fitness>
52.8231

> <Gold.PLP.PLP>
-46.6674

> <Gold.PLP.part.hbond>
-2.8420

> <Gold.PLP.part.metal>
0.0000

> <Gold.PLP.part.buried>
-4.1715

> <Gold.PLP.part.nonpolar>
-39.1767

> <Gold.PLP.part.repulsive>
0.1571

> <Gold.PLP.ligand.clash>
0.0000

> <Gold.PLP.ligand.torsion>
0.8354

> <Gold.PLP.Chemscore.Hbond>
2.5760

> <Gold.PLP.Chemscore.CHOScore>
0.0000

> <Gold.PLP.Chemscore.Metal>
0.0000

> <Gold.Chemscore.Hbonds>
donor molecule, donor type, donor heavy atom, donor atom, acceptor molecule, acceptor atom, score
      L1  H    17    37       P1  8028  0.66
      P1  H  7997  8009       L1     6  0.91
      P1  H 10752 10765       L1     2  0.90

> <Gold.PLP.Chemscore.Internal.Correction>
0.0984

> <Gold.Rescore>
     Score         DG    S(hbond)    S(metal)    S(lipo)     H(rot)  DE(clash)    DE(int)     intcor
     16.81     -17.98       1.96        0.00      95.43       2.03       0.04       1.13       ----

> <Gold.Chemscore.Fitness>
16.8075

> <Gold.Chemscore.DG>
-17.9835

> <Gold.Chemscore.ZeroCoef>
-5.4800

> <Gold.Chemscore.Hbond>
1.9597

> <Gold.Chemscore.Metal>
0.0000

> <Gold.Chemscore.Lipo>
95.4297

> <Gold.Chemscore.Internal_Hbond>
0.0000

> <Gold.Chemscore.DEClash>
0.0427

> <Gold.Chemscore.DEInternal>
1.1333

> <Gold.Chemscore.Rot>
2.0340

> <Gold.Chemscore.Internal.Correction>
   9.000000E+99

> <Gold.Chemscore.Hbonds>
donor molecule, donor type, donor heavy atom, donor atom, acceptor molecule, acceptor atom, score
      L1  H    17    37       P1  8028  0.66
      P1  H  7997  8009       L1     6  0.34
      P1  H 10752 10765       L1     2  0.09

> <Gold.Chemscore.Hbond.Weighted>
-6.5454

> <Gold.Chemscore.Metal.Weighted>
-0.0000

> <Gold.Chemscore.Lipo.Weighted>
-11.1653

> <Gold.Chemscore.Internal_Hbond.Weighted>
0.0000

> <Gold.Chemscore.DEClash.Weighted>
0.0427

> <Gold.Chemscore.DEInternal.Weighted>
1.1333

> <Gold.Chemscore.Rot.Weighted>
5.2071

> <Gold.Chemscore.Internal.Correction.Weighted>
   9.000000E+99

> <Gold.Protein.RotatedTorsions>
[ 6907 6896 6895 6894 ] final -144.88 input  -60.11 | X-H torsion
[ 7974 7965 7964 7962 ] final  -19.39 input  175.53 | X-H torsion
[ 8008 7997 7996 7995 ] final -177.18 input   59.86 | X-H torsion
[ 10167 10162 10161 10158 ] final -155.03 input  -65.29 | X-H torsion
[ 10718 10713 10712 10709 ] final -136.25 input   66.30 | X-H torsion
[ 10763 10752 10751 10750 ] final -176.02 input  -60.55 | X-H torsion
[ 11005 11000 10999 10996 ] final  -30.19 input  -57.11 | X-H torsion

> <Gold.Protein.ActiveResidues>
 VAL166  LYS551  ARG553  GLY616  TRP617  ASP618  TYR619  PRO620  LYS621  CYS622 
 ASP623  PHE694  ASN695  SER759  ASP760  ASP761  ALA762  ILE779  LEU786  VAL792 
 PHE793  MET794  SER795  GLU796  ALA797  LYS798  CYS799  TRP800  GLU811  SER814 

> <Gold.Protein.RotatedAtoms>
  151.1201  133.5110  159.2602 H   0  0  0  0  0  0  0  0  0  0  0  0  # atno 6907 bound_to 6896
  151.1871  135.0386  159.8827 H   0  0  0  0  0  0  0  0  0  0  0  0  # atno 6908 bound_to 6896
  152.5455  134.1046  159.8386 H   0  0  0  0  0  0  0  0  0  0  0  0  # atno 6909 bound_to 6896
  146.1844  140.4055  142.8482 H   0  0  0  0  0  0  0  0  0  0  0  0  # atno 7974 bound_to 7965
  156.0038  140.1226  157.0521 H   0  0  0  0  0  0  0  0  0  0  0  0  # atno 8008 bound_to 7997
  154.4251  140.1101  156.5803 H   0  0  0  0  0  0  0  0  0  0  0  0  # atno 8009 bound_to 7997
  155.6175  140.3472  155.4644 H   0  0  0  0  0  0  0  0  0  0  0  0  # atno 8010 bound_to 7997
  139.6964  143.9335  152.2409 H   0  0  0  0  0  0  0  0  0  0  0  0  # atno 10167 bound_to 10162
  156.2750  130.7287  151.1267 H   0  0  0  0  0  0  0  0  0  0  0  0  # atno 10718 bound_to 10713
  154.5774  135.2833  155.0766 H   0  0  0  0  0  0  0  0  0  0  0  0  # atno 10763 bound_to 10752
  154.2116  135.6407  153.5120 H   0  0  0  0  0  0  0  0  0  0  0  0  # atno 10764 bound_to 10752
  153.0077  135.5493  154.6417 H   0  0  0  0  0  0  0  0  0  0  0  0  # atno 10765 bound_to 10752
  140.9362  133.7307  156.1008 H   0  0  0  0  0  0  0  0  0  0  0  0  # atno 11005 bound_to 11000
  144.8370  140.6798  143.6254 LP  0  0  0  0  0  0  0  0  0  0  0  0  # atno 17320 bound_to 7965
  145.3983  139.1602  143.4191 LP  0  0  0  0  0  0  0  0  0  0  0  0  # atno 17321 bound_to 7965
  139.9165  144.6825  150.8506 LP  0  0  0  0  0  0  0  0  0  0  0  0  # atno 17342 bound_to 10162
  140.7697  143.3405  151.2217 LP  0  0  0  0  0  0  0  0  0  0  0  0  # atno 17343 bound_to 10162
  157.7296  131.0623  150.5765 LP  0  0  0  0  0  0  0  0  0  0  0  0  # atno 17370 bound_to 10713
  156.5865  130.4318  149.5955 LP  0  0  0  0  0  0  0  0  0  0  0  0  # atno 17371 bound_to 10713
  140.7796  134.3740  157.5490 LP  0  0  0  0  0  0  0  0  0  0  0  0  # atno 17394 bound_to 11000
  139.8808  134.9073  156.2943 LP  0  0  0  0  0  0  0  0  0  0  0  0  # atno 17395 bound_to 11000

$$$$
