AV-unprocessed.smi:2850|AV-procd|sdf|10969|dock7
  -GOLD-   2272015423D 1   1.00000     0.00000
 Structure written by MMmdl.
 44 45  0  0  0  0  0  0  0  0  1 V2000
  151.9817  143.2416  162.7630 C   0  0  0  0  0  0  0  0  0  0  0  0
  152.8486  142.1614  161.5906 S   0  0  0  0  0  0  0  0  0  0  0  0
  152.0798  142.3762  160.0137 C   0  0  0  0  0  0  0  0  0  0  0  0
  151.9945  143.6511  159.4260 C   0  0  0  0  0  0  0  0  0  0  0  0
  151.3674  143.7347  158.1707 C   0  0  0  0  0  0  0  0  0  0  0  0
  150.8775  142.5415  157.6019 C   0  0  0  0  0  0  0  0  0  0  0  0
  150.2468  142.5960  156.3521 N   0  0  0  0  0  0  0  0  0  0  0  0
  150.0796  141.3914  155.5514 C   0  0  0  0  0  0  0  0  0  0  0  0
  148.7610  141.4123  154.7671 C   0  0  2  0  0  0  0  0  0  0  0  0
  147.5646  141.7608  155.6743 C   0  0  0  0  0  0  0  0  0  0  0  0
  146.2949  141.7100  154.9571 N   0  0  0  0  0  0  0  0  0  0  0  0
  145.1819  142.0610  155.8415 C   0  0  0  0  0  0  0  0  0  0  0  0
  144.8852  143.5694  155.9857 C   0  0  0  0  0  0  0  0  0  0  0  0
  143.6863  143.8290  156.9127 C   0  0  0  0  0  0  0  0  0  0  0  0
  144.6449  144.2024  154.6075 C   0  0  0  0  0  0  0  0  0  0  0  0
  146.1446  140.3868  154.3563 C   0  0  0  0  0  0  0  0  0  0  0  0
  147.3417  140.0252  153.4612 C   0  0  0  0  0  0  0  0  0  0  0  0
  148.5456  140.1155  154.2150 O   0  0  0  0  0  0  0  0  0  0  0  0
  150.9962  141.3446  158.2313 N   0  0  0  0  0  0  0  0  0  0  0  0
  151.5921  141.2602  159.4261 N   0  0  0  0  0  0  0  0  0  0  0  0
  152.4211  143.1464  163.7558 H   0  0  0  0  0  0  0  0  0  0  0  0
  150.9277  142.9707  162.8255 H   0  0  0  0  0  0  0  0  0  0  0  0
  152.0582  144.2834  162.4511 H   0  0  0  0  0  0  0  0  0  0  0  0
  152.3919  144.5278  159.9157 H   0  0  0  0  0  0  0  0  0  0  0  0
  151.2672  144.6832  157.6637 H   0  0  0  0  0  0  0  0  0  0  0  0
  150.0177  143.4892  155.9410 H   0  0  0  0  0  0  0  0  0  0  0  0
  150.9220  141.2813  154.8671 H   0  0  0  0  0  0  0  0  0  0  0  0
  150.0913  140.5293  156.2196 H   0  0  0  0  0  0  0  0  0  0  0  0
  148.8287  142.1460  153.9615 H   0  0  0  0  0  0  0  0  0  0  0  0
  147.5377  141.0717  156.5202 H   0  0  0  0  0  0  0  0  0  0  0  0
  147.7105  142.7580  156.0913 H   0  0  0  0  0  0  0  0  0  0  0  0
  144.2807  141.5481  155.5015 H   0  0  0  0  0  0  0  0  0  0  0  0
  145.3851  141.6671  156.8385 H   0  0  0  0  0  0  0  0  0  0  0  0
  145.7554  144.0694  156.4095 H   0  0  0  0  0  0  0  0  0  0  0  0
  142.7825  143.3496  156.5356 H   0  0  0  0  0  0  0  0  0  0  0  0
  143.4838  144.8965  157.0041 H   0  0  0  0  0  0  0  0  0  0  0  0
  143.8712  143.4466  157.9168 H   0  0  0  0  0  0  0  0  0  0  0  0
  143.7750  143.7653  154.1165 H   0  0  0  0  0  0  0  0  0  0  0  0
  145.5047  144.0570  153.9530 H   0  0  0  0  0  0  0  0  0  0  0  0
  144.4748  145.2762  154.6916 H   0  0  0  0  0  0  0  0  0  0  0  0
  146.0391  139.6344  155.1395 H   0  0  0  0  0  0  0  0  0  0  0  0
  145.2386  140.3424  153.7535 H   0  0  0  0  0  0  0  0  0  0  0  0
  147.2360  139.0100  153.0785 H   0  0  0  0  0  0  0  0  0  0  0  0
  147.3940  140.6901  152.5977 H   0  0  0  0  0  0  0  0  0  0  0  0
  1  2  1  0  0  0  0
  1 21  1  0  0  0  0
  1 22  1  0  0  0  0
  1 23  1  0  0  0  0
  2  3  1  0  0  0  0
  3 20  1  0  0  0  0
  3  4  2  0  0  0  0
  4  5  1  0  0  0  0
  4 24  1  0  0  0  0
  5  6  2  0  0  0  0
  5 25  1  0  0  0  0
  6  7  1  0  0  0  0
  6 19  1  0  0  0  0
  7  8  1  0  0  0  0
  7 26  1  0  0  0  0
  8  9  1  0  0  0  0
  8 27  1  0  0  0  0
  8 28  1  0  0  0  0
  9 18  1  0  0  0  0
  9 10  1  0  0  0  0
  9 29  1  0  0  0  0
 10 11  1  0  0  0  0
 10 30  1  0  0  0  0
 10 31  1  0  0  0  0
 11 12  1  0  0  0  0
 11 16  1  0  0  0  0
 12 13  1  0  0  0  0
 12 32  1  0  0  0  0
 12 33  1  0  0  0  0
 13 14  1  0  0  0  0
 13 15  1  0  0  0  0
 13 34  1  0  0  0  0
 14 35  1  0  0  0  0
 14 36  1  0  0  0  0
 14 37  1  0  0  0  0
 15 38  1  0  0  0  0
 15 39  1  0  0  0  0
 15 40  1  0  0  0  0
 16 17  1  0  0  0  0
 16 41  1  0  0  0  0
 16 42  1  0  0  0  0
 17 18  1  0  0  0  0
 17 43  1  0  0  0  0
 17 44  1  0  0  0  0
 19 20  2  0  0  0  0
M  END
> <s_m_source_file>
AV-unprocessed.smi

> <i_m_source_file_index>
2850

> <i_lp_mmshare_version>
43012

> <i_f3d_flags>
0

> <s_epik_input>
W0NIM11TYzFbY0hdW2NIXWMobm4xKVtOSF1bQ0gyXVtDQEBIXTJbQ0gyXU4oW0NIMl1bQ0gyXU8yKVtDSDJdW0NIXShbQ0gzXSlbQ0gzXQ==

> <s_epik_cmdline>
J2VwaWtfcHl0aG9uJywgJy1waCcsICc3LjAnLCAnLXRuJywgJzgnLCAnLW1hJywgJzIwMCcsICctbWV0YWxfYmluZGluZycsICctaW1hZScsICc8aW5maWxlLm1hZT4nLCAnLW9tYWUnLCAnPG91dGZpbGUubWFlPic=

> <r_lp_tautomer_probability>
0.999978

> <r_epik_Ionization_Penalty>
1.20939

> <r_epik_Ionization_Penalty_Charging>
0

> <r_epik_Ionization_Penalty_Neutral>
1.20939

> <r_epik_State_Penalty>
1.27042

> <r_epik_Charging_Adjusted_Penalty>
1.27042

> <i_epik_Tot_Q>
0

> <i_epik_Tot_abs_Q>
0

> <r_epik_Metal_State_Penalty>
1.26998

> <b_epik_Metal_Only>
0

> <s_lp_Force_Field>
OPLS_2005

> <r_lp_Energy>
30.5151

> <b_lp_Chiralities_Consistent>
1

> <s_lp_Variant>
AV-unprocessed.smi:2850-5

> <Gold.Version>
5.8.1

> <Gold.Id.Protein>
6NUR|6NUR_protein|mol2

> <Gold.PLP.Fitness>
39.9782

> <Gold.PLP.PLP>
-38.1742

> <Gold.PLP.part.hbond>
-1.0000

> <Gold.PLP.part.metal>
0.0000

> <Gold.PLP.part.buried>
-4.2123

> <Gold.PLP.part.nonpolar>
-33.1235

> <Gold.PLP.part.repulsive>
0.3807

> <Gold.PLP.ligand.clash>
0.0000

> <Gold.PLP.ligand.torsion>
0.6255

> <Gold.PLP.Chemscore.Hbond>
0.9920

> <Gold.PLP.Chemscore.CHOScore>
0.0000

> <Gold.PLP.Chemscore.Metal>
0.0000

> <Gold.Chemscore.Hbonds>
donor molecule, donor type, donor heavy atom, donor atom, acceptor molecule, acceptor atom, score
      L1  H     7    26       P1  8028  1.00

> <Gold.PLP.Chemscore.Internal.Correction>
0.0791

> <Gold.Rescore>
     Score         DG    S(hbond)    S(metal)    S(lipo)     H(rot)  DE(clash)    DE(int)     intcor
     15.17     -15.65       0.90        0.00      95.06       1.55       0.01       0.46       ----

> <Gold.Chemscore.Fitness>
15.1733

> <Gold.Chemscore.DG>
-15.6454

> <Gold.Chemscore.ZeroCoef>
-5.4800

> <Gold.Chemscore.Hbond>
0.8996

> <Gold.Chemscore.Metal>
0.0000

> <Gold.Chemscore.Lipo>
95.0585

> <Gold.Chemscore.Internal_Hbond>
0.0000

> <Gold.Chemscore.DEClash>
0.0127

> <Gold.Chemscore.DEInternal>
0.4595

> <Gold.Chemscore.Rot>
1.5473

> <Gold.Chemscore.Internal.Correction>
   9.000000E+99

> <Gold.Chemscore.Hbonds>
donor molecule, donor type, donor heavy atom, donor atom, acceptor molecule, acceptor atom, score
      L1  H     7    26       P1  8028  0.94

> <Gold.Chemscore.Hbond.Weighted>
-3.0045

> <Gold.Chemscore.Metal.Weighted>
-0.0000

> <Gold.Chemscore.Lipo.Weighted>
-11.1218

> <Gold.Chemscore.Internal_Hbond.Weighted>
0.0000

> <Gold.Chemscore.DEClash.Weighted>
0.0127

> <Gold.Chemscore.DEInternal.Weighted>
0.4595

> <Gold.Chemscore.Rot.Weighted>
3.9610

> <Gold.Chemscore.Internal.Correction.Weighted>
   9.000000E+99

> <Gold.Protein.RotatedTorsions>
[ 6907 6896 6895 6894 ] final   97.01 input  -60.11 | X-H torsion
[ 7974 7965 7964 7962 ] final  170.39 input  175.53 | X-H torsion
[ 8008 7997 7996 7995 ] final -161.50 input   59.86 | X-H torsion
[ 10167 10162 10161 10158 ] final -144.46 input  -65.29 | X-H torsion
[ 10718 10713 10712 10709 ] final  170.55 input   66.30 | X-H torsion
[ 10763 10752 10751 10750 ] final -141.74 input  -60.55 | X-H torsion
[ 11005 11000 10999 10996 ] final -103.50 input  -57.11 | X-H torsion

> <Gold.Protein.ActiveResidues>
 VAL166  LYS551  ARG553  GLY616  TRP617  ASP618  TYR619  PRO620  LYS621  CYS622 
 ASP623  PHE694  ASN695  SER759  ASP760  ASP761  ALA762  ILE779  LEU786  VAL792 
 PHE793  MET794  SER795  GLU796  ALA797  LYS798  CYS799  TRP800  GLU811  SER814 

> <Gold.Protein.RotatedAtoms>
  152.5428  134.0799  159.8230 H   0  0  0  0  0  0  0  0  0  0  0  0  # atno 6907 bound_to 6896
  151.0902  133.5314  159.2622 H   0  0  0  0  0  0  0  0  0  0  0  0  # atno 6908 bound_to 6896
  151.2109  135.0489  159.8965 H   0  0  0  0  0  0  0  0  0  0  0  0  # atno 6909 bound_to 6896
  144.7325  139.9195  143.6419 H   0  0  0  0  0  0  0  0  0  0  0  0  # atno 7974 bound_to 7965
  155.7931  140.0881  157.1998 H   0  0  0  0  0  0  0  0  0  0  0  0  # atno 8008 bound_to 7997
  154.3984  140.1486  156.3244 H   0  0  0  0  0  0  0  0  0  0  0  0  # atno 8009 bound_to 7997
  155.8539  140.3433  155.5714 H   0  0  0  0  0  0  0  0  0  0  0  0  # atno 8010 bound_to 7997
  139.7897  143.7984  152.2648 H   0  0  0  0  0  0  0  0  0  0  0  0  # atno 10167 bound_to 10162
  157.0064  131.0191  151.2816 H   0  0  0  0  0  0  0  0  0  0  0  0  # atno 10718 bound_to 10713
  154.8534  135.3516  154.5916 H   0  0  0  0  0  0  0  0  0  0  0  0  # atno 10763 bound_to 10752
  153.6526  135.6993  153.5208 H   0  0  0  0  0  0  0  0  0  0  0  0  # atno 10764 bound_to 10752
  153.2882  135.4243  155.1100 H   0  0  0  0  0  0  0  0  0  0  0  0  # atno 10765 bound_to 10752
  141.1143  133.8645  157.1494 H   0  0  0  0  0  0  0  0  0  0  0  0  # atno 11005 bound_to 11000
  146.0940  139.3931  143.0388 LP  0  0  0  0  0  0  0  0  0  0  0  0  # atno 17320 bound_to 7965
  145.7671  140.9911  143.1169 LP  0  0  0  0  0  0  0  0  0  0  0  0  # atno 17321 bound_to 7965
  139.8071  144.7351  150.9746 LP  0  0  0  0  0  0  0  0  0  0  0  0  # atno 17342 bound_to 10162
  140.7820  143.4287  151.0728 LP  0  0  0  0  0  0  0  0  0  0  0  0  # atno 17343 bound_to 10162
  157.5352  130.8084  149.7964 LP  0  0  0  0  0  0  0  0  0  0  0  0  # atno 17370 bound_to 10713
  156.0152  130.3816  150.2134 LP  0  0  0  0  0  0  0  0  0  0  0  0  # atno 17371 bound_to 10713
  140.0055  135.0010  157.0283 LP  0  0  0  0  0  0  0  0  0  0  0  0  # atno 17394 bound_to 11000
  140.4690  134.1406  155.7200 LP  0  0  0  0  0  0  0  0  0  0  0  0  # atno 17395 bound_to 11000

$$$$
