#       Name:                AV-unprocessed.smi:671
#       Creating user name   scv26
#       Creation time:       Fri Mar 27 00:23:52 2020


#       File generated by GOLD software.
#

@<TRIPOS>MOLECULE
AV-unprocessed.smi:671
    52    53     1
SMALL
NO_CHARGES


@<TRIPOS>ATOM
      1 ****         1.8567  -4.2843   0.4289 C.3            1 S1                 0.0000
      2 ****         1.6958  -4.9648  -0.9005 C.2            1 S1                 0.0000
      3 ****         2.7498  -5.5447  -1.4494 N.2            1 S1                 0.0000
      4 ****         2.2982  -6.0530  -2.6127 N.pl3          1 S1                 0.0000
      5 ****         3.2151  -6.7683  -3.4787 C.3            1 S1                 0.0000
      6 ****         0.9551  -5.7928  -2.8009 C.2            1 S1                 0.0000
      7 ****         0.2209  -6.2529  -4.0193 C.3            1 S1                 0.0000
      8 ****         0.5265  -5.0837  -1.7108 C.2            1 S1                 0.0000
      9 ****        -0.8586  -4.5539  -1.4317 C.3            1 S1                 0.0000
     10 ****        -1.0782  -3.1383  -2.0013 C.3            1 S1                 0.0000
     11 ****        -2.5570  -2.7314  -1.9423 C.3            1 S1                 0.0000
     12 ****        -0.2847  -2.1566  -1.2542 N.am           1 S1                 0.0000
     13 ****         0.7542  -1.4042  -1.6604 C.2            1 S1                 0.0000
     14 ****         1.1795  -1.4641  -2.8124 O.2            1 S1                 0.0000
     15 ****         1.2717  -0.5915  -0.7250 N.am           1 S1                 0.0000
     16 ****         2.4180   0.2957  -0.9231 C.3            1 S1                 0.0000
     17 ****         3.7463  -0.4735  -0.7492 C.3            1 S1                 0.0000
     18 ****         4.4845   0.1783   0.4260 C.3            1 S1                 0.0000
     19 ****         3.4102   0.9345   1.2033 C.3            1 S1                 0.0000
     20 ****         2.4603   1.4373   0.1158 C.3            1 S1                 0.0000
     21 ****         1.1059   1.9296   0.6489 C.3            1 S1                 0.0000
     22 ****         2.3765  -3.3325   0.3180 H              1 S1                 0.0000
     23 ****         2.4328  -4.8996   1.1207 H              1 S1                 0.0000
     24 ****         0.8932  -4.0813   0.8958 H              1 S1                 0.0000
     25 ****         3.1135  -6.4078  -4.5026 H              1 S1                 0.0000
     26 ****         2.9870  -7.8340  -3.4509 H              1 S1                 0.0000
     27 ****         4.2461  -6.6161  -3.1564 H              1 S1                 0.0000
     28 ****        -0.8301  -5.9673  -3.9823 H              1 S1                 0.0000
     29 ****         0.2695  -7.3379  -4.1136 H              1 S1                 0.0000
     30 ****         0.6511  -5.8162  -4.9205 H              1 S1                 0.0000
     31 ****        -1.6036  -5.2259  -1.8582 H              1 S1                 0.0000
     32 ****        -1.0675  -4.5523  -0.3615 H              1 S1                 0.0000
     33 ****        -0.8052  -3.1548  -3.0572 H              1 S1                 0.0000
     34 ****        -3.1784  -3.4245  -2.5102 H              1 S1                 0.0000
     35 ****        -2.7072  -1.7367  -2.3637 H              1 S1                 0.0000
     36 ****        -2.9258  -2.7179  -0.9159 H              1 S1                 0.0000
     37 ****        -0.5882  -2.0001  -0.3039 H              1 S1                 0.0000
     38 ****         0.8517  -0.5954   0.1929 H              1 S1                 0.0000
     39 ****         2.3577   0.7315  -1.9224 H              1 S1                 0.0000
     40 ****         3.5683  -1.5282  -0.5336 H              1 S1                 0.0000
     41 ****         4.3498  -0.4350  -1.6566 H              1 S1                 0.0000
     42 ****         5.0120  -0.5492   1.0436 H              1 S1                 0.0000
     43 ****         5.2233   0.8851   0.0456 H              1 S1                 0.0000
     44 ****         2.8875   0.2497   1.8728 H              1 S1                 0.0000
     45 ****         3.8234   1.7432   1.8070 H              1 S1                 0.0000
     46 ****         2.9478   2.2869  -0.3655 H              1 S1                 0.0000
     47 ****         0.5868   1.1523   1.2090 H              1 S1                 0.0000
     48 ****         0.4600   2.2463  -0.1699 H              1 S1                 0.0000
     49 ****         1.2358   2.7819   1.3160 H              1 S1                 0.0000
     50 ****         3.6784  -5.5949  -1.0819 LP             1 S1                 0.0000
     51 ****         0.7518  -2.0824  -3.4717 LP             1 S1                 0.0000
     52 ****         1.9531  -0.8946  -3.0900 LP             1 S1                 0.0000
@<TRIPOS>BOND
    1    1    2 1     
    2    1   22 1     
    3    1   23 1     
    4    1   24 1     
    5    2    8 1     
    6    2    3 2     
    7    3    4 1     
    8    4    5 1     
    9    4    6 1     
   10    5   25 1     
   11    5   26 1     
   12    5   27 1     
   13    6    7 1     
   14    6    8 2     
   15    7   28 1     
   16    7   29 1     
   17    7   30 1     
   18    8    9 1     
   19    9   10 1     
   20    9   31 1     
   21    9   32 1     
   22   10   11 1     
   23   10   12 1     
   24   10   33 1     
   25   11   34 1     
   26   11   35 1     
   27   11   36 1     
   28   12   13 am    
   29   12   37 1     
   30   13   14 2     
   31   13   15 am    
   32   15   16 1     
   33   15   38 1     
   34   16   20 1     
   35   16   17 1     
   36   16   39 1     
   37   17   18 1     
   38   17   40 1     
   39   17   41 1     
   40   18   19 1     
   41   18   42 1     
   42   18   43 1     
   43   19   20 1     
   44   19   44 1     
   45   19   45 1     
   46   20   21 1     
   47   20   46 1     
   48   21   47 1     
   49   21   48 1     
   50   21   49 1     
   51    3   50 1     
   52   14   51 1     
   53   14   52 1     
@<TRIPOS>SUBSTRUCTURE
      1 S1             1
@<TRIPOS>SET
LONE_PAIRS      STATIC     ATOMS    <user>   **** ""
3 50 51 52
DONOR_HYDROGENS      STATIC     ATOMS    <user>   **** ""
2 37 38
ATOM$BLUE        STATIC     ATOMS    COLORGROUP SYSTEM
3 50 51 52
ATOM$RED        STATIC     ATOMS    COLORGROUP SYSTEM
2 37 38
