AV-unprocessed.smi:1701|AV-procd|sdf|6829|dock8
  -GOLD-   22720 8 03D 1   1.00000     0.00000
 Structure written by MMmdl.
 54 56  0  0  0  0  0  0  0  0  2 V2000
  151.6270  143.8092  157.3995 C   0  0  0  0  0  0  0  0  0  0  0  0
  151.1838  142.6244  156.5300 C   0  0  0  0  0  0  0  0  0  0  0  0
  151.3202  141.3337  157.2052 N   0  0  0  0  0  0  0  0  0  0  0  0
  151.7567  141.3029  158.6033 C   0  0  0  0  0  0  0  0  0  0  0  0
  153.0527  140.5039  158.8111 C   0  0  0  0  0  0  0  0  0  0  0  0
  150.8900  140.1405  156.5731 C   0  0  0  0  0  0  0  0  0  0  0  0
  150.5393  138.9853  157.3165 C   0  0  0  0  0  0  0  0  0  0  0  0
  150.1148  137.8266  156.6384 C   0  0  0  0  0  0  0  0  0  0  0  0
  150.0520  137.8417  155.2269 C   0  0  0  0  0  0  0  0  0  0  0  0
  149.6113  136.7457  154.4383 N   0  0  0  0  0  0  0  0  0  0  0  0
  149.2264  135.5227  154.8527 C   0  0  0  0  0  0  0  0  0  0  0  0
  149.3048  135.1220  156.0117 O   0  0  0  0  0  0  0  0  0  0  0  0
  148.7735  134.7230  153.8711 N   0  0  0  0  0  0  0  0  0  0  0  0
  148.2836  133.3482  153.9812 C   0  0  2  0  0  0  0  0  0  0  0  0
  149.2446  132.3937  154.7117 C   0  0  0  0  0  0  0  0  0  0  0  0
  149.1820  131.0666  153.9302 C   0  0  0  0  0  0  0  0  0  0  0  0
  148.1485  131.2382  152.8840 N   0  3  1  0  0  0  0  0  0  0  0  0
  146.8344  130.6732  153.2969 C   0  0  0  0  0  0  0  0  0  0  0  0
  145.7107  131.0548  152.3248 C   0  0  0  0  0  0  0  0  0  0  0  0
  145.6014  132.5775  152.2155 C   0  0  0  0  0  0  0  0  0  0  0  0
  146.9404  133.1529  151.7414 C   0  0  0  0  0  0  0  0  0  0  0  0
  148.1385  132.6941  152.6029 C   0  0  1  0  0  0  0  0  0  0  0  0
  150.4049  139.0372  154.5727 C   0  0  0  0  0  0  0  0  0  0  0  0
  150.8162  140.1475  155.2191 N   0  0  0  0  0  0  0  0  0  0  0  0
  151.4559  144.7513  156.8785 H   0  0  0  0  0  0  0  0  0  0  0  0
  152.6896  143.7560  157.6331 H   0  0  0  0  0  0  0  0  0  0  0  0
  151.0768  143.8468  158.3397 H   0  0  0  0  0  0  0  0  0  0  0  0
  150.1608  142.7658  156.1823 H   0  0  0  0  0  0  0  0  0  0  0  0
  151.7884  142.6065  155.6229 H   0  0  0  0  0  0  0  0  0  0  0  0
  151.8754  142.3182  158.9824 H   0  0  0  0  0  0  0  0  0  0  0  0
  150.9679  140.8575  159.2101 H   0  0  0  0  0  0  0  0  0  0  0  0
  153.3348  140.4998  159.8640 H   0  0  0  0  0  0  0  0  0  0  0  0
  153.8828  140.9344  158.2509 H   0  0  0  0  0  0  0  0  0  0  0  0
  152.9416  139.4666  158.4980 H   0  0  0  0  0  0  0  0  0  0  0  0
  150.5904  138.9572  158.3938 H   0  0  0  0  0  0  0  0  0  0  0  0
  149.8323  136.9585  157.2137 H   0  0  0  0  0  0  0  0  0  0  0  0
  149.6137  136.8999  153.4408 H   0  0  0  0  0  0  0  0  0  0  0  0
  148.8195  135.0991  152.9348 H   0  0  0  0  0  0  0  0  0  0  0  0
  147.3151  133.3425  154.4838 H   0  0  0  0  0  0  0  0  0  0  0  0
  150.2669  132.7752  154.7123 H   0  0  0  0  0  0  0  0  0  0  0  0
  148.9450  132.2618  155.7521 H   0  0  0  0  0  0  0  0  0  0  0  0
  150.1391  130.8873  153.4390 H   0  0  0  0  0  0  0  0  0  0  0  0
  148.9867  130.2096  154.5766 H   0  0  0  0  0  0  0  0  0  0  0  0
  146.9186  129.5875  153.3566 H   0  0  0  0  0  0  0  0  0  0  0  0
  146.5782  131.0209  154.2992 H   0  0  0  0  0  0  0  0  0  0  0  0
  145.9030  130.6214  151.3425 H   0  0  0  0  0  0  0  0  0  0  0  0
  144.7639  130.6379  152.6695 H   0  0  0  0  0  0  0  0  0  0  0  0
  144.8093  132.8488  151.5171 H   0  0  0  0  0  0  0  0  0  0  0  0
  145.3258  133.0047  153.1802 H   0  0  0  0  0  0  0  0  0  0  0  0
  147.1081  132.8317  150.7124 H   0  0  0  0  0  0  0  0  0  0  0  0
  146.8920  134.2418  151.7105 H   0  0  0  0  0  0  0  0  0  0  0  0
  149.0481  132.9054  152.0363 H   0  0  0  0  0  0  0  0  0  0  0  0
  150.3600  139.1070  153.4954 H   0  0  0  0  0  0  0  0  0  0  0  0
  148.4341  130.7489  152.0476 H   0  0  0  0  0  0  0  0  0  0  0  0
  1  2  1  0  0  0  0
  1 25  1  0  0  0  0
  1 26  1  0  0  0  0
  1 27  1  0  0  0  0
  2  3  1  0  0  0  0
  2 28  1  0  0  0  0
  2 29  1  0  0  0  0
  3  4  1  0  0  0  0
  3  6  1  0  0  0  0
  4  5  1  0  0  0  0
  4 30  1  0  0  0  0
  4 31  1  0  0  0  0
  5 32  1  0  0  0  0
  5 33  1  0  0  0  0
  5 34  1  0  0  0  0
  6 24  1  0  0  0  0
  6  7  2  0  0  0  0
  7  8  1  0  0  0  0
  7 35  1  0  0  0  0
  8  9  2  0  0  0  0
  8 36  1  0  0  0  0
  9 10  1  0  0  0  0
  9 23  1  0  0  0  0
 10 11  1  0  0  0  0
 10 37  1  0  0  0  0
 11 12  2  0  0  0  0
 11 13  1  0  0  0  0
 13 14  1  0  0  0  0
 13 38  1  0  0  0  0
 14 22  1  0  0  0  0
 14 15  1  0  0  0  0
 14 39  1  0  0  0  0
 15 16  1  0  0  0  0
 15 40  1  0  0  0  0
 15 41  1  0  0  0  0
 16 17  1  0  0  0  0
 16 42  1  0  0  0  0
 16 43  1  0  0  0  0
 17 22  1  0  0  0  0
 17 18  1  0  0  0  0
 17 54  1  0  0  0  0
 18 19  1  0  0  0  0
 18 44  1  0  0  0  0
 18 45  1  0  0  0  0
 19 20  1  0  0  0  0
 19 46  1  0  0  0  0
 19 47  1  0  0  0  0
 20 21  1  0  0  0  0
 20 48  1  0  0  0  0
 20 49  1  0  0  0  0
 21 22  1  0  0  0  0
 21 50  1  0  0  0  0
 21 51  1  0  0  0  0
 22 52  1  0  0  0  0
 23 24  2  0  0  0  0
 23 53  1  0  0  0  0
M  CHG  1  17   1
M  END
> <s_m_source_file>
AV-unprocessed.smi

> <i_m_source_file_index>
1701

> <i_lp_mmshare_version>
43012

> <i_f3d_flags>
0

> <s_epik_input>
W0NIM11bQ0gyXU4oW0NIMl1bQ0gzXSljMVtjSF1bY0hdYyhbY0hdbjEpW05IXUMoPU8pW05IXVtDQEhdKFtDSDJdW0NIMl0yKVtDQEBIXShOMjMpW0NIMl1bQ0gyXVtDSDJdW0NIMl0z

> <s_epik_cmdline>
J2VwaWtfcHl0aG9uJywgJy1waCcsICc3LjAnLCAnLXRuJywgJzgnLCAnLW1hJywgJzIwMCcsICctbWV0YWxfYmluZGluZycsICctaW1hZScsICc8aW5maWxlLm1hZT4nLCAnLW9tYWUnLCAnPG91dGZpbGUubWFlPic=

> <r_lp_tautomer_probability>
1

> <r_epik_Ionization_Penalty>
0.56662

> <r_epik_Ionization_Penalty_Charging>
0.000974069

> <r_epik_Ionization_Penalty_Neutral>
0.565646

> <r_epik_State_Penalty>
2.0247

> <r_epik_Charging_Adjusted_Penalty>
2.02568

> <i_epik_Tot_Q>
1

> <i_epik_Tot_abs_Q>
1

> <r_epik_Metal_State_Penalty>
1.51504

> <b_epik_Metal_Only>
0

> <s_lp_Force_Field>
OPLS_2005

> <r_lp_Energy>
57.8718

> <b_lp_Chiralities_Consistent>
1

> <s_lp_Variant>
AV-unprocessed.smi:1701-9

> <Gold.Version>
5.8.1

> <Gold.Id.Protein>
6NUR|6NUR_protein|mol2

> <Gold.PLP.Fitness>
49.1264

> <Gold.PLP.PLP>
-37.1201

> <Gold.PLP.part.hbond>
-3.8674

> <Gold.PLP.part.metal>
0.0000

> <Gold.PLP.part.buried>
-1.8438

> <Gold.PLP.part.nonpolar>
-30.8812

> <Gold.PLP.part.repulsive>
0.1027

> <Gold.PLP.ligand.clash>
0.0000

> <Gold.PLP.ligand.torsion>
0.3055

> <Gold.PLP.Chemscore.Hbond>
3.3833

> <Gold.PLP.Chemscore.CHOScore>
0.7895

> <Gold.PLP.Chemscore.Metal>
0.0000

> <Gold.Chemscore.Hbonds>
donor molecule, donor type, donor heavy atom, donor atom, acceptor molecule, acceptor atom, score
      L1  H    10    37       P1  7948  0.86
      L1  H    13    38       P1  7948  0.99
      L1  H    17    54       P1 10747  0.98
      P1  H  7989  7998       L1    24  0.55
      L1  C    23    53       P1  7957  0.80

> <Gold.PLP.Chemscore.Internal.Correction>
0.0989

> <Gold.Rescore>
     Score         DG    S(hbond)    S(metal)    S(lipo)     H(rot)  DE(clash)    DE(int)     intcor
     19.46     -21.95       2.71        0.00      91.47       1.28       0.01       2.48       ----

> <Gold.Chemscore.Fitness>
19.4558

> <Gold.Chemscore.DG>
-21.9482

> <Gold.Chemscore.ZeroCoef>
-5.4800

> <Gold.Chemscore.Hbond>
2.7105

> <Gold.Chemscore.Metal>
0.0000

> <Gold.Chemscore.Lipo>
91.4674

> <Gold.Chemscore.Internal_Hbond>
0.0000

> <Gold.Chemscore.DEClash>
0.0106

> <Gold.Chemscore.DEInternal>
2.4818

> <Gold.Chemscore.Rot>
1.2838

> <Gold.Chemscore.Internal.Correction>
   9.000000E+99

> <Gold.Chemscore.Hbonds>
donor molecule, donor type, donor heavy atom, donor atom, acceptor molecule, acceptor atom, score
      L1  H    10    37       P1  7948  0.61
      L1  H    13    38       P1  7948  0.27
      L1  H    17    54       P1 10747  0.89
      P1  H  7989  7998       L1    24  0.03

> <Gold.Chemscore.Hbond.Weighted>
-9.0531

> <Gold.Chemscore.Metal.Weighted>
-0.0000

> <Gold.Chemscore.Lipo.Weighted>
-10.7017

> <Gold.Chemscore.Internal_Hbond.Weighted>
0.0000

> <Gold.Chemscore.DEClash.Weighted>
0.0106

> <Gold.Chemscore.DEInternal.Weighted>
2.4818

> <Gold.Chemscore.Rot.Weighted>
3.2865

> <Gold.Chemscore.Internal.Correction.Weighted>
   9.000000E+99

> <Gold.Protein.RotatedTorsions>
[ 6907 6896 6895 6894 ] final  135.90 input  -60.11 | X-H torsion
[ 7974 7965 7964 7962 ] final  -51.28 input  175.53 | X-H torsion
[ 8008 7997 7996 7995 ] final  169.80 input   59.86 | X-H torsion
[ 10167 10162 10161 10158 ] final  117.26 input  -65.29 | X-H torsion
[ 10718 10713 10712 10709 ] final -127.52 input   66.30 | X-H torsion
[ 10763 10752 10751 10750 ] final -103.55 input  -60.55 | X-H torsion
[ 11005 11000 10999 10996 ] final   98.07 input  -57.11 | X-H torsion

> <Gold.Protein.ActiveResidues>
 VAL166  LYS551  ARG553  GLY616  TRP617  ASP618  TYR619  PRO620  LYS621  CYS622 
 ASP623  PHE694  ASN695  SER759  ASP760  ASP761  ALA762  ILE779  LEU786  VAL792 
 PHE793  MET794  SER795  GLU796  ALA797  LYS798  CYS799  TRP800  GLU811  SER814 

> <Gold.Protein.RotatedAtoms>
  152.2953  133.5601  159.5583 H   0  0  0  0  0  0  0  0  0  0  0  0  # atno 6907 bound_to 6896
  150.7253  134.0370  159.3761 H   0  0  0  0  0  0  0  0  0  0  0  0  # atno 6908 bound_to 6896
  151.8273  135.0633  160.0483 H   0  0  0  0  0  0  0  0  0  0  0  0  # atno 6909 bound_to 6896
  145.9206  140.7837  142.9649 H   0  0  0  0  0  0  0  0  0  0  0  0  # atno 7974 bound_to 7965
  156.1424  140.1554  156.8899 H   0  0  0  0  0  0  0  0  0  0  0  0  # atno 8008 bound_to 7997
  154.4999  140.0828  156.7814 H   0  0  0  0  0  0  0  0  0  0  0  0  # atno 8009 bound_to 7997
  155.4053  140.3416  155.4262 H   0  0  0  0  0  0  0  0  0  0  0  0  # atno 8010 bound_to 7997
  139.6191  144.7097  151.2674 H   0  0  0  0  0  0  0  0  0  0  0  0  # atno 10167 bound_to 10162
  156.1865  130.6767  151.0371 H   0  0  0  0  0  0  0  0  0  0  0  0  # atno 10718 bound_to 10713
  154.7815  135.4819  153.9855 H   0  0  0  0  0  0  0  0  0  0  0  0  # atno 10763 bound_to 10752
  153.1501  135.6789  153.8903 H   0  0  0  0  0  0  0  0  0  0  0  0  # atno 10764 bound_to 10752
  153.8550  135.3162  155.3413 H   0  0  0  0  0  0  0  0  0  0  0  0  # atno 10765 bound_to 10752
  139.8773  134.9031  156.4402 H   0  0  0  0  0  0  0  0  0  0  0  0  # atno 11005 bound_to 11000
  144.6752  140.1970  143.7391 LP  0  0  0  0  0  0  0  0  0  0  0  0  # atno 17320 bound_to 7965
  145.8554  139.2196  143.1747 LP  0  0  0  0  0  0  0  0  0  0  0  0  # atno 17321 bound_to 7965
  140.7370  143.6690  150.8098 LP  0  0  0  0  0  0  0  0  0  0  0  0  # atno 17342 bound_to 10162
  140.0298  143.5455  152.2765 LP  0  0  0  0  0  0  0  0  0  0  0  0  # atno 17343 bound_to 10162
  157.6902  131.0812  150.7129 LP  0  0  0  0  0  0  0  0  0  0  0  0  # atno 17370 bound_to 10713
  156.7186  130.4673  149.5529 LP  0  0  0  0  0  0  0  0  0  0  0  0  # atno 17371 bound_to 10713
  140.9005  133.7783  155.9674 LP  0  0  0  0  0  0  0  0  0  0  0  0  # atno 17394 bound_to 11000
  140.8656  134.2788  157.5214 LP  0  0  0  0  0  0  0  0  0  0  0  0  # atno 17395 bound_to 11000

$$$$
