AV-unprocessed.smi:3289|AV-procd|sdf|12608|dock3
  -GOLD-   2272018533D 1   1.00000     0.00000
 Structure written by MMmdl.
 40 41  0  0  0  0  0  0  0  0  2 V2000
  146.8274  138.7918  151.5874 C   0  0  0  0  0  0  0  0  0  0  0  0
  147.2309  139.0084  153.0549 C   0  0  0  0  0  0  0  0  0  0  0  0
  146.4256  138.1036  153.9979 C   0  0  0  0  0  0  0  0  0  0  0  0
  147.1268  140.4516  153.4668 C   0  0  0  0  0  0  0  0  0  0  0  0
  146.0142  141.1948  153.4059 N   0  3  0  0  0  0  0  0  0  0  0  0
  146.2478  142.4532  153.8869 C   0  0  0  0  0  0  0  0  0  0  0  0
  147.5596  142.4783  154.2790 C   0  0  0  0  0  0  0  0  0  0  0  0
  148.0743  141.2325  154.0212 N   0  0  0  0  0  0  0  0  0  0  0  0
  149.4541  140.8013  154.2909 C   0  0  0  0  0  0  0  0  0  0  0  0
  149.7600  140.8195  155.7899 C   0  0  0  0  0  0  0  0  0  0  0  0
  150.0229  139.7705  156.3778 O   0  0  0  0  0  0  0  0  0  0  0  0
  149.6873  142.0130  156.3983 N   0  0  0  0  0  0  0  0  0  0  0  0
  149.8128  142.2409  157.8335 C   0  0  0  0  0  0  0  0  0  0  0  0
  151.1626  142.8929  158.1801 C   0  0  1  0  0  0  0  0  0  0  0  0
  151.5218  144.1244  157.3519 C   0  0  0  0  0  0  0  0  0  0  0  0
  152.5746  144.7830  158.2173 C   0  0  0  0  0  0  0  0  0  0  0  0
  152.1401  144.4131  159.6384 C   0  0  0  0  0  0  0  0  0  0  0  0
  151.1457  143.3995  159.5063 O   0  0  0  0  0  0  0  0  0  0  0  0
  147.4247  139.4115  150.9183 H   0  0  0  0  0  0  0  0  0  0  0  0
  145.7778  139.0346  151.4192 H   0  0  0  0  0  0  0  0  0  0  0  0
  146.9765  137.7532  151.2909 H   0  0  0  0  0  0  0  0  0  0  0  0
  148.2827  138.7401  153.1387 H   0  0  0  0  0  0  0  0  0  0  0  0
  146.7614  138.2086  155.0299 H   0  0  0  0  0  0  0  0  0  0  0  0
  146.5346  137.0540  153.7229 H   0  0  0  0  0  0  0  0  0  0  0  0
  145.3630  138.3467  153.9681 H   0  0  0  0  0  0  0  0  0  0  0  0
  145.4825  143.2152  153.9169 H   0  0  0  0  0  0  0  0  0  0  0  0
  148.1512  143.2708  154.7142 H   0  0  0  0  0  0  0  0  0  0  0  0
  149.5757  139.7866  153.9099 H   0  0  0  0  0  0  0  0  0  0  0  0
  150.1399  141.4384  153.7309 H   0  0  0  0  0  0  0  0  0  0  0  0
  149.4798  142.8221  155.8310 H   0  0  0  0  0  0  0  0  0  0  0  0
  148.9844  142.8420  158.2120 H   0  0  0  0  0  0  0  0  0  0  0  0
  149.7393  141.2731  158.3297 H   0  0  0  0  0  0  0  0  0  0  0  0
  151.9643  142.1555  158.1097 H   0  0  0  0  0  0  0  0  0  0  0  0
  151.8827  143.8809  156.3528 H   0  0  0  0  0  0  0  0  0  0  0  0
  150.6563  144.7814  157.2525 H   0  0  0  0  0  0  0  0  0  0  0  0
  153.5535  144.3520  158.0032 H   0  0  0  0  0  0  0  0  0  0  0  0
  152.6373  145.8600  158.0591 H   0  0  0  0  0  0  0  0  0  0  0  0
  152.9831  144.0454  160.2241 H   0  0  0  0  0  0  0  0  0  0  0  0
  151.7119  145.2682  160.1618 H   0  0  0  0  0  0  0  0  0  0  0  0
  145.1255  140.8676  153.0482 H   0  0  0  0  0  0  0  0  0  0  0  0
  1  2  1  0  0  0  0
  1 19  1  0  0  0  0
  1 20  1  0  0  0  0
  1 21  1  0  0  0  0
  2  3  1  0  0  0  0
  2  4  1  0  0  0  0
  2 22  1  0  0  0  0
  3 23  1  0  0  0  0
  3 24  1  0  0  0  0
  3 25  1  0  0  0  0
  4  8  1  0  0  0  0
  4  5  2  0  0  0  0
  5  6  1  0  0  0  0
  5 40  1  0  0  0  0
  6  7  2  0  0  0  0
  6 26  1  0  0  0  0
  7  8  1  0  0  0  0
  7 27  1  0  0  0  0
  8  9  1  0  0  0  0
  9 10  1  0  0  0  0
  9 28  1  0  0  0  0
  9 29  1  0  0  0  0
 10 11  2  0  0  0  0
 10 12  1  0  0  0  0
 12 13  1  0  0  0  0
 12 30  1  0  0  0  0
 13 14  1  0  0  0  0
 13 31  1  0  0  0  0
 13 32  1  0  0  0  0
 14 18  1  0  0  0  0
 14 15  1  0  0  0  0
 14 33  1  0  0  0  0
 15 16  1  0  0  0  0
 15 34  1  0  0  0  0
 15 35  1  0  0  0  0
 16 17  1  0  0  0  0
 16 36  1  0  0  0  0
 16 37  1  0  0  0  0
 17 18  1  0  0  0  0
 17 38  1  0  0  0  0
 17 39  1  0  0  0  0
M  CHG  1   5   1
M  END
> <s_m_source_file>
AV-unprocessed.smi

> <i_m_source_file_index>
3289

> <i_lp_mmshare_version>
43012

> <i_f3d_flags>
0

> <s_epik_input>
W0NIM11bQ0hdKFtDSDNdKWMxbltjSF1bY0hdbjFbQ0gyXUMoPU8pW05IXVtDSDJdW0NAQEhdMltDSDJdW0NIMl1bQ0gyXU8y

> <s_epik_cmdline>
J2VwaWtfcHl0aG9uJywgJy1waCcsICc3LjAnLCAnLXRuJywgJzgnLCAnLW1hJywgJzIwMCcsICctbWV0YWxfYmluZGluZycsICctaW1hZScsICc8aW5maWxlLm1hZT4nLCAnLW9tYWUnLCAnPG91dGZpbGUubWFlPic=

> <r_lp_tautomer_probability>
1

> <r_epik_Ionization_Penalty>
0.274547

> <r_epik_Ionization_Penalty_Charging>
0

> <r_epik_Ionization_Penalty_Neutral>
0.274547

> <r_epik_State_Penalty>
0.266843

> <r_epik_Charging_Adjusted_Penalty>
0.266843

> <i_epik_Tot_Q>
1

> <i_epik_Tot_abs_Q>
1

> <r_epik_Metal_State_Penalty>
0.55046

> <b_epik_Metal_Only>
0

> <s_lp_Force_Field>
OPLS_2005

> <r_lp_Energy>
22.2551

> <b_lp_Chiralities_Consistent>
1

> <s_lp_Variant>
AV-unprocessed.smi:3289-2

> <Gold.Version>
5.8.1

> <Gold.Id.Protein>
6NUR|6NUR_protein|mol2

> <Gold.PLP.Fitness>
49.4691

> <Gold.PLP.PLP>
-39.4652

> <Gold.PLP.part.hbond>
-2.0000

> <Gold.PLP.part.metal>
0.0000

> <Gold.PLP.part.buried>
0.5118

> <Gold.PLP.part.nonpolar>
-39.2134

> <Gold.PLP.part.repulsive>
0.0868

> <Gold.PLP.ligand.clash>
0.0000

> <Gold.PLP.ligand.torsion>
0.2785

> <Gold.PLP.Chemscore.Hbond>
2.9425

> <Gold.PLP.Chemscore.CHOScore>
0.5555

> <Gold.PLP.Chemscore.Metal>
0.0000

> <Gold.Chemscore.Hbonds>
donor molecule, donor type, donor heavy atom, donor atom, acceptor molecule, acceptor atom, score
      L1  H     5    40       P1 10175  2.00
      L1  H    12    30       P1  8028  1.00
      L1  C     7    27       P1  8028  0.53

> <Gold.PLP.Chemscore.Internal.Correction>
0.0668

> <Gold.Rescore>
     Score         DG    S(hbond)    S(metal)    S(lipo)     H(rot)  DE(clash)    DE(int)     intcor
     16.77     -18.14       1.84        0.00      94.75       1.78       0.13       1.24       ----

> <Gold.Chemscore.Fitness>
16.7668

> <Gold.Chemscore.DG>
-18.1366

> <Gold.Chemscore.ZeroCoef>
-5.4800

> <Gold.Chemscore.Hbond>
1.8373

> <Gold.Chemscore.Metal>
0.0000

> <Gold.Chemscore.Lipo>
94.7517

> <Gold.Chemscore.Internal_Hbond>
0.0000

> <Gold.Chemscore.DEClash>
0.1250

> <Gold.Chemscore.DEInternal>
1.2448

> <Gold.Chemscore.Rot>
1.7835

> <Gold.Chemscore.Internal.Correction>
   9.000000E+99

> <Gold.Chemscore.Hbonds>
donor molecule, donor type, donor heavy atom, donor atom, acceptor molecule, acceptor atom, score
      L1  H     5    40       P1 10175  0.49
      L1  H    12    30       P1  8028  0.92

> <Gold.Chemscore.Hbond.Weighted>
-6.1365

> <Gold.Chemscore.Metal.Weighted>
-0.0000

> <Gold.Chemscore.Lipo.Weighted>
-11.0860

> <Gold.Chemscore.Internal_Hbond.Weighted>
0.0000

> <Gold.Chemscore.DEClash.Weighted>
0.1250

> <Gold.Chemscore.DEInternal.Weighted>
1.2448

> <Gold.Chemscore.Rot.Weighted>
4.5659

> <Gold.Chemscore.Internal.Correction.Weighted>
   9.000000E+99

> <Gold.Protein.RotatedTorsions>
[ 6907 6896 6895 6894 ] final  106.09 input  -60.11 | X-H torsion
[ 7974 7965 7964 7962 ] final  173.89 input  175.53 | X-H torsion
[ 8008 7997 7996 7995 ] final  120.26 input   59.86 | X-H torsion
[ 10167 10162 10161 10158 ] final -129.97 input  -65.29 | X-H torsion
[ 10718 10713 10712 10709 ] final -134.29 input   66.30 | X-H torsion
[ 10763 10752 10751 10750 ] final   75.82 input  -60.55 | X-H torsion
[ 11005 11000 10999 10996 ] final  -43.88 input  -57.11 | X-H torsion

> <Gold.Protein.ActiveResidues>
 VAL166  LYS551  ARG553  GLY616  TRP617  ASP618  TYR619  PRO620  LYS621  CYS622 
 ASP623  PHE694  ASN695  SER759  ASP760  ASP761  ALA762  ILE779  LEU786  VAL792 
 PHE793  MET794  SER795  GLU796  ALA797  LYS798  CYS799  TRP800  GLU811  SER814 

> <Gold.Protein.RotatedAtoms>
  152.5207  133.9432  159.7636 H   0  0  0  0  0  0  0  0  0  0  0  0  # atno 6907 bound_to 6896
  150.9758  133.6288  159.2737 H   0  0  0  0  0  0  0  0  0  0  0  0  # atno 6908 bound_to 6896
  151.3483  135.0884  159.9447 H   0  0  0  0  0  0  0  0  0  0  0  0  # atno 6909 bound_to 6896
  144.7233  139.9716  143.6437 H   0  0  0  0  0  0  0  0  0  0  0  0  # atno 7974 bound_to 7965
  156.2634  140.2835  156.1121 H   0  0  0  0  0  0  0  0  0  0  0  0  # atno 8008 bound_to 7997
  155.1246  140.0393  157.2776 H   0  0  0  0  0  0  0  0  0  0  0  0  # atno 8009 bound_to 7997
  154.6645  140.2574  155.7079 H   0  0  0  0  0  0  0  0  0  0  0  0  # atno 8010 bound_to 7997
  139.9342  143.6237  152.2521 H   0  0  0  0  0  0  0  0  0  0  0  0  # atno 10167 bound_to 10162
  156.2539  130.7169  151.1079 H   0  0  0  0  0  0  0  0  0  0  0  0  # atno 10718 bound_to 10713
  153.0682  135.4974  154.8246 H   0  0  0  0  0  0  0  0  0  0  0  0  # atno 10763 bound_to 10752
  154.6984  135.2997  154.9380 H   0  0  0  0  0  0  0  0  0  0  0  0  # atno 10764 bound_to 10752
  154.0112  135.6754  153.4818 H   0  0  0  0  0  0  0  0  0  0  0  0  # atno 10765 bound_to 10752
  141.0413  133.6779  156.2795 H   0  0  0  0  0  0  0  0  0  0  0  0  # atno 11005 bound_to 11000
  146.0558  139.3555  143.0611 LP  0  0  0  0  0  0  0  0  0  0  0  0  # atno 17320 bound_to 7965
  145.8156  140.9704  143.0926 LP  0  0  0  0  0  0  0  0  0  0  0  0  # atno 17321 bound_to 7965
  139.6757  144.7658  151.1700 LP  0  0  0  0  0  0  0  0  0  0  0  0  # atno 17342 bound_to 10162
  140.7629  143.5799  150.8906 LP  0  0  0  0  0  0  0  0  0  0  0  0  # atno 17343 bound_to 10162
  157.7225  131.0672  150.6075 LP  0  0  0  0  0  0  0  0  0  0  0  0  # atno 17370 bound_to 10713
  156.6157  130.4392  149.5841 LP  0  0  0  0  0  0  0  0  0  0  0  0  # atno 17371 bound_to 10713
  140.6228  134.5344  157.5550 LP  0  0  0  0  0  0  0  0  0  0  0  0  # atno 17394 bound_to 11000
  139.9278  134.8022  156.1017 LP  0  0  0  0  0  0  0  0  0  0  0  0  # atno 17395 bound_to 11000

$$$$
