AV-unprocessed.smi:1209|AV-procd|sdf|5071|dock2
  -GOLD-   22720 4113D 1   1.00000     0.00000
 Structure written by MMmdl.
 49 51  0  0  0  0  0  0  0  0  2 V2000
  149.1159  132.0922  152.8303 C   0  0  0  0  0  0  0  0  0  0  0  0
  149.9724  132.7564  153.8531 C   0  0  0  0  0  0  0  0  0  0  0  0
  149.9595  134.0028  154.4111 C   0  0  0  0  0  0  0  0  0  0  0  0
  151.0535  133.9761  155.3199 C   0  0  0  0  0  0  0  0  0  0  0  0
  151.5416  135.0710  156.2319 C   0  0  0  0  0  0  0  0  0  0  0  0
  151.8906  136.3076  155.5287 N   0  0  0  0  0  0  0  0  0  0  0  0
  150.7207  136.8755  154.8578 C   0  0  0  0  0  0  0  0  0  0  0  0
  152.5009  137.2639  156.4567 C   0  0  0  0  0  0  0  0  0  0  0  0
  152.2647  138.7544  156.1381 C   0  0  2  0  0  0  0  0  0  0  0  0
  153.3072  139.1988  155.2925 O   0  0  0  0  0  0  0  0  0  0  0  0
  152.2439  139.6042  157.4242 C   0  0  0  0  0  0  0  0  0  0  0  0
  151.5098  140.8689  157.2707 N   0  0  0  0  0  0  0  0  0  0  0  0
  150.7623  141.3176  156.2264 C   0  0  0  0  0  0  0  0  0  0  0  0
  150.2757  142.5434  156.5655 N   0  3  0  0  0  0  0  0  0  0  0  0
  150.7213  142.8843  157.8442 C   0  0  0  0  0  0  0  0  0  0  0  0
  150.4944  144.0189  158.6142 C   0  0  0  0  0  0  0  0  0  0  0  0
  151.1009  144.0644  159.8898 C   0  0  0  0  0  0  0  0  0  0  0  0
  150.8744  145.2909  160.7574 C   0  0  0  0  0  0  0  0  0  0  0  0
  151.9064  142.9921  160.3537 C   0  0  0  0  0  0  0  0  0  0  0  0
  152.5597  143.0539  161.7239 C   0  0  0  0  0  0  0  0  0  0  0  0
  152.1224  141.8457  159.5561 C   0  0  0  0  0  0  0  0  0  0  0  0
  151.5159  141.8156  158.3025 C   0  0  0  0  0  0  0  0  0  0  0  0
  151.6746  132.8079  155.3046 N   0  0  0  0  0  0  0  0  0  0  0  0
  150.9909  132.0220  154.3702 O   0  0  0  0  0  0  0  0  0  0  0  0
  148.1486  132.5885  152.7523 H   0  0  0  0  0  0  0  0  0  0  0  0
  148.9392  131.0479  153.0889 H   0  0  0  0  0  0  0  0  0  0  0  0
  149.5921  132.1233  151.8501 H   0  0  0  0  0  0  0  0  0  0  0  0
  149.2726  134.8101  154.2051 H   0  0  0  0  0  0  0  0  0  0  0  0
  150.7986  135.2840  157.0026 H   0  0  0  0  0  0  0  0  0  0  0  0
  152.4184  134.6984  156.7626 H   0  0  0  0  0  0  0  0  0  0  0  0
  150.9859  137.7452  154.2588 H   0  0  0  0  0  0  0  0  0  0  0  0
  149.9601  137.1761  155.5797 H   0  0  0  0  0  0  0  0  0  0  0  0
  150.2687  136.1564  154.1746 H   0  0  0  0  0  0  0  0  0  0  0  0
  152.1466  137.0530  157.4669 H   0  0  0  0  0  0  0  0  0  0  0  0
  153.5796  137.1011  156.4849 H   0  0  0  0  0  0  0  0  0  0  0  0
  151.3172  138.8968  155.6202 H   0  0  0  0  0  0  0  0  0  0  0  0
  153.1405  138.8722  154.4209 H   0  0  0  0  0  0  0  0  0  0  0  0
  151.7531  139.0480  158.2239 H   0  0  0  0  0  0  0  0  0  0  0  0
  153.2535  139.8155  157.7780 H   0  0  0  0  0  0  0  0  0  0  0  0
  150.5835  140.7946  155.2980 H   0  0  0  0  0  0  0  0  0  0  0  0
  149.8819  144.8321  158.2530 H   0  0  0  0  0  0  0  0  0  0  0  0
  150.4096  145.0111  161.7033 H   0  0  0  0  0  0  0  0  0  0  0  0
  150.2204  146.0124  160.2667 H   0  0  0  0  0  0  0  0  0  0  0  0
  151.8208  145.7887  160.9699 H   0  0  0  0  0  0  0  0  0  0  0  0
  153.1309  142.1489  161.9343 H   0  0  0  0  0  0  0  0  0  0  0  0
  151.8061  143.1603  162.5041 H   0  0  0  0  0  0  0  0  0  0  0  0
  153.2439  143.9006  161.7833 H   0  0  0  0  0  0  0  0  0  0  0  0
  152.7409  141.0331  159.9071 H   0  0  0  0  0  0  0  0  0  0  0  0
  149.6831  143.1038  155.9666 H   0  0  0  0  0  0  0  0  0  0  0  0
  1  2  1  0  0  0  0
  1 25  1  0  0  0  0
  1 26  1  0  0  0  0
  1 27  1  0  0  0  0
  2 24  1  0  0  0  0
  2  3  2  0  0  0  0
  3  4  1  0  0  0  0
  3 28  1  0  0  0  0
  4  5  1  0  0  0  0
  4 23  2  0  0  0  0
  5  6  1  0  0  0  0
  5 29  1  0  0  0  0
  5 30  1  0  0  0  0
  6  7  1  0  0  0  0
  6  8  1  0  0  0  0
  7 31  1  0  0  0  0
  7 32  1  0  0  0  0
  7 33  1  0  0  0  0
  8  9  1  0  0  0  0
  8 34  1  0  0  0  0
  8 35  1  0  0  0  0
  9 10  1  0  0  0  0
  9 11  1  0  0  0  0
  9 36  1  0  0  0  0
 10 37  1  0  0  0  0
 11 12  1  0  0  0  0
 11 38  1  0  0  0  0
 11 39  1  0  0  0  0
 12 22  1  0  0  0  0
 12 13  1  0  0  0  0
 13 14  2  0  0  0  0
 13 40  1  0  0  0  0
 14 15  1  0  0  0  0
 14 49  1  0  0  0  0
 15 22  2  0  0  0  0
 15 16  1  0  0  0  0
 16 17  2  0  0  0  0
 16 41  1  0  0  0  0
 17 18  1  0  0  0  0
 17 19  1  0  0  0  0
 18 42  1  0  0  0  0
 18 43  1  0  0  0  0
 18 44  1  0  0  0  0
 19 20  1  0  0  0  0
 19 21  2  0  0  0  0
 20 45  1  0  0  0  0
 20 46  1  0  0  0  0
 20 47  1  0  0  0  0
 21 22  1  0  0  0  0
 21 48  1  0  0  0  0
 23 24  1  0  0  0  0
M  CHG  1  14   1
M  END
> <s_m_source_file>
AV-unprocessed.smi

> <i_m_source_file_index>
1209

> <i_lp_mmshare_version>
43012

> <i_f3d_flags>
0

> <s_epik_input>
W0NIM11jMVtjSF1jKG5vMSlbQ0gyXU4oW0NIM10pW0NIMl1bQ0BIXShbT0hdKVtDSDJdbihbY0hdbjIpYyhjMjMpW2NIXWMoW0NIM10pYyhbY0hdMylbQ0gzXQ==

> <s_epik_cmdline>
J2VwaWtfcHl0aG9uJywgJy1waCcsICc3LjAnLCAnLXRuJywgJzgnLCAnLW1hJywgJzIwMCcsICctbWV0YWxfYmluZGluZycsICctaW1hZScsICc8aW5maWxlLm1hZT4nLCAnLW9tYWUnLCAnPG91dGZpbGUubWFlPic=

> <r_epik_Ionization_Penalty>
1.23608

> <r_epik_Ionization_Penalty_Charging>
1.21624

> <r_epik_Ionization_Penalty_Neutral>
0.0198409

> <r_epik_State_Penalty>
1.27749

> <r_epik_Charging_Adjusted_Penalty>
2.49372

> <i_epik_Tot_Q>
1

> <i_epik_Tot_abs_Q>
1

> <r_epik_Metal_State_Penalty>
1.34809

> <b_epik_Metal_Only>
0

> <s_lp_Force_Field>
OPLS_2005

> <r_lp_Energy>
23.9348

> <b_lp_Chiralities_Consistent>
1

> <s_lp_Variant>
AV-unprocessed.smi:1209-3

> <Gold.Version>
5.8.1

> <Gold.Id.Protein>
6NUR|6NUR_protein|mol2

> <Gold.PLP.Fitness>
59.5394

> <Gold.PLP.PLP>
-50.1853

> <Gold.PLP.part.hbond>
-3.0000

> <Gold.PLP.part.metal>
0.0000

> <Gold.PLP.part.buried>
-6.8422

> <Gold.PLP.part.nonpolar>
-41.5380

> <Gold.PLP.part.repulsive>
0.1561

> <Gold.PLP.ligand.clash>
0.0597

> <Gold.PLP.ligand.torsion>
1.1106

> <Gold.PLP.Chemscore.Hbond>
3.8560

> <Gold.PLP.Chemscore.CHOScore>
0.0000

> <Gold.PLP.Chemscore.Metal>
0.0000

> <Gold.Chemscore.Hbonds>
donor molecule, donor type, donor heavy atom, donor atom, acceptor molecule, acceptor atom, score
      L1  H    14    49       P1  8028  1.92
      P1  H  7997  8010       L1    10  1.00
      P1  H 10752 10765       L1     6  0.70

> <Gold.PLP.Chemscore.Internal.Correction>
0.0669

> <Gold.Rescore>
     Score         DG    S(hbond)    S(metal)    S(lipo)     H(rot)  DE(clash)    DE(int)     intcor
     18.36     -20.47       1.81        0.00     131.66       2.53       0.57       1.54       ----

> <Gold.Chemscore.Fitness>
18.3610

> <Gold.Chemscore.DG>
-20.4661

> <Gold.Chemscore.ZeroCoef>
-5.4800

> <Gold.Chemscore.Hbond>
1.8112

> <Gold.Chemscore.Metal>
0.0000

> <Gold.Chemscore.Lipo>
131.6627

> <Gold.Chemscore.Internal_Hbond>
0.0000

> <Gold.Chemscore.DEClash>
0.5699

> <Gold.Chemscore.DEInternal>
1.5352

> <Gold.Chemscore.Rot>
2.5265

> <Gold.Chemscore.Internal.Correction>
   9.000000E+99

> <Gold.Chemscore.Hbonds>
donor molecule, donor type, donor heavy atom, donor atom, acceptor molecule, acceptor atom, score
      L1  H    14    49       P1  8028  0.92
      P1  H  7997  8010       L1    10  0.87
      P1  H 10752 10765       L1     6  0.05

> <Gold.Chemscore.Hbond.Weighted>
-6.0494

> <Gold.Chemscore.Metal.Weighted>
-0.0000

> <Gold.Chemscore.Lipo.Weighted>
-15.4045

> <Gold.Chemscore.Internal_Hbond.Weighted>
0.0000

> <Gold.Chemscore.DEClash.Weighted>
0.5699

> <Gold.Chemscore.DEInternal.Weighted>
1.5352

> <Gold.Chemscore.Rot.Weighted>
6.4677

> <Gold.Chemscore.Internal.Correction.Weighted>
   9.000000E+99

> <Gold.Protein.RotatedTorsions>
[ 6907 6896 6895 6894 ] final  -10.55 input  -60.11 | X-H torsion
[ 7974 7965 7964 7962 ] final  167.26 input  175.53 | X-H torsion
[ 8008 7997 7996 7995 ] final   94.72 input   59.86 | X-H torsion
[ 10167 10162 10161 10158 ] final  -62.78 input  -65.29 | X-H torsion
[ 10718 10713 10712 10709 ] final  164.93 input   66.30 | X-H torsion
[ 10763 10752 10751 10750 ] final  176.58 input  -60.55 | X-H torsion
[ 11005 11000 10999 10996 ] final   66.71 input  -57.11 | X-H torsion

> <Gold.Protein.ActiveResidues>
 VAL166  LYS551  ARG553  GLY616  TRP617  ASP618  TYR619  PRO620  LYS621  CYS622 
 ASP623  PHE694  ASN695  SER759  ASP760  ASP761  ALA762  ILE779  LEU786  VAL792 
 PHE793  MET794  SER795  GLU796  ALA797  LYS798  CYS799  TRP800  GLU811  SER814 

> <Gold.Protein.RotatedAtoms>
  151.4002  135.0970  159.9553 H   0  0  0  0  0  0  0  0  0  0  0  0  # atno 6907 bound_to 6896
  152.5053  133.8896  159.7397 H   0  0  0  0  0  0  0  0  0  0  0  0  # atno 6908 bound_to 6896
  150.9368  133.6646  159.2827 H   0  0  0  0  0  0  0  0  0  0  0  0  # atno 6909 bound_to 6896
  144.7431  139.8735  143.6391 H   0  0  0  0  0  0  0  0  0  0  0  0  # atno 7974 bound_to 7965
  156.0610  140.3296  155.7462 H   0  0  0  0  0  0  0  0  0  0  0  0  # atno 8008 bound_to 7997
  155.5455  140.0605  157.2878 H   0  0  0  0  0  0  0  0  0  0  0  0  # atno 8009 bound_to 7997
  154.4481  140.1903  156.0622 H   0  0  0  0  0  0  0  0  0  0  0  0  # atno 8010 bound_to 7997
  140.5916  143.2343  151.6127 H   0  0  0  0  0  0  0  0  0  0  0  0  # atno 10167 bound_to 10162
  157.0874  131.0408  151.2551 H   0  0  0  0  0  0  0  0  0  0  0  0  # atno 10718 bound_to 10713
  154.4830  135.2775  155.1556 H   0  0  0  0  0  0  0  0  0  0  0  0  # atno 10763 bound_to 10752
  154.3258  135.6200  153.5532 H   0  0  0  0  0  0  0  0  0  0  0  0  # atno 10764 bound_to 10752
  152.9878  135.5753  154.5235 H   0  0  0  0  0  0  0  0  0  0  0  0  # atno 10765 bound_to 10752
  139.9815  134.6736  156.0253 H   0  0  0  0  0  0  0  0  0  0  0  0  # atno 11005 bound_to 11000
  146.1263  139.4290  143.0197 LP  0  0  0  0  0  0  0  0  0  0  0  0  # atno 17320 bound_to 7965
  145.7230  141.0068  143.1392 LP  0  0  0  0  0  0  0  0  0  0  0  0  # atno 17321 bound_to 7965
  139.5231  144.3143  152.0966 LP  0  0  0  0  0  0  0  0  0  0  0  0  # atno 17342 bound_to 10162
  140.2308  144.4370  150.6301 LP  0  0  0  0  0  0  0  0  0  0  0  0  # atno 17343 bound_to 10162
  157.4749  130.7731  149.7359 LP  0  0  0  0  0  0  0  0  0  0  0  0  # atno 17370 bound_to 10713
  155.9907  130.3943  150.3017 LP  0  0  0  0  0  0  0  0  0  0  0  0  # atno 17371 bound_to 10713
  141.1487  133.6552  156.3945 LP  0  0  0  0  0  0  0  0  0  0  0  0  # atno 17394 bound_to 11000
  140.5086  134.6416  157.5276 LP  0  0  0  0  0  0  0  0  0  0  0  0  # atno 17395 bound_to 11000

$$$$
