AV-unprocessed.smi:1011|AV-procd|sdf|4419|dock7
  -GOLD-   22720 2363D 1   1.00000     0.00000
 Structure written by MMmdl.
 44 46  0  0  0  0  0  0  0  0  2 V2000
  147.7277  133.2957  162.5242 C   0  0  0  0  0  0  0  0  0  0  0  0
  148.0128  134.5694  161.7816 C   0  0  0  0  0  0  0  0  0  0  0  0
  148.0831  135.8897  162.3096 C   0  0  0  0  0  0  0  0  0  0  0  0
  148.3589  136.7976  161.3876 N   0  0  0  0  0  0  0  0  0  0  0  0
  148.4710  136.0921  160.2416 N   0  0  0  0  0  0  0  0  0  0  0  0
  148.7927  136.7744  159.0000 C   0  0  0  0  0  0  0  0  0  0  0  0
  150.1804  137.4325  159.0536 C   0  0  0  0  0  0  0  0  0  0  0  0
  150.7036  137.6840  157.6972 N   0  3  0  0  0  0  0  0  0  0  0  0
  152.1540  137.9403  157.6412 C   0  0  0  0  0  0  0  0  0  0  0  0
  152.2743  139.3222  158.2068 C   0  0  0  0  0  0  0  0  0  0  0  0
  151.4915  140.3187  157.7929 N   0  0  0  0  0  0  0  0  0  0  0  0
  151.9279  141.3855  158.5546 C   0  0  0  0  0  0  0  0  0  0  0  0
  151.4968  142.7309  158.5830 C   0  0  0  0  0  0  0  0  0  0  0  0
  152.1015  143.6561  159.4594 C   0  0  0  0  0  0  0  0  0  0  0  0
  151.5637  145.2952  159.4805 Cl  0  0  0  0  0  0  0  0  0  0  0  0
  153.1431  143.2486  160.3184 C   0  0  0  0  0  0  0  0  0  0  0  0
  153.5870  141.9122  160.3068 C   0  0  0  0  0  0  0  0  0  0  0  0
  152.9804  140.9937  159.4297 C   0  0  0  0  0  0  0  0  0  0  0  0
  153.1743  139.6398  159.1738 N   0  0  0  0  0  0  0  0  0  0  0  0
  154.1506  138.7789  159.8316 C   0  0  0  0  0  0  0  0  0  0  0  0
  155.1347  138.1396  158.8387 C   0  0  0  0  0  0  0  0  0  0  0  0
  156.0321  139.1008  158.3240 O   0  0  0  0  0  0  0  0  0  0  0  0
  148.2672  134.7448  160.4509 C   0  0  0  0  0  0  0  0  0  0  0  0
  146.9687  133.4389  163.2935 H   0  0  0  0  0  0  0  0  0  0  0  0
  148.6198  132.9122  163.0198 H   0  0  0  0  0  0  0  0  0  0  0  0
  147.3659  132.5106  161.8600 H   0  0  0  0  0  0  0  0  0  0  0  0
  147.9446  136.2129  163.3309 H   0  0  0  0  0  0  0  0  0  0  0  0
  148.7609  136.0425  158.1920 H   0  0  0  0  0  0  0  0  0  0  0  0
  148.0185  137.5126  158.7847 H   0  0  0  0  0  0  0  0  0  0  0  0
  150.1154  138.3713  159.6057 H   0  0  0  0  0  0  0  0  0  0  0  0
  150.8833  136.7945  159.5899 H   0  0  0  0  0  0  0  0  0  0  0  0
  150.4804  136.9013  157.0990 H   0  0  0  0  0  0  0  0  0  0  0  0
  152.7186  137.2252  158.2394 H   0  0  0  0  0  0  0  0  0  0  0  0
  152.5187  137.9051  156.6139 H   0  0  0  0  0  0  0  0  0  0  0  0
  150.6997  143.0515  157.9286 H   0  0  0  0  0  0  0  0  0  0  0  0
  153.6022  143.9625  160.9869 H   0  0  0  0  0  0  0  0  0  0  0  0
  154.3853  141.5989  160.9632 H   0  0  0  0  0  0  0  0  0  0  0  0
  154.7002  139.3814  160.5557 H   0  0  0  0  0  0  0  0  0  0  0  0
  153.6414  138.0086  160.4100 H   0  0  0  0  0  0  0  0  0  0  0  0
  155.7043  137.3443  159.3205 H   0  0  0  0  0  0  0  0  0  0  0  0
  154.5904  137.6871  158.0094 H   0  0  0  0  0  0  0  0  0  0  0  0
  156.8331  139.0618  158.8245 H   0  0  0  0  0  0  0  0  0  0  0  0
  148.3229  134.0281  159.6444 H   0  0  0  0  0  0  0  0  0  0  0  0
  150.2362  138.5042  157.3366 H   0  0  0  0  0  0  0  0  0  0  0  0
  1  2  1  0  0  0  0
  1 24  1  0  0  0  0
  1 25  1  0  0  0  0
  1 26  1  0  0  0  0
  2 23  2  0  0  0  0
  2  3  1  0  0  0  0
  3  4  2  0  0  0  0
  3 27  1  0  0  0  0
  4  5  1  0  0  0  0
  5  6  1  0  0  0  0
  5 23  1  0  0  0  0
  6  7  1  0  0  0  0
  6 28  1  0  0  0  0
  6 29  1  0  0  0  0
  7  8  1  0  0  0  0
  7 30  1  0  0  0  0
  7 31  1  0  0  0  0
  8  9  1  0  0  0  0
  8 32  1  0  0  0  0
  8 44  1  0  0  0  0
  9 10  1  0  0  0  0
  9 33  1  0  0  0  0
  9 34  1  0  0  0  0
 10 19  1  0  0  0  0
 10 11  2  0  0  0  0
 11 12  1  0  0  0  0
 12 18  2  0  0  0  0
 12 13  1  0  0  0  0
 13 14  2  0  0  0  0
 13 35  1  0  0  0  0
 14 15  1  0  0  0  0
 14 16  1  0  0  0  0
 16 17  2  0  0  0  0
 16 36  1  0  0  0  0
 17 18  1  0  0  0  0
 17 37  1  0  0  0  0
 18 19  1  0  0  0  0
 19 20  1  0  0  0  0
 20 21  1  0  0  0  0
 20 38  1  0  0  0  0
 20 39  1  0  0  0  0
 21 22  1  0  0  0  0
 21 40  1  0  0  0  0
 21 41  1  0  0  0  0
 22 42  1  0  0  0  0
 23 43  1  0  0  0  0
M  CHG  1   8   1
M  END
> <s_m_source_file>
AV-unprocessed.smi

> <i_m_source_file_index>
1011

> <i_lp_mmshare_version>
43012

> <i_f3d_flags>
0

> <s_epik_input>
W0NIM11jMVtjSF1ubihbY0hdMSlbQ0gyXVtDSDJdW05IXVtDSDJdYyhuMiluKFtDSDJdW0NIMl1bT0hdKWMoYzIzKVtjSF1bY0hdYyhDbClbY0hdMw==

> <s_epik_cmdline>
J2VwaWtfcHl0aG9uJywgJy1waCcsICc3LjAnLCAnLXRuJywgJzgnLCAnLW1hJywgJzIwMCcsICctbWV0YWxfYmluZGluZycsICctaW1hZScsICc8aW5maWxlLm1hZT4nLCAnLW9tYWUnLCAnPG91dGZpbGUubWFlPic=

> <r_lp_tautomer_probability>
1

> <r_epik_Ionization_Penalty>
0.234823

> <r_epik_Ionization_Penalty_Charging>
0.2345

> <r_epik_Ionization_Penalty_Neutral>
0.00032281

> <r_epik_State_Penalty>
0.238632

> <r_epik_Charging_Adjusted_Penalty>
0.473132

> <i_epik_Tot_Q>
1

> <i_epik_Tot_abs_Q>
1

> <r_epik_Metal_State_Penalty>
0.25397

> <b_epik_Metal_Only>
0

> <s_lp_Force_Field>
OPLS_2005

> <r_lp_Energy>
6.60255

> <b_lp_Chiralities_Consistent>
1

> <s_lp_Variant>
AV-unprocessed.smi:1011-1

> <Gold.Version>
5.8.1

> <Gold.Id.Protein>
6NUR|6NUR_protein|mol2

> <Gold.PLP.Fitness>
55.9664

> <Gold.PLP.PLP>
-48.2331

> <Gold.PLP.part.hbond>
-3.0000

> <Gold.PLP.part.metal>
0.0000

> <Gold.PLP.part.buried>
-6.1383

> <Gold.PLP.part.nonpolar>
-39.2462

> <Gold.PLP.part.repulsive>
0.0554

> <Gold.PLP.ligand.clash>
0.0000

> <Gold.PLP.ligand.torsion>
0.3818

> <Gold.PLP.Chemscore.Hbond>
2.8000

> <Gold.PLP.Chemscore.CHOScore>
0.0000

> <Gold.PLP.Chemscore.Metal>
0.0000

> <Gold.Chemscore.Hbonds>
donor molecule, donor type, donor heavy atom, donor atom, acceptor molecule, acceptor atom, score
      P1  H  6931  6943       L1     4  1.00
      P1  H  7997  8008       L1    22  0.88

> <Gold.PLP.Chemscore.Internal.Correction>
0.0970

> <Gold.Rescore>
     Score         DG    S(hbond)    S(metal)    S(lipo)     H(rot)  DE(clash)    DE(int)     intcor
     20.07     -20.50       2.49        0.00     121.56       2.94       0.01       0.42       ----

> <Gold.Chemscore.Fitness>
20.0705

> <Gold.Chemscore.DG>
-20.5022

> <Gold.Chemscore.ZeroCoef>
-5.4800

> <Gold.Chemscore.Hbond>
2.4912

> <Gold.Chemscore.Metal>
0.0000

> <Gold.Chemscore.Lipo>
121.5595

> <Gold.Chemscore.Internal_Hbond>
0.0000

> <Gold.Chemscore.DEClash>
0.0121

> <Gold.Chemscore.DEInternal>
0.4196

> <Gold.Chemscore.Rot>
2.9378

> <Gold.Chemscore.Internal.Correction>
   9.000000E+99

> <Gold.Chemscore.Hbonds>
donor molecule, donor type, donor heavy atom, donor atom, acceptor molecule, acceptor atom, score
      P1  H  6931  6943       L1     4  0.94
      P1  H  7997  8008       L1    22  0.67

> <Gold.Chemscore.Hbond.Weighted>
-8.3207

> <Gold.Chemscore.Metal.Weighted>
-0.0000

> <Gold.Chemscore.Lipo.Weighted>
-14.2225

> <Gold.Chemscore.Internal_Hbond.Weighted>
0.0000

> <Gold.Chemscore.DEClash.Weighted>
0.0121

> <Gold.Chemscore.DEInternal.Weighted>
0.4196

> <Gold.Chemscore.Rot.Weighted>
7.5209

> <Gold.Chemscore.Internal.Correction.Weighted>
   9.000000E+99

> <Gold.Protein.RotatedTorsions>
[ 6907 6896 6895 6894 ] final  -54.14 input  -60.11 | X-H torsion
[ 7974 7965 7964 7962 ] final  -63.11 input  175.53 | X-H torsion
[ 8008 7997 7996 7995 ] final -133.59 input   59.86 | X-H torsion
[ 10167 10162 10161 10158 ] final  115.50 input  -65.29 | X-H torsion
[ 10718 10713 10712 10709 ] final  -67.13 input   66.30 | X-H torsion
[ 10763 10752 10751 10750 ] final -110.97 input  -60.55 | X-H torsion
[ 11005 11000 10999 10996 ] final  121.22 input  -57.11 | X-H torsion

> <Gold.Protein.ActiveResidues>
 VAL166  LYS551  ARG553  GLY616  TRP617  ASP618  TYR619  PRO620  LYS621  CYS622 
 ASP623  PHE694  ASN695  SER759  ASP760  ASP761  ALA762  ILE779  LEU786  VAL792 
 PHE793  MET794  SER795  GLU796  ALA797  LYS798  CYS799  TRP800  GLU811  SER814 

> <Gold.Protein.RotatedAtoms>
  150.8364  134.7639  159.6896 H   0  0  0  0  0  0  0  0  0  0  0  0  # atno 6907 bound_to 6896
  152.4460  134.5490  159.9871 H   0  0  0  0  0  0  0  0  0  0  0  0  # atno 6908 bound_to 6896
  151.5639  133.3361  159.3012 H   0  0  0  0  0  0  0  0  0  0  0  0  # atno 6909 bound_to 6896
  145.7831  140.8751  143.0320 H   0  0  0  0  0  0  0  0  0  0  0  0  # atno 7974 bound_to 7965
  155.3481  140.0476  157.3046 H   0  0  0  0  0  0  0  0  0  0  0  0  # atno 8008 bound_to 7997
  154.5242  140.2235  155.8885 H   0  0  0  0  0  0  0  0  0  0  0  0  # atno 8009 bound_to 7997
  156.1721  140.3093  155.8999 H   0  0  0  0  0  0  0  0  0  0  0  0  # atno 8010 bound_to 7997
  139.6313  144.7115  151.2426 H   0  0  0  0  0  0  0  0  0  0  0  0  # atno 10167 bound_to 10162
  156.0574  130.4273  150.1809 H   0  0  0  0  0  0  0  0  0  0  0  0  # atno 10718 bound_to 10713
  154.8276  135.4544  154.0967 H   0  0  0  0  0  0  0  0  0  0  0  0  # atno 10763 bound_to 10752
  153.2268  135.6900  153.7943 H   0  0  0  0  0  0  0  0  0  0  0  0  # atno 10764 bound_to 10752
  153.7340  135.3322  155.3268 H   0  0  0  0  0  0  0  0  0  0  0  0  # atno 10765 bound_to 10752
  139.9217  134.9638  156.7926 H   0  0  0  0  0  0  0  0  0  0  0  0  # atno 11005 bound_to 11000
  144.6793  140.0017  143.7484 LP  0  0  0  0  0  0  0  0  0  0  0  0  # atno 17320 bound_to 7965
  146.0054  139.3125  143.0903 LP  0  0  0  0  0  0  0  0  0  0  0  0  # atno 17321 bound_to 7965
  140.7440  143.6475  150.8278 LP  0  0  0  0  0  0  0  0  0  0  0  0  # atno 17342 bound_to 10162
  140.0100  143.5652  152.2842 LP  0  0  0  0  0  0  0  0  0  0  0  0  # atno 17343 bound_to 10162
  156.9883  130.9885  151.3421 LP  0  0  0  0  0  0  0  0  0  0  0  0  # atno 17370 bound_to 10713
  157.5556  130.8211  149.8200 LP  0  0  0  0  0  0  0  0  0  0  0  0  # atno 17371 bound_to 10713
  140.6455  133.9779  155.7729 LP  0  0  0  0  0  0  0  0  0  0  0  0  # atno 17394 bound_to 11000
  141.0743  134.0159  157.3481 LP  0  0  0  0  0  0  0  0  0  0  0  0  # atno 17395 bound_to 11000

$$$$
