AV-unprocessed.smi:805|AV-procd|sdf|3798|dock3
  -GOLD-   22720 1233D 1   1.00000     0.00000
 Structure written by MMmdl.
 40 41  0  0  0  0  0  0  0  0  1 V2000
  145.1463  130.3147  151.7568 C   0  0  0  0  0  0  0  0  0  0  0  0
  144.6671  131.5539  150.9976 C   0  0  0  0  0  0  0  0  0  0  0  0
  144.3004  132.5520  151.9350 O   0  0  0  0  0  0  0  0  0  0  0  0
  144.1895  133.8406  151.3519 C   0  0  2  0  0  0  0  0  0  0  0  0
  145.4617  134.3452  150.6629 C   0  0  0  0  0  0  0  0  0  0  0  0
  145.0882  135.7153  151.2304 C   0  0  2  0  0  0  0  0  0  0  0  0
  146.2512  136.4877  151.6534 N   0  0  0  0  0  0  0  0  0  0  0  0
  146.1832  137.6596  152.2984 C   0  0  0  0  0  0  0  0  0  0  0  0
  145.1220  138.2078  152.5960 O   0  0  0  0  0  0  0  0  0  0  0  0
  147.4093  138.1275  152.5882 N   0  0  0  0  0  0  0  0  0  0  0  0
  147.7615  139.3385  153.2433 C   0  0  0  0  0  0  0  0  0  0  0  0
  147.1007  140.5747  153.0418 C   0  0  0  0  0  0  0  0  0  0  0  0
  147.5577  141.7104  153.7379 C   0  0  0  0  0  0  0  0  0  0  0  0
  148.6610  141.5716  154.6022 C   0  0  0  0  0  0  0  0  0  0  0  0
  149.3086  140.4030  154.7932 N   0  0  0  0  0  0  0  0  0  0  0  0
  148.8650  139.3182  154.1226 C   0  0  0  0  0  0  0  0  0  0  0  0
  144.3354  134.9908  152.3789 C   0  0  0  0  0  0  0  0  0  0  0  0
  143.0294  135.6418  152.8339 C   0  0  0  0  0  0  0  0  0  0  0  0
  145.1384  134.6645  153.6506 C   0  0  0  0  0  0  0  0  0  0  0  0
  145.4345  129.5221  151.0659 H   0  0  0  0  0  0  0  0  0  0  0  0
  144.3601  129.9252  152.4038 H   0  0  0  0  0  0  0  0  0  0  0  0
  146.0103  130.5466  152.3801 H   0  0  0  0  0  0  0  0  0  0  0  0
  145.4605  131.9196  150.3444 H   0  0  0  0  0  0  0  0  0  0  0  0
  143.8130  131.2969  150.3691 H   0  0  0  0  0  0  0  0  0  0  0  0
  143.2996  133.9549  150.7281 H   0  0  0  0  0  0  0  0  0  0  0  0
  146.3774  133.9234  151.0814 H   0  0  0  0  0  0  0  0  0  0  0  0
  145.4467  134.2824  149.5746 H   0  0  0  0  0  0  0  0  0  0  0  0
  144.4158  136.2556  150.5591 H   0  0  0  0  0  0  0  0  0  0  0  0
  147.1609  136.1006  151.4489 H   0  0  0  0  0  0  0  0  0  0  0  0
  148.1820  137.5203  152.3579 H   0  0  0  0  0  0  0  0  0  0  0  0
  146.2691  140.6789  152.3628 H   0  0  0  0  0  0  0  0  0  0  0  0
  147.0753  142.6679  153.6081 H   0  0  0  0  0  0  0  0  0  0  0  0
  149.0365  142.4234  155.1496 H   0  0  0  0  0  0  0  0  0  0  0  0
  149.4085  138.4012  154.2983 H   0  0  0  0  0  0  0  0  0  0  0  0
  143.2142  136.5573  153.3965 H   0  0  0  0  0  0  0  0  0  0  0  0
  142.4499  134.9726  153.4707 H   0  0  0  0  0  0  0  0  0  0  0  0
  142.3974  135.9076  151.9862 H   0  0  0  0  0  0  0  0  0  0  0  0
  145.3420  135.5607  154.2374 H   0  0  0  0  0  0  0  0  0  0  0  0
  146.0998  134.2033  153.4239 H   0  0  0  0  0  0  0  0  0  0  0  0
  144.5979  133.9709  154.2954 H   0  0  0  0  0  0  0  0  0  0  0  0
  1  2  1  0  0  0  0
  1 20  1  0  0  0  0
  1 21  1  0  0  0  0
  1 22  1  0  0  0  0
  2  3  1  0  0  0  0
  2 23  1  0  0  0  0
  2 24  1  0  0  0  0
  3  4  1  0  0  0  0
  4 17  1  0  0  0  0
  4  5  1  0  0  0  0
  4 25  1  0  0  0  0
  5  6  1  0  0  0  0
  5 26  1  0  0  0  0
  5 27  1  0  0  0  0
  6  7  1  0  0  0  0
  6 17  1  0  0  0  0
  6 28  1  0  0  0  0
  7  8  1  0  0  0  0
  7 29  1  0  0  0  0
  8  9  2  0  0  0  0
  8 10  1  0  0  0  0
 10 11  1  0  0  0  0
 10 30  1  0  0  0  0
 11 16  1  0  0  0  0
 11 12  2  0  0  0  0
 12 13  1  0  0  0  0
 12 31  1  0  0  0  0
 13 14  2  0  0  0  0
 13 32  1  0  0  0  0
 14 15  1  0  0  0  0
 14 33  1  0  0  0  0
 15 16  2  0  0  0  0
 16 34  1  0  0  0  0
 17 18  1  0  0  0  0
 17 19  1  0  0  0  0
 18 35  1  0  0  0  0
 18 36  1  0  0  0  0
 18 37  1  0  0  0  0
 19 38  1  0  0  0  0
 19 39  1  0  0  0  0
 19 40  1  0  0  0  0
M  END
> <s_m_source_file>
AV-unprocessed.smi

> <i_m_source_file_index>
805

> <i_lp_mmshare_version>
43012

> <i_f3d_flags>
0

> <s_epik_input>
W0NIM11bQ0gyXU9bQ0BASF0oQzEoW0NIM10pW0NIM10pW0NIMl1bQ0BIXTFbTkhdQyg9TylbTkhdYzJbY0hdW2NIXVtjSF1uW2NIXTI=

> <s_epik_cmdline>
J2VwaWtfcHl0aG9uJywgJy1waCcsICc3LjAnLCAnLXRuJywgJzgnLCAnLW1hJywgJzIwMCcsICctbWV0YWxfYmluZGluZycsICctaW1hZScsICc8aW5maWxlLm1hZT4nLCAnLW9tYWUnLCAnPG91dGZpbGUubWFlPic=

> <r_epik_Ionization_Penalty>
0.00485231

> <r_epik_Ionization_Penalty_Charging>
0

> <r_epik_Ionization_Penalty_Neutral>
0.00485231

> <r_epik_State_Penalty>
0.00349213

> <r_epik_Charging_Adjusted_Penalty>
0.00349213

> <i_epik_Tot_Q>
0

> <i_epik_Tot_abs_Q>
0

> <r_epik_Metal_State_Penalty>
-0

> <b_epik_Metal_Only>
0

> <s_lp_Force_Field>
OPLS_2005

> <r_lp_Energy>
21.5129

> <b_lp_Chiralities_Consistent>
1

> <s_lp_Variant>
AV-unprocessed.smi:805-3

> <Gold.Version>
5.8.1

> <Gold.Id.Protein>
6NUR|6NUR_protein|mol2

> <Gold.PLP.Fitness>
39.3356

> <Gold.PLP.PLP>
-31.5278

> <Gold.PLP.part.hbond>
-2.2719

> <Gold.PLP.part.metal>
0.0000

> <Gold.PLP.part.buried>
-2.6369

> <Gold.PLP.part.nonpolar>
-29.2361

> <Gold.PLP.part.repulsive>
2.8791

> <Gold.PLP.ligand.clash>
0.0000

> <Gold.PLP.ligand.torsion>
0.5681

> <Gold.PLP.Chemscore.Hbond>
1.8800

> <Gold.PLP.Chemscore.CHOScore>
1.0000

> <Gold.PLP.Chemscore.Metal>
0.0000

> <Gold.Chemscore.Hbonds>
donor molecule, donor type, donor heavy atom, donor atom, acceptor molecule, acceptor atom, score
      L1  H     7    29       P1  7948  0.90
      L1  H    10    30       P1  7948  1.00
      L1  C    14    33       P1  8028  1.00

> <Gold.PLP.Chemscore.Internal.Correction>
0.3040

> <Gold.Rescore>
     Score         DG    S(hbond)    S(metal)    S(lipo)     H(rot)  DE(clash)    DE(int)     intcor
     16.53     -17.12       1.85        0.00      76.36       1.36       0.04       0.55       ----

> <Gold.Chemscore.Fitness>
16.5282

> <Gold.Chemscore.DG>
-17.1188

> <Gold.Chemscore.ZeroCoef>
-5.4800

> <Gold.Chemscore.Hbond>
1.8485

> <Gold.Chemscore.Metal>
0.0000

> <Gold.Chemscore.Lipo>
76.3576

> <Gold.Chemscore.Internal_Hbond>
0.0000

> <Gold.Chemscore.DEClash>
0.0396

> <Gold.Chemscore.DEInternal>
0.5510

> <Gold.Chemscore.Rot>
1.3551

> <Gold.Chemscore.Internal.Correction>
   9.000000E+99

> <Gold.Chemscore.Hbonds>
donor molecule, donor type, donor heavy atom, donor atom, acceptor molecule, acceptor atom, score
      L1  H     7    29       P1  7948  0.88
      L1  H    10    30       P1  7948  0.96

> <Gold.Chemscore.Hbond.Weighted>
-6.1740

> <Gold.Chemscore.Metal.Weighted>
-0.0000

> <Gold.Chemscore.Lipo.Weighted>
-8.9338

> <Gold.Chemscore.Internal_Hbond.Weighted>
0.0000

> <Gold.Chemscore.DEClash.Weighted>
0.0396

> <Gold.Chemscore.DEInternal.Weighted>
0.5510

> <Gold.Chemscore.Rot.Weighted>
3.4691

> <Gold.Chemscore.Internal.Correction.Weighted>
   9.000000E+99

> <Gold.Protein.RotatedTorsions>
[ 6907 6896 6895 6894 ] final -123.93 input  -60.11 | X-H torsion
[ 7974 7965 7964 7962 ] final  111.42 input  175.53 | X-H torsion
[ 8008 7997 7996 7995 ] final    8.50 input   59.86 | X-H torsion
[ 10167 10162 10161 10158 ] final  170.19 input  -65.29 | X-H torsion
[ 10718 10713 10712 10709 ] final  144.55 input   66.30 | X-H torsion
[ 10763 10752 10751 10750 ] final  -65.93 input  -60.55 | X-H torsion
[ 11005 11000 10999 10996 ] final    8.00 input  -57.11 | X-H torsion

> <Gold.Protein.ActiveResidues>
 VAL166  LYS551  ARG553  GLY616  TRP617  ASP618  TYR619  PRO620  LYS621  CYS622 
 ASP623  PHE694  ASN695  SER759  ASP760  ASP761  ALA762  ILE779  LEU786  VAL792 
 PHE793  MET794  SER795  GLU796  ALA797  LYS798  CYS799  TRP800  GLU811  SER814 

> <Gold.Protein.RotatedAtoms>
  150.8718  133.7494  159.2958 H   0  0  0  0  0  0  0  0  0  0  0  0  # atno 6907 bound_to 6896
  151.5104  135.1063  159.9862 H   0  0  0  0  0  0  0  0  0  0  0  0  # atno 6908 bound_to 6896
  152.4700  133.7964  159.6985 H   0  0  0  0  0  0  0  0  0  0  0  0  # atno 6909 bound_to 6896
  145.2425  139.2773  143.4110 H   0  0  0  0  0  0  0  0  0  0  0  0  # atno 7974 bound_to 7965
  154.7677  140.2796  155.6163 H   0  0  0  0  0  0  0  0  0  0  0  0  # atno 8008 bound_to 7997
  156.2928  140.2647  156.2399 H   0  0  0  0  0  0  0  0  0  0  0  0  # atno 8009 bound_to 7997
  154.9938  140.0373  157.2321 H   0  0  0  0  0  0  0  0  0  0  0  0  # atno 8010 bound_to 7997
  139.5012  144.3624  151.9811 H   0  0  0  0  0  0  0  0  0  0  0  0  # atno 10167 bound_to 10162
  157.3558  131.0957  151.0960 H   0  0  0  0  0  0  0  0  0  0  0  0  # atno 10718 bound_to 10713
  154.3523  135.6134  153.5649 H   0  0  0  0  0  0  0  0  0  0  0  0  # atno 10763 bound_to 10752
  152.9797  135.5795  154.4729 H   0  0  0  0  0  0  0  0  0  0  0  0  # atno 10764 bound_to 10752
  154.4452  135.2851  155.1797 H   0  0  0  0  0  0  0  0  0  0  0  0  # atno 10765 bound_to 10752
  140.5419  134.0366  155.7907 H   0  0  0  0  0  0  0  0  0  0  0  0  # atno 11005 bound_to 11000
  146.3325  140.2792  142.8609 LP  0  0  0  0  0  0  0  0  0  0  0  0  # atno 17320 bound_to 7965
  144.9576  140.8243  143.5533 LP  0  0  0  0  0  0  0  0  0  0  0  0  # atno 17321 bound_to 7965
  140.3060  144.3592  150.6047 LP  0  0  0  0  0  0  0  0  0  0  0  0  # atno 17342 bound_to 10162
  140.5836  143.2171  151.7383 LP  0  0  0  0  0  0  0  0  0  0  0  0  # atno 17343 bound_to 10162
  157.2118  130.6441  149.5777 LP  0  0  0  0  0  0  0  0  0  0  0  0  # atno 17370 bound_to 10713
  155.9729  130.4657  150.6264 LP  0  0  0  0  0  0  0  0  0  0  0  0  # atno 17371 bound_to 10713
  141.1222  133.9442  157.2707 LP  0  0  0  0  0  0  0  0  0  0  0  0  # atno 17394 bound_to 11000
  139.9499  135.0177  156.8964 LP  0  0  0  0  0  0  0  0  0  0  0  0  # atno 17395 bound_to 11000

$$$$
