AV-unprocessed.smi:761|AV-procd|sdf|3630|dock4
  -GOLD-   22720 1 23D 1   1.00000     0.00000
 Structure written by MMmdl.
 34 35  0  0  0  0  0  0  0  0  2 V2000
  150.7519  140.6165  156.0366 O   0  0  0  0  0  0  0  0  0  0  0  0
  150.2425  141.7372  156.0373 C   0  0  0  0  0  0  0  0  0  0  0  0
  149.2616  142.0972  155.1970 N   0  0  0  0  0  0  0  0  0  0  0  0
  148.6628  141.2194  154.1983 C   0  0  0  0  0  0  0  0  0  0  0  0
  147.1919  141.5892  153.9316 C   0  0  0  0  0  0  0  0  0  0  0  0
  146.4216  140.4460  153.3902 N   0  3  0  0  0  0  0  0  0  0  0  0
  146.4309  139.2252  154.2471 C   0  0  0  0  0  0  0  0  0  0  0  0
  146.5322  138.1048  153.2511 C   0  0  0  0  0  0  0  0  0  0  0  0
  146.7330  138.5647  152.0214 C   0  0  0  0  0  0  0  0  0  0  0  0
  146.7995  140.0655  151.9999 C   0  0  0  0  0  0  0  0  0  0  0  0
  150.5952  142.7553  156.8411 N   0  0  0  0  0  0  0  0  0  0  0  0
  151.5678  142.7726  157.8776 C   0  0  0  0  0  0  0  0  0  0  0  0
  151.9247  144.0236  158.4220 C   0  0  0  0  0  0  0  0  0  0  0  0
  152.8739  144.0662  159.4627 C   0  0  0  0  0  0  0  0  0  0  0  0
  153.4590  142.9648  159.9782 N   0  0  0  0  0  0  0  0  0  0  0  0
  153.1053  141.7669  159.4665 C   0  0  0  0  0  0  0  0  0  0  0  0
  152.1680  141.6130  158.4253 C   0  0  0  0  0  0  0  0  0  0  0  0
  148.9006  143.0383  155.2574 H   0  0  0  0  0  0  0  0  0  0  0  0
  149.2518  141.2586  153.2804 H   0  0  0  0  0  0  0  0  0  0  0  0
  148.7284  140.1944  154.5643 H   0  0  0  0  0  0  0  0  0  0  0  0
  146.7328  141.9073  154.8687 H   0  0  0  0  0  0  0  0  0  0  0  0
  147.1168  142.4329  153.2438 H   0  0  0  0  0  0  0  0  0  0  0  0
  147.2917  139.1949  154.9170 H   0  0  0  0  0  0  0  0  0  0  0  0
  145.5163  139.1547  154.8363 H   0  0  0  0  0  0  0  0  0  0  0  0
  146.4673  137.0639  153.5329 H   0  0  0  0  0  0  0  0  0  0  0  0
  146.8588  137.9610  151.1345 H   0  0  0  0  0  0  0  0  0  0  0  0
  146.1012  140.4874  151.2766 H   0  0  0  0  0  0  0  0  0  0  0  0
  147.8127  140.3806  151.7460 H   0  0  0  0  0  0  0  0  0  0  0  0
  150.1433  143.6398  156.6612 H   0  0  0  0  0  0  0  0  0  0  0  0
  151.4858  144.9379  158.0498 H   0  0  0  0  0  0  0  0  0  0  0  0
  153.1689  145.0114  159.8938 H   0  0  0  0  0  0  0  0  0  0  0  0
  153.5794  140.9012  159.9047 H   0  0  0  0  0  0  0  0  0  0  0  0
  151.9234  140.6196  158.0832 H   0  0  0  0  0  0  0  0  0  0  0  0
  145.4568  140.7395  153.3351 H   0  0  0  0  0  0  0  0  0  0  0  0
  1  2  2  0  0  0  0
  2  3  1  0  0  0  0
  2 11  1  0  0  0  0
  3  4  1  0  0  0  0
  3 18  1  0  0  0  0
  4  5  1  0  0  0  0
  4 19  1  0  0  0  0
  4 20  1  0  0  0  0
  5  6  1  0  0  0  0
  5 21  1  0  0  0  0
  5 22  1  0  0  0  0
  6 10  1  0  0  0  0
  6  7  1  0  0  0  0
  6 34  1  0  0  0  0
  7  8  1  0  0  0  0
  7 23  1  0  0  0  0
  7 24  1  0  0  0  0
  8  9  2  0  0  0  0
  8 25  1  0  0  0  0
  9 10  1  0  0  0  0
  9 26  1  0  0  0  0
 10 27  1  0  0  0  0
 10 28  1  0  0  0  0
 11 12  1  0  0  0  0
 11 29  1  0  0  0  0
 12 17  1  0  0  0  0
 12 13  2  0  0  0  0
 13 14  1  0  0  0  0
 13 30  1  0  0  0  0
 14 15  2  0  0  0  0
 14 31  1  0  0  0  0
 15 16  1  0  0  0  0
 16 17  2  0  0  0  0
 16 32  1  0  0  0  0
 17 33  1  0  0  0  0
M  CHG  1   6   1
M  END
> <s_m_source_file>
AV-unprocessed.smi

> <i_m_source_file_index>
761

> <i_lp_mmshare_version>
43012

> <i_f3d_flags>
0

> <s_epik_input>
W2NIXTFbY0hdbltjSF1bY0hdYzFbTkhdQyg9TylbTkhdW0NIMl1bQ0gyXU4yW0NIMl1bQ0hdPVtDSF1bQ0gyXTI=

> <s_epik_cmdline>
J2VwaWtfcHl0aG9uJywgJy1waCcsICc3LjAnLCAnLXRuJywgJzgnLCAnLW1hJywgJzIwMCcsICctbWV0YWxfYmluZGluZycsICctaW1hZScsICc8aW5maWxlLm1hZT4nLCAnLW9tYWUnLCAnPG91dGZpbGUubWFlPic=

> <r_epik_Ionization_Penalty>
0.100973

> <r_epik_Ionization_Penalty_Charging>
0.00265978

> <r_epik_Ionization_Penalty_Neutral>
0.098313

> <r_epik_State_Penalty>
0.0959991

> <r_epik_Charging_Adjusted_Penalty>
0.0986589

> <i_epik_Tot_Q>
1

> <i_epik_Tot_abs_Q>
1

> <r_epik_Metal_State_Penalty>
0.0816347

> <b_epik_Metal_Only>
0

> <s_lp_Force_Field>
OPLS_2005

> <r_lp_Energy>
25.6578

> <b_lp_Chiralities_Consistent>
1

> <s_lp_Variant>
AV-unprocessed.smi:761-1

> <Gold.Version>
5.8.1

> <Gold.Id.Protein>
6NUR|6NUR_protein|mol2

> <Gold.PLP.Fitness>
48.0148

> <Gold.PLP.PLP>
-36.8784

> <Gold.PLP.part.hbond>
-3.0000

> <Gold.PLP.part.metal>
0.0000

> <Gold.PLP.part.buried>
-0.7736

> <Gold.PLP.part.nonpolar>
-32.3461

> <Gold.PLP.part.repulsive>
0.2856

> <Gold.PLP.ligand.clash>
0.0000

> <Gold.PLP.ligand.torsion>
0.3708

> <Gold.PLP.Chemscore.Hbond>
3.9520

> <Gold.PLP.Chemscore.CHOScore>
0.0000

> <Gold.PLP.Chemscore.Metal>
0.0000

> <Gold.Chemscore.Hbonds>
donor molecule, donor type, donor heavy atom, donor atom, acceptor molecule, acceptor atom, score
      L1  H     3    18       P1  8028  1.00
      L1  H     6    34       P1 10175  1.89
      L1  H    11    29       P1  8028  1.00

> <Gold.PLP.Chemscore.Internal.Correction>
0.0221

> <Gold.Rescore>
     Score         DG    S(hbond)    S(metal)    S(lipo)     H(rot)  DE(clash)    DE(int)     intcor
     20.05     -22.39       2.85        0.00      96.29       1.51       0.76       1.57       ----

> <Gold.Chemscore.Fitness>
20.0498

> <Gold.Chemscore.DG>
-22.3864

> <Gold.Chemscore.ZeroCoef>
-5.4800

> <Gold.Chemscore.Hbond>
2.8476

> <Gold.Chemscore.Metal>
0.0000

> <Gold.Chemscore.Lipo>
96.2852

> <Gold.Chemscore.Internal_Hbond>
0.0000

> <Gold.Chemscore.DEClash>
0.7628

> <Gold.Chemscore.DEInternal>
1.5738

> <Gold.Chemscore.Rot>
1.5117

> <Gold.Chemscore.Internal.Correction>
   9.000000E+99

> <Gold.Chemscore.Hbonds>
donor molecule, donor type, donor heavy atom, donor atom, acceptor molecule, acceptor atom, score
      L1  H     3    18       P1  8028  0.99
      L1  H     6    34       P1 10175  0.73
      L1  H    11    29       P1  8028  0.96

> <Gold.Chemscore.Hbond.Weighted>
-9.5111

> <Gold.Chemscore.Metal.Weighted>
-0.0000

> <Gold.Chemscore.Lipo.Weighted>
-11.2654

> <Gold.Chemscore.Internal_Hbond.Weighted>
0.0000

> <Gold.Chemscore.DEClash.Weighted>
0.7628

> <Gold.Chemscore.DEInternal.Weighted>
1.5738

> <Gold.Chemscore.Rot.Weighted>
3.8700

> <Gold.Chemscore.Internal.Correction.Weighted>
   9.000000E+99

> <Gold.Protein.RotatedTorsions>
[ 6907 6896 6895 6894 ] final   22.66 input  -60.11 | X-H torsion
[ 7974 7965 7964 7962 ] final  168.46 input  175.53 | X-H torsion
[ 8008 7997 7996 7995 ] final  -22.89 input   59.86 | X-H torsion
[ 10167 10162 10161 10158 ] final -122.83 input  -65.29 | X-H torsion
[ 10718 10713 10712 10709 ] final -163.60 input   66.30 | X-H torsion
[ 10763 10752 10751 10750 ] final  160.23 input  -60.55 | X-H torsion
[ 11005 11000 10999 10996 ] final  128.85 input  -57.11 | X-H torsion

> <Gold.Protein.ActiveResidues>
 VAL166  LYS551  ARG553  GLY616  TRP617  ASP618  TYR619  PRO620  LYS621  CYS622 
 ASP623  PHE694  ASN695  SER759  ASP760  ASP761  ALA762  ILE779  LEU786  VAL792 
 PHE793  MET794  SER795  GLU796  ALA797  LYS798  CYS799  TRP800  GLU811  SER814 

> <Gold.Protein.RotatedAtoms>
  151.9304  135.0259  160.0528 H   0  0  0  0  0  0  0  0  0  0  0  0  # atno 6907 bound_to 6896
  152.2123  133.4916  159.5125 H   0  0  0  0  0  0  0  0  0  0  0  0  # atno 6908 bound_to 6896
  150.6979  134.1368  159.4133 H   0  0  0  0  0  0  0  0  0  0  0  0  # atno 6909 bound_to 6896
  144.7388  139.8911  143.6403 H   0  0  0  0  0  0  0  0  0  0  0  0  # atno 7974 bound_to 7965
  154.4617  140.1995  156.0226 H   0  0  0  0  0  0  0  0  0  0  0  0  # atno 8008 bound_to 7997
  156.0853  140.3266  155.7717 H   0  0  0  0  0  0  0  0  0  0  0  0  # atno 8009 bound_to 7997
  155.5045  140.0556  157.2924 H   0  0  0  0  0  0  0  0  0  0  0  0  # atno 8010 bound_to 7997
  140.0100  143.5452  152.2267 H   0  0  0  0  0  0  0  0  0  0  0  0  # atno 10167 bound_to 10162
  156.6271  130.8914  151.2970 H   0  0  0  0  0  0  0  0  0  0  0  0  # atno 10718 bound_to 10713
  154.2441  135.2774  155.2842 H   0  0  0  0  0  0  0  0  0  0  0  0  # atno 10763 bound_to 10752
  154.5520  135.5672  153.6934 H   0  0  0  0  0  0  0  0  0  0  0  0  # atno 10764 bound_to 10752
  152.9994  135.6277  154.2586 H   0  0  0  0  0  0  0  0  0  0  0  0  # atno 10765 bound_to 10752
  139.9583  134.9608  156.9062 H   0  0  0  0  0  0  0  0  0  0  0  0  # atno 11005 bound_to 11000
  146.1141  139.4149  143.0269 LP  0  0  0  0  0  0  0  0  0  0  0  0  # atno 17320 bound_to 7965
  145.7400  141.0011  143.1306 LP  0  0  0  0  0  0  0  0  0  0  0  0  # atno 17321 bound_to 7965
  139.6212  144.7629  151.2737 LP  0  0  0  0  0  0  0  0  0  0  0  0  # atno 17342 bound_to 10162
  140.7385  143.6646  150.8134 LP  0  0  0  0  0  0  0  0  0  0  0  0  # atno 17343 bound_to 10162
  157.7211  130.9559  150.1442 LP  0  0  0  0  0  0  0  0  0  0  0  0  # atno 17370 bound_to 10713
  156.2265  130.3678  149.8495 LP  0  0  0  0  0  0  0  0  0  0  0  0  # atno 17371 bound_to 10713
  140.5558  134.0583  155.7383 LP  0  0  0  0  0  0  0  0  0  0  0  0  # atno 17394 bound_to 11000
  141.1257  133.9386  157.2639 LP  0  0  0  0  0  0  0  0  0  0  0  0  # atno 17395 bound_to 11000

$$$$
