AV-unprocessed.smi:1903|AV-procd|sdf|7722|dock6
  -GOLD-   22720 9463D 1   1.00000     0.00000
 Structure written by MMmdl.
 47 48  0  0  0  0  0  0  0  0  2 V2000
  153.3569  138.6879  154.5568 C   0  0  0  0  0  0  0  0  0  0  0  0
  152.2331  139.1784  155.4246 C   0  0  0  0  0  0  0  0  0  0  0  0
  152.4837  140.0668  156.3718 N   0  0  0  0  0  0  0  0  0  0  0  0
  151.2903  140.2927  156.9563 N   0  0  0  0  0  0  0  0  0  0  0  0
  151.2031  141.2362  158.0540 C   0  0  0  0  0  0  0  0  0  0  0  0
  150.2832  139.5457  156.3771 C   0  0  0  0  0  0  0  0  0  0  0  0
  148.8665  139.6243  156.8476 C   0  0  0  0  0  0  0  0  0  0  0  0
  150.8571  138.8079  155.3756 C   0  0  0  0  0  0  0  0  0  0  0  0
  150.2090  137.8287  154.4296 C   0  0  0  0  0  0  0  0  0  0  0  0
  149.6688  136.6326  155.2138 C   0  0  0  0  0  0  0  0  0  0  0  0
  149.5507  136.6992  156.4371 O   0  0  0  0  0  0  0  0  0  0  0  0
  149.3448  135.5431  154.4998 N   0  0  0  0  0  0  0  0  0  0  0  0
  148.8433  134.2942  155.0597 C   0  0  0  0  0  0  0  0  0  0  0  0
  148.3325  133.3440  153.9592 C   0  0  0  0  0  0  0  0  0  0  0  0
  147.5415  134.0514  152.9206 N   0  3  0  0  0  0  0  0  0  0  0  0
  147.0295  133.1238  151.8774 C   0  0  0  0  0  0  0  0  0  0  0  0
  146.3305  133.8903  150.7419 C   0  0  0  0  0  0  0  0  0  0  0  0
  145.1993  134.7707  151.2875 C   0  0  0  0  0  0  0  0  0  0  0  0
  145.7426  135.6981  152.3815 C   0  0  0  0  0  0  0  0  0  0  0  0
  146.4526  134.8945  153.4840 C   0  0  0  0  0  0  0  0  0  0  0  0
  153.1047  138.7852  153.5009 H   0  0  0  0  0  0  0  0  0  0  0  0
  153.5676  137.6364  154.7522 H   0  0  0  0  0  0  0  0  0  0  0  0
  154.2767  139.2482  154.7288 H   0  0  0  0  0  0  0  0  0  0  0  0
  150.7455  140.7539  158.9181 H   0  0  0  0  0  0  0  0  0  0  0  0
  150.5924  142.0886  157.7555 H   0  0  0  0  0  0  0  0  0  0  0  0
  152.1947  141.5931  158.3355 H   0  0  0  0  0  0  0  0  0  0  0  0
  148.2165  138.9721  156.2648 H   0  0  0  0  0  0  0  0  0  0  0  0
  148.4852  140.6415  156.7571 H   0  0  0  0  0  0  0  0  0  0  0  0
  148.7886  139.3252  157.8931 H   0  0  0  0  0  0  0  0  0  0  0  0
  149.3874  138.2933  153.8832 H   0  0  0  0  0  0  0  0  0  0  0  0
  150.9090  137.4761  153.6715 H   0  0  0  0  0  0  0  0  0  0  0  0
  149.4792  135.5764  153.4994 H   0  0  0  0  0  0  0  0  0  0  0  0
  149.6631  133.8417  155.6162 H   0  0  0  0  0  0  0  0  0  0  0  0
  148.0537  134.5019  155.7840 H   0  0  0  0  0  0  0  0  0  0  0  0
  149.1959  132.8746  153.4856 H   0  0  0  0  0  0  0  0  0  0  0  0
  147.7405  132.5340  154.3884 H   0  0  0  0  0  0  0  0  0  0  0  0
  147.8555  132.5468  151.4593 H   0  0  0  0  0  0  0  0  0  0  0  0
  146.3403  132.4092  152.3305 H   0  0  0  0  0  0  0  0  0  0  0  0
  147.0575  134.5114  150.2170 H   0  0  0  0  0  0  0  0  0  0  0  0
  145.9346  133.1890  150.0065 H   0  0  0  0  0  0  0  0  0  0  0  0
  144.7535  135.3557  150.4826 H   0  0  0  0  0  0  0  0  0  0  0  0
  144.4058  134.1433  151.6954 H   0  0  0  0  0  0  0  0  0  0  0  0
  146.4392  136.4138  151.9432 H   0  0  0  0  0  0  0  0  0  0  0  0
  144.9294  136.2830  152.8119 H   0  0  0  0  0  0  0  0  0  0  0  0
  145.7343  134.2610  154.0065 H   0  0  0  0  0  0  0  0  0  0  0  0
  146.8520  135.5904  154.2206 H   0  0  0  0  0  0  0  0  0  0  0  0
  148.1828  134.6737  152.4493 H   0  0  0  0  0  0  0  0  0  0  0  0
  1  2  1  0  0  0  0
  1 21  1  0  0  0  0
  1 22  1  0  0  0  0
  1 23  1  0  0  0  0
  2  8  1  0  0  0  0
  2  3  2  0  0  0  0
  3  4  1  0  0  0  0
  4  5  1  0  0  0  0
  4  6  1  0  0  0  0
  5 24  1  0  0  0  0
  5 25  1  0  0  0  0
  5 26  1  0  0  0  0
  6  7  1  0  0  0  0
  6  8  2  0  0  0  0
  7 27  1  0  0  0  0
  7 28  1  0  0  0  0
  7 29  1  0  0  0  0
  8  9  1  0  0  0  0
  9 10  1  0  0  0  0
  9 30  1  0  0  0  0
  9 31  1  0  0  0  0
 10 11  2  0  0  0  0
 10 12  1  0  0  0  0
 12 13  1  0  0  0  0
 12 32  1  0  0  0  0
 13 14  1  0  0  0  0
 13 33  1  0  0  0  0
 13 34  1  0  0  0  0
 14 15  1  0  0  0  0
 14 35  1  0  0  0  0
 14 36  1  0  0  0  0
 15 20  1  0  0  0  0
 15 16  1  0  0  0  0
 15 47  1  0  0  0  0
 16 17  1  0  0  0  0
 16 37  1  0  0  0  0
 16 38  1  0  0  0  0
 17 18  1  0  0  0  0
 17 39  1  0  0  0  0
 17 40  1  0  0  0  0
 18 19  1  0  0  0  0
 18 41  1  0  0  0  0
 18 42  1  0  0  0  0
 19 20  1  0  0  0  0
 19 43  1  0  0  0  0
 19 44  1  0  0  0  0
 20 45  1  0  0  0  0
 20 46  1  0  0  0  0
M  CHG  1  15   1
M  END
> <s_m_source_file>
AV-unprocessed.smi

> <i_m_source_file_index>
1903

> <i_lp_mmshare_version>
43012

> <i_f3d_flags>
0

> <s_epik_input>
W0NIM11jMW5uKFtDSDNdKWMoW0NIM10pYzFbQ0gyXUMoPU8pW05IXVtDSDJdW0NIMl1OMltDSDJdW0NIMl1bQ0gyXVtDSDJdW0NIMl0y

> <s_epik_cmdline>
J2VwaWtfcHl0aG9uJywgJy1waCcsICc3LjAnLCAnLXRuJywgJzgnLCAnLW1hJywgJzIwMCcsICctbWV0YWxfYmluZGluZycsICctaW1hZScsICc8aW5maWxlLm1hZT4nLCAnLW9tYWUnLCAnPG91dGZpbGUubWFlPic=

> <r_lp_tautomer_probability>
1

> <r_epik_Ionization_Penalty>
0.00456445

> <r_epik_Ionization_Penalty_Charging>
0.00240401

> <r_epik_Ionization_Penalty_Neutral>
0.00216044

> <r_epik_State_Penalty>
-0

> <r_epik_Charging_Adjusted_Penalty>
0.00240401

> <i_epik_Tot_Q>
1

> <i_epik_Tot_abs_Q>
1

> <r_epik_Metal_State_Penalty>
-0

> <b_epik_Metal_Only>
0

> <s_lp_Force_Field>
OPLS_2005

> <r_lp_Energy>
10.8117

> <b_lp_Chiralities_Consistent>
1

> <s_lp_Variant>
AV-unprocessed.smi:1903-1

> <Gold.Version>
5.8.1

> <Gold.Id.Protein>
6NUR|6NUR_protein|mol2

> <Gold.PLP.Fitness>
42.0564

> <Gold.PLP.PLP>
-31.1602

> <Gold.PLP.part.hbond>
-3.0000

> <Gold.PLP.part.metal>
0.0000

> <Gold.PLP.part.buried>
-1.9388

> <Gold.PLP.part.nonpolar>
-25.8541

> <Gold.PLP.part.repulsive>
0.0456

> <Gold.PLP.ligand.clash>
0.0000

> <Gold.PLP.ligand.torsion>
0.3486

> <Gold.PLP.Chemscore.Hbond>
3.8432

> <Gold.PLP.Chemscore.CHOScore>
0.0000

> <Gold.PLP.Chemscore.Metal>
0.0000

> <Gold.Chemscore.Hbonds>
donor molecule, donor type, donor heavy atom, donor atom, acceptor molecule, acceptor atom, score
      L1  H    12    32       P1  7948  0.90
      L1  H    15    47       P1  7948  2.00
      P1  H  7997  8010       L1     3  1.00

> <Gold.PLP.Chemscore.Internal.Correction>
0.0638

> <Gold.Rescore>
     Score         DG    S(hbond)    S(metal)    S(lipo)     H(rot)  DE(clash)    DE(int)     intcor
     17.47     -19.04       2.75        0.00      73.49       1.65       0.03       1.54       ----

> <Gold.Chemscore.Fitness>
17.4665

> <Gold.Chemscore.DG>
-19.0382

> <Gold.Chemscore.ZeroCoef>
-5.4800

> <Gold.Chemscore.Hbond>
2.7472

> <Gold.Chemscore.Metal>
0.0000

> <Gold.Chemscore.Lipo>
73.4890

> <Gold.Chemscore.Internal_Hbond>
0.0000

> <Gold.Chemscore.DEClash>
0.0313

> <Gold.Chemscore.DEInternal>
1.5405

> <Gold.Chemscore.Rot>
1.6467

> <Gold.Chemscore.Internal.Correction>
   9.000000E+99

> <Gold.Chemscore.Hbonds>
donor molecule, donor type, donor heavy atom, donor atom, acceptor molecule, acceptor atom, score
      L1  H    12    32       P1  7948  0.17
      L1  H    15    47       P1  7948  0.35
      P1  H  7997  8010       L1     3  0.53

> <Gold.Chemscore.Hbond.Weighted>
-9.1755

> <Gold.Chemscore.Metal.Weighted>
-0.0000

> <Gold.Chemscore.Lipo.Weighted>
-8.5982

> <Gold.Chemscore.Internal_Hbond.Weighted>
0.0000

> <Gold.Chemscore.DEClash.Weighted>
0.0313

> <Gold.Chemscore.DEInternal.Weighted>
1.5405

> <Gold.Chemscore.Rot.Weighted>
4.2155

> <Gold.Chemscore.Internal.Correction.Weighted>
   9.000000E+99

> <Gold.Protein.RotatedTorsions>
[ 6907 6896 6895 6894 ] final   89.84 input  -60.11 | X-H torsion
[ 7974 7965 7964 7962 ] final  122.17 input  175.53 | X-H torsion
[ 8008 7997 7996 7995 ] final   62.66 input   59.86 | X-H torsion
[ 10167 10162 10161 10158 ] final  155.48 input  -65.29 | X-H torsion
[ 10718 10713 10712 10709 ] final  175.02 input   66.30 | X-H torsion
[ 10763 10752 10751 10750 ] final  158.43 input  -60.55 | X-H torsion
[ 11005 11000 10999 10996 ] final   83.57 input  -57.11 | X-H torsion

> <Gold.Protein.ActiveResidues>
 VAL166  LYS551  ARG553  GLY616  TRP617  ASP618  TYR619  PRO620  LYS621  CYS622 
 ASP623  PHE694  ASN695  SER759  ASP760  ASP761  ALA762  ILE779  LEU786  VAL792 
 PHE793  MET794  SER795  GLU796  ALA797  LYS798  CYS799  TRP800  GLU811  SER814 

> <Gold.Protein.RotatedAtoms>
  152.5440  134.1904  159.8671 H   0  0  0  0  0  0  0  0  0  0  0  0  # atno 6907 bound_to 6896
  151.1900  133.4666  159.2602 H   0  0  0  0  0  0  0  0  0  0  0  0  # atno 6908 bound_to 6896
  151.1093  135.0029  159.8541 H   0  0  0  0  0  0  0  0  0  0  0  0  # atno 6909 bound_to 6896
  145.1107  139.3454  143.4764 H   0  0  0  0  0  0  0  0  0  0  0  0  # atno 7974 bound_to 7965
  155.6179  140.3495  155.4643 H   0  0  0  0  0  0  0  0  0  0  0  0  # atno 8008 bound_to 7997
  156.0102  140.1231  157.0485 H   0  0  0  0  0  0  0  0  0  0  0  0  # atno 8009 bound_to 7997
  154.4278  140.1083  156.5805 H   0  0  0  0  0  0  0  0  0  0  0  0  # atno 8010 bound_to 7997
  139.4821  144.5094  151.8047 H   0  0  0  0  0  0  0  0  0  0  0  0  # atno 10167 bound_to 10162
  156.9410  131.0001  151.2968 H   0  0  0  0  0  0  0  0  0  0  0  0  # atno 10718 bound_to 10713
  154.2159  135.2784  155.2942 H   0  0  0  0  0  0  0  0  0  0  0  0  # atno 10763 bound_to 10752
  154.5741  135.5609  153.7126 H   0  0  0  0  0  0  0  0  0  0  0  0  # atno 10764 bound_to 10752
  153.0053  135.6328  154.2298 H   0  0  0  0  0  0  0  0  0  0  0  0  # atno 10765 bound_to 10752
  139.9027  134.8154  156.2327 H   0  0  0  0  0  0  0  0  0  0  0  0  # atno 11005 bound_to 11000
  146.3526  140.1025  142.8607 LP  0  0  0  0  0  0  0  0  0  0  0  0  # atno 17320 bound_to 7965
  145.0850  140.9246  143.4803 LP  0  0  0  0  0  0  0  0  0  0  0  0  # atno 17321 bound_to 7965
  140.4596  144.1741  150.5905 LP  0  0  0  0  0  0  0  0  0  0  0  0  # atno 17342 bound_to 10162
  140.4499  143.2491  151.9362 LP  0  0  0  0  0  0  0  0  0  0  0  0  # atno 17343 bound_to 10162
  157.5785  130.8359  149.8489 LP  0  0  0  0  0  0  0  0  0  0  0  0  # atno 17370 bound_to 10713
  156.0404  130.3740  150.1450 LP  0  0  0  0  0  0  0  0  0  0  0  0  # atno 17371 bound_to 10713
  141.0335  133.6976  156.1471 LP  0  0  0  0  0  0  0  0  0  0  0  0  # atno 17394 bound_to 11000
  140.7061  134.4511  157.5584 LP  0  0  0  0  0  0  0  0  0  0  0  0  # atno 17395 bound_to 11000

$$$$
