AV-unprocessed.smi:1948|AV-procd|sdf|7876|dock1
  -GOLD-   2272010 23D 1   1.00000     0.00000
 Structure written by MMmdl.
 29 30  0  0  0  0  0  0  0  0  2 V2000
  152.6923  140.0709  157.1921 O   0  0  0  0  0  0  0  0  0  0  0  0
  151.7728  140.7238  156.6929 C   0  0  0  0  0  0  0  0  0  0  0  0
  150.9958  140.3457  155.6520 N   0  5  0  0  0  0  0  0  0  0  0  0
  150.8540  139.0427  155.3579 C   0  0  0  0  0  0  0  0  0  0  0  0
  151.8055  138.1363  155.6344 N   0  0  0  0  0  0  0  0  0  0  0  0
  151.4583  136.8468  155.2548 N   0  0  0  0  0  0  0  0  0  0  0  0
  150.2445  136.8124  154.7054 C   0  0  0  0  0  0  0  0  0  0  0  0
  149.4135  138.3504  154.6065 S   0  0  0  0  0  0  0  0  0  0  0  0
  151.4658  141.9332  157.1845 N   0  0  0  0  0  0  0  0  0  0  0  0
  152.1328  142.6062  158.2963 C   0  0  2  0  0  0  0  0  0  0  0  0
  152.0142  141.7733  159.5885 C   0  0  0  0  0  0  0  0  0  0  0  0
  152.6578  142.4949  160.7856 C   0  0  0  0  0  0  0  0  0  0  0  0
  152.0968  143.9159  160.9844 C   0  0  2  0  0  0  0  0  0  0  0  0
  150.7627  143.8521  161.4491 O   0  0  0  0  0  0  0  0  0  0  0  0
  152.1644  144.7393  159.6846 C   0  0  0  0  0  0  0  0  0  0  0  0
  151.5216  144.0051  158.4946 C   0  0  0  0  0  0  0  0  0  0  0  0
  149.8341  135.8754  154.3603 H   0  0  0  0  0  0  0  0  0  0  0  0
  150.7039  142.4291  156.7456 H   0  0  0  0  0  0  0  0  0  0  0  0
  153.1895  142.7321  158.0518 H   0  0  0  0  0  0  0  0  0  0  0  0
  150.9637  141.5731  159.8037 H   0  0  0  0  0  0  0  0  0  0  0  0
  152.4890  140.8008  159.4539 H   0  0  0  0  0  0  0  0  0  0  0  0
  152.5277  141.9049  161.6935 H   0  0  0  0  0  0  0  0  0  0  0  0
  153.7337  142.5594  160.6185 H   0  0  0  0  0  0  0  0  0  0  0  0
  152.6766  144.4224  161.7567 H   0  0  0  0  0  0  0  0  0  0  0  0
  150.4039  144.7263  161.4534 H   0  0  0  0  0  0  0  0  0  0  0  0
  151.6896  145.7108  159.8270 H   0  0  0  0  0  0  0  0  0  0  0  0
  153.2094  144.9443  159.4485 H   0  0  0  0  0  0  0  0  0  0  0  0
  151.6480  144.5988  157.5885 H   0  0  0  0  0  0  0  0  0  0  0  0
  150.4462  143.9194  158.6576 H   0  0  0  0  0  0  0  0  0  0  0  0
  1  2  2  0  0  0  0
  2  3  1  0  0  0  0
  2  9  1  0  0  0  0
  3  4  1  0  0  0  0
  4  8  1  0  0  0  0
  4  5  2  0  0  0  0
  5  6  1  0  0  0  0
  6  7  2  0  0  0  0
  7  8  1  0  0  0  0
  7 17  1  0  0  0  0
  9 10  1  0  0  0  0
  9 18  1  0  0  0  0
 10 16  1  0  0  0  0
 10 11  1  0  0  0  0
 10 19  1  0  0  0  0
 11 12  1  0  0  0  0
 11 20  1  0  0  0  0
 11 21  1  0  0  0  0
 12 13  1  0  0  0  0
 12 22  1  0  0  0  0
 12 23  1  0  0  0  0
 13 14  1  0  0  0  0
 13 15  1  0  0  0  0
 13 24  1  0  0  0  0
 14 25  1  0  0  0  0
 15 16  1  0  0  0  0
 15 26  1  0  0  0  0
 15 27  1  0  0  0  0
 16 28  1  0  0  0  0
 16 29  1  0  0  0  0
M  CHG  1   3  -1
M  END
> <s_m_source_file>
AV-unprocessed.smi

> <i_m_source_file_index>
1948

> <i_lp_mmshare_version>
43012

> <i_f3d_flags>
0

> <s_epik_input>
czFbY0hdbm5jMVtOSF1DKD1PKVtOSF1bQ0BASF0yW0NIMl1bQ0gyXVtDQEBIXShbT0hdKVtDSDJdW0NIMl0y

> <s_epik_cmdline>
J2VwaWtfcHl0aG9uJywgJy1waCcsICc3LjAnLCAnLXRuJywgJzgnLCAnLW1hJywgJzIwMCcsICctbWV0YWxfYmluZGluZycsICctaW1hZScsICc8aW5maWxlLm1hZT4nLCAnLW9tYWUnLCAnPG91dGZpbGUubWFlPic=

> <r_lp_tautomer_probability>
1

> <r_epik_Ionization_Penalty>
4.52057

> <r_epik_Ionization_Penalty_Charging>
4.4725

> <r_epik_Ionization_Penalty_Neutral>
0.048076

> <r_epik_State_Penalty>
4.47218

> <r_epik_Charging_Adjusted_Penalty>
8.94468

> <i_epik_Tot_Q>
-1

> <i_epik_Tot_abs_Q>
1

> <r_epik_Metal_State_Penalty>
0.805713

> <b_epik_Metal_Only>
1

> <s_lp_Force_Field>
OPLS_2005

> <r_lp_Energy>
8.18749

> <b_lp_Chiralities_Consistent>
1

> <s_lp_Variant>
AV-unprocessed.smi:1948-4

> <Gold.Version>
5.8.1

> <Gold.Id.Protein>
6NUR|6NUR_protein|mol2

> <Gold.PLP.Fitness>
38.5202

> <Gold.PLP.PLP>
-30.1762

> <Gold.PLP.part.hbond>
-4.8979

> <Gold.PLP.part.metal>
0.0000

> <Gold.PLP.part.buried>
-1.0207

> <Gold.PLP.part.nonpolar>
-23.6610

> <Gold.PLP.part.repulsive>
0.2197

> <Gold.PLP.ligand.clash>
0.0000

> <Gold.PLP.ligand.torsion>
0.2933

> <Gold.PLP.Chemscore.Hbond>
2.3627

> <Gold.PLP.Chemscore.CHOScore>
0.6074

> <Gold.PLP.Chemscore.Metal>
0.0000

> <Gold.Chemscore.Hbonds>
donor molecule, donor type, donor heavy atom, donor atom, acceptor molecule, acceptor atom, score
      P1  H  6933  6945       L1    14  0.04
      P1  H  7989  7998       L1     3  0.21
      P1  H  7997  8010       L1     1  1.00
      P1  H 10752 10765       L1     6  0.86
      L1  C     7    17       P1  7948  0.41

> <Gold.PLP.Chemscore.Internal.Correction>
0.0204

> <Gold.Rescore>
     Score         DG    S(hbond)    S(metal)    S(lipo)     H(rot)  DE(clash)    DE(int)     intcor
     14.38     -17.52       2.03        0.00      78.36       1.53       0.27       2.87       ----

> <Gold.Chemscore.Fitness>
14.3807

> <Gold.Chemscore.DG>
-17.5177

> <Gold.Chemscore.ZeroCoef>
-5.4800

> <Gold.Chemscore.Hbond>
2.0346

> <Gold.Chemscore.Metal>
0.0000

> <Gold.Chemscore.Lipo>
78.3613

> <Gold.Chemscore.Internal_Hbond>
0.0000

> <Gold.Chemscore.DEClash>
0.2673

> <Gold.Chemscore.DEInternal>
2.8696

> <Gold.Chemscore.Rot>
1.5337

> <Gold.Chemscore.Internal.Correction>
   9.000000E+99

> <Gold.Chemscore.Hbonds>
donor molecule, donor type, donor heavy atom, donor atom, acceptor molecule, acceptor atom, score
      P1  H  6933  6945       L1    14  0.05
      P1  H  7989  7998       L1     3  0.02
      P1  H  7997  8010       L1     1  0.98
      P1  H 10752 10765       L1     6  0.75

> <Gold.Chemscore.Hbond.Weighted>
-6.7956

> <Gold.Chemscore.Metal.Weighted>
-0.0000

> <Gold.Chemscore.Lipo.Weighted>
-9.1683

> <Gold.Chemscore.Internal_Hbond.Weighted>
0.0000

> <Gold.Chemscore.DEClash.Weighted>
0.2673

> <Gold.Chemscore.DEInternal.Weighted>
2.8696

> <Gold.Chemscore.Rot.Weighted>
3.9262

> <Gold.Chemscore.Internal.Correction.Weighted>
   9.000000E+99

> <Gold.Protein.RotatedTorsions>
[ 6907 6896 6895 6894 ] final   37.54 input  -60.11 | X-H torsion
[ 7974 7965 7964 7962 ] final -141.82 input  175.53 | X-H torsion
[ 8008 7997 7996 7995 ] final   54.31 input   59.86 | X-H torsion
[ 10167 10162 10161 10158 ] final -114.77 input  -65.29 | X-H torsion
[ 10718 10713 10712 10709 ] final   17.39 input   66.30 | X-H torsion
[ 10763 10752 10751 10750 ] final  167.80 input  -60.55 | X-H torsion
[ 11005 11000 10999 10996 ] final -109.05 input  -57.11 | X-H torsion

> <Gold.Protein.ActiveResidues>
 VAL166  LYS551  ARG553  GLY616  TRP617  ASP618  TYR619  PRO620  LYS621  CYS622 
 ASP623  PHE694  ASN695  SER759  ASP760  ASP761  ALA762  ILE779  LEU786  VAL792 
 PHE793  MET794  SER795  GLU796  ALA797  LYS798  CYS799  TRP800  GLU811  SER814 

> <Gold.Protein.RotatedAtoms>
  152.1446  134.9036  160.0551 H   0  0  0  0  0  0  0  0  0  0  0  0  # atno 6907 bound_to 6896
  152.0091  133.3849  159.4220 H   0  0  0  0  0  0  0  0  0  0  0  0  # atno 6908 bound_to 6896
  150.6869  134.3672  159.5020 H   0  0  0  0  0  0  0  0  0  0  0  0  # atno 6909 bound_to 6896
  144.8490  140.6034  143.5402 H   0  0  0  0  0  0  0  0  0  0  0  0  # atno 7974 bound_to 7965
  155.4826  140.3469  155.4342 H   0  0  0  0  0  0  0  0  0  0  0  0  # atno 8008 bound_to 7997
  156.1029  140.1440  156.9471 H   0  0  0  0  0  0  0  0  0  0  0  0  # atno 8009 bound_to 7997
  154.4705  140.0902  156.7111 H   0  0  0  0  0  0  0  0  0  0  0  0  # atno 8010 bound_to 7997
  140.0973  143.4645  152.1833 H   0  0  0  0  0  0  0  0  0  0  0  0  # atno 10167 bound_to 10162
  157.0814  130.6389  149.5827 H   0  0  0  0  0  0  0  0  0  0  0  0  # atno 10718 bound_to 10713
  154.3591  135.2753  155.2330 H   0  0  0  0  0  0  0  0  0  0  0  0  # atno 10763 bound_to 10752
  154.4526  135.5927  153.6205 H   0  0  0  0  0  0  0  0  0  0  0  0  # atno 10764 bound_to 10752
  152.9844  135.6045  154.3810 H   0  0  0  0  0  0  0  0  0  0  0  0  # atno 10765 bound_to 10752
  141.0869  133.9124  157.2166 H   0  0  0  0  0  0  0  0  0  0  0  0  # atno 11005 bound_to 11000
  145.4537  139.1520  143.3904 LP  0  0  0  0  0  0  0  0  0  0  0  0  # atno 17320 bound_to 7965
  146.2769  140.4665  142.8792 LP  0  0  0  0  0  0  0  0  0  0  0  0  # atno 17321 bound_to 7965
  139.5691  144.7452  151.3941 LP  0  0  0  0  0  0  0  0  0  0  0  0  # atno 17342 bound_to 10162
  140.6996  143.7663  150.7382 LP  0  0  0  0  0  0  0  0  0  0  0  0  # atno 17343 bound_to 10162
  155.9922  130.4980  150.7332 LP  0  0  0  0  0  0  0  0  0  0  0  0  # atno 17370 bound_to 10713
  157.4797  131.0901  151.0550 LP  0  0  0  0  0  0  0  0  0  0  0  0  # atno 17371 bound_to 10713
  139.9688  135.0134  156.9458 LP  0  0  0  0  0  0  0  0  0  0  0  0  # atno 17394 bound_to 11000
  140.5343  134.0782  155.7324 LP  0  0  0  0  0  0  0  0  0  0  0  0  # atno 17395 bound_to 11000

$$$$
