AV-unprocessed.smi:2439|AV-procd|sdf|9604|dock8
  -GOLD-   2272013233D 1   1.00000     0.00000
 Structure written by MMmdl.
 41 43  0  0  0  0  0  0  0  0  2 V2000
  148.0088  137.1721  160.6502 N   0  0  0  0  0  0  0  0  0  0  0  0
  148.2738  137.0316  159.5328 C   0  0  0  0  0  0  0  0  0  0  0  0
  148.6070  136.8562  158.1244 C   0  0  0  0  0  0  0  0  0  0  0  0
  148.1518  135.7024  157.4524 C   0  0  0  0  0  0  0  0  0  0  0  0
  148.4684  135.5314  156.0924 C   0  0  0  0  0  0  0  0  0  0  0  0
  149.2324  136.5261  155.4557 C   0  0  0  0  0  0  0  0  0  0  0  0
  149.6742  137.6347  156.0861 N   0  0  0  0  0  0  0  0  0  0  0  0
  149.3722  137.8067  157.3965 C   0  0  0  0  0  0  0  0  0  0  0  0
  149.8455  138.9727  158.0242 N   0  0  0  0  0  0  0  0  0  0  0  0
  151.1475  139.0009  158.6754 C   0  0  0  0  0  0  0  0  0  0  0  0
  152.1714  139.8137  157.8591 C   0  0  1  0  0  0  0  0  0  0  0  0
  151.6474  141.2029  157.4490 C   0  0  0  0  0  0  0  0  0  0  0  0
  151.5641  142.1137  158.6150 N   0  3  2  0  0  0  0  0  0  0  0  0
  151.0211  143.4462  158.2470 C   0  0  0  0  0  0  0  0  0  0  0  0
  150.8619  144.3431  159.4846 C   0  0  0  0  0  0  0  0  0  0  0  0
  152.1944  144.4815  160.2310 C   0  0  0  0  0  0  0  0  0  0  0  0
  152.7457  143.0928  160.5795 C   0  0  0  0  0  0  0  0  0  0  0  0
  152.8689  142.2043  159.3249 C   0  0  1  0  0  0  0  0  0  0  0  0
  153.3685  140.7943  159.6939 C   0  0  0  0  0  0  0  0  0  0  0  0
  153.4185  139.9640  158.5384 O   0  0  0  0  0  0  0  0  0  0  0  0
  147.5657  134.9545  157.9675 H   0  0  0  0  0  0  0  0  0  0  0  0
  148.1333  134.6590  155.5509 H   0  0  0  0  0  0  0  0  0  0  0  0
  149.4951  136.4305  154.4125 H   0  0  0  0  0  0  0  0  0  0  0  0
  149.3345  139.8380  157.9198 H   0  0  0  0  0  0  0  0  0  0  0  0
  151.0262  139.4565  159.6588 H   0  0  0  0  0  0  0  0  0  0  0  0
  151.5015  137.9845  158.8465 H   0  0  0  0  0  0  0  0  0  0  0  0
  152.3785  139.2566  156.9444 H   0  0  0  0  0  0  0  0  0  0  0  0
  152.3151  141.6386  156.7038 H   0  0  0  0  0  0  0  0  0  0  0  0
  150.6679  141.1101  156.9783 H   0  0  0  0  0  0  0  0  0  0  0  0
  151.6830  143.9236  157.5227 H   0  0  0  0  0  0  0  0  0  0  0  0
  150.0532  143.3238  157.7592 H   0  0  0  0  0  0  0  0  0  0  0  0
  150.4973  145.3270  159.1879 H   0  0  0  0  0  0  0  0  0  0  0  0
  150.1084  143.9210  160.1509 H   0  0  0  0  0  0  0  0  0  0  0  0
  152.9122  145.0194  159.6103 H   0  0  0  0  0  0  0  0  0  0  0  0
  152.0592  145.0721  161.1377 H   0  0  0  0  0  0  0  0  0  0  0  0
  153.7179  143.1947  161.0632 H   0  0  0  0  0  0  0  0  0  0  0  0
  152.0878  142.6159  161.3078 H   0  0  0  0  0  0  0  0  0  0  0  0
  153.5919  142.6581  158.6446 H   0  0  0  0  0  0  0  0  0  0  0  0
  154.3729  140.8544  160.1137 H   0  0  0  0  0  0  0  0  0  0  0  0
  152.7435  140.3417  160.4641 H   0  0  0  0  0  0  0  0  0  0  0  0
  150.9081  141.7005  159.2626 H   0  0  0  0  0  0  0  0  0  0  0  0
  1  2  3  0  0  0  0
  2  3  1  0  0  0  0
  3  8  1  0  0  0  0
  3  4  2  0  0  0  0
  4  5  1  0  0  0  0
  4 21  1  0  0  0  0
  5  6  2  0  0  0  0
  5 22  1  0  0  0  0
  6  7  1  0  0  0  0
  6 23  1  0  0  0  0
  7  8  2  0  0  0  0
  8  9  1  0  0  0  0
  9 10  1  0  0  0  0
  9 24  1  0  0  0  0
 10 11  1  0  0  0  0
 10 25  1  0  0  0  0
 10 26  1  0  0  0  0
 11 20  1  0  0  0  0
 11 12  1  0  0  0  0
 11 27  1  0  0  0  0
 12 13  1  0  0  0  0
 12 28  1  0  0  0  0
 12 29  1  0  0  0  0
 13 18  1  0  0  0  0
 13 14  1  0  0  0  0
 13 41  1  0  0  0  0
 14 15  1  0  0  0  0
 14 30  1  0  0  0  0
 14 31  1  0  0  0  0
 15 16  1  0  0  0  0
 15 32  1  0  0  0  0
 15 33  1  0  0  0  0
 16 17  1  0  0  0  0
 16 34  1  0  0  0  0
 16 35  1  0  0  0  0
 17 18  1  0  0  0  0
 17 36  1  0  0  0  0
 17 37  1  0  0  0  0
 18 19  1  0  0  0  0
 18 38  1  0  0  0  0
 19 20  1  0  0  0  0
 19 39  1  0  0  0  0
 19 40  1  0  0  0  0
M  CHG  1  13   1
M  END
> <s_m_source_file>
AV-unprocessed.smi

> <i_m_source_file_index>
2439

> <i_lp_mmshare_version>
43012

> <i_f3d_flags>
0

> <s_epik_input>
TiNDYzFbY0hdW2NIXVtjSF1uYzFbTkhdW0NIMl1bQ0BIXShbQ0gyXTIpT1tDSDJdW0NAQEhdKE4yMylbQ0gyXVtDSDJdW0NIMl1bQ0gyXTM=

> <s_epik_cmdline>
J2VwaWtfcHl0aG9uJywgJy1waCcsICc3LjAnLCAnLXRuJywgJzgnLCAnLW1hJywgJzIwMCcsICctbWV0YWxfYmluZGluZycsICctaW1hZScsICc8aW5maWxlLm1hZT4nLCAnLW9tYWUnLCAnPG91dGZpbGUubWFlPic=

> <r_epik_Ionization_Penalty>
0.0803594

> <r_epik_Ionization_Penalty_Charging>
0.0803403

> <r_epik_Ionization_Penalty_Neutral>
1.90988e-05

> <r_epik_State_Penalty>
0.0711481

> <r_epik_Charging_Adjusted_Penalty>
0.151488

> <i_epik_Tot_Q>
1

> <i_epik_Tot_abs_Q>
1

> <r_epik_Metal_State_Penalty>
0.0711482

> <b_epik_Metal_Only>
0

> <s_lp_Force_Field>
OPLS_2005

> <r_lp_Energy>
31.556

> <b_lp_Chiralities_Consistent>
1

> <s_lp_Variant>
AV-unprocessed.smi:2439-2

> <Gold.Version>
5.8.1

> <Gold.Id.Protein>
6NUR|6NUR_protein|mol2

> <Gold.PLP.Fitness>
39.5431

> <Gold.PLP.PLP>
-30.4997

> <Gold.PLP.part.hbond>
-3.0000

> <Gold.PLP.part.metal>
0.0000

> <Gold.PLP.part.buried>
-4.7382

> <Gold.PLP.part.nonpolar>
-22.6084

> <Gold.PLP.part.repulsive>
0.2310

> <Gold.PLP.ligand.clash>
0.0000

> <Gold.PLP.ligand.torsion>
0.8549

> <Gold.PLP.Chemscore.Hbond>
2.5840

> <Gold.PLP.Chemscore.CHOScore>
0.9981

> <Gold.PLP.Chemscore.Metal>
0.0000

> <Gold.Chemscore.Hbonds>
donor molecule, donor type, donor heavy atom, donor atom, acceptor molecule, acceptor atom, score
      P1  H  6931  6943       L1     1  0.82
      P1  H  6934  6947       L1     1  0.75
      P1  H  7997  8010       L1    20  1.00
      L1  C     6    23       P1  7948  0.85

> <Gold.PLP.Chemscore.Internal.Correction>
0.0068

> <Gold.Rescore>
     Score         DG    S(hbond)    S(metal)    S(lipo)     H(rot)  DE(clash)    DE(int)     intcor
     19.81     -20.65       2.45        0.00      87.48       1.27       0.04       0.81       ----

> <Gold.Chemscore.Fitness>
19.8101

> <Gold.Chemscore.DG>
-20.6530

> <Gold.Chemscore.ZeroCoef>
-5.4800

> <Gold.Chemscore.Hbond>
2.4485

> <Gold.Chemscore.Metal>
0.0000

> <Gold.Chemscore.Lipo>
87.4844

> <Gold.Chemscore.Internal_Hbond>
0.0000

> <Gold.Chemscore.DEClash>
0.0351

> <Gold.Chemscore.DEInternal>
0.8078

> <Gold.Chemscore.Rot>
1.2659

> <Gold.Chemscore.Internal.Correction>
   9.000000E+99

> <Gold.Chemscore.Hbonds>
donor molecule, donor type, donor heavy atom, donor atom, acceptor molecule, acceptor atom, score
      P1  H  6931  6943       L1     1  0.80
      P1  H  6934  6947       L1     1  0.49
      P1  H  7997  8010       L1    20  0.25

> <Gold.Chemscore.Hbond.Weighted>
-8.1781

> <Gold.Chemscore.Metal.Weighted>
-0.0000

> <Gold.Chemscore.Lipo.Weighted>
-10.2357

> <Gold.Chemscore.Internal_Hbond.Weighted>
0.0000

> <Gold.Chemscore.DEClash.Weighted>
0.0351

> <Gold.Chemscore.DEInternal.Weighted>
0.8078

> <Gold.Chemscore.Rot.Weighted>
3.2408

> <Gold.Chemscore.Internal.Correction.Weighted>
   9.000000E+99

> <Gold.Protein.RotatedTorsions>
[ 6907 6896 6895 6894 ] final -154.07 input  -60.11 | X-H torsion
[ 7974 7965 7964 7962 ] final   54.46 input  175.53 | X-H torsion
[ 8008 7997 7996 7995 ] final   35.12 input   59.86 | X-H torsion
[ 10167 10162 10161 10158 ] final  -81.75 input  -65.29 | X-H torsion
[ 10718 10713 10712 10709 ] final   79.69 input   66.30 | X-H torsion
[ 10763 10752 10751 10750 ] final  -84.60 input  -60.55 | X-H torsion
[ 11005 11000 10999 10996 ] final -127.60 input  -57.11 | X-H torsion

> <Gold.Protein.ActiveResidues>
 VAL166  LYS551  ARG553  GLY616  TRP617  ASP618  TYR619  PRO620  LYS621  CYS622 
 ASP623  PHE694  ASN695  SER759  ASP760  ASP761  ALA762  ILE779  LEU786  VAL792 
 PHE793  MET794  SER795  GLU796  ALA797  LYS798  CYS799  TRP800  GLU811  SER814 

> <Gold.Protein.RotatedAtoms>
  151.2520  133.4345  159.2611 H   0  0  0  0  0  0  0  0  0  0  0  0  # atno 6907 bound_to 6896
  151.0608  134.9736  159.8270 H   0  0  0  0  0  0  0  0  0  0  0  0  # atno 6908 bound_to 6896
  152.5398  134.2470  159.8937 H   0  0  0  0  0  0  0  0  0  0  0  0  # atno 6909 bound_to 6896
  145.9606  139.4055  143.0250 H   0  0  0  0  0  0  0  0  0  0  0  0  # atno 7974 bound_to 7965
  155.1659  140.3287  155.4402 H   0  0  0  0  0  0  0  0  0  0  0  0  # atno 8008 bound_to 7997
  156.2527  140.1952  156.6715 H   0  0  0  0  0  0  0  0  0  0  0  0  # atno 8009 bound_to 7997
  154.6371  140.0575  156.9788 H   0  0  0  0  0  0  0  0  0  0  0  0  # atno 8010 bound_to 7997
  140.4384  143.2523  151.8661 H   0  0  0  0  0  0  0  0  0  0  0  0  # atno 10167 bound_to 10162
  157.6784  130.9925  150.1969 H   0  0  0  0  0  0  0  0  0  0  0  0  # atno 10718 bound_to 10713
  154.6014  135.5515  153.7378 H   0  0  0  0  0  0  0  0  0  0  0  0  # atno 10763 bound_to 10752
  153.0156  135.6367  154.1709 H   0  0  0  0  0  0  0  0  0  0  0  0  # atno 10764 bound_to 10752
  154.1649  135.2895  155.3078 H   0  0  0  0  0  0  0  0  0  0  0  0  # atno 10765 bound_to 10752
  140.9586  134.0968  157.3991 H   0  0  0  0  0  0  0  0  0  0  0  0  # atno 11005 bound_to 11000
  145.8045  140.9755  143.0981 LP  0  0  0  0  0  0  0  0  0  0  0  0  # atno 17320 bound_to 7965
  144.6814  139.9843  143.7484 LP  0  0  0  0  0  0  0  0  0  0  0  0  # atno 17321 bound_to 7965
  139.4788  144.5257  151.8738 LP  0  0  0  0  0  0  0  0  0  0  0  0  # atno 17342 bound_to 10162
  140.4347  144.2068  150.5889 LP  0  0  0  0  0  0  0  0  0  0  0  0  # atno 17343 bound_to 10162
  156.2668  130.3717  149.8073 LP  0  0  0  0  0  0  0  0  0  0  0  0  # atno 17370 bound_to 10713
  156.5801  130.8462  151.3380 LP  0  0  0  0  0  0  0  0  0  0  0  0  # atno 17371 bound_to 10713
  139.8870  135.0086  156.6535 LP  0  0  0  0  0  0  0  0  0  0  0  0  # atno 17394 bound_to 11000
  140.7501  133.8905  155.8340 LP  0  0  0  0  0  0  0  0  0  0  0  0  # atno 17395 bound_to 11000

$$$$
