AV-unprocessed.smi:2445|AV-procd|sdf|9635|dock5
  -GOLD-   2272013273D 1   1.00000     0.00000
 Structure written by MMmdl.
 40 41  0  0  0  0  0  0  0  0  1 V2000
  153.5022  143.0642  162.9802 C   0  0  0  0  0  0  0  0  0  0  0  0
  153.1439  142.2987  161.7520 C   0  0  0  0  0  0  0  0  0  0  0  0
  153.6509  141.0929  161.3351 C   0  0  0  0  0  0  0  0  0  0  0  0
  153.1045  140.6359  160.1338 N   0  0  0  0  0  0  0  0  0  0  0  0
  152.1911  141.4745  159.6364 C   0  0  0  0  0  0  0  0  0  0  0  0
  151.4577  141.2417  158.3501 C   0  0  2  0  0  0  0  0  0  0  0  0
  151.7262  139.8436  157.7756 C   0  0  0  0  0  0  0  0  0  0  0  0
  151.6702  142.3686  157.3144 C   0  0  0  0  0  0  0  0  0  0  0  0
  150.5352  142.5353  156.4107 N   0  0  0  0  0  0  0  0  0  0  0  0
  150.1244  141.6291  155.5139 C   0  0  0  0  0  0  0  0  0  0  0  0
  150.6819  140.5488  155.3213 O   0  0  0  0  0  0  0  0  0  0  0  0
  149.0270  142.0413  154.8652 N   0  0  0  0  0  0  0  0  0  0  0  0
  148.3062  141.2872  153.8391 C   0  0  1  0  0  0  0  0  0  0  0  0
  148.2936  139.7969  154.1792 C   0  0  0  0  0  0  0  0  0  0  0  0
  146.8151  139.4171  154.1570 C   0  0  0  0  0  0  0  0  0  0  0  0
  146.1545  140.6280  154.4813 O   0  0  0  0  0  0  0  0  0  0  0  0
  146.8106  141.6606  153.7616 C   0  0  1  0  0  0  0  0  0  0  0  0
  146.4005  143.0398  154.3031 C   0  0  0  0  0  0  0  0  0  0  0  0
  151.9508  142.9048  160.6340 S   0  0  0  0  0  0  0  0  0  0  0  0
  154.2891  142.5603  163.5418 H   0  0  0  0  0  0  0  0  0  0  0  0
  152.6368  143.1706  163.6344 H   0  0  0  0  0  0  0  0  0  0  0  0
  153.8576  144.0623  162.7240 H   0  0  0  0  0  0  0  0  0  0  0  0
  154.4006  140.4929  161.8293 H   0  0  0  0  0  0  0  0  0  0  0  0
  150.3975  141.2556  158.6067 H   0  0  0  0  0  0  0  0  0  0  0  0
  151.4684  139.0670  158.4965 H   0  0  0  0  0  0  0  0  0  0  0  0
  152.7770  139.7189  157.5119 H   0  0  0  0  0  0  0  0  0  0  0  0
  151.1351  139.6686  156.8764 H   0  0  0  0  0  0  0  0  0  0  0  0
  151.8067  143.3177  157.8338 H   0  0  0  0  0  0  0  0  0  0  0  0
  152.5833  142.1975  156.7421 H   0  0  0  0  0  0  0  0  0  0  0  0
  150.0104  143.3936  156.4952 H   0  0  0  0  0  0  0  0  0  0  0  0
  148.6518  142.9483  155.1013 H   0  0  0  0  0  0  0  0  0  0  0  0
  148.7576  141.4399  152.8573 H   0  0  0  0  0  0  0  0  0  0  0  0
  148.8771  139.2029  153.4753 H   0  0  0  0  0  0  0  0  0  0  0  0
  148.7005  139.6167  155.1756 H   0  0  0  0  0  0  0  0  0  0  0  0
  146.5121  139.0932  153.1601 H   0  0  0  0  0  0  0  0  0  0  0  0
  146.5727  138.6234  154.8639 H   0  0  0  0  0  0  0  0  0  0  0  0
  146.4895  141.5871  152.7207 H   0  0  0  0  0  0  0  0  0  0  0  0
  146.9292  143.8379  153.7814 H   0  0  0  0  0  0  0  0  0  0  0  0
  146.6095  143.1340  155.3691 H   0  0  0  0  0  0  0  0  0  0  0  0
  145.3320  143.2049  154.1646 H   0  0  0  0  0  0  0  0  0  0  0  0
  1  2  1  0  0  0  0
  1 20  1  0  0  0  0
  1 21  1  0  0  0  0
  1 22  1  0  0  0  0
  2 19  1  0  0  0  0
  2  3  2  0  0  0  0
  3  4  1  0  0  0  0
  3 23  1  0  0  0  0
  4  5  2  0  0  0  0
  5  6  1  0  0  0  0
  5 19  1  0  0  0  0
  6  7  1  0  0  0  0
  6  8  1  0  0  0  0
  6 24  1  0  0  0  0
  7 25  1  0  0  0  0
  7 26  1  0  0  0  0
  7 27  1  0  0  0  0
  8  9  1  0  0  0  0
  8 28  1  0  0  0  0
  8 29  1  0  0  0  0
  9 10  1  0  0  0  0
  9 30  1  0  0  0  0
 10 11  2  0  0  0  0
 10 12  1  0  0  0  0
 12 13  1  0  0  0  0
 12 31  1  0  0  0  0
 13 17  1  0  0  0  0
 13 14  1  0  0  0  0
 13 32  1  0  0  0  0
 14 15  1  0  0  0  0
 14 33  1  0  0  0  0
 14 34  1  0  0  0  0
 15 16  1  0  0  0  0
 15 35  1  0  0  0  0
 15 36  1  0  0  0  0
 16 17  1  0  0  0  0
 17 18  1  0  0  0  0
 17 37  1  0  0  0  0
 18 38  1  0  0  0  0
 18 39  1  0  0  0  0
 18 40  1  0  0  0  0
M  END
> <s_m_source_file>
AV-unprocessed.smi

> <i_m_source_file_index>
2445

> <i_lp_mmshare_version>
43012

> <i_f3d_flags>
0

> <s_epik_input>
W0NIM11jMVtjSF1uYyhzMSlbQ0BIXShbQ0gzXSlbQ0gyXVtOSF1DKD1PKVtOSF1bQ0BASF0yW0NIMl1bQ0gyXU9bQ0BIXTJbQ0gzXQ==

> <s_epik_cmdline>
J2VwaWtfcHl0aG9uJywgJy1waCcsICc3LjAnLCAnLXRuJywgJzgnLCAnLW1hJywgJzIwMCcsICctbWV0YWxfYmluZGluZycsICctaW1hZScsICc8aW5maWxlLm1hZT4nLCAnLW9tYWUnLCAnPG91dGZpbGUubWFlPic=

> <r_epik_Ionization_Penalty>
0.000649483

> <r_epik_Ionization_Penalty_Charging>
0

> <r_epik_Ionization_Penalty_Neutral>
0.000649483

> <r_epik_State_Penalty>
0.000379895

> <r_epik_Charging_Adjusted_Penalty>
0.000379895

> <i_epik_Tot_Q>
0

> <i_epik_Tot_abs_Q>
0

> <r_epik_Metal_State_Penalty>
-0

> <b_epik_Metal_Only>
0

> <s_lp_Force_Field>
OPLS_2005

> <r_lp_Energy>
6.16207

> <b_lp_Chiralities_Consistent>
1

> <s_lp_Variant>
AV-unprocessed.smi:2445-3

> <Gold.Version>
5.8.1

> <Gold.Id.Protein>
6NUR|6NUR_protein|mol2

> <Gold.PLP.Fitness>
46.2718

> <Gold.PLP.PLP>
-39.0413

> <Gold.PLP.part.hbond>
-3.0000

> <Gold.PLP.part.metal>
0.0000

> <Gold.PLP.part.buried>
-5.7680

> <Gold.PLP.part.nonpolar>
-30.2000

> <Gold.PLP.part.repulsive>
0.4664

> <Gold.PLP.ligand.clash>
0.0000

> <Gold.PLP.ligand.torsion>
0.6976

> <Gold.PLP.Chemscore.Hbond>
2.8320

> <Gold.PLP.Chemscore.CHOScore>
0.0000

> <Gold.PLP.Chemscore.Metal>
0.0000

> <Gold.Chemscore.Hbonds>
donor molecule, donor type, donor heavy atom, donor atom, acceptor molecule, acceptor atom, score
      L1  H     9    30       P1  8028  0.98
      L1  H    12    31       P1  8028  1.00
      P1  H  7989  7998       L1    11  0.86

> <Gold.PLP.Chemscore.Internal.Correction>
0.1296

> <Gold.Rescore>
     Score         DG    S(hbond)    S(metal)    S(lipo)     H(rot)  DE(clash)    DE(int)     intcor
     17.00     -21.00       2.27        0.00     101.51       1.53       0.63       3.37       ----

> <Gold.Chemscore.Fitness>
16.9996

> <Gold.Chemscore.DG>
-21.0016

> <Gold.Chemscore.ZeroCoef>
-5.4800

> <Gold.Chemscore.Hbond>
2.2661

> <Gold.Chemscore.Metal>
0.0000

> <Gold.Chemscore.Lipo>
101.5051

> <Gold.Chemscore.Internal_Hbond>
0.0000

> <Gold.Chemscore.DEClash>
0.6305

> <Gold.Chemscore.DEInternal>
3.3715

> <Gold.Chemscore.Rot>
1.5325

> <Gold.Chemscore.Internal.Correction>
   9.000000E+99

> <Gold.Chemscore.Hbonds>
donor molecule, donor type, donor heavy atom, donor atom, acceptor molecule, acceptor atom, score
      L1  H     9    30       P1  8028  0.93
      L1  H    12    31       P1  8028  0.96
      P1  H  7989  7998       L1    11  0.24

> <Gold.Chemscore.Hbond.Weighted>
-7.5688

> <Gold.Chemscore.Metal.Weighted>
-0.0000

> <Gold.Chemscore.Lipo.Weighted>
-11.8761

> <Gold.Chemscore.Internal_Hbond.Weighted>
0.0000

> <Gold.Chemscore.DEClash.Weighted>
0.6305

> <Gold.Chemscore.DEInternal.Weighted>
3.3715

> <Gold.Chemscore.Rot.Weighted>
3.9233

> <Gold.Chemscore.Internal.Correction.Weighted>
   9.000000E+99

> <Gold.Protein.RotatedTorsions>
[ 6907 6896 6895 6894 ] final   42.44 input  -60.11 | X-H torsion
[ 7974 7965 7964 7962 ] final -126.08 input  175.53 | X-H torsion
[ 8008 7997 7996 7995 ] final  141.58 input   59.86 | X-H torsion
[ 10167 10162 10161 10158 ] final  -34.94 input  -65.29 | X-H torsion
[ 10718 10713 10712 10709 ] final  179.12 input   66.30 | X-H torsion
[ 10763 10752 10751 10750 ] final   85.20 input  -60.55 | X-H torsion
[ 11005 11000 10999 10996 ] final   44.93 input  -57.11 | X-H torsion

> <Gold.Protein.ActiveResidues>
 VAL166  LYS551  ARG553  GLY616  TRP617  ASP618  TYR619  PRO620  LYS621  CYS622 
 ASP623  PHE694  ASN695  SER759  ASP760  ASP761  ALA762  ILE779  LEU786  VAL792 
 PHE793  MET794  SER795  GLU796  ALA797  LYS798  CYS799  TRP800  GLU811  SER814 

> <Gold.Protein.RotatedAtoms>
  152.2079  134.8528  160.0500 H   0  0  0  0  0  0  0  0  0  0  0  0  # atno 6907 bound_to 6896
  151.9357  133.3618  159.3955 H   0  0  0  0  0  0  0  0  0  0  0  0  # atno 6908 bound_to 6896
  150.6969  134.4416  159.5338 H   0  0  0  0  0  0  0  0  0  0  0  0  # atno 6909 bound_to 6896
  144.9909  140.7731  143.4554 H   0  0  0  0  0  0  0  0  0  0  0  0  # atno 7974 bound_to 7965
  156.2963  140.2311  156.4588 H   0  0  0  0  0  0  0  0  0  0  0  0  # atno 8008 bound_to 7997
  154.8036  140.0447  157.1312 H   0  0  0  0  0  0  0  0  0  0  0  0  # atno 8009 bound_to 7997
  154.9504  140.3041  155.5081 H   0  0  0  0  0  0  0  0  0  0  0  0  # atno 8010 bound_to 7997
  140.7175  143.3512  151.2152 H   0  0  0  0  0  0  0  0  0  0  0  0  # atno 10167 bound_to 10162
  156.8805  130.9814  151.3062 H   0  0  0  0  0  0  0  0  0  0  0  0  # atno 10718 bound_to 10713
  153.1452  135.4626  154.9556 H   0  0  0  0  0  0  0  0  0  0  0  0  # atno 10763 bound_to 10752
  154.7780  135.3179  154.8052 H   0  0  0  0  0  0  0  0  0  0  0  0  # atno 10764 bound_to 10752
  153.8567  135.6916  153.4841 H   0  0  0  0  0  0  0  0  0  0  0  0  # atno 10765 bound_to 10752
  140.1506  134.4466  155.8384 H   0  0  0  0  0  0  0  0  0  0  0  0  # atno 11005 bound_to 11000
  145.2287  139.2125  143.5054 LP  0  0  0  0  0  0  0  0  0  0  0  0  # atno 17320 bound_to 7965
  146.3431  140.2159  142.8590 LP  0  0  0  0  0  0  0  0  0  0  0  0  # atno 17321 bound_to 7965
  139.7043  143.9481  152.2920 LP  0  0  0  0  0  0  0  0  0  0  0  0  # atno 17342 bound_to 10162
  139.9184  144.6814  150.8487 LP  0  0  0  0  0  0  0  0  0  0  0  0  # atno 17343 bound_to 10162
  157.6143  130.8606  149.9002 LP  0  0  0  0  0  0  0  0  0  0  0  0  # atno 17370 bound_to 10713
  156.0679  130.3689  150.0838 LP  0  0  0  0  0  0  0  0  0  0  0  0  # atno 17371 bound_to 10713
  141.2198  133.6871  156.7415 LP  0  0  0  0  0  0  0  0  0  0  0  0  # atno 17394 bound_to 11000
  140.2609  134.8467  157.3758 LP  0  0  0  0  0  0  0  0  0  0  0  0  # atno 17395 bound_to 11000

$$$$
