#       Name:                AV-unprocessed.smi:2881
#       Creating user name   scv26
#       Creation time:       Fri Mar 27 15:53:45 2020


#       File generated by GOLD software.
#

@<TRIPOS>MOLECULE
AV-unprocessed.smi:2881
    45    47     1
SMALL
NO_CHARGES


@<TRIPOS>ATOM
      1 ****        -3.8243   5.5112  -0.6652 C.3            1 S1                 0.0000
      2 ****        -3.1640   4.3092  -0.0573 C.2            1 S1                 0.0000
      3 ****        -2.9425   3.0322  -0.6514 C.2            1 S1                 0.0000
      4 ****        -2.3060   2.3125   0.3210 C.2            1 S1                 0.0000
      5 ****        -1.8025   0.9024   0.3371 C.3            1 S1                 0.0000
      6 ****        -0.2856   0.8053   0.1361 C.2            1 S1                 0.0000
      7 ****         0.3668   1.7689  -0.2683 O.2            1 S1                 0.0000
      8 ****         0.2597  -0.3880   0.4167 N.am           1 S1                 0.0000
      9 ****         1.6772  -0.7340   0.2924 C.3            1 S1                 0.0000
     10 ****         2.1659  -1.6254   1.4621 C.3            1 S1                 0.0000
     11 ****         1.2274  -2.8313   1.6818 C.3            1 S1                 0.0000
     12 ****         1.4895  -3.6904   0.4318 C.3            1 S1                 0.0000
     13 ****         2.5828  -2.8941  -0.3122 C.3            1 S1                 0.0000
     14 ****         3.3801  -2.3185   0.8523 C.3            1 S1                 0.0000
     15 ****         2.0210  -1.6039  -0.9537 C.3            1 S1                 0.0000
     16 ****         0.9242  -1.8366  -2.0179 C.3            1 S1                 0.0000
     17 ****         0.7081  -0.6625  -2.7722 O.3            1 S1                 0.0000
     18 ****        -2.1876   3.1545   1.4043 N.pl3          1 S1                 0.0000
     19 ****        -2.7064   4.3766   1.1840 N.2            1 S1                 0.0000
     20 ****        -1.7551   2.9137   2.2847 H              1 S1                 0.0000
     21 ****        -4.2550   5.2737  -1.6381 H              1 S1                 0.0000
     22 ****        -3.1082   6.3209  -0.8081 H              1 S1                 0.0000
     23 ****        -4.6278   5.8833  -0.0292 H              1 S1                 0.0000
     24 ****        -3.2089   2.6969  -1.6429 H              1 S1                 0.0000
     25 ****        -2.2915   0.3274  -0.4500 H              1 S1                 0.0000
     26 ****        -2.0706   0.4277   1.2819 H              1 S1                 0.0000
     27 ****        -0.3545  -1.1204   0.7421 H              1 S1                 0.0000
     28 ****         2.2855   0.1725   0.2697 H              1 S1                 0.0000
     29 ****         2.3720  -1.0672   2.3757 H              1 S1                 0.0000
     30 ****         1.5170  -3.3767   2.5809 H              1 S1                 0.0000
     31 ****         0.1780  -2.5614   1.7968 H              1 S1                 0.0000
     32 ****         1.8616  -4.6737   0.7220 H              1 S1                 0.0000
     33 ****         0.5918  -3.8471  -0.1649 H              1 S1                 0.0000
     34 ****         3.1675  -3.5012  -1.0040 H              1 S1                 0.0000
     35 ****         4.1652  -1.6258   0.5437 H              1 S1                 0.0000
     36 ****         3.8155  -3.0817   1.5001 H              1 S1                 0.0000
     37 ****         2.8579  -1.1254  -1.4668 H              1 S1                 0.0000
     38 ****         1.2371  -2.6215  -2.7069 H              1 S1                 0.0000
     39 ****        -0.0185  -2.1593  -1.5767 H              1 S1                 0.0000
     40 ****         0.0563  -0.8430  -3.4322 H              1 S1                 0.0000
     41 ****        -0.0923   2.6337  -0.4716 LP             1 S1                 0.0000
     42 ****         1.3555   1.6863  -0.3932 LP             1 S1                 0.0000
     43 ****         1.5621  -0.3818  -3.2102 LP             1 S1                 0.0000
     44 ****         0.3855   0.0690  -2.1715 LP             1 S1                 0.0000
     45 ****        -2.7389   5.1546   1.8114 LP             1 S1                 0.0000
@<TRIPOS>BOND
    1    1   21 1     
    2    1   22 1     
    3    1   23 1     
    4    1    2 1     
    5    2   19 2     
    6    2    3 1     
    7    3    4 2     
    8    3   24 1     
    9    4   18 1     
   10    4    5 1     
   11    5    6 1     
   12    5   25 1     
   13    5   26 1     
   14    6    7 2     
   15    6    8 am    
   16    8    9 1     
   17    8   27 1     
   18    9   15 1     
   19    9   10 1     
   20    9   28 1     
   21   10   14 1     
   22   10   11 1     
   23   10   29 1     
   24   11   12 1     
   25   11   30 1     
   26   11   31 1     
   27   12   13 1     
   28   12   32 1     
   29   12   33 1     
   30   13   14 1     
   31   13   15 1     
   32   13   34 1     
   33   14   35 1     
   34   14   36 1     
   35   15   16 1     
   36   15   37 1     
   37   16   17 1     
   38   16   38 1     
   39   16   39 1     
   40   17   40 1     
   41   18   19 1     
   42   18   20 1     
   43    7   41 1     
   44    7   42 1     
   45   17   43 1     
   46   17   44 1     
   47   19   45 1     
@<TRIPOS>SUBSTRUCTURE
      1 S1             1
@<TRIPOS>SET
LONE_PAIRS      STATIC     ATOMS    <user>   **** ""
5 41 42 43 44 45
DONOR_HYDROGENS      STATIC     ATOMS    <user>   **** ""
3 27 40 20
ATOM$BLUE        STATIC     ATOMS    COLORGROUP SYSTEM
5 41 42 43 44 45
ATOM$RED        STATIC     ATOMS    COLORGROUP SYSTEM
3 27 40 20
