AV-unprocessed.smi:72|AV-procd|sdf|668|dock9
  -GOLD-   2262016573D 1   1.00000     0.00000
 Structure written by MMmdl.
 29 30  0  0  0  0  0  0  0  0  1 V2000
  145.0830  142.5225  154.9965 N   0  0  0  0  0  0  0  0  0  0  0  0
  146.1849  141.8956  154.7845 C   0  0  0  0  0  0  0  0  0  0  0  0
  147.3782  142.0903  155.4961 N   0  0  0  0  0  0  0  0  0  0  0  0
  148.4190  141.3859  155.1732 C   0  0  0  0  0  0  0  0  0  0  0  0
  148.3862  140.3991  154.1022 N   0  0  0  0  0  0  0  0  0  0  0  0
  149.6007  139.5719  153.7167 C   0  0  1  0  0  0  0  0  0  0  0  0
  150.7176  139.9884  154.4485 O   0  0  0  0  0  0  0  0  0  0  0  0
  151.0515  139.0131  155.4316 C   0  0  2  0  0  0  0  0  0  0  0  0
  152.5183  139.1496  155.8747 C   0  0  0  0  0  0  0  0  0  0  0  0
  153.3063  139.6072  154.7967 O   0  0  0  0  0  0  0  0  0  0  0  0
  150.6854  137.6943  154.7406 C   0  0  2  0  0  0  0  0  0  0  0  0
  151.7049  137.2852  153.8467 O   0  0  0  0  0  0  0  0  0  0  0  0
  149.4198  138.0545  153.9731 C   0  0  1  0  0  0  0  0  0  0  0  0
  148.2816  137.7337  154.7546 O   0  0  0  0  0  0  0  0  0  0  0  0
  147.1884  140.1916  153.3756 C   0  0  0  0  0  0  0  0  0  0  0  0
  147.1040  139.3641  152.4684 O   0  0  0  0  0  0  0  0  0  0  0  0
  146.1375  140.9531  153.7488 N   0  0  0  0  0  0  0  0  0  0  0  0
  149.7912  139.8083  152.6684 H   0  0  0  0  0  0  0  0  0  0  0  0
  150.3913  139.1319  156.2926 H   0  0  0  0  0  0  0  0  0  0  0  0
  150.5266  136.8889  155.4593 H   0  0  0  0  0  0  0  0  0  0  0  0
  149.3444  137.5251  153.0224 H   0  0  0  0  0  0  0  0  0  0  0  0
  145.1905  143.1822  155.7527 H   0  0  0  0  0  0  0  0  0  0  0  0
  149.3750  141.4941  155.6845 H   0  0  0  0  0  0  0  0  0  0  0  0
  152.6024  139.8850  156.6753 H   0  0  0  0  0  0  0  0  0  0  0  0
  152.9096  138.2054  156.2548 H   0  0  0  0  0  0  0  0  0  0  0  0
  152.9723  139.2288  153.9977 H   0  0  0  0  0  0  0  0  0  0  0  0
  151.3037  137.0234  153.0324 H   0  0  0  0  0  0  0  0  0  0  0  0
  148.1198  138.4478  155.3520 H   0  0  0  0  0  0  0  0  0  0  0  0
  145.2701  140.8258  153.2487 H   0  0  0  0  0  0  0  0  0  0  0  0
  1  2  2  0  0  0  0
  1 22  1  0  0  0  0
  2 17  1  0  0  0  0
  2  3  1  0  0  0  0
  3  4  2  0  0  0  0
  4  5  1  0  0  0  0
  4 23  1  0  0  0  0
  5  6  1  0  0  0  0
  5 15  1  0  0  0  0
  6 18  1  0  0  0  0
  6 13  1  0  0  0  0
  6  7  1  0  0  0  0
  7  8  1  0  0  0  0
  8 19  1  0  0  0  0
  8  9  1  0  0  0  0
  8 11  1  0  0  0  0
  9 10  1  0  0  0  0
  9 24  1  0  0  0  0
  9 25  1  0  0  0  0
 10 26  1  0  0  0  0
 11 20  1  0  0  0  0
 11 12  1  0  0  0  0
 11 13  1  0  0  0  0
 12 27  1  0  0  0  0
 13 21  1  0  0  0  0
 13 14  1  0  0  0  0
 14 28  1  0  0  0  0
 15 16  2  0  0  0  0
 15 17  1  0  0  0  0
 17 29  1  0  0  0  0
M  END
> <s_m_source_file>
AV-unprocessed.smi

> <i_m_source_file_index>
72

> <i_lp_mmshare_version>
43012

> <i_f3d_flags>
0

> <s_epik_input>
W05IMl1jMW5bY0hdbihjKD1PKW4xKVtDQEBIXTJPW0NASF0oW0NIMl1bT0hdKVtDQEBIXShbT0hdKVtDQEhdMltPSF0=

> <s_epik_cmdline>
J2VwaWtfcHl0aG9uJywgJy1waCcsICc3LjAnLCAnLXRuJywgJzgnLCAnLW1hJywgJzIwMCcsICctbWV0YWxfYmluZGluZycsICctaW1hZScsICc8aW5maWxlLm1hZT4nLCAnLW9tYWUnLCAnPG91dGZpbGUubWFlPic=

> <r_lp_tautomer_probability>
7.17554e-07

> <r_epik_Ionization_Penalty>
0.0066451

> <r_epik_Ionization_Penalty_Charging>
0.00663793

> <r_epik_Ionization_Penalty_Neutral>
7.17052e-06

> <r_epik_State_Penalty>
0.419231

> <r_epik_Charging_Adjusted_Penalty>
0.425868

> <i_epik_Tot_Q>
0

> <i_epik_Tot_abs_Q>
0

> <r_epik_Metal_State_Penalty>
1.44144

> <b_epik_Metal_Only>
0

> <s_epik_Chemistry_Notes>
This compound contains an acetal/aminal-like group ( X-CH(R)-Y where X, Y are N, S, or O) that may be acid/base labile, releasing an aldehyde.

> <s_lp_Force_Field>
OPLS_2005

> <r_lp_Energy>
43.5158

> <b_lp_Chiralities_Consistent>
1

> <s_lp_Variant>
AV-unprocessed.smi:72-6

> <Gold.Version>
5.8.1

> <Gold.Id.Protein>
6NUR|6NUR_protein|mol2

> <Gold.PLP.Fitness>
37.6412

> <Gold.PLP.PLP>
-23.2960

> <Gold.PLP.part.hbond>
-6.0000

> <Gold.PLP.part.metal>
0.0000

> <Gold.PLP.part.buried>
1.4838

> <Gold.PLP.part.nonpolar>
-20.5479

> <Gold.PLP.part.repulsive>
2.1828

> <Gold.PLP.ligand.clash>
0.0000

> <Gold.PLP.ligand.torsion>
0.3497

> <Gold.PLP.Chemscore.Hbond>
4.9913

> <Gold.PLP.Chemscore.CHOScore>
0.0000

> <Gold.PLP.Chemscore.Metal>
0.0000

> <Gold.Chemscore.Hbonds>
donor molecule, donor type, donor heavy atom, donor atom, acceptor molecule, acceptor atom, score
      L1  H    12    27       P1  7949  1.00
      L1  H    17    29       P1 10175  1.00
      P1  H  7989  7998       L1     7  1.00
      P1  H  7997  8010       L1    10  0.96
      P1  H 10752 10763       L1    12  0.82

> <Gold.PLP.Chemscore.Internal.Correction>
0.0709

> <Gold.Rescore>
     Score         DG    S(hbond)    S(metal)    S(lipo)     H(rot)  DE(clash)    DE(int)     intcor
      6.73      -9.95       3.57        0.00      25.10       4.06       2.23       0.99       ----

> <Gold.Chemscore.Fitness>
6.7343

> <Gold.Chemscore.DG>
-9.9537

> <Gold.Chemscore.ZeroCoef>
-5.4800

> <Gold.Chemscore.Hbond>
3.5722

> <Gold.Chemscore.Metal>
0.0000

> <Gold.Chemscore.Lipo>
25.0967

> <Gold.Chemscore.Internal_Hbond>
0.0000

> <Gold.Chemscore.DEClash>
2.2261

> <Gold.Chemscore.DEInternal>
0.9934

> <Gold.Chemscore.Rot>
4.0600

> <Gold.Chemscore.Internal.Correction>
   9.000000E+99

> <Gold.Chemscore.Hbonds>
donor molecule, donor type, donor heavy atom, donor atom, acceptor molecule, acceptor atom, score
      L1  H    12    27       P1  7949  0.68
      L1  H    17    29       P1 10175  0.70
      P1  H  7989  7998       L1     7  0.64
      P1  H  7997  8010       L1    10  0.46
      P1  H 10752 10763       L1    12  0.33

> <Gold.Chemscore.Hbond.Weighted>
-11.9310

> <Gold.Chemscore.Metal.Weighted>
-0.0000

> <Gold.Chemscore.Lipo.Weighted>
-2.9363

> <Gold.Chemscore.Internal_Hbond.Weighted>
0.0000

> <Gold.Chemscore.DEClash.Weighted>
2.2261

> <Gold.Chemscore.DEInternal.Weighted>
0.9934

> <Gold.Chemscore.Rot.Weighted>
10.3936

> <Gold.Chemscore.Internal.Correction.Weighted>
   9.000000E+99

> <Gold.Protein.RotatedTorsions>
[ 6907 6896 6895 6894 ] final  147.22 input  -60.11 | X-H torsion
[ 7974 7965 7964 7962 ] final  159.81 input  175.53 | X-H torsion
[ 8008 7997 7996 7995 ] final  133.76 input   59.86 | X-H torsion
[ 10167 10162 10161 10158 ] final -145.06 input  -65.29 | X-H torsion
[ 10718 10713 10712 10709 ] final -163.04 input   66.30 | X-H torsion
[ 10763 10752 10751 10750 ] final   45.76 input  -60.55 | X-H torsion
[ 11005 11000 10999 10996 ] final   -4.25 input  -57.11 | X-H torsion

> <Gold.Protein.ActiveResidues>
 VAL166  LYS551  ARG553  GLY616  TRP617  ASP618  TYR619  PRO620  LYS621  CYS622 
 ASP623  PHE694  ASN695  SER759  ASP760  ASP761  ALA762  ILE779  LEU786  VAL792 
 PHE793  MET794  SER795  GLU796  ALA797  LYS798  CYS799  TRP800  GLU811  SER814 

> <Gold.Protein.RotatedAtoms>
  152.1577  133.4561  159.4844 H   0  0  0  0  0  0  0  0  0  0  0  0  # atno 6907 bound_to 6896
  150.6903  134.2111  159.4368 H   0  0  0  0  0  0  0  0  0  0  0  0  # atno 6908 bound_to 6896
  152.0011  134.9927  160.0616 H   0  0  0  0  0  0  0  0  0  0  0  0  # atno 6909 bound_to 6896
  144.7770  139.7670  143.6275 H   0  0  0  0  0  0  0  0  0  0  0  0  # atno 7974 bound_to 7965
  156.2995  140.2513  156.3307 H   0  0  0  0  0  0  0  0  0  0  0  0  # atno 8008 bound_to 7997
  154.9148  140.0402  157.1985 H   0  0  0  0  0  0  0  0  0  0  0  0  # atno 8009 bound_to 7997
  154.8370  140.2885  155.5689 H   0  0  0  0  0  0  0  0  0  0  0  0  # atno 8010 bound_to 7997
  139.7841  143.8059  152.2642 H   0  0  0  0  0  0  0  0  0  0  0  0  # atno 10167 bound_to 10162
  156.6190  130.8882  151.2953 H   0  0  0  0  0  0  0  0  0  0  0  0  # atno 10718 bound_to 10713
  152.9820  135.6029  154.3489 H   0  0  0  0  0  0  0  0  0  0  0  0  # atno 10763 bound_to 10752
  154.3180  135.2770  155.2535 H   0  0  0  0  0  0  0  0  0  0  0  0  # atno 10764 bound_to 10752
  154.4715  135.5940  153.6381 H   0  0  0  0  0  0  0  0  0  0  0  0  # atno 10765 bound_to 10752
  140.6783  133.9176  155.8538 H   0  0  0  0  0  0  0  0  0  0  0  0  # atno 11005 bound_to 11000
  146.1955  139.5220  142.9777 LP  0  0  0  0  0  0  0  0  0  0  0  0  # atno 17320 bound_to 7965
  145.6158  141.0331  143.1942 LP  0  0  0  0  0  0  0  0  0  0  0  0  # atno 17321 bound_to 7965
  139.8131  144.7328  150.9671 LP  0  0  0  0  0  0  0  0  0  0  0  0  # atno 17342 bound_to 10162
  140.7819  143.4232  151.0809 LP  0  0  0  0  0  0  0  0  0  0  0  0  # atno 17343 bound_to 10162
  157.7233  130.9588  150.1528 LP  0  0  0  0  0  0  0  0  0  0  0  0  # atno 17370 bound_to 10713
  156.2327  130.3683  149.8426 LP  0  0  0  0  0  0  0  0  0  0  0  0  # atno 17371 bound_to 10713
  141.0338  134.0718  157.3983 LP  0  0  0  0  0  0  0  0  0  0  0  0  # atno 17394 bound_to 11000
  139.8960  135.0143  156.7029 LP  0  0  0  0  0  0  0  0  0  0  0  0  # atno 17395 bound_to 11000

$$$$
