AV-unprocessed.smi:2131|AV-procd|sdf|8690|dock3
  -GOLD-   2272011443D 1   1.00000     0.00000
 Structure written by MMmdl.
 41 43  0  0  0  0  0  0  0  0  2 V2000
  153.3490  139.8476  157.4062 N   0  0  0  0  0  0  0  0  0  0  0  0
  152.4997  140.5116  156.9860 C   0  0  0  0  0  0  0  0  0  0  0  0
  151.4205  141.3559  156.4516 C   0  0  0  0  0  0  0  0  0  0  0  0
  150.4846  140.5774  155.5506 C   0  0  0  0  0  0  0  0  0  0  0  0
  149.1990  141.0764  155.2640 C   0  0  0  0  0  0  0  0  0  0  0  0
  148.3292  140.3484  154.4297 C   0  0  0  0  0  0  0  0  0  0  0  0
  148.7258  139.1154  153.8723 C   0  0  0  0  0  0  0  0  0  0  0  0
  147.8108  138.4687  153.0697 O   0  0  0  0  0  0  0  0  0  0  0  0
  146.4275  138.6642  153.3327 C   0  0  0  0  0  0  0  0  0  0  0  0
  145.6128  137.7385  152.4179 C   0  0  1  0  0  0  0  0  0  0  0  0
  146.0843  137.8820  151.0925 O   0  0  0  0  0  0  0  0  0  0  0  0
  145.7071  136.2596  152.8437 C   0  0  0  0  0  0  0  0  0  0  0  0
  144.7912  135.3914  152.0929 N   0  0  0  0  0  0  0  0  0  0  0  0
  143.6055  135.6815  151.4919 C   0  0  0  0  0  0  0  0  0  0  0  0
  143.1385  134.5322  150.9295 N   0  3  0  0  0  0  0  0  0  0  0  0
  144.0389  133.4931  151.1752 C   0  0  0  0  0  0  0  0  0  0  0  0
  144.0046  132.1504  150.8115 C   0  0  0  0  0  0  0  0  0  0  0  0
  145.0911  131.3537  151.2293 C   0  0  0  0  0  0  0  0  0  0  0  0
  146.1568  131.8969  151.9764 C   0  0  0  0  0  0  0  0  0  0  0  0
  146.1825  133.2601  152.3379 C   0  0  0  0  0  0  0  0  0  0  0  0
  145.1038  134.0395  151.9222 C   0  0  0  0  0  0  0  0  0  0  0  0
  150.0219  138.6197  154.1642 C   0  0  0  0  0  0  0  0  0  0  0  0
  150.8929  139.3478  154.9979 C   0  0  0  0  0  0  0  0  0  0  0  0
  150.8679  141.7811  157.2899 H   0  0  0  0  0  0  0  0  0  0  0  0
  151.8695  142.1832  155.9014 H   0  0  0  0  0  0  0  0  0  0  0  0
  148.8759  142.0173  155.6847 H   0  0  0  0  0  0  0  0  0  0  0  0
  147.3447  140.7395  154.2180 H   0  0  0  0  0  0  0  0  0  0  0  0
  146.2199  138.4234  154.3768 H   0  0  0  0  0  0  0  0  0  0  0  0
  146.1442  139.7044  153.1615 H   0  0  0  0  0  0  0  0  0  0  0  0
  144.5708  138.0600  152.4295 H   0  0  0  0  0  0  0  0  0  0  0  0
  145.3700  138.1806  150.5503 H   0  0  0  0  0  0  0  0  0  0  0  0
  146.7188  135.8831  152.6852 H   0  0  0  0  0  0  0  0  0  0  0  0
  145.4961  136.1420  153.9073 H   0  0  0  0  0  0  0  0  0  0  0  0
  143.1212  136.6472  151.4696 H   0  0  0  0  0  0  0  0  0  0  0  0
  143.1899  131.7314  150.2393 H   0  0  0  0  0  0  0  0  0  0  0  0
  145.1069  130.3045  150.9718 H   0  0  0  0  0  0  0  0  0  0  0  0
  146.9715  131.2550  152.2793 H   0  0  0  0  0  0  0  0  0  0  0  0
  147.0019  133.6685  152.9109 H   0  0  0  0  0  0  0  0  0  0  0  0
  150.3732  137.6826  153.7603 H   0  0  0  0  0  0  0  0  0  0  0  0
  151.8771  138.9582  155.2136 H   0  0  0  0  0  0  0  0  0  0  0  0
  142.2677  134.4650  150.4182 H   0  0  0  0  0  0  0  0  0  0  0  0
  1  2  3  0  0  0  0
  2  3  1  0  0  0  0
  3  4  1  0  0  0  0
  3 24  1  0  0  0  0
  3 25  1  0  0  0  0
  4 23  1  0  0  0  0
  4  5  2  0  0  0  0
  5  6  1  0  0  0  0
  5 26  1  0  0  0  0
  6  7  2  0  0  0  0
  6 27  1  0  0  0  0
  7  8  1  0  0  0  0
  7 22  1  0  0  0  0
  8  9  1  0  0  0  0
  9 10  1  0  0  0  0
  9 28  1  0  0  0  0
  9 29  1  0  0  0  0
 10 11  1  0  0  0  0
 10 12  1  0  0  0  0
 10 30  1  0  0  0  0
 11 31  1  0  0  0  0
 12 13  1  0  0  0  0
 12 32  1  0  0  0  0
 12 33  1  0  0  0  0
 13 21  1  0  0  0  0
 13 14  1  0  0  0  0
 14 15  2  0  0  0  0
 14 34  1  0  0  0  0
 15 16  1  0  0  0  0
 15 41  1  0  0  0  0
 16 21  2  0  0  0  0
 16 17  1  0  0  0  0
 17 18  2  0  0  0  0
 17 35  1  0  0  0  0
 18 19  1  0  0  0  0
 18 36  1  0  0  0  0
 19 20  2  0  0  0  0
 19 37  1  0  0  0  0
 20 21  1  0  0  0  0
 20 38  1  0  0  0  0
 22 23  2  0  0  0  0
 22 39  1  0  0  0  0
 23 40  1  0  0  0  0
M  CHG  1  15   1
M  END
> <s_m_source_file>
AV-unprocessed.smi

> <i_m_source_file_index>
2131

> <i_lp_mmshare_version>
43012

> <i_f3d_flags>
0

> <s_epik_input>
TiNDW0NIMl1jMVtjSF1bY0hdYyhbY0hdW2NIXTEpT1tDSDJdW0NASF0oW09IXSlbQ0gyXW4oW2NIXW4yKWMoYzIzKVtjSF1bY0hdW2NIXVtjSF0z

> <s_epik_cmdline>
J2VwaWtfcHl0aG9uJywgJy1waCcsICc3LjAnLCAnLXRuJywgJzgnLCAnLW1hJywgJzIwMCcsICctbWV0YWxfYmluZGluZycsICctaW1hZScsICc8aW5maWxlLm1hZT4nLCAnLW9tYWUnLCAnPG91dGZpbGUubWFlPic=

> <r_lp_tautomer_probability>
1

> <r_epik_Ionization_Penalty>
1.3774

> <r_epik_Ionization_Penalty_Charging>
1.37739

> <r_epik_Ionization_Penalty_Neutral>
2.3994e-06

> <r_epik_State_Penalty>
1.45762

> <r_epik_Charging_Adjusted_Penalty>
2.83501

> <i_epik_Tot_Q>
1

> <i_epik_Tot_abs_Q>
1

> <r_epik_Metal_State_Penalty>
5.49752

> <b_epik_Metal_Only>
0

> <s_lp_Force_Field>
OPLS_2005

> <r_lp_Energy>
20.3244

> <b_lp_Chiralities_Consistent>
1

> <s_lp_Variant>
AV-unprocessed.smi:2131-4

> <Gold.Version>
5.8.1

> <Gold.Id.Protein>
6NUR|6NUR_protein|mol2

> <Gold.PLP.Fitness>
57.0638

> <Gold.PLP.PLP>
-41.4984

> <Gold.PLP.part.hbond>
-4.8798

> <Gold.PLP.part.metal>
0.0000

> <Gold.PLP.part.buried>
-3.9675

> <Gold.PLP.part.nonpolar>
-36.3627

> <Gold.PLP.part.repulsive>
3.8660

> <Gold.PLP.ligand.clash>
0.0000

> <Gold.PLP.ligand.torsion>
1.1028

> <Gold.PLP.Chemscore.Hbond>
4.8479

> <Gold.PLP.Chemscore.CHOScore>
1.0000

> <Gold.PLP.Chemscore.Metal>
0.0000

> <Gold.Chemscore.Hbonds>
donor molecule, donor type, donor heavy atom, donor atom, acceptor molecule, acceptor atom, score
      L1  H    11    31       P1 10171  1.00
      L1  H    15    41       P1 10186  1.95
      P1  H  7954  7966       L1    11  0.08
      P1  H  7997  8008       L1     1  0.42
      L1  C    14    34       P1 10171  0.63

> <Gold.PLP.Chemscore.Internal.Correction>
0.2272

> <Gold.Rescore>
     Score         DG    S(hbond)    S(metal)    S(lipo)     H(rot)  DE(clash)    DE(int)     intcor
     18.55     -21.62       3.50        0.00      99.52       2.81       2.24       0.82       ----

> <Gold.Chemscore.Fitness>
18.5533

> <Gold.Chemscore.DG>
-21.6204

> <Gold.Chemscore.ZeroCoef>
-5.4800

> <Gold.Chemscore.Hbond>
3.5031

> <Gold.Chemscore.Metal>
0.0000

> <Gold.Chemscore.Lipo>
99.5205

> <Gold.Chemscore.Internal_Hbond>
0.0000

> <Gold.Chemscore.DEClash>
2.2426

> <Gold.Chemscore.DEInternal>
0.8245

> <Gold.Chemscore.Rot>
2.8140

> <Gold.Chemscore.Internal.Correction>
   9.000000E+99

> <Gold.Chemscore.Hbonds>
donor molecule, donor type, donor heavy atom, donor atom, acceptor molecule, acceptor atom, score
      L1  H    11    31       P1 10171  1.00
      L1  H    15    41       P1 10186  0.27
      P1  H  7954  7966       L1    11  0.09
      P1  H  7997  8008       L1     1  0.41

> <Gold.Chemscore.Hbond.Weighted>
-11.7005

> <Gold.Chemscore.Metal.Weighted>
-0.0000

> <Gold.Chemscore.Lipo.Weighted>
-11.6439

> <Gold.Chemscore.Internal_Hbond.Weighted>
0.0000

> <Gold.Chemscore.DEClash.Weighted>
2.2426

> <Gold.Chemscore.DEInternal.Weighted>
0.8245

> <Gold.Chemscore.Rot.Weighted>
7.2039

> <Gold.Chemscore.Internal.Correction.Weighted>
   9.000000E+99

> <Gold.Protein.RotatedTorsions>
[ 6907 6896 6895 6894 ] final  -82.28 input  -60.11 | X-H torsion
[ 7974 7965 7964 7962 ] final  169.54 input  175.53 | X-H torsion
[ 8008 7997 7996 7995 ] final  -84.86 input   59.86 | X-H torsion
[ 10167 10162 10161 10158 ] final -172.99 input  -65.29 | X-H torsion
[ 10718 10713 10712 10709 ] final -173.26 input   66.30 | X-H torsion
[ 10763 10752 10751 10750 ] final -150.59 input  -60.55 | X-H torsion
[ 11005 11000 10999 10996 ] final  -50.62 input  -57.11 | X-H torsion

> <Gold.Protein.ActiveResidues>
 VAL166  LYS551  ARG553  GLY616  TRP617  ASP618  TYR619  PRO620  LYS621  CYS622 
 ASP623  PHE694  ASN695  SER759  ASP760  ASP761  ALA762  ILE779  LEU786  VAL792 
 PHE793  MET794  SER795  GLU796  ALA797  LYS798  CYS799  TRP800  GLU811  SER814 

> <Gold.Protein.RotatedAtoms>
  150.6899  134.3689  159.4982 H   0  0  0  0  0  0  0  0  0  0  0  0  # atno 6907 bound_to 6896
  152.1507  134.8987  160.0557 H   0  0  0  0  0  0  0  0  0  0  0  0  # atno 6908 bound_to 6896
  152.0086  133.3818  159.4247 H   0  0  0  0  0  0  0  0  0  0  0  0  # atno 6909 bound_to 6896
  144.7352  139.9069  143.6413 H   0  0  0  0  0  0  0  0  0  0  0  0  # atno 7974 bound_to 7965
  154.6343  140.0599  156.9770 H   0  0  0  0  0  0  0  0  0  0  0  0  # atno 8008 bound_to 7997
  155.1616  140.3283  155.4392 H   0  0  0  0  0  0  0  0  0  0  0  0  # atno 8009 bound_to 7997
  156.2499  140.1930  156.6722 H   0  0  0  0  0  0  0  0  0  0  0  0  # atno 8010 bound_to 7997
  139.5713  144.1634  152.1388 H   0  0  0  0  0  0  0  0  0  0  0  0  # atno 10167 bound_to 10162
  156.7677  130.9437  151.3119 H   0  0  0  0  0  0  0  0  0  0  0  0  # atno 10718 bound_to 10713
  154.8109  135.3280  154.7306 H   0  0  0  0  0  0  0  0  0  0  0  0  # atno 10763 bound_to 10752
  153.7956  135.6907  153.4868 H   0  0  0  0  0  0  0  0  0  0  0  0  # atno 10764 bound_to 10752
  153.1888  135.4559  155.0069 H   0  0  0  0  0  0  0  0  0  0  0  0  # atno 10765 bound_to 10752
  141.0826  133.6650  156.3758 H   0  0  0  0  0  0  0  0  0  0  0  0  # atno 11005 bound_to 11000
  146.1030  139.4027  143.0335 LP  0  0  0  0  0  0  0  0  0  0  0  0  # atno 17320 bound_to 7965
  145.7551  140.9957  143.1229 LP  0  0  0  0  0  0  0  0  0  0  0  0  # atno 17321 bound_to 7965
  140.1168  144.5409  150.6889 LP  0  0  0  0  0  0  0  0  0  0  0  0  # atno 17342 bound_to 10162
  140.6997  143.2427  151.4898 LP  0  0  0  0  0  0  0  0  0  0  0  0  # atno 17343 bound_to 10162
  157.6705  130.9047  150.0030 LP  0  0  0  0  0  0  0  0  0  0  0  0  # atno 17370 bound_to 10713
  156.1298  130.3643  149.9750 LP  0  0  0  0  0  0  0  0  0  0  0  0  # atno 17371 bound_to 10713
  140.5434  134.6098  157.5387 LP  0  0  0  0  0  0  0  0  0  0  0  0  # atno 17394 bound_to 11000
  139.9641  134.7402  156.0175 LP  0  0  0  0  0  0  0  0  0  0  0  0  # atno 17395 bound_to 11000

$$$$
