AV-unprocessed.smi:1540|AV-procd|sdf|6201|dock1
  -GOLD-   22720 6373D 1   1.00000     0.00000
 Structure written by MMmdl.
 32 32  0  0  0  0  0  0  0  0  2 V2000
  147.1147  141.3918  153.5011 C   0  0  0  0  0  0  0  0  0  0  0  0
  148.0155  140.6113  154.1168 C   0  0  0  0  0  0  0  0  0  0  0  0
  149.2562  141.1198  154.8169 C   0  0  0  0  0  0  0  0  0  0  0  0
  150.4029  140.4151  154.3575 O   0  0  0  0  0  0  0  0  0  0  0  0
  150.7359  139.2408  155.0945 C   0  0  1  0  0  0  0  0  0  0  0  0
  151.9493  138.5940  154.4096 C   0  0  0  0  0  0  0  0  0  0  0  0
  151.0429  139.5956  156.5587 C   0  0  0  0  0  0  0  0  0  0  0  0
  150.8030  138.7720  157.4413 O   0  0  0  0  0  0  0  0  0  0  0  0
  151.5665  140.8218  156.7553 N   0  0  0  0  0  0  0  0  0  0  0  0
  151.9771  141.4492  157.9445 C   0  0  0  0  0  0  0  0  0  0  0  0
  151.5706  142.6803  158.3622 C   0  0  0  0  0  0  0  0  0  0  0  0
  152.0324  143.2728  159.6113 C   0  0  0  0  0  0  0  0  0  0  0  0
  151.5403  144.6081  160.1411 C   0  0  0  0  0  0  0  0  0  0  0  0
  152.0270  144.8518  161.3580 F   0  0  0  0  0  0  0  0  0  0  0  0
  151.9339  145.5899  159.3314 F   0  0  0  0  0  0  0  0  0  0  0  0
  150.2090  144.6334  160.2077 F   0  0  0  0  0  0  0  0  0  0  0  0
  152.8827  142.4352  160.3064 C   0  0  0  0  0  0  0  0  0  0  0  0
  153.3389  141.2111  159.9626 N   0  5  0  0  0  0  0  0  0  0  0  0
  152.9075  140.6704  158.7883 C   0  0  0  0  0  0  0  0  0  0  0  0
  153.2755  139.5543  158.4201 O   0  0  0  0  0  0  0  0  0  0  0  0
  147.2292  142.4654  153.4703 H   0  0  0  0  0  0  0  0  0  0  0  0
  146.2479  140.9640  153.0189 H   0  0  0  0  0  0  0  0  0  0  0  0
  147.8679  139.5412  154.1276 H   0  0  0  0  0  0  0  0  0  0  0  0
  149.3446  142.1878  154.6164 H   0  0  0  0  0  0  0  0  0  0  0  0
  149.1464  140.9946  155.8954 H   0  0  0  0  0  0  0  0  0  0  0  0
  149.9028  138.5364  155.0483 H   0  0  0  0  0  0  0  0  0  0  0  0
  152.2658  137.6916  154.9341 H   0  0  0  0  0  0  0  0  0  0  0  0
  152.7997  139.2758  154.3704 H   0  0  0  0  0  0  0  0  0  0  0  0
  151.7083  138.3107  153.3847 H   0  0  0  0  0  0  0  0  0  0  0  0
  151.6600  141.3999  155.9327 H   0  0  0  0  0  0  0  0  0  0  0  0
  150.8765  143.2641  157.7821 H   0  0  0  0  0  0  0  0  0  0  0  0
  153.2486  142.8021  161.2891 H   0  0  0  0  0  0  0  0  0  0  0  0
  1  2  2  0  0  0  0
  1 21  1  0  0  0  0
  1 22  1  0  0  0  0
  2  3  1  0  0  0  0
  2 23  1  0  0  0  0
  3  4  1  0  0  0  0
  3 24  1  0  0  0  0
  3 25  1  0  0  0  0
  4  5  1  0  0  0  0
  5  6  1  0  0  0  0
  5  7  1  0  0  0  0
  5 26  1  0  0  0  0
  6 27  1  0  0  0  0
  6 28  1  0  0  0  0
  6 29  1  0  0  0  0
  7  8  2  0  0  0  0
  7  9  1  0  0  0  0
  9 10  1  0  0  0  0
  9 30  1  0  0  0  0
 10 19  1  0  0  0  0
 10 11  2  0  0  0  0
 11 12  1  0  0  0  0
 11 31  1  0  0  0  0
 12 13  1  0  0  0  0
 12 17  2  0  0  0  0
 13 14  1  0  0  0  0
 13 15  1  0  0  0  0
 13 16  1  0  0  0  0
 17 18  1  0  0  0  0
 17 32  1  0  0  0  0
 18 19  1  0  0  0  0
 19 20  2  0  0  0  0
M  CHG  1  18  -1
M  END
> <s_m_source_file>
AV-unprocessed.smi

> <i_m_source_file_index>
1540

> <i_lp_mmshare_version>
43012

> <i_f3d_flags>
0

> <s_epik_input>
W0NIMl09W0NIXVtDSDJdT1tDQEhdKFtDSDNdKUMoPU8pW05IXWMxW2NIXWMoQyhGKShGKUYpW2NIXVtuSF1jMT1P

> <s_epik_cmdline>
J2VwaWtfcHl0aG9uJywgJy1waCcsICc3LjAnLCAnLXRuJywgJzgnLCAnLW1hJywgJzIwMCcsICctbWV0YWxfYmluZGluZycsICctaW1hZScsICc8aW5maWxlLm1hZT4nLCAnLW9tYWUnLCAnPG91dGZpbGUubWFlPic=

> <r_epik_Ionization_Penalty>
2.56803

> <r_epik_Ionization_Penalty_Charging>
0.0609694

> <r_epik_Ionization_Penalty_Neutral>
2.50706

> <r_epik_State_Penalty>
2.67253

> <r_epik_Charging_Adjusted_Penalty>
2.7335

> <i_epik_Tot_Q>
-1

> <i_epik_Tot_abs_Q>
1

> <r_epik_Metal_State_Penalty>
0.517713

> <b_epik_Metal_Only>
0

> <s_lp_Force_Field>
OPLS_2005

> <r_lp_Energy>
20.9633

> <b_lp_Chiralities_Consistent>
1

> <s_lp_Variant>
AV-unprocessed.smi:1540-4

> <Gold.Version>
5.8.1

> <Gold.Id.Protein>
6NUR|6NUR_protein|mol2

> <Gold.PLP.Fitness>
45.7380

> <Gold.PLP.PLP>
-42.5051

> <Gold.PLP.part.hbond>
-1.8428

> <Gold.PLP.part.metal>
0.0000

> <Gold.PLP.part.buried>
-4.3914

> <Gold.PLP.part.nonpolar>
-35.7480

> <Gold.PLP.part.repulsive>
0.2399

> <Gold.PLP.ligand.clash>
0.0000

> <Gold.PLP.ligand.torsion>
1.5053

> <Gold.PLP.Chemscore.Hbond>
2.0000

> <Gold.PLP.Chemscore.CHOScore>
0.0000

> <Gold.PLP.Chemscore.Metal>
0.0000

> <Gold.Chemscore.Hbonds>
donor molecule, donor type, donor heavy atom, donor atom, acceptor molecule, acceptor atom, score
      P1  H  7989  7998       L1     4  1.00
      P1  H  7997  8008       L1    20  1.00

> <Gold.PLP.Chemscore.Internal.Correction>
0.2435

> <Gold.Rescore>
     Score         DG    S(hbond)    S(metal)    S(lipo)     H(rot)  DE(clash)    DE(int)     intcor
     12.38     -17.09       1.80        0.00      86.62       1.77       0.92       3.79       ----

> <Gold.Chemscore.Fitness>
12.3825

> <Gold.Chemscore.DG>
-17.0881

> <Gold.Chemscore.ZeroCoef>
-5.4800

> <Gold.Chemscore.Hbond>
1.8015

> <Gold.Chemscore.Metal>
0.0000

> <Gold.Chemscore.Lipo>
86.6242

> <Gold.Chemscore.Internal_Hbond>
0.0000

> <Gold.Chemscore.DEClash>
0.9204

> <Gold.Chemscore.DEInternal>
3.7853

> <Gold.Chemscore.Rot>
1.7750

> <Gold.Chemscore.Internal.Correction>
   9.000000E+99

> <Gold.Chemscore.Hbonds>
donor molecule, donor type, donor heavy atom, donor atom, acceptor molecule, acceptor atom, score
      P1  H  7989  7998       L1     4  0.71
      P1  H  7997  8008       L1    20  0.24

> <Gold.Chemscore.Hbond.Weighted>
-6.0170

> <Gold.Chemscore.Metal.Weighted>
-0.0000

> <Gold.Chemscore.Lipo.Weighted>
-10.1350

> <Gold.Chemscore.Internal_Hbond.Weighted>
0.0000

> <Gold.Chemscore.DEClash.Weighted>
0.9204

> <Gold.Chemscore.DEInternal.Weighted>
3.7853

> <Gold.Chemscore.Rot.Weighted>
4.5439

> <Gold.Chemscore.Internal.Correction.Weighted>
   9.000000E+99

> <Gold.Protein.RotatedTorsions>
[ 6907 6896 6895 6894 ] final -139.08 input  -60.11 | X-H torsion
[ 7974 7965 7964 7962 ] final -117.79 input  175.53 | X-H torsion
[ 8008 7997 7996 7995 ] final  -74.42 input   59.86 | X-H torsion
[ 10167 10162 10161 10158 ] final  109.30 input  -65.29 | X-H torsion
[ 10718 10713 10712 10709 ] final -101.14 input   66.30 | X-H torsion
[ 10763 10752 10751 10750 ] final -144.84 input  -60.55 | X-H torsion
[ 11005 11000 10999 10996 ] final  -80.13 input  -57.11 | X-H torsion

> <Gold.Protein.ActiveResidues>
 VAL166  LYS551  ARG553  GLY616  TRP617  ASP618  TYR619  PRO620  LYS621  CYS622 
 ASP623  PHE694  ASN695  SER759  ASP760  ASP761  ALA762  ILE779  LEU786  VAL792 
 PHE793  MET794  SER795  GLU796  ALA797  LYS798  CYS799  TRP800  GLU811  SER814 

> <Gold.Protein.RotatedAtoms>
  151.0432  133.5688  159.2648 H   0  0  0  0  0  0  0  0  0  0  0  0  # atno 6907 bound_to 6896
  151.2727  135.0689  159.9150 H   0  0  0  0  0  0  0  0  0  0  0  0  # atno 6908 bound_to 6896
  152.5368  134.0159  159.8013 H   0  0  0  0  0  0  0  0  0  0  0  0  # atno 6909 bound_to 6896
  145.0812  140.8427  143.4038 H   0  0  0  0  0  0  0  0  0  0  0  0  # atno 7974 bound_to 7965
  154.5329  140.0762  156.8377 H   0  0  0  0  0  0  0  0  0  0  0  0  # atno 8008 bound_to 7997
  155.3337  140.3403  155.4221 H   0  0  0  0  0  0  0  0  0  0  0  0  # atno 8009 bound_to 7997
  156.1799  140.1649  156.8279 H   0  0  0  0  0  0  0  0  0  0  0  0  # atno 8010 bound_to 7997
  139.6777  144.7121  151.1572 H   0  0  0  0  0  0  0  0  0  0  0  0  # atno 10167 bound_to 10162
  156.0185  130.5360  150.6920 H   0  0  0  0  0  0  0  0  0  0  0  0  # atno 10718 bound_to 10713
  154.8410  135.3429  154.6410 H   0  0  0  0  0  0  0  0  0  0  0  0  # atno 10763 bound_to 10752
  153.7021  135.6969  153.5065 H   0  0  0  0  0  0  0  0  0  0  0  0  # atno 10764 bound_to 10752
  153.2515  135.4352  155.0756 H   0  0  0  0  0  0  0  0  0  0  0  0  # atno 10765 bound_to 10752
  141.1668  133.7136  156.8227 H   0  0  0  0  0  0  0  0  0  0  0  0  # atno 11005 bound_to 11000
  145.1176  139.2715  143.5605 LP  0  0  0  0  0  0  0  0  0  0  0  0  # atno 17320 bound_to 7965
  146.3531  140.0790  142.8619 LP  0  0  0  0  0  0  0  0  0  0  0  0  # atno 17321 bound_to 7965
  140.7641  143.5746  150.8959 LP  0  0  0  0  0  0  0  0  0  0  0  0  # atno 17342 bound_to 10162
  139.9416  143.6375  152.3052 LP  0  0  0  0  0  0  0  0  0  0  0  0  # atno 17343 bound_to 10162
  157.4599  131.0882  151.0756 LP  0  0  0  0  0  0  0  0  0  0  0  0  # atno 17370 bound_to 10713
  157.1247  130.6077  149.5514 LP  0  0  0  0  0  0  0  0  0  0  0  0  # atno 17371 bound_to 10713
  140.2108  134.8829  157.3272 LP  0  0  0  0  0  0  0  0  0  0  0  0  # atno 17394 bound_to 11000
  140.2089  134.4163  155.7623 LP  0  0  0  0  0  0  0  0  0  0  0  0  # atno 17395 bound_to 11000

$$$$
