#       Name:                AV-unprocessed.smi:227
#       Creating user name   scv26
#       Creation time:       Thu Mar 26 20:24:55 2020


#       File generated by GOLD software.
#

@<TRIPOS>MOLECULE
AV-unprocessed.smi:227
    64    68     1
SMALL
NO_CHARGES


@<TRIPOS>ATOM
      1 ****        -2.2684  -0.8236  -0.8318 O.3            1 S1                 0.0000
      2 ****        -2.1023  -1.7270  -1.9060 C.3            1 S1                 0.0000
      3 ****        -1.4369  -1.0492  -3.1320 C.3            1 S1                 0.0000
      4 ****         0.1026  -0.9313  -2.9767 C.3            1 S1                 0.0000
      5 ****         0.5180  -0.2226  -1.7794 N.pl3          1 S1                 0.0000
      6 ****         0.5401   1.1401  -1.6012 C.2            1 S1                 0.0000
      7 ****         0.9505   1.5378  -0.4287 N.2            1 S1                 0.0000
      8 ****         1.2279   0.3624   0.2620 C.ar           1 S1                 0.0000
      9 ****         1.6912   0.0536   1.5765 C.ar           1 S1                 0.0000
     10 ****         1.9932   0.9710   2.5377 N.3            1 S1                 0.0000
     11 ****         1.3532   2.2781   2.5828 C.3            1 S1                 0.0000
     12 ****        -0.0752   1.9760   3.0776 C.3            1 S1                 0.0000
     13 ****         0.1846   0.8023   4.0341 C.3            1 S1                 0.0000
     14 ****         1.7216   0.6622   3.9359 C.3            1 S1                 0.0000
     15 ****         2.4504   1.8221   4.6511 C.3            1 S1                 0.0000
     16 ****         2.1046   2.0713   6.1312 C.3            1 S1                 0.0000
     17 ****         2.4094   0.9312   6.9055 O.3            1 S1                 0.0000
     18 ****         2.1257   2.9929   3.7071 C.3            1 S1                 0.0000
     19 ****         1.8604  -1.2609   1.8799 N.ar           1 S1                 0.0000
     20 ****         1.5820  -2.2097   0.9826 C.ar           1 S1                 0.0000
     21 ****         1.1341  -2.0701  -0.2649 N.ar           1 S1                 0.0000
     22 ****         0.9720  -0.7550  -0.5856 C.ar           1 S1                 0.0000
     23 ****        -1.7955  -1.7981  -4.4420 C.3            1 S1                 0.0000
     24 ****        -3.2883  -1.8331  -4.7733 C.3            1 S1                 0.0000
     25 ****        -3.3609  -1.6798  -6.2956 C.3            1 S1                 0.0000
     26 ****        -2.0160  -1.7389  -6.7430 O.3            1 S1                 0.0000
     27 ****        -1.2091  -1.1877  -5.7181 C.3            1 S1                 0.0000
     28 ****        -2.6500  -1.2895  -0.1033 H              1 S1                 0.0000
     29 ****        -1.5196  -2.5874  -1.5753 H              1 S1                 0.0000
     30 ****        -3.0959  -2.1021  -2.1476 H              1 S1                 0.0000
     31 ****        -1.8435  -0.0400  -3.2203 H              1 S1                 0.0000
     32 ****         0.5558  -1.9234  -2.9679 H              1 S1                 0.0000
     33 ****         0.5364  -0.4049  -3.8267 H              1 S1                 0.0000
     34 ****         0.2362   1.8332  -2.3720 H              1 S1                 0.0000
     35 ****         1.3823   2.8510   1.6579 H              1 S1                 0.0000
     36 ****        -0.5400   2.8306   3.5705 H              1 S1                 0.0000
     37 ****        -0.7215   1.6672   2.2549 H              1 S1                 0.0000
     38 ****        -0.1817   0.9781   5.0442 H              1 S1                 0.0000
     39 ****        -0.3070  -0.0990   3.6656 H              1 S1                 0.0000
     40 ****         2.0832  -0.3121   4.2665 H              1 S1                 0.0000
     41 ****         3.5230   1.6280   4.5883 H              1 S1                 0.0000
     42 ****         2.6894   2.9096   6.5103 H              1 S1                 0.0000
     43 ****         1.0574   2.3382   6.2685 H              1 S1                 0.0000
     44 ****         3.3305   0.7420   6.8117 H              1 S1                 0.0000
     45 ****         3.0442   3.4428   3.3281 H              1 S1                 0.0000
     46 ****         1.5368   3.7804   4.1792 H              1 S1                 0.0000
     47 ****         1.7401  -3.2260   1.3122 H              1 S1                 0.0000
     48 ****        -1.4398  -2.8276  -4.3735 H              1 S1                 0.0000
     49 ****        -3.7389  -2.7699  -4.4436 H              1 S1                 0.0000
     50 ****        -3.8313  -1.0178  -4.2933 H              1 S1                 0.0000
     51 ****        -3.9627  -2.4575  -6.7663 H              1 S1                 0.0000
     52 ****        -3.7866  -0.7117  -6.5631 H              1 S1                 0.0000
     53 ****        -1.3045  -0.1005  -5.7214 H              1 S1                 0.0000
     54 ****        -0.1601  -1.4437  -5.8680 H              1 S1                 0.0000
     55 ****        -2.8738  -0.0777  -1.1093 LP             1 S1                 0.0000
     56 ****        -1.3800  -0.4502  -0.5650 LP             1 S1                 0.0000
     57 ****         1.0447   2.4774  -0.0998 LP             1 S1                 0.0000
     58 ****         2.9410   0.9569   2.2190 LP             1 S1                 0.0000
     59 ****         1.8707   0.1520   6.5849 LP             1 S1                 0.0000
     60 ****         2.1980   1.1098   7.8664 LP             1 S1                 0.0000
     61 ****         2.1971  -1.5201   2.7851 LP             1 S1                 0.0000
     62 ****         0.9420  -2.8309  -0.8849 LP             1 S1                 0.0000
     63 ****        -1.9112  -1.2085  -7.5842 LP             1 S1                 0.0000
     64 ****        -1.7529  -2.6886  -6.9128 LP             1 S1                 0.0000
@<TRIPOS>BOND
    1    1    2 1     
    2    1   28 1     
    3    2    3 1     
    4    2   29 1     
    5    2   30 1     
    6    3    4 1     
    7    3   23 1     
    8    3   31 1     
    9    4    5 1     
   10    4   32 1     
   11    4   33 1     
   12    5   22 1     
   13    5    6 1     
   14    6    7 2     
   15    6   34 1     
   16    7    8 1     
   17    8   22 ar    
   18    8    9 ar    
   19    9   10 1     
   20    9   19 ar    
   21   10   14 1     
   22   10   11 1     
   23   11   18 1     
   24   11   12 1     
   25   11   35 1     
   26   12   13 1     
   27   12   36 1     
   28   12   37 1     
   29   13   14 1     
   30   13   38 1     
   31   13   39 1     
   32   14   15 1     
   33   14   40 1     
   34   15   16 1     
   35   15   18 1     
   36   15   41 1     
   37   16   17 1     
   38   16   42 1     
   39   16   43 1     
   40   17   44 1     
   41   18   45 1     
   42   18   46 1     
   43   19   20 ar    
   44   20   21 ar    
   45   20   47 1     
   46   21   22 ar    
   47   23   27 1     
   48   23   24 1     
   49   23   48 1     
   50   24   25 1     
   51   24   49 1     
   52   24   50 1     
   53   25   26 1     
   54   25   51 1     
   55   25   52 1     
   56   26   27 1     
   57   27   53 1     
   58   27   54 1     
   59    1   55 1     
   60    1   56 1     
   61    7   57 1     
   62   10   58 1     
   63   17   59 1     
   64   17   60 1     
   65   19   61 1     
   66   21   62 1     
   67   26   63 1     
   68   26   64 1     
@<TRIPOS>SUBSTRUCTURE
      1 S1             1
@<TRIPOS>SET
LONE_PAIRS      STATIC     ATOMS    <user>   **** ""
10 55 56 57 58 59 60 61 62 63 64
DONOR_HYDROGENS      STATIC     ATOMS    <user>   **** ""
2 28 44
ATOM$BLUE        STATIC     ATOMS    COLORGROUP SYSTEM
10 55 56 57 58 59 60 61 62 63 64
ATOM$RED        STATIC     ATOMS    COLORGROUP SYSTEM
2 28 44
