AV-unprocessed.smi:863|AV-procd|sdf|3985|dock1
  -GOLD-   22720 1463D 1   1.00000     0.00000
 Structure written by MMmdl.
 42 44  0  0  0  0  0  0  0  0  1 V2000
  150.2563  134.8270  156.2688 O   0  0  0  0  0  0  0  0  0  0  0  0
  149.7796  135.1711  155.1871 C   0  0  0  0  0  0  0  0  0  0  0  0
  148.8804  134.2108  154.4080 C   0  0  0  0  0  0  0  0  0  0  0  0
  149.4008  132.8037  154.5255 C   0  0  0  0  0  0  0  0  0  0  0  0
  148.8779  131.6170  153.9398 C   0  0  0  0  0  0  0  0  0  0  0  0
  149.7325  130.6442  154.3717 C   0  0  0  0  0  0  0  0  0  0  0  0
  150.7034  131.1782  155.1552 O   0  0  0  0  0  0  0  0  0  0  0  0
  150.4852  132.5577  155.2458 N   0  0  0  0  0  0  0  0  0  0  0  0
  150.0049  136.3694  154.6255 N   0  0  0  0  0  0  0  0  0  0  0  0
  150.8444  137.4208  155.1915 C   0  0  1  0  0  0  0  0  0  0  0  0
  151.9896  137.7764  154.2330 C   0  0  0  0  0  0  0  0  0  0  0  0
  152.7861  138.9753  154.7647 C   0  0  0  0  0  0  0  0  0  0  0  0
  151.9226  140.0854  155.0028 O   0  0  0  0  0  0  0  0  0  0  0  0
  150.8540  139.8780  155.9359 C   0  0  0  0  0  0  0  0  0  0  0  0
  151.3838  139.6727  157.3815 C   0  0  0  0  0  0  0  0  0  0  0  0
  152.1488  140.8989  157.9057 C   0  0  0  0  0  0  0  0  0  0  0  0
  151.2799  142.1623  157.8462 C   0  0  0  0  0  0  0  0  0  0  0  0
  150.7537  142.3982  156.4239 C   0  0  0  0  0  0  0  0  0  0  0  0
  149.9991  141.1665  155.8929 C   0  0  0  0  0  0  0  0  0  0  0  0
  150.0012  138.6784  155.4543 C   0  0  0  0  0  0  0  0  0  0  0  0
  147.8646  134.2723  154.8000 H   0  0  0  0  0  0  0  0  0  0  0  0
  148.8269  134.5237  153.3640 H   0  0  0  0  0  0  0  0  0  0  0  0
  148.0120  131.4995  153.3053 H   0  0  0  0  0  0  0  0  0  0  0  0
  149.7817  129.5767  154.2155 H   0  0  0  0  0  0  0  0  0  0  0  0
  149.5735  136.5620  153.7327 H   0  0  0  0  0  0  0  0  0  0  0  0
  151.2603  137.0702  156.1374 H   0  0  0  0  0  0  0  0  0  0  0  0
  152.6531  136.9220  154.0945 H   0  0  0  0  0  0  0  0  0  0  0  0
  151.5865  138.0215  153.2494 H   0  0  0  0  0  0  0  0  0  0  0  0
  153.3370  138.7097  155.6664 H   0  0  0  0  0  0  0  0  0  0  0  0
  153.5334  139.2747  154.0298 H   0  0  0  0  0  0  0  0  0  0  0  0
  150.5407  139.4772  158.0455 H   0  0  0  0  0  0  0  0  0  0  0  0
  152.0207  138.7929  157.4579 H   0  0  0  0  0  0  0  0  0  0  0  0
  152.4738  140.7216  158.9312 H   0  0  0  0  0  0  0  0  0  0  0  0
  153.0548  141.0468  157.3169 H   0  0  0  0  0  0  0  0  0  0  0  0
  150.4406  142.0627  158.5356 H   0  0  0  0  0  0  0  0  0  0  0  0
  151.8547  143.0267  158.1795 H   0  0  0  0  0  0  0  0  0  0  0  0
  150.0967  143.2684  156.4121 H   0  0  0  0  0  0  0  0  0  0  0  0
  151.5866  142.6341  155.7604 H   0  0  0  0  0  0  0  0  0  0  0  0
  149.6649  141.3609  154.8730 H   0  0  0  0  0  0  0  0  0  0  0  0
  149.0947  141.0236  156.4862 H   0  0  0  0  0  0  0  0  0  0  0  0
  149.4903  138.9550  154.5303 H   0  0  0  0  0  0  0  0  0  0  0  0
  149.2159  138.4600  156.1793 H   0  0  0  0  0  0  0  0  0  0  0  0
  1  2  2  0  0  0  0
  2  3  1  0  0  0  0
  2  9  1  0  0  0  0
  3  4  1  0  0  0  0
  3 21  1  0  0  0  0
  3 22  1  0  0  0  0
  4  8  2  0  0  0  0
  4  5  1  0  0  0  0
  5  6  2  0  0  0  0
  5 23  1  0  0  0  0
  6  7  1  0  0  0  0
  6 24  1  0  0  0  0
  7  8  1  0  0  0  0
  9 10  1  0  0  0  0
  9 25  1  0  0  0  0
 10 20  1  0  0  0  0
 10 11  1  0  0  0  0
 10 26  1  0  0  0  0
 11 12  1  0  0  0  0
 11 27  1  0  0  0  0
 11 28  1  0  0  0  0
 12 13  1  0  0  0  0
 12 29  1  0  0  0  0
 12 30  1  0  0  0  0
 13 14  1  0  0  0  0
 14 19  1  0  0  0  0
 14 15  1  0  0  0  0
 14 20  1  0  0  0  0
 15 16  1  0  0  0  0
 15 31  1  0  0  0  0
 15 32  1  0  0  0  0
 16 17  1  0  0  0  0
 16 33  1  0  0  0  0
 16 34  1  0  0  0  0
 17 18  1  0  0  0  0
 17 35  1  0  0  0  0
 17 36  1  0  0  0  0
 18 19  1  0  0  0  0
 18 37  1  0  0  0  0
 18 38  1  0  0  0  0
 19 39  1  0  0  0  0
 19 40  1  0  0  0  0
 20 41  1  0  0  0  0
 20 42  1  0  0  0  0
M  END
> <s_m_source_file>
AV-unprocessed.smi

> <i_m_source_file_index>
863

> <i_lp_mmshare_version>
43012

> <i_f3d_flags>
0

> <s_epik_input>
bjFvW2NIXVtjSF1jMVtDSDJdQyg9TylbTkhdW0NAQEhdKFtDSDJdMilbQ0gyXVtDSDJdT0MyM1tDSDJdW0NIMl1bQ0gyXVtDSDJdW0NIMl0z

> <s_epik_cmdline>
J2VwaWtfcHl0aG9uJywgJy1waCcsICc3LjAnLCAnLXRuJywgJzgnLCAnLW1hJywgJzIwMCcsICctbWV0YWxfYmluZGluZycsICctaW1hZScsICc8aW5maWxlLm1hZT4nLCAnLW9tYWUnLCAnPG91dGZpbGUubWFlPic=

> <r_lp_tautomer_probability>
1

> <r_epik_Ionization_Penalty>
1.10177e-07

> <r_epik_Ionization_Penalty_Charging>
0

> <r_epik_Ionization_Penalty_Neutral>
1.10177e-07

> <r_epik_State_Penalty>
-0

> <r_epik_Charging_Adjusted_Penalty>
0

> <i_epik_Tot_Q>
0

> <i_epik_Tot_abs_Q>
0

> <r_epik_Metal_State_Penalty>
-0

> <b_epik_Metal_Only>
0

> <s_lp_Force_Field>
OPLS_2005

> <r_lp_Energy>
15.5582

> <b_lp_Chiralities_Consistent>
1

> <s_lp_Variant>
AV-unprocessed.smi:863-2

> <Gold.Version>
5.8.1

> <Gold.Id.Protein>
6NUR|6NUR_protein|mol2

> <Gold.PLP.Fitness>
39.3916

> <Gold.PLP.PLP>
-34.4179

> <Gold.PLP.part.hbond>
-2.0000

> <Gold.PLP.part.metal>
0.0000

> <Gold.PLP.part.buried>
-2.3126

> <Gold.PLP.part.nonpolar>
-30.5322

> <Gold.PLP.part.repulsive>
0.1027

> <Gold.PLP.ligand.clash>
0.0105

> <Gold.PLP.ligand.torsion>
0.3044

> <Gold.PLP.Chemscore.Hbond>
1.8640

> <Gold.PLP.Chemscore.CHOScore>
0.0000

> <Gold.PLP.Chemscore.Metal>
0.0000

> <Gold.Chemscore.Hbonds>
donor molecule, donor type, donor heavy atom, donor atom, acceptor molecule, acceptor atom, score
      L1  H     9    25       P1  7948  1.00
      P1  H  7989  7998       L1    13  0.86

> <Gold.PLP.Chemscore.Internal.Correction>
0.0009

> <Gold.Rescore>
     Score         DG    S(hbond)    S(metal)    S(lipo)     H(rot)  DE(clash)    DE(int)     intcor
     15.25     -17.42       1.45        0.00      91.60       1.42       0.04       2.13       ----

> <Gold.Chemscore.Fitness>
15.2514

> <Gold.Chemscore.DG>
-17.4231

> <Gold.Chemscore.ZeroCoef>
-5.4800

> <Gold.Chemscore.Hbond>
1.4526

> <Gold.Chemscore.Metal>
0.0000

> <Gold.Chemscore.Lipo>
91.6024

> <Gold.Chemscore.Internal_Hbond>
0.0000

> <Gold.Chemscore.DEClash>
0.0383

> <Gold.Chemscore.DEInternal>
2.1334

> <Gold.Chemscore.Rot>
1.4164

> <Gold.Chemscore.Internal.Correction>
   9.000000E+99

> <Gold.Chemscore.Hbonds>
donor molecule, donor type, donor heavy atom, donor atom, acceptor molecule, acceptor atom, score
      L1  H     9    25       P1  7948  0.68
      P1  H  7989  7998       L1    13  0.51

> <Gold.Chemscore.Hbond.Weighted>
-4.8516

> <Gold.Chemscore.Metal.Weighted>
-0.0000

> <Gold.Chemscore.Lipo.Weighted>
-10.7175

> <Gold.Chemscore.Internal_Hbond.Weighted>
0.0000

> <Gold.Chemscore.DEClash.Weighted>
0.0383

> <Gold.Chemscore.DEInternal.Weighted>
2.1334

> <Gold.Chemscore.Rot.Weighted>
3.6259

> <Gold.Chemscore.Internal.Correction.Weighted>
   9.000000E+99

> <Gold.Protein.RotatedTorsions>
[ 6907 6896 6895 6894 ] final  -22.85 input  -60.11 | X-H torsion
[ 7974 7965 7964 7962 ] final  -49.25 input  175.53 | X-H torsion
[ 8008 7997 7996 7995 ] final -148.25 input   59.86 | X-H torsion
[ 10167 10162 10161 10158 ] final  -28.67 input  -65.29 | X-H torsion
[ 10718 10713 10712 10709 ] final  -54.54 input   66.30 | X-H torsion
[ 10763 10752 10751 10750 ] final -155.24 input  -60.55 | X-H torsion
[ 11005 11000 10999 10996 ] final  159.14 input  -57.11 | X-H torsion

> <Gold.Protein.ActiveResidues>
 VAL166  LYS551  ARG553  GLY616  TRP617  ASP618  TYR619  PRO620  LYS621  CYS622 
 ASP623  PHE694  ASN695  SER759  ASP760  ASP761  ALA762  ILE779  LEU786  VAL792 
 PHE793  MET794  SER795  GLU796  ALA797  LYS798  CYS799  TRP800  GLU811  SER814 

> <Gold.Protein.RotatedAtoms>
  151.2126  135.0487  159.8917 H   0  0  0  0  0  0  0  0  0  0  0  0  # atno 6907 bound_to 6896
  152.5423  134.0728  159.8212 H   0  0  0  0  0  0  0  0  0  0  0  0  # atno 6908 bound_to 6896
  151.0883  133.5287  159.2648 H   0  0  0  0  0  0  0  0  0  0  0  0  # atno 6909 bound_to 6896
  145.9425  140.7648  142.9545 H   0  0  0  0  0  0  0  0  0  0  0  0  # atno 7974 bound_to 7965
  155.5886  140.0650  157.2764 H   0  0  0  0  0  0  0  0  0  0  0  0  # atno 8008 bound_to 7997
  154.4312  140.1839  156.1097 H   0  0  0  0  0  0  0  0  0  0  0  0  # atno 8009 bound_to 7997
  156.0250  140.3312  155.7082 H   0  0  0  0  0  0  0  0  0  0  0  0  # atno 8010 bound_to 7997
  140.7268  143.3991  151.1295 H   0  0  0  0  0  0  0  0  0  0  0  0  # atno 10167 bound_to 10162
  156.1442  130.4153  150.0051 H   0  0  0  0  0  0  0  0  0  0  0  0  # atno 10718 bound_to 10713
  154.7801  135.3172  154.8007 H   0  0  0  0  0  0  0  0  0  0  0  0  # atno 10763 bound_to 10752
  153.8721  135.6843  153.4778 H   0  0  0  0  0  0  0  0  0  0  0  0  # atno 10764 bound_to 10752
  153.1435  135.4729  154.9469 H   0  0  0  0  0  0  0  0  0  0  0  0  # atno 10765 bound_to 10752
  140.1933  134.8391  157.2937 H   0  0  0  0  0  0  0  0  0  0  0  0  # atno 11005 bound_to 11000
  144.6781  140.2304  143.7356 LP  0  0  0  0  0  0  0  0  0  0  0  0  # atno 17320 bound_to 7965
  145.8280  139.2073  143.1899 LP  0  0  0  0  0  0  0  0  0  0  0  0  # atno 17321 bound_to 7965
  139.7608  143.8638  152.3100 LP  0  0  0  0  0  0  0  0  0  0  0  0  # atno 17342 bound_to 10162
  139.8523  144.7158  150.9199 LP  0  0  0  0  0  0  0  0  0  0  0  0  # atno 17343 bound_to 10162
  156.7928  130.9262  151.3646 LP  0  0  0  0  0  0  0  0  0  0  0  0  # atno 17370 bound_to 10713
  157.6602  130.8960  149.9814 LP  0  0  0  0  0  0  0  0  0  0  0  0  # atno 17371 bound_to 10713
  140.2135  134.4110  155.7601 LP  0  0  0  0  0  0  0  0  0  0  0  0  # atno 17394 bound_to 11000
  141.2226  133.7130  156.8376 LP  0  0  0  0  0  0  0  0  0  0  0  0  # atno 17395 bound_to 11000

$$$$
