AV-unprocessed.smi:2162|AV-procd|sdf|8803|dock3
  -GOLD-   2272011583D 1   1.00000     0.00000
 Structure written by MMmdl.
 41 42  0  0  0  0  0  0  0  0  1 V2000
  145.8121  129.7678  152.0438 C   0  0  0  0  0  0  0  0  0  0  0  0
  146.4229  131.1208  152.1721 C   0  0  0  0  0  0  0  0  0  0  0  0
  147.3115  131.4437  153.1153 N   0  0  0  0  0  0  0  0  0  0  0  0
  147.7537  132.7658  153.0080 C   0  0  0  0  0  0  0  0  0  0  0  0
  148.7970  133.2885  153.9542 C   0  0  0  0  0  0  0  0  0  0  0  0
  148.3949  134.5968  154.6668 C   0  0  0  0  0  0  0  0  0  0  0  0
  149.4142  135.6367  154.5378 N   0  0  0  0  0  0  0  0  0  0  0  0
  150.1241  136.1544  155.5532 C   0  0  0  0  0  0  0  0  0  0  0  0
  149.9297  135.8602  156.7333 O   0  0  0  0  0  0  0  0  0  0  0  0
  151.2589  137.1196  155.1759 C   0  0  1  0  0  0  0  0  0  0  0  0
  150.8265  138.1308  154.0971 C   0  0  0  0  0  0  0  0  0  0  0  0
  150.6575  139.4302  154.8697 C   0  0  0  0  0  0  0  0  0  0  0  0
  150.1538  140.4365  154.3729 O   0  0  0  0  0  0  0  0  0  0  0  0
  151.0906  139.3024  156.1312 N   0  0  0  0  0  0  0  0  0  0  0  0
  150.9705  140.3158  157.1871 C   0  0  0  0  0  0  0  0  0  0  0  0
  151.0354  141.7528  156.6379 C   0  0  0  0  0  0  0  0  0  0  0  0
  152.0273  140.0699  158.2759 C   0  0  0  0  0  0  0  0  0  0  0  0
  151.6757  137.9913  156.3764 C   0  0  0  0  0  0  0  0  0  0  0  0
  147.1562  133.4537  151.9806 C   0  0  0  0  0  0  0  0  0  0  0  0
  146.0412  132.4546  151.0907 S   0  0  0  0  0  0  0  0  0  0  0  0
  146.3975  129.0296  152.5928 H   0  0  0  0  0  0  0  0  0  0  0  0
  145.7759  129.4722  150.9953 H   0  0  0  0  0  0  0  0  0  0  0  0
  144.7972  129.7787  152.4410 H   0  0  0  0  0  0  0  0  0  0  0  0
  149.0163  132.5317  154.7083 H   0  0  0  0  0  0  0  0  0  0  0  0
  149.7344  133.4480  153.4204 H   0  0  0  0  0  0  0  0  0  0  0  0
  147.4641  134.9738  154.2427 H   0  0  0  0  0  0  0  0  0  0  0  0
  148.1859  134.3952  155.7188 H   0  0  0  0  0  0  0  0  0  0  0  0
  149.6395  135.9386  153.6010 H   0  0  0  0  0  0  0  0  0  0  0  0
  152.1143  136.5414  154.8226 H   0  0  0  0  0  0  0  0  0  0  0  0
  151.6048  138.2574  153.3441 H   0  0  0  0  0  0  0  0  0  0  0  0
  149.9025  137.8596  153.5837 H   0  0  0  0  0  0  0  0  0  0  0  0
  149.9879  140.2033  157.6485 H   0  0  0  0  0  0  0  0  0  0  0  0
  150.8409  142.4774  157.4289 H   0  0  0  0  0  0  0  0  0  0  0  0
  150.2883  141.9116  155.8595 H   0  0  0  0  0  0  0  0  0  0  0  0
  152.0148  141.9863  156.2192 H   0  0  0  0  0  0  0  0  0  0  0  0
  151.9302  140.7913  159.0875 H   0  0  0  0  0  0  0  0  0  0  0  0
  153.0367  140.1551  157.8732 H   0  0  0  0  0  0  0  0  0  0  0  0
  151.9269  139.0738  158.7084 H   0  0  0  0  0  0  0  0  0  0  0  0
  151.3335  137.5851  157.3290 H   0  0  0  0  0  0  0  0  0  0  0  0
  152.7616  138.0802  156.4251 H   0  0  0  0  0  0  0  0  0  0  0  0
  147.3178  134.4789  151.6831 H   0  0  0  0  0  0  0  0  0  0  0  0
  1  2  1  0  0  0  0
  1 21  1  0  0  0  0
  1 22  1  0  0  0  0
  1 23  1  0  0  0  0
  2 20  1  0  0  0  0
  2  3  2  0  0  0  0
  3  4  1  0  0  0  0
  4  5  1  0  0  0  0
  4 19  2  0  0  0  0
  5  6  1  0  0  0  0
  5 24  1  0  0  0  0
  5 25  1  0  0  0  0
  6  7  1  0  0  0  0
  6 26  1  0  0  0  0
  6 27  1  0  0  0  0
  7  8  1  0  0  0  0
  7 28  1  0  0  0  0
  8  9  2  0  0  0  0
  8 10  1  0  0  0  0
 10 18  1  0  0  0  0
 10 11  1  0  0  0  0
 10 29  1  0  0  0  0
 11 12  1  0  0  0  0
 11 30  1  0  0  0  0
 11 31  1  0  0  0  0
 12 13  2  0  0  0  0
 12 14  1  0  0  0  0
 14 15  1  0  0  0  0
 14 18  1  0  0  0  0
 15 16  1  0  0  0  0
 15 17  1  0  0  0  0
 15 32  1  0  0  0  0
 16 33  1  0  0  0  0
 16 34  1  0  0  0  0
 16 35  1  0  0  0  0
 17 36  1  0  0  0  0
 17 37  1  0  0  0  0
 17 38  1  0  0  0  0
 18 39  1  0  0  0  0
 18 40  1  0  0  0  0
 19 20  1  0  0  0  0
 19 41  1  0  0  0  0
M  END
> <s_m_source_file>
AV-unprocessed.smi

> <i_m_source_file_index>
2162

> <i_lp_mmshare_version>
43012

> <i_f3d_flags>
0

> <s_epik_input>
W0NIM11jMW5jKFtjSF1zMSlbQ0gyXVtDSDJdW05IXUMoPU8pW0NAQEhdMltDSDJdQyg9TylOKFtDSDJdMilbQ0hdKFtDSDNdKVtDSDNd

> <s_epik_cmdline>
J2VwaWtfcHl0aG9uJywgJy1waCcsICc3LjAnLCAnLXRuJywgJzgnLCAnLW1hJywgJzIwMCcsICctbWV0YWxfYmluZGluZycsICctaW1hZScsICc8aW5maWxlLm1hZT4nLCAnLW9tYWUnLCAnPG91dGZpbGUubWFlPic=

> <r_epik_Ionization_Penalty>
0.000973993

> <r_epik_Ionization_Penalty_Charging>
0

> <r_epik_Ionization_Penalty_Neutral>
0.000973993

> <r_epik_State_Penalty>
0.000633765

> <r_epik_Charging_Adjusted_Penalty>
0.000633765

> <i_epik_Tot_Q>
0

> <i_epik_Tot_abs_Q>
0

> <r_epik_Metal_State_Penalty>
-0

> <b_epik_Metal_Only>
0

> <s_lp_Force_Field>
OPLS_2005

> <r_lp_Energy>
12.9276

> <b_lp_Chiralities_Consistent>
1

> <s_lp_Variant>
AV-unprocessed.smi:2162-2

> <Gold.Version>
5.8.1

> <Gold.Id.Protein>
6NUR|6NUR_protein|mol2

> <Gold.PLP.Fitness>
40.9660

> <Gold.PLP.PLP>
-36.4138

> <Gold.PLP.part.hbond>
-2.0000

> <Gold.PLP.part.metal>
0.0000

> <Gold.PLP.part.buried>
-4.9258

> <Gold.PLP.part.nonpolar>
-30.5970

> <Gold.PLP.part.repulsive>
0.2440

> <Gold.PLP.ligand.clash>
0.0000

> <Gold.PLP.ligand.torsion>
1.6320

> <Gold.PLP.Chemscore.Hbond>
1.5824

> <Gold.PLP.Chemscore.CHOScore>
1.0000

> <Gold.PLP.Chemscore.Metal>
0.0000

> <Gold.Chemscore.Hbonds>
donor molecule, donor type, donor heavy atom, donor atom, acceptor molecule, acceptor atom, score
      L1  H     7    28       P1  7948  0.93
      P1  H  7989  7998       L1    13  0.64
      L1  C    19    41       P1  7948  1.00

> <Gold.PLP.Chemscore.Internal.Correction>
0.0691

> <Gold.Rescore>
     Score         DG    S(hbond)    S(metal)    S(lipo)     H(rot)  DE(clash)    DE(int)     intcor
     12.74     -15.70       1.68        0.00      75.55       1.66       0.04       2.93       ----

> <Gold.Chemscore.Fitness>
12.7353

> <Gold.Chemscore.DG>
-15.6985

> <Gold.Chemscore.ZeroCoef>
-5.4800

> <Gold.Chemscore.Hbond>
1.6840

> <Gold.Chemscore.Metal>
0.0000

> <Gold.Chemscore.Lipo>
75.5513

> <Gold.Chemscore.Internal_Hbond>
0.0000

> <Gold.Chemscore.DEClash>
0.0354

> <Gold.Chemscore.DEInternal>
2.9279

> <Gold.Chemscore.Rot>
1.6585

> <Gold.Chemscore.Internal.Correction>
   9.000000E+99

> <Gold.Chemscore.Hbonds>
donor molecule, donor type, donor heavy atom, donor atom, acceptor molecule, acceptor atom, score
      L1  H     7    28       P1  7948  0.23
      P1  H  7989  7998       L1    13  0.06

> <Gold.Chemscore.Hbond.Weighted>
-5.6247

> <Gold.Chemscore.Metal.Weighted>
-0.0000

> <Gold.Chemscore.Lipo.Weighted>
-8.8395

> <Gold.Chemscore.Internal_Hbond.Weighted>
0.0000

> <Gold.Chemscore.DEClash.Weighted>
0.0354

> <Gold.Chemscore.DEInternal.Weighted>
2.9279

> <Gold.Chemscore.Rot.Weighted>
4.2457

> <Gold.Chemscore.Internal.Correction.Weighted>
   9.000000E+99

> <Gold.Protein.RotatedTorsions>
[ 6907 6896 6895 6894 ] final -166.19 input  -60.11 | X-H torsion
[ 7974 7965 7964 7962 ] final   82.59 input  175.53 | X-H torsion
[ 8008 7997 7996 7995 ] final  -73.16 input   59.86 | X-H torsion
[ 10167 10162 10161 10158 ] final    5.27 input  -65.29 | X-H torsion
[ 10718 10713 10712 10709 ] final   36.67 input   66.30 | X-H torsion
[ 10763 10752 10751 10750 ] final  -75.43 input  -60.55 | X-H torsion
[ 11005 11000 10999 10996 ] final   26.47 input  -57.11 | X-H torsion

> <Gold.Protein.ActiveResidues>
 VAL166  LYS551  ARG553  GLY616  TRP617  ASP618  TYR619  PRO620  LYS621  CYS622 
 ASP623  PHE694  ASN695  SER759  ASP760  ASP761  ALA762  ILE779  LEU786  VAL792 
 PHE793  MET794  SER795  GLU796  ALA797  LYS798  CYS799  TRP800  GLU811  SER814 

> <Gold.Protein.RotatedAtoms>
  151.4396  133.3647  159.2779 H   0  0  0  0  0  0  0  0  0  0  0  0  # atno 6907 bound_to 6896
  150.9167  134.8586  159.7472 H   0  0  0  0  0  0  0  0  0  0  0  0  # atno 6908 bound_to 6896
  152.4961  134.4330  159.9570 H   0  0  0  0  0  0  0  0  0  0  0  0  # atno 6909 bound_to 6896
  145.6231  139.2390  143.2127 H   0  0  0  0  0  0  0  0  0  0  0  0  # atno 7974 bound_to 7965
  154.5225  140.0784  156.8197 H   0  0  0  0  0  0  0  0  0  0  0  0  # atno 8008 bound_to 7997
  155.3546  140.3414  155.4221 H   0  0  0  0  0  0  0  0  0  0  0  0  # atno 8009 bound_to 7997
  156.1696  140.1615  156.8458 H   0  0  0  0  0  0  0  0  0  0  0  0  # atno 8010 bound_to 7997
  140.6491  143.7590  150.7545 H   0  0  0  0  0  0  0  0  0  0  0  0  # atno 10167 bound_to 10162
  157.3377  130.7531  149.6890 H   0  0  0  0  0  0  0  0  0  0  0  0  # atno 10718 bound_to 10713
  154.4865  135.5831  153.6427 H   0  0  0  0  0  0  0  0  0  0  0  0  # atno 10763 bound_to 10752
  152.9855  135.6102  154.3180 H   0  0  0  0  0  0  0  0  0  0  0  0  # atno 10764 bound_to 10752
  154.3075  135.2845  155.2561 H   0  0  0  0  0  0  0  0  0  0  0  0  # atno 10765 bound_to 10752
  140.3366  134.2379  155.7695 H   0  0  0  0  0  0  0  0  0  0  0  0  # atno 11005 bound_to 11000
  146.1415  140.7050  142.9364 LP  0  0  0  0  0  0  0  0  0  0  0  0  # atno 17320 bound_to 7965
  144.7223  140.4413  143.6999 LP  0  0  0  0  0  0  0  0  0  0  0  0  # atno 17321 bound_to 7965
  140.1237  143.4589  152.2297 LP  0  0  0  0  0  0  0  0  0  0  0  0  # atno 17342 bound_to 10162
  139.5704  144.7459  151.3907 LP  0  0  0  0  0  0  0  0  0  0  0  0  # atno 17343 bound_to 10162
  155.9703  130.4177  150.4290 LP  0  0  0  0  0  0  0  0  0  0  0  0  # atno 17370 bound_to 10713
  157.2333  131.0509  151.2480 LP  0  0  0  0  0  0  0  0  0  0  0  0  # atno 17371 bound_to 10713
  141.2049  133.7873  157.0259 LP  0  0  0  0  0  0  0  0  0  0  0  0  # atno 17394 bound_to 11000
  140.0816  134.9645  157.1633 LP  0  0  0  0  0  0  0  0  0  0  0  0  # atno 17395 bound_to 11000

$$$$
