AV-unprocessed.smi:693|AV-procd|sdf|3374|dock10
  -GOLD-   22720 0353D 1   1.00000     0.00000
 Structure written by MMmdl.
 47 48  0  0  0  0  0  0  0  0  2 V2000
  143.4476  131.7952  150.0949 C   0  0  0  0  0  0  0  0  0  0  0  0
  144.0162  133.1399  150.4953 C   0  0  0  0  0  0  0  0  0  0  0  0
  145.2643  133.2679  151.1418 C   0  0  0  0  0  0  0  0  0  0  0  0
  145.7315  134.5526  151.4891 C   0  0  0  0  0  0  0  0  0  0  0  0
  144.9413  135.6827  151.1845 C   0  0  0  0  0  0  0  0  0  0  0  0
  145.4143  137.0776  151.5430 C   0  0  0  0  0  0  0  0  0  0  0  0
  144.5976  137.6889  152.6936 C   0  0  0  0  0  0  0  0  0  0  0  0
  145.3736  138.6736  153.4375 N   0  0  0  0  0  0  0  0  0  0  0  0
  146.3666  138.3923  154.2986 C   0  0  0  0  0  0  0  0  0  0  0  0
  146.7027  137.2339  154.5503 O   0  0  0  0  0  0  0  0  0  0  0  0
  146.9434  139.4775  154.8752 N   0  0  0  0  0  0  0  0  0  0  0  0
  146.5244  140.8780  154.7039 C   0  0  0  0  0  0  0  0  0  0  0  0
  147.5197  141.5678  153.7572 C   0  0  0  0  0  0  0  0  0  0  0  0
  148.9586  141.4606  154.2971 C   0  0  0  0  0  0  0  0  0  0  0  0
  149.3401  140.0082  154.6833 C   0  0  1  0  0  0  0  0  0  0  0  0
  150.7162  139.9010  155.3805 C   0  0  0  0  0  0  0  0  0  0  0  0
  151.5386  138.6813  154.9508 C   0  0  0  0  0  0  0  0  0  0  0  0
  150.9366  137.7923  154.1570 N   0  0  0  0  0  0  0  0  0  0  0  0
  152.6923  138.5289  155.3461 O   0  0  0  0  0  0  0  0  0  0  0  0
  148.2335  139.3950  155.5719 C   0  0  0  0  0  0  0  0  0  0  0  0
  143.7019  135.4937  150.5366 C   0  0  0  0  0  0  0  0  0  0  0  0
  143.2897  134.2465  150.2201 N   0  3  0  0  0  0  0  0  0  0  0  0
  144.2021  131.0119  150.1758 H   0  0  0  0  0  0  0  0  0  0  0  0
  143.0935  131.8191  149.0639 H   0  0  0  0  0  0  0  0  0  0  0  0
  142.6107  131.5315  150.7417 H   0  0  0  0  0  0  0  0  0  0  0  0
  145.8579  132.3945  151.3705 H   0  0  0  0  0  0  0  0  0  0  0  0
  146.6854  134.6662  151.9832 H   0  0  0  0  0  0  0  0  0  0  0  0
  146.4700  137.0272  151.8124 H   0  0  0  0  0  0  0  0  0  0  0  0
  145.3535  137.7158  150.6603 H   0  0  0  0  0  0  0  0  0  0  0  0
  143.7126  138.1877  152.2977 H   0  0  0  0  0  0  0  0  0  0  0  0
  144.2399  136.9098  153.3690 H   0  0  0  0  0  0  0  0  0  0  0  0
  145.1432  139.6451  153.2874 H   0  0  0  0  0  0  0  0  0  0  0  0
  145.5090  140.9962  154.3262 H   0  0  0  0  0  0  0  0  0  0  0  0
  146.5288  141.3761  155.6746 H   0  0  0  0  0  0  0  0  0  0  0  0
  147.4635  141.1066  152.7702 H   0  0  0  0  0  0  0  0  0  0  0  0
  147.2490  142.6156  153.6254 H   0  0  0  0  0  0  0  0  0  0  0  0
  149.6457  141.8575  153.5504 H   0  0  0  0  0  0  0  0  0  0  0  0
  149.0544  142.1018  155.1745 H   0  0  0  0  0  0  0  0  0  0  0  0
  149.3829  139.4184  153.7657 H   0  0  0  0  0  0  0  0  0  0  0  0
  151.3021  140.8004  155.1869 H   0  0  0  0  0  0  0  0  0  0  0  0
  150.5768  139.8626  156.4619 H   0  0  0  0  0  0  0  0  0  0  0  0
  151.4371  136.9717  153.8478 H   0  0  0  0  0  0  0  0  0  0  0  0
  149.9808  137.9441  153.8692 H   0  0  0  0  0  0  0  0  0  0  0  0
  148.1681  139.9343  156.5180 H   0  0  0  0  0  0  0  0  0  0  0  0
  148.4897  138.3689  155.8404 H   0  0  0  0  0  0  0  0  0  0  0  0
  143.0328  136.2969  150.2628 H   0  0  0  0  0  0  0  0  0  0  0  0
  142.3896  134.1350  149.7525 H   0  0  0  0  0  0  0  0  0  0  0  0
  1  2  1  0  0  0  0
  1 23  1  0  0  0  0
  1 24  1  0  0  0  0
  1 25  1  0  0  0  0
  2 22  1  0  0  0  0
  2  3  2  0  0  0  0
  3  4  1  0  0  0  0
  3 26  1  0  0  0  0
  4  5  2  0  0  0  0
  4 27  1  0  0  0  0
  5  6  1  0  0  0  0
  5 21  1  0  0  0  0
  6  7  1  0  0  0  0
  6 28  1  0  0  0  0
  6 29  1  0  0  0  0
  7  8  1  0  0  0  0
  7 30  1  0  0  0  0
  7 31  1  0  0  0  0
  8  9  1  0  0  0  0
  8 32  1  0  0  0  0
  9 10  2  0  0  0  0
  9 11  1  0  0  0  0
 11 20  1  0  0  0  0
 11 12  1  0  0  0  0
 12 13  1  0  0  0  0
 12 33  1  0  0  0  0
 12 34  1  0  0  0  0
 13 14  1  0  0  0  0
 13 35  1  0  0  0  0
 13 36  1  0  0  0  0
 14 15  1  0  0  0  0
 14 37  1  0  0  0  0
 14 38  1  0  0  0  0
 15 16  1  0  0  0  0
 15 20  1  0  0  0  0
 15 39  1  0  0  0  0
 16 17  1  0  0  0  0
 16 40  1  0  0  0  0
 16 41  1  0  0  0  0
 17 18  1  0  0  0  0
 17 19  2  0  0  0  0
 18 42  1  0  0  0  0
 18 43  1  0  0  0  0
 20 44  1  0  0  0  0
 20 45  1  0  0  0  0
 21 22  2  0  0  0  0
 21 46  1  0  0  0  0
 22 47  1  0  0  0  0
M  CHG  1  22   1
M  END
> <s_m_source_file>
AV-unprocessed.smi

> <i_m_source_file_index>
693

> <i_lp_mmshare_version>
43012

> <i_f3d_flags>
0

> <s_epik_input>
W0NIM11jMVtjSF1bY0hdYyhbY0hdbjEpW0NIMl1bQ0gyXVtOSF1DKD1PKU4yW0NIMl1bQ0gyXVtDSDJdW0NASF0oW0NIMl0yKVtDSDJdQyg9TylbTkgyXQ==

> <s_epik_cmdline>
J2VwaWtfcHl0aG9uJywgJy1waCcsICc3LjAnLCAnLXRuJywgJzgnLCAnLW1hJywgJzIwMCcsICctbWV0YWxfYmluZGluZycsICctaW1hZScsICc8aW5maWxlLm1hZT4nLCAnLW9tYWUnLCAnPG91dGZpbGUubWFlPic=

> <r_epik_Ionization_Penalty>
1.41666

> <r_epik_Ionization_Penalty_Charging>
1.4166

> <r_epik_Ionization_Penalty_Neutral>
5.77403e-05

> <r_epik_State_Penalty>
1.50002

> <r_epik_Charging_Adjusted_Penalty>
2.91662

> <i_epik_Tot_Q>
1

> <i_epik_Tot_abs_Q>
1

> <r_epik_Metal_State_Penalty>
1.55252

> <b_epik_Metal_Only>
0

> <s_lp_Force_Field>
OPLS_2005

> <r_lp_Energy>
32.8943

> <b_lp_Chiralities_Consistent>
1

> <s_lp_Variant>
AV-unprocessed.smi:693-3

> <Gold.Version>
5.8.1

> <Gold.Id.Protein>
6NUR|6NUR_protein|mol2

> <Gold.PLP.Fitness>
46.3478

> <Gold.PLP.PLP>
-37.5086

> <Gold.PLP.part.hbond>
-3.0000

> <Gold.PLP.part.metal>
0.0000

> <Gold.PLP.part.buried>
-1.6321

> <Gold.PLP.part.nonpolar>
-33.0659

> <Gold.PLP.part.repulsive>
0.1997

> <Gold.PLP.ligand.clash>
0.0000

> <Gold.PLP.ligand.torsion>
0.9714

> <Gold.PLP.Chemscore.Hbond>
3.5720

> <Gold.PLP.Chemscore.CHOScore>
0.0000

> <Gold.PLP.Chemscore.Metal>
0.0000

> <Gold.Chemscore.Hbonds>
donor molecule, donor type, donor heavy atom, donor atom, acceptor molecule, acceptor atom, score
      L1  H     8    32       P1 10175  0.64
      L1  H    22    47       P1 10186  1.46

> <Gold.PLP.Chemscore.Internal.Correction>
0.0659

> <Gold.Rescore>
     Score         DG    S(hbond)    S(metal)    S(lipo)     H(rot)  DE(clash)    DE(int)     intcor
     16.54     -18.15       2.63        0.00      84.34       2.34       0.50       1.12       ----

> <Gold.Chemscore.Fitness>
16.5351

> <Gold.Chemscore.DG>
-18.1543

> <Gold.Chemscore.ZeroCoef>
-5.4800

> <Gold.Chemscore.Hbond>
2.6302

> <Gold.Chemscore.Metal>
0.0000

> <Gold.Chemscore.Lipo>
84.3414

> <Gold.Chemscore.Internal_Hbond>
0.0000

> <Gold.Chemscore.DEClash>
0.5028

> <Gold.Chemscore.DEInternal>
1.1165

> <Gold.Chemscore.Rot>
2.3354

> <Gold.Chemscore.Internal.Correction>
   9.000000E+99

> <Gold.Chemscore.Hbonds>
donor molecule, donor type, donor heavy atom, donor atom, acceptor molecule, acceptor atom, score
      L1  H     8    32       P1 10175  0.64
      L1  H    22    47       P1 10186  0.71
      P1  H  7997  8010       L1    19  0.05

> <Gold.Chemscore.Hbond.Weighted>
-8.7849

> <Gold.Chemscore.Metal.Weighted>
-0.0000

> <Gold.Chemscore.Lipo.Weighted>
-9.8679

> <Gold.Chemscore.Internal_Hbond.Weighted>
0.0000

> <Gold.Chemscore.DEClash.Weighted>
0.5028

> <Gold.Chemscore.DEInternal.Weighted>
1.1165

> <Gold.Chemscore.Rot.Weighted>
5.9785

> <Gold.Chemscore.Internal.Correction.Weighted>
   9.000000E+99

> <Gold.Protein.RotatedTorsions>
[ 6907 6896 6895 6894 ] final -126.32 input  -60.11 | X-H torsion
[ 7974 7965 7964 7962 ] final  171.18 input  175.53 | X-H torsion
[ 8008 7997 7996 7995 ] final   89.26 input   59.86 | X-H torsion
[ 10167 10162 10161 10158 ] final  -20.23 input  -65.29 | X-H torsion
[ 10718 10713 10712 10709 ] final   38.16 input   66.30 | X-H torsion
[ 10763 10752 10751 10750 ] final   54.01 input  -60.55 | X-H torsion
[ 11005 11000 10999 10996 ] final  -38.36 input  -57.11 | X-H torsion

> <Gold.Protein.ActiveResidues>
 VAL166  LYS551  ARG553  GLY616  TRP617  ASP618  TYR619  PRO620  LYS621  CYS622 
 ASP623  PHE694  ASN695  SER759  ASP760  ASP761  ALA762  ILE779  LEU786  VAL792 
 PHE793  MET794  SER795  GLU796  ALA797  LYS798  CYS799  TRP800  GLU811  SER814 

> <Gold.Protein.RotatedAtoms>
  150.8957  133.7184  159.2892 H   0  0  0  0  0  0  0  0  0  0  0  0  # atno 6907 bound_to 6896
  151.4720  135.1045  159.9763 H   0  0  0  0  0  0  0  0  0  0  0  0  # atno 6908 bound_to 6896
  152.4847  133.8294  159.7151 H   0  0  0  0  0  0  0  0  0  0  0  0  # atno 6909 bound_to 6896
  144.7302  139.9312  143.6424 H   0  0  0  0  0  0  0  0  0  0  0  0  # atno 7974 bound_to 7965
  155.9978  140.3362  155.6816 H   0  0  0  0  0  0  0  0  0  0  0  0  # atno 8008 bound_to 7997
  155.6332  140.0687  157.2660 H   0  0  0  0  0  0  0  0  0  0  0  0  # atno 8009 bound_to 7997
  154.4239  140.1756  156.1482 H   0  0  0  0  0  0  0  0  0  0  0  0  # atno 8010 bound_to 7997
  140.7274  143.4742  151.0205 H   0  0  0  0  0  0  0  0  0  0  0  0  # atno 10167 bound_to 10162
  157.3556  130.7622  149.7010 H   0  0  0  0  0  0  0  0  0  0  0  0  # atno 10718 bound_to 10713
  152.9800  135.5759  154.4835 H   0  0  0  0  0  0  0  0  0  0  0  0  # atno 10763 bound_to 10752
  154.4380  135.2775  155.1869 H   0  0  0  0  0  0  0  0  0  0  0  0  # atno 10764 bound_to 10752
  154.3549  135.6201  153.5715 H   0  0  0  0  0  0  0  0  0  0  0  0  # atno 10765 bound_to 10752
  141.0021  133.6950  156.2042 H   0  0  0  0  0  0  0  0  0  0  0  0  # atno 11005 bound_to 11000
  146.0856  139.3844  143.0437 LP  0  0  0  0  0  0  0  0  0  0  0  0  # atno 17320 bound_to 7965
  145.7782  140.9868  143.1113 LP  0  0  0  0  0  0  0  0  0  0  0  0  # atno 17321 bound_to 7965
  139.8436  143.7530  152.3180 LP  0  0  0  0  0  0  0  0  0  0  0  0  # atno 17342 bound_to 10162
  139.7688  144.7483  151.0255 LP  0  0  0  0  0  0  0  0  0  0  0  0  # atno 17343 bound_to 10162
  155.9728  130.4128  150.4051 LP  0  0  0  0  0  0  0  0  0  0  0  0  # atno 17370 bound_to 10713
  157.2121  131.0463  151.2593 LP  0  0  0  0  0  0  0  0  0  0  0  0  # atno 17371 bound_to 10713
  140.6872  134.4705  157.5589 LP  0  0  0  0  0  0  0  0  0  0  0  0  # atno 17394 bound_to 11000
  139.9044  134.8482  156.1764 LP  0  0  0  0  0  0  0  0  0  0  0  0  # atno 17395 bound_to 11000

$$$$
