AV-unprocessed.smi:197|AV-procd|sdf|1548|dock7
  -GOLD-   2262019413D 1   1.00000     0.00000
 Structure written by MMmdl.
 54 57  0  0  0  0  0  0  0  0  1 V2000
  156.2119  136.1512  158.8307 C   0  0  0  0  0  0  0  0  0  0  0  0
  155.0690  136.9621  158.6062 O   0  0  0  0  0  0  0  0  0  0  0  0
  154.4695  137.4702  159.7913 C   0  0  0  0  0  0  0  0  0  0  0  0
  153.2799  138.4028  159.4926 C   0  0  0  0  0  0  0  0  0  0  0  0
  153.6207  139.9154  159.5574 C   0  0  2  0  0  0  0  0  0  0  0  0
  153.8889  140.3683  161.0124 C   0  0  0  0  0  0  0  0  0  0  0  0
  154.1679  141.7630  161.0599 O   0  0  0  0  0  0  0  0  0  0  0  0
  153.0736  142.5396  160.5918 C   0  0  0  0  0  0  0  0  0  0  0  0
  152.8047  142.1847  159.1237 C   0  0  0  0  0  0  0  0  0  0  0  0
  152.5578  140.7540  158.9870 N   0  0  0  0  0  0  0  0  0  0  0  0
  152.1560  140.4587  157.7299 C   0  0  0  0  0  0  0  0  0  0  0  0
  152.9244  139.5894  157.0288 N   0  0  0  0  0  0  0  0  0  0  0  0
  152.5926  139.2654  155.7756 C   0  0  0  0  0  0  0  0  0  0  0  0
  151.5533  139.6859  155.0515 N   0  0  0  0  0  0  0  0  0  0  0  0
  150.7691  140.5479  155.7604 C   0  0  0  0  0  0  0  0  0  0  0  0
  150.9940  140.9853  157.0961 C   0  0  0  0  0  0  0  0  0  0  0  0
  149.9863  141.8607  157.4827 N   0  0  0  0  0  0  0  0  0  0  0  0
  149.2186  141.9474  156.4314 C   0  0  0  0  0  0  0  0  0  0  0  0
  149.6073  141.1821  155.3549 N   0  0  0  0  0  0  0  0  0  0  0  0
  148.9405  141.0921  154.0643 C   0  0  0  0  0  0  0  0  0  0  0  0
  148.4848  139.6600  153.6727 C   0  0  1  0  0  0  0  0  0  0  0  0
  149.5548  139.0129  153.0059 O   0  0  0  0  0  0  0  0  0  0  0  0
  148.0624  138.7994  154.8602 C   0  0  0  0  0  0  0  0  0  0  0  0
  146.5893  139.1434  155.0035 C   0  0  0  0  0  0  0  0  0  0  0  0
  146.1446  139.1964  153.6583 O   0  0  0  0  0  0  0  0  0  0  0  0
  147.1853  139.7041  152.8233 C   0  0  2  0  0  0  0  0  0  0  0  0
  147.1883  138.8610  151.5368 C   0  0  0  0  0  0  0  0  0  0  0  0
  156.6290  135.8422  157.8725 H   0  0  0  0  0  0  0  0  0  0  0  0
  155.9692  135.2474  159.3889 H   0  0  0  0  0  0  0  0  0  0  0  0
  156.9849  136.6995  159.3705 H   0  0  0  0  0  0  0  0  0  0  0  0
  154.1566  136.6487  160.4373 H   0  0  0  0  0  0  0  0  0  0  0  0
  155.2332  138.0092  160.3507 H   0  0  0  0  0  0  0  0  0  0  0  0
  152.8858  138.1357  158.5133 H   0  0  0  0  0  0  0  0  0  0  0  0
  152.4727  138.1864  160.1931 H   0  0  0  0  0  0  0  0  0  0  0  0
  154.5314  140.0934  158.9860 H   0  0  0  0  0  0  0  0  0  0  0  0
  153.0390  140.1387  161.6573 H   0  0  0  0  0  0  0  0  0  0  0  0
  154.7515  139.8481  161.4270 H   0  0  0  0  0  0  0  0  0  0  0  0
  152.1899  142.3603  161.2065 H   0  0  0  0  0  0  0  0  0  0  0  0
  153.3209  143.5971  160.6855 H   0  0  0  0  0  0  0  0  0  0  0  0
  151.9460  142.7509  158.7597 H   0  0  0  0  0  0  0  0  0  0  0  0
  153.6618  142.4688  158.5113 H   0  0  0  0  0  0  0  0  0  0  0  0
  153.2550  138.5698  155.2819 H   0  0  0  0  0  0  0  0  0  0  0  0
  148.3365  142.5710  156.4147 H   0  0  0  0  0  0  0  0  0  0  0  0
  148.0861  141.7697  154.0821 H   0  0  0  0  0  0  0  0  0  0  0  0
  149.6182  141.4868  153.3056 H   0  0  0  0  0  0  0  0  0  0  0  0
  149.4536  139.1478  152.0761 H   0  0  0  0  0  0  0  0  0  0  0  0
  148.1502  137.7398  154.6137 H   0  0  0  0  0  0  0  0  0  0  0  0
  148.6324  138.9669  155.7725 H   0  0  0  0  0  0  0  0  0  0  0  0
  146.0359  138.4013  155.5790 H   0  0  0  0  0  0  0  0  0  0  0  0
  146.4559  140.1174  155.4763 H   0  0  0  0  0  0  0  0  0  0  0  0
  146.9383  140.7344  152.5633 H   0  0  0  0  0  0  0  0  0  0  0  0
  147.9442  139.2125  150.8340 H   0  0  0  0  0  0  0  0  0  0  0  0
  146.2226  138.9197  151.0345 H   0  0  0  0  0  0  0  0  0  0  0  0
  147.3855  137.8100  151.7506 H   0  0  0  0  0  0  0  0  0  0  0  0
  1  2  1  0  0  0  0
  1 28  1  0  0  0  0
  1 29  1  0  0  0  0
  1 30  1  0  0  0  0
  2  3  1  0  0  0  0
  3  4  1  0  0  0  0
  3 31  1  0  0  0  0
  3 32  1  0  0  0  0
  4  5  1  0  0  0  0
  4 33  1  0  0  0  0
  4 34  1  0  0  0  0
  5 10  1  0  0  0  0
  5  6  1  0  0  0  0
  5 35  1  0  0  0  0
  6  7  1  0  0  0  0
  6 36  1  0  0  0  0
  6 37  1  0  0  0  0
  7  8  1  0  0  0  0
  8  9  1  0  0  0  0
  8 38  1  0  0  0  0
  8 39  1  0  0  0  0
  9 10  1  0  0  0  0
  9 40  1  0  0  0  0
  9 41  1  0  0  0  0
 10 11  1  0  0  0  0
 11 16  1  0  0  0  0
 11 12  2  0  0  0  0
 12 13  1  0  0  0  0
 13 14  2  0  0  0  0
 13 42  1  0  0  0  0
 14 15  1  0  0  0  0
 15 19  1  0  0  0  0
 15 16  2  0  0  0  0
 16 17  1  0  0  0  0
 17 18  2  0  0  0  0
 18 19  1  0  0  0  0
 18 43  1  0  0  0  0
 19 20  1  0  0  0  0
 20 21  1  0  0  0  0
 20 44  1  0  0  0  0
 20 45  1  0  0  0  0
 21 26  1  0  0  0  0
 21 22  1  0  0  0  0
 21 23  1  0  0  0  0
 22 46  1  0  0  0  0
 23 24  1  0  0  0  0
 23 47  1  0  0  0  0
 23 48  1  0  0  0  0
 24 25  1  0  0  0  0
 24 49  1  0  0  0  0
 24 50  1  0  0  0  0
 25 26  1  0  0  0  0
 26 27  1  0  0  0  0
 26 51  1  0  0  0  0
 27 52  1  0  0  0  0
 27 53  1  0  0  0  0
 27 54  1  0  0  0  0
M  END
> <s_m_source_file>
AV-unprocessed.smi

> <i_m_source_file_index>
197

> <i_lp_mmshare_version>
43012

> <i_f3d_flags>
0

> <s_epik_input>
W0NIM11PW0NIMl1bQ0gyXVtDQEBIXTFbQ0gyXU9bQ0gyXVtDSDJdTjFjKG5bY0hdbjIpYyhjMjMpbltjSF1uM1tDSDJdW0NAQF00KFtPSF0pW0NIMl1bQ0gyXU9bQ0BIXTRbQ0gzXQ==

> <s_epik_cmdline>
J2VwaWtfcHl0aG9uJywgJy1waCcsICc3LjAnLCAnLXRuJywgJzgnLCAnLW1hJywgJzIwMCcsICctbWV0YWxfYmluZGluZycsICctaW1hZScsICc8aW5maWxlLm1hZT4nLCAnLW9tYWUnLCAnPG91dGZpbGUubWFlPic=

> <r_lp_tautomer_probability>
1

> <r_epik_Ionization_Penalty>
0.000106218

> <r_epik_Ionization_Penalty_Charging>
0

> <r_epik_Ionization_Penalty_Neutral>
0.000106218

> <r_epik_State_Penalty>
-0

> <r_epik_Charging_Adjusted_Penalty>
0

> <i_epik_Tot_Q>
0

> <i_epik_Tot_abs_Q>
0

> <r_epik_Metal_State_Penalty>
-0

> <b_epik_Metal_Only>
0

> <s_lp_Force_Field>
OPLS_2005

> <r_lp_Energy>
44.1389

> <b_lp_Chiralities_Consistent>
1

> <s_lp_Variant>
AV-unprocessed.smi:197-5

> <Gold.Version>
5.8.1

> <Gold.Id.Protein>
6NUR|6NUR_protein|mol2

> <Gold.PLP.Fitness>
48.0930

> <Gold.PLP.PLP>
-40.0561

> <Gold.PLP.part.hbond>
-4.2191

> <Gold.PLP.part.metal>
0.0000

> <Gold.PLP.part.buried>
-1.3849

> <Gold.PLP.part.nonpolar>
-34.4770

> <Gold.PLP.part.repulsive>
0.7794

> <Gold.PLP.ligand.clash>
0.0000

> <Gold.PLP.ligand.torsion>
0.9982

> <Gold.PLP.Chemscore.Hbond>
2.7713

> <Gold.PLP.Chemscore.CHOScore>
0.4833

> <Gold.PLP.Chemscore.Metal>
0.0000

> <Gold.Chemscore.Hbonds>
donor molecule, donor type, donor heavy atom, donor atom, acceptor molecule, acceptor atom, score
      L1  H    22    46       P1  7957  0.29
      P1  H  7989  7998       L1    14  0.70
      P1  H  7997  8008       L1    12  0.85
      L1  C    18    43       P1  8028  0.62

> <Gold.PLP.Chemscore.Internal.Correction>
0.2695

> <Gold.Rescore>
     Score         DG    S(hbond)    S(metal)    S(lipo)     H(rot)  DE(clash)    DE(int)     intcor
     10.03     -15.07       2.16        0.00      82.30       2.84       2.97       2.07       ----

> <Gold.Chemscore.Fitness>
10.0349

> <Gold.Chemscore.DG>
-15.0747

> <Gold.Chemscore.ZeroCoef>
-5.4800

> <Gold.Chemscore.Hbond>
2.1632

> <Gold.Chemscore.Metal>
0.0000

> <Gold.Chemscore.Lipo>
82.3012

> <Gold.Chemscore.Internal_Hbond>
0.0000

> <Gold.Chemscore.DEClash>
2.9673

> <Gold.Chemscore.DEInternal>
2.0725

> <Gold.Chemscore.Rot>
2.8358

> <Gold.Chemscore.Internal.Correction>
   9.000000E+99

> <Gold.Chemscore.Hbonds>
donor molecule, donor type, donor heavy atom, donor atom, acceptor molecule, acceptor atom, score
      L1  H    22    46       P1  7957  0.25
      P1  H  7989  7998       L1    14  0.07
      P1  H  7997  8008       L1    12  0.13

> <Gold.Chemscore.Hbond.Weighted>
-7.2250

> <Gold.Chemscore.Metal.Weighted>
-0.0000

> <Gold.Chemscore.Lipo.Weighted>
-9.6292

> <Gold.Chemscore.Internal_Hbond.Weighted>
0.0000

> <Gold.Chemscore.DEClash.Weighted>
2.9673

> <Gold.Chemscore.DEInternal.Weighted>
2.0725

> <Gold.Chemscore.Rot.Weighted>
7.2596

> <Gold.Chemscore.Internal.Correction.Weighted>
   9.000000E+99

> <Gold.Protein.RotatedTorsions>
[ 6907 6896 6895 6894 ] final  -72.89 input  -60.11 | X-H torsion
[ 7974 7965 7964 7962 ] final   50.85 input  175.53 | X-H torsion
[ 8008 7997 7996 7995 ] final  -65.30 input   59.86 | X-H torsion
[ 10167 10162 10161 10158 ] final -123.15 input  -65.29 | X-H torsion
[ 10718 10713 10712 10709 ] final -129.67 input   66.30 | X-H torsion
[ 10763 10752 10751 10750 ] final   51.41 input  -60.55 | X-H torsion
[ 11005 11000 10999 10996 ] final   21.10 input  -57.11 | X-H torsion

> <Gold.Protein.ActiveResidues>
 VAL166  LYS551  ARG553  GLY616  TRP617  ASP618  TYR619  PRO620  LYS621  CYS622 
 ASP623  PHE694  ASN695  SER759  ASP760  ASP761  ALA762  ILE779  LEU786  VAL792 
 PHE793  MET794  SER795  GLU796  ALA797  LYS798  CYS799  TRP800  GLU811  SER814 

> <Gold.Protein.RotatedAtoms>
  150.7151  134.5096  159.5600 H   0  0  0  0  0  0  0  0  0  0  0  0  # atno 6907 bound_to 6896
  152.2676  134.7965  160.0429 H   0  0  0  0  0  0  0  0  0  0  0  0  # atno 6908 bound_to 6896
  151.8656  133.3430  159.3755 H   0  0  0  0  0  0  0  0  0  0  0  0  # atno 6909 bound_to 6896
  145.9971  139.4400  143.0038 H   0  0  0  0  0  0  0  0  0  0  0  0  # atno 7974 bound_to 7965
  154.4663  140.0936  156.7029 H   0  0  0  0  0  0  0  0  0  0  0  0  # atno 8008 bound_to 7997
  155.4848  140.3469  155.4327 H   0  0  0  0  0  0  0  0  0  0  0  0  # atno 8009 bound_to 7997
  156.0962  140.1410  156.9516 H   0  0  0  0  0  0  0  0  0  0  0  0  # atno 8010 bound_to 7997
  140.0066  143.5485  152.2281 H   0  0  0  0  0  0  0  0  0  0  0  0  # atno 10167 bound_to 10162
  156.2069  130.6894  151.0605 H   0  0  0  0  0  0  0  0  0  0  0  0  # atno 10718 bound_to 10713
  152.9785  135.5846  154.4411 H   0  0  0  0  0  0  0  0  0  0  0  0  # atno 10763 bound_to 10752
  154.4012  135.2769  155.2097 H   0  0  0  0  0  0  0  0  0  0  0  0  # atno 10764 bound_to 10752
  154.3927  135.6121  153.5906 H   0  0  0  0  0  0  0  0  0  0  0  0  # atno 10765 bound_to 10752
  140.3953  134.1776  155.7663 H   0  0  0  0  0  0  0  0  0  0  0  0  # atno 11005 bound_to 11000
  145.7543  140.9960  143.1233 LP  0  0  0  0  0  0  0  0  0  0  0  0  # atno 17320 bound_to 7965
  144.6907  139.9253  143.7469 LP  0  0  0  0  0  0  0  0  0  0  0  0  # atno 17321 bound_to 7965
  139.6234  144.7633  151.2691 LP  0  0  0  0  0  0  0  0  0  0  0  0  # atno 17342 bound_to 10162
  140.7398  143.6607  150.8166 LP  0  0  0  0  0  0  0  0  0  0  0  0  # atno 17343 bound_to 10162
  157.7017  131.0773  150.6798 LP  0  0  0  0  0  0  0  0  0  0  0  0  # atno 17370 bound_to 10713
  156.6856  130.4580  149.5615 LP  0  0  0  0  0  0  0  0  0  0  0  0  # atno 17371 bound_to 10713
  141.1876  133.8277  157.1025 LP  0  0  0  0  0  0  0  0  0  0  0  0  # atno 17394 bound_to 11000
  140.0376  134.9870  157.0901 LP  0  0  0  0  0  0  0  0  0  0  0  0  # atno 17395 bound_to 11000

$$$$
