#       Name:                AV-unprocessed.smi:910
#       Creating user name   scv26
#       Creation time:       Fri Mar 27 02:02:45 2020


#       File generated by GOLD software.
#

@<TRIPOS>MOLECULE
AV-unprocessed.smi:910
    53    54     1
SMALL
NO_CHARGES


@<TRIPOS>ATOM
      1 ****        -2.4157   3.0301   0.5777 C.3            1 S1                 0.0000
      2 ****        -2.5874   1.6403   1.1496 C.2            1 S1                 0.0000
      3 ****        -1.5208   0.8255   1.4081 N.pl3          1 S1                 0.0000
      4 ****        -2.0037  -0.3728   1.9291 C.2            1 S1                 0.0000
      5 ****        -1.4138  -1.4596   2.3229 N.2            1 S1                 0.0000
      6 ****        -0.0317  -1.5100   2.2580 C.2            1 S1                 0.0000
      7 ****         0.7606  -0.5983   2.5166 O.2            1 S1                 0.0000
      8 ****         0.3784  -2.6975   1.7861 N.am           1 S1                 0.0000
      9 ****         1.7595  -3.0478   1.4687 C.3            1 S1                 0.0000
     10 ****         2.0830  -2.7356   0.0010 C.3            1 S1                 0.0000
     11 ****         1.9900  -1.3330  -0.1996 O.3            1 S1                 0.0000
     12 ****         2.2167  -0.8848  -1.5305 C.3            1 S1                 0.0000
     13 ****         0.9865  -1.1537  -2.4260 C.3            1 S1                 0.0000
     14 ****        -0.2446  -0.3666  -1.9489 C.3            1 S1                 0.0000
     15 ****         0.0561   1.1378  -1.8808 C.3            1 S1                 0.0000
     16 ****         1.2824   1.4236  -0.9990 C.3            1 S1                 0.0000
     17 ****         2.5182   0.6302  -1.4726 C.3            1 S1                 0.0000
     18 ****         3.7566   0.9411  -0.6177 C.3            1 S1                 0.0000
     19 ****        -3.3696  -0.2498   1.9707 O.3            1 S1                 0.0000
     20 ****        -3.6931   0.9839   1.4913 C.2            1 S1                 0.0000
     21 ****        -5.1501   1.3827   1.4304 C.3            1 S1                 0.0000
     22 ****        -2.8447   3.7713   1.2520 H              1 S1                 0.0000
     23 ****        -2.9203   3.1061  -0.3857 H              1 S1                 0.0000
     24 ****        -1.3609   3.2663   0.4337 H              1 S1                 0.0000
     25 ****        -0.5609   1.0893   1.2374 H              1 S1                 0.0000
     26 ****        -0.3256  -3.3931   1.5854 H              1 S1                 0.0000
     27 ****         2.4591  -2.5382   2.1332 H              1 S1                 0.0000
     28 ****         1.8847  -4.1153   1.6504 H              1 S1                 0.0000
     29 ****         3.0923  -3.0738  -0.2369 H              1 S1                 0.0000
     30 ****         1.3955  -3.2786  -0.6467 H              1 S1                 0.0000
     31 ****         3.0868  -1.3997  -1.9418 H              1 S1                 0.0000
     32 ****         1.2212  -0.8604  -3.4500 H              1 S1                 0.0000
     33 ****         0.7540  -2.2166  -2.4728 H              1 S1                 0.0000
     34 ****        -1.0848  -0.5470  -2.6199 H              1 S1                 0.0000
     35 ****        -0.5526  -0.7265  -0.9665 H              1 S1                 0.0000
     36 ****         0.2339   1.5194  -2.8868 H              1 S1                 0.0000
     37 ****        -0.8129   1.6728  -1.4988 H              1 S1                 0.0000
     38 ****         1.4976   2.4925  -1.0116 H              1 S1                 0.0000
     39 ****         1.0542   1.1698   0.0368 H              1 S1                 0.0000
     40 ****         2.7458   0.9566  -2.4886 H              1 S1                 0.0000
     41 ****         3.6004   0.6680   0.4264 H              1 S1                 0.0000
     42 ****         3.9968   2.0041  -0.6487 H              1 S1                 0.0000
     43 ****         4.6292   0.3956  -0.9778 H              1 S1                 0.0000
     44 ****        -5.2961   2.3562   1.8986 H              1 S1                 0.0000
     45 ****        -5.7690   0.6523   1.9516 H              1 S1                 0.0000
     46 ****        -5.4822   1.4423   0.3939 H              1 S1                 0.0000
     47 ****        -1.9419  -2.2376   2.6631 LP             1 S1                 0.0000
     48 ****         0.4176   0.2942   2.8094 LP             1 S1                 0.0000
     49 ****         1.7451  -0.7527   2.4331 LP             1 S1                 0.0000
     50 ****         2.6649  -0.8924   0.3923 LP             1 S1                 0.0000
     51 ****         1.0713  -1.0442   0.0697 LP             1 S1                 0.0000
     52 ****        -3.6907  -0.3432   2.9131 LP             1 S1                 0.0000
     53 ****        -3.7919  -0.9565   1.4030 LP             1 S1                 0.0000
@<TRIPOS>BOND
    1    1   22 1     
    2    1   23 1     
    3    1   24 1     
    4    1    2 1     
    5    2    3 1     
    6    2   20 2     
    7    3   25 1     
    8    3    4 1     
    9    4   19 1     
   10    4    5 2     
   11    5    6 1     
   12    6    8 am    
   13    6    7 2     
   14    8    9 1     
   15    8   26 1     
   16    9   10 1     
   17    9   27 1     
   18    9   28 1     
   19   10   11 1     
   20   10   29 1     
   21   10   30 1     
   22   11   12 1     
   23   12   17 1     
   24   12   13 1     
   25   12   31 1     
   26   13   14 1     
   27   13   32 1     
   28   13   33 1     
   29   14   15 1     
   30   14   34 1     
   31   14   35 1     
   32   15   16 1     
   33   15   36 1     
   34   15   37 1     
   35   16   17 1     
   36   16   38 1     
   37   16   39 1     
   38   17   18 1     
   39   17   40 1     
   40   18   41 1     
   41   18   42 1     
   42   18   43 1     
   43   19   20 1     
   44   20   21 1     
   45   21   44 1     
   46   21   45 1     
   47   21   46 1     
   48    5   47 1     
   49    7   48 1     
   50    7   49 1     
   51   11   50 1     
   52   11   51 1     
   53   19   52 1     
   54   19   53 1     
@<TRIPOS>SUBSTRUCTURE
      1 S1             1
@<TRIPOS>SET
LONE_PAIRS      STATIC     ATOMS    <user>   **** ""
7 47 48 49 50 51 52 53
DONOR_HYDROGENS      STATIC     ATOMS    <user>   **** ""
2 25 26
ATOM$BLUE        STATIC     ATOMS    COLORGROUP SYSTEM
7 47 48 49 50 51 52 53
ATOM$RED        STATIC     ATOMS    COLORGROUP SYSTEM
2 25 26
