AV-unprocessed.smi:2709|AV-procd|sdf|10460|dock4
  -GOLD-   2272014503D 1   1.00000     0.00000
 Structure written by MMmdl.
 40 42  0  0  0  0  0  0  0  0  1 V2000
  146.1657  131.2587  152.0237 C   0  0  0  0  0  0  0  0  0  0  0  0
  146.4893  132.1495  153.0786 O   0  0  0  0  0  0  0  0  0  0  0  0
  147.8858  132.3484  153.2503 C   0  0  2  0  0  0  0  0  0  0  0  0
  148.6259  131.0252  153.4904 C   0  0  0  0  0  0  0  0  0  0  0  0
  149.7849  131.3969  154.4080 C   0  0  0  0  0  0  0  0  0  0  0  0
  149.1858  132.4436  155.3455 C   0  0  0  0  0  0  0  0  0  0  0  0
  148.1467  133.2102  154.5080 C   0  0  1  0  0  0  0  0  0  0  0  0
  148.6576  134.5338  154.1605 N   0  0  0  0  0  0  0  0  0  0  0  0
  148.9859  135.4856  155.0450 C   0  0  0  0  0  0  0  0  0  0  0  0
  148.8818  135.3432  156.2623 O   0  0  0  0  0  0  0  0  0  0  0  0
  149.4225  136.5932  154.4215 N   0  0  0  0  0  0  0  0  0  0  0  0
  149.8771  137.8172  154.9837 C   0  0  0  0  0  0  0  0  0  0  0  0
  150.0773  138.9202  154.1273 C   0  0  0  0  0  0  0  0  0  0  0  0
  150.5165  140.1128  154.5827 N   0  0  0  0  0  0  0  0  0  0  0  0
  150.7686  140.2019  155.8910 C   0  0  0  0  0  0  0  0  0  0  0  0
  151.2194  141.5358  156.4000 C   0  0  0  0  0  0  0  0  0  0  0  0
  151.7024  141.6981  157.8269 C   0  0  0  0  0  0  0  0  0  0  0  0
  150.3898  142.3012  157.4110 C   0  0  0  0  0  0  0  0  0  0  0  0
  150.6106  139.2354  156.7990 N   0  0  0  0  0  0  0  0  0  0  0  0
  150.1720  138.0384  156.3523 C   0  0  0  0  0  0  0  0  0  0  0  0
  145.0827  131.1630  151.9485 H   0  0  0  0  0  0  0  0  0  0  0  0
  146.5773  130.2637  152.1959 H   0  0  0  0  0  0  0  0  0  0  0  0
  146.5354  131.6305  151.0674 H   0  0  0  0  0  0  0  0  0  0  0  0
  148.3088  132.8410  152.3720 H   0  0  0  0  0  0  0  0  0  0  0  0
  147.9713  130.3214  154.0067 H   0  0  0  0  0  0  0  0  0  0  0  0
  148.9569  130.5538  152.5647 H   0  0  0  0  0  0  0  0  0  0  0  0
  150.1915  130.5376  154.9422 H   0  0  0  0  0  0  0  0  0  0  0  0
  150.5911  131.8419  153.8231 H   0  0  0  0  0  0  0  0  0  0  0  0
  148.6786  131.9363  156.1672 H   0  0  0  0  0  0  0  0  0  0  0  0
  149.9481  133.0858  155.7887 H   0  0  0  0  0  0  0  0  0  0  0  0
  147.2353  133.3235  155.0988 H   0  0  0  0  0  0  0  0  0  0  0  0
  148.7686  134.7354  153.1778 H   0  0  0  0  0  0  0  0  0  0  0  0
  149.4118  136.5629  153.4126 H   0  0  0  0  0  0  0  0  0  0  0  0
  149.8822  138.8483  153.0673 H   0  0  0  0  0  0  0  0  0  0  0  0
  151.7266  142.1051  155.6233 H   0  0  0  0  0  0  0  0  0  0  0  0
  151.6679  140.8266  158.4779 H   0  0  0  0  0  0  0  0  0  0  0  0
  152.5355  142.3761  157.9995 H   0  0  0  0  0  0  0  0  0  0  0  0
  150.3443  143.3832  157.3055 H   0  0  0  0  0  0  0  0  0  0  0  0
  149.4824  141.8307  157.7847 H   0  0  0  0  0  0  0  0  0  0  0  0
  150.0755  137.2756  157.1078 H   0  0  0  0  0  0  0  0  0  0  0  0
  1  2  1  0  0  0  0
  1 21  1  0  0  0  0
  1 22  1  0  0  0  0
  1 23  1  0  0  0  0
  2  3  1  0  0  0  0
  3  7  1  0  0  0  0
  3  4  1  0  0  0  0
  3 24  1  0  0  0  0
  4  5  1  0  0  0  0
  4 25  1  0  0  0  0
  4 26  1  0  0  0  0
  5  6  1  0  0  0  0
  5 27  1  0  0  0  0
  5 28  1  0  0  0  0
  6  7  1  0  0  0  0
  6 29  1  0  0  0  0
  6 30  1  0  0  0  0
  7  8  1  0  0  0  0
  7 31  1  0  0  0  0
  8  9  1  0  0  0  0
  8 32  1  0  0  0  0
  9 10  2  0  0  0  0
  9 11  1  0  0  0  0
 11 12  1  0  0  0  0
 11 33  1  0  0  0  0
 12 20  1  0  0  0  0
 12 13  2  0  0  0  0
 13 14  1  0  0  0  0
 13 34  1  0  0  0  0
 14 15  2  0  0  0  0
 15 16  1  0  0  0  0
 15 19  1  0  0  0  0
 16 18  1  0  0  0  0
 16 17  1  0  0  0  0
 16 35  1  0  0  0  0
 17 18  1  0  0  0  0
 17 36  1  0  0  0  0
 17 37  1  0  0  0  0
 18 38  1  0  0  0  0
 18 39  1  0  0  0  0
 19 20  2  0  0  0  0
 20 40  1  0  0  0  0
M  END
> <s_m_source_file>
AV-unprocessed.smi

> <i_m_source_file_index>
2709

> <i_lp_mmshare_version>
43012

> <i_f3d_flags>
0

> <s_epik_input>
W0NIM11PW0NAQEhdMVtDSDJdW0NIMl1bQ0gyXVtDQEhdMVtOSF1DKD1PKVtOSF1jMltjSF1uYyhuW2NIXTIpW0NIXTNbQ0gyXVtDSDJdMw==

> <s_epik_cmdline>
J2VwaWtfcHl0aG9uJywgJy1waCcsICc3LjAnLCAnLXRuJywgJzgnLCAnLW1hJywgJzIwMCcsICctbWV0YWxfYmluZGluZycsICctaW1hZScsICc8aW5maWxlLm1hZT4nLCAnLW9tYWUnLCAnPG91dGZpbGUubWFlPic=

> <r_lp_tautomer_probability>
1

> <r_epik_Ionization_Penalty>
2.49969e-05

> <r_epik_Ionization_Penalty_Charging>
0

> <r_epik_Ionization_Penalty_Neutral>
2.49969e-05

> <r_epik_State_Penalty>
-0

> <r_epik_Charging_Adjusted_Penalty>
0

> <i_epik_Tot_Q>
0

> <i_epik_Tot_abs_Q>
0

> <r_epik_Metal_State_Penalty>
-0

> <b_epik_Metal_Only>
0

> <s_lp_Force_Field>
OPLS_2005

> <r_lp_Energy>
17.9033

> <b_lp_Chiralities_Consistent>
1

> <s_lp_Variant>
AV-unprocessed.smi:2709-1

> <Gold.Version>
5.8.1

> <Gold.Id.Protein>
6NUR|6NUR_protein|mol2

> <Gold.PLP.Fitness>
40.4084

> <Gold.PLP.PLP>
-28.8471

> <Gold.PLP.part.hbond>
-3.0000

> <Gold.PLP.part.metal>
0.0000

> <Gold.PLP.part.buried>
-3.2084

> <Gold.PLP.part.nonpolar>
-22.6306

> <Gold.PLP.part.repulsive>
0.2536

> <Gold.PLP.ligand.clash>
0.0000

> <Gold.PLP.ligand.torsion>
0.1239

> <Gold.PLP.Chemscore.Hbond>
2.8960

> <Gold.PLP.Chemscore.CHOScore>
1.0000

> <Gold.PLP.Chemscore.Metal>
0.0000

> <Gold.Chemscore.Hbonds>
donor molecule, donor type, donor heavy atom, donor atom, acceptor molecule, acceptor atom, score
      L1  H     8    32       P1  7948  0.90
      L1  H    11    33       P1  7948  1.00
      P1  H  7989  7998       L1    14  1.00
      L1  C    13    34       P1  7957  1.00

> <Gold.PLP.Chemscore.Internal.Correction>
0.1212

> <Gold.Rescore>
     Score         DG    S(hbond)    S(metal)    S(lipo)     H(rot)  DE(clash)    DE(int)     intcor
     16.79     -18.17       2.61        0.00      64.81       1.41       0.15       1.22       ----

> <Gold.Chemscore.Fitness>
16.7940

> <Gold.Chemscore.DG>
-18.1686

> <Gold.Chemscore.ZeroCoef>
-5.4800

> <Gold.Chemscore.Hbond>
2.6106

> <Gold.Chemscore.Metal>
0.0000

> <Gold.Chemscore.Lipo>
64.8080

> <Gold.Chemscore.Internal_Hbond>
0.0000

> <Gold.Chemscore.DEClash>
0.1509

> <Gold.Chemscore.DEInternal>
1.2237

> <Gold.Chemscore.Rot>
1.4114

> <Gold.Chemscore.Internal.Correction>
   9.000000E+99

> <Gold.Chemscore.Hbonds>
donor molecule, donor type, donor heavy atom, donor atom, acceptor molecule, acceptor atom, score
      L1  H     8    32       P1  7948  0.22
      L1  H    11    33       P1  7948  0.81
      P1  H  7989  7998       L1    14  0.82

> <Gold.Chemscore.Hbond.Weighted>
-8.7193

> <Gold.Chemscore.Metal.Weighted>
-0.0000

> <Gold.Chemscore.Lipo.Weighted>
-7.5825

> <Gold.Chemscore.Internal_Hbond.Weighted>
0.0000

> <Gold.Chemscore.DEClash.Weighted>
0.1509

> <Gold.Chemscore.DEInternal.Weighted>
1.2237

> <Gold.Chemscore.Rot.Weighted>
3.6133

> <Gold.Chemscore.Internal.Correction.Weighted>
   9.000000E+99

> <Gold.Protein.RotatedTorsions>
[ 6907 6896 6895 6894 ] final  -86.59 input  -60.11 | X-H torsion
[ 7974 7965 7964 7962 ] final   30.07 input  175.53 | X-H torsion
[ 8008 7997 7996 7995 ] final -168.59 input   59.86 | X-H torsion
[ 10167 10162 10161 10158 ] final   75.28 input  -65.29 | X-H torsion
[ 10718 10713 10712 10709 ] final  112.44 input   66.30 | X-H torsion
[ 10763 10752 10751 10750 ] final    7.09 input  -60.55 | X-H torsion
[ 11005 11000 10999 10996 ] final -125.93 input  -57.11 | X-H torsion

> <Gold.Protein.ActiveResidues>
 VAL166  LYS551  ARG553  GLY616  TRP617  ASP618  TYR619  PRO620  LYS621  CYS622 
 ASP623  PHE694  ASN695  SER759  ASP760  ASP761  ALA762  ILE779  LEU786  VAL792 
 PHE793  MET794  SER795  GLU796  ALA797  LYS798  CYS799  TRP800  GLU811  SER814 

> <Gold.Protein.RotatedAtoms>
  150.6867  134.3028  159.4713 H   0  0  0  0  0  0  0  0  0  0  0  0  # atno 6907 bound_to 6896
  152.0922  134.9397  160.0581 H   0  0  0  0  0  0  0  0  0  0  0  0  # atno 6908 bound_to 6896
  152.0709  133.4071  159.4495 H   0  0  0  0  0  0  0  0  0  0  0  0  # atno 6909 bound_to 6896
  146.1634  139.6837  142.9018 H   0  0  0  0  0  0  0  0  0  0  0  0  # atno 7974 bound_to 7965
  155.8935  140.1029  157.1401 H   0  0  0  0  0  0  0  0  0  0  0  0  # atno 8008 bound_to 7997
  154.4017  140.1306  156.4410 H   0  0  0  0  0  0  0  0  0  0  0  0  # atno 8009 bound_to 7997
  155.7506  140.3465  155.5151 H   0  0  0  0  0  0  0  0  0  0  0  0  # atno 8010 bound_to 7997
  140.0047  144.5660  150.7708 H   0  0  0  0  0  0  0  0  0  0  0  0  # atno 10167 bound_to 10162
  157.6392  131.0967  150.6896 H   0  0  0  0  0  0  0  0  0  0  0  0  # atno 10718 bound_to 10713
  153.2403  135.6902  153.7790 H   0  0  0  0  0  0  0  0  0  0  0  0  # atno 10763 bound_to 10752
  153.6922  135.3311  155.3206 H   0  0  0  0  0  0  0  0  0  0  0  0  # atno 10764 bound_to 10752
  154.8352  135.4548  154.1322 H   0  0  0  0  0  0  0  0  0  0  0  0  # atno 10765 bound_to 10752
  140.9722  134.0789  157.3857 H   0  0  0  0  0  0  0  0  0  0  0  0  # atno 11005 bound_to 11000
  145.4530  141.0429  143.2794 LP  0  0  0  0  0  0  0  0  0  0  0  0  # atno 17320 bound_to 7965
  144.8058  139.6054  143.7051 LP  0  0  0  0  0  0  0  0  0  0  0  0  # atno 17321 bound_to 7965
  140.7405  143.2805  151.3612 LP  0  0  0  0  0  0  0  0  0  0  0  0  # atno 17342 bound_to 10162
  139.6247  144.0838  152.2423 LP  0  0  0  0  0  0  0  0  0  0  0  0  # atno 17343 bound_to 10162
  156.7222  130.4684  149.5520 LP  0  0  0  0  0  0  0  0  0  0  0  0  # atno 17370 bound_to 10713
  156.1658  130.6404  151.0776 LP  0  0  0  0  0  0  0  0  0  0  0  0  # atno 17371 bound_to 10713
  139.8917  135.0120  156.6804 LP  0  0  0  0  0  0  0  0  0  0  0  0  # atno 17394 bound_to 11000
  140.7311  133.9058  155.8212 LP  0  0  0  0  0  0  0  0  0  0  0  0  # atno 17395 bound_to 11000

$$$$
