#       Name:                AV-unprocessed.smi:1555
#       Creating user name   scv26
#       Creation time:       Fri Mar 27 06:45:15 2020


#       File generated by GOLD software.
#

@<TRIPOS>MOLECULE
AV-unprocessed.smi:1555
    46    47     1
SMALL
NO_CHARGES


@<TRIPOS>ATOM
      1 ****        -2.9573  -0.6739   1.4599 C.3            1 S1                 0.0000
      2 ****        -2.1872   0.1177   0.3905 C.3            1 S1                 0.0000
      3 ****        -2.1741  -0.5811  -0.9866 C.3            1 S1                 0.0000
      4 ****        -3.5191  -0.8093  -1.5224 N.pl3          1 S1                 0.0000
      5 ****        -4.3781   0.1314  -2.0302 C.2            1 S1                 0.0000
      6 ****        -5.5096  -0.5406  -2.4154 C.2            1 S1                 0.0000
      7 ****        -5.2917  -1.8621  -2.1304 N.pl3          1 S1                 1.0000
      8 ****        -4.0793  -2.0240  -1.5906 C.2            1 S1                 0.0000
      9 ****        -0.8216   0.3448   0.8537 N.am           1 S1                 0.0000
     10 ****        -0.0100   1.3340   0.4408 C.2            1 S1                 0.0000
     11 ****        -0.3701   2.1678  -0.3917 O.2            1 S1                 0.0000
     12 ****         1.2181   1.3407   1.0184 N.am           1 S1                 0.0000
     13 ****         1.7734   0.3021   1.9027 C.3            1 S1                 0.0000
     14 ****         2.8365  -0.4943   1.1248 C.3            1 S1                 0.0000
     15 ****         3.9482   0.4346   0.5825 C.3            1 S1                 0.0000
     16 ****         4.9653  -0.3195  -0.2932 C.3            1 S1                 0.0000
     17 ****         5.6804  -1.2668   0.4723 O.3            1 S1                 0.0000
     18 ****         3.3318   1.6282  -0.1803 C.3            1 S1                 0.0000
     19 ****         2.2428   2.3270   0.6545 C.3            1 S1                 0.0000
     20 ****        -4.0087  -0.7870   1.1948 H              1 S1                 0.0000
     21 ****        -2.9213  -0.1669   2.4248 H              1 S1                 0.0000
     22 ****        -2.5376  -1.6716   1.5931 H              1 S1                 0.0000
     23 ****        -2.6787   1.0871   0.2868 H              1 S1                 0.0000
     24 ****        -1.6344   0.0182  -1.7211 H              1 S1                 0.0000
     25 ****        -1.6589  -1.5413  -0.9246 H              1 S1                 0.0000
     26 ****        -4.1266   1.1814  -2.0767 H              1 S1                 0.0000
     27 ****        -6.4284  -0.1868  -2.8602 H              1 S1                 0.0000
     28 ****        -3.6417  -2.9527  -1.2701 H              1 S1                 0.0000
     29 ****        -0.4613  -0.2992   1.5429 H              1 S1                 0.0000
     30 ****         2.2301   0.7795   2.7709 H              1 S1                 0.0000
     31 ****         1.0272  -0.3791   2.3111 H              1 S1                 0.0000
     32 ****         3.2666  -1.2580   1.7735 H              1 S1                 0.0000
     33 ****         2.3595  -1.0238   0.2988 H              1 S1                 0.0000
     34 ****         4.4843   0.8454   1.4397 H              1 S1                 0.0000
     35 ****         4.4677  -0.8240  -1.1220 H              1 S1                 0.0000
     36 ****         5.6836   0.3778  -0.7256 H              1 S1                 0.0000
     37 ****         6.3070  -1.6968  -0.0897 H              1 S1                 0.0000
     38 ****         4.1102   2.3451  -0.4435 H              1 S1                 0.0000
     39 ****         2.8993   1.2832  -1.1206 H              1 S1                 0.0000
     40 ****         1.8364   3.1739   0.0997 H              1 S1                 0.0000
     41 ****         2.6772   2.7507   1.5612 H              1 S1                 0.0000
     42 ****        -5.9505  -2.6109  -2.3042 H              1 S1                 0.0000
     43 ****        -1.2900   2.1207  -0.7809 LP             1 S1                 0.0000
     44 ****         0.2576   2.8916  -0.6781 LP             1 S1                 0.0000
     45 ****         5.0471  -1.9424   0.8498 LP             1 S1                 0.0000
     46 ****         6.1589  -0.8047   1.2190 LP             1 S1                 0.0000
@<TRIPOS>BOND
    1    1    2 1     
    2    1   20 1     
    3    1   21 1     
    4    1   22 1     
    5    2    3 1     
    6    2    9 1     
    7    2   23 1     
    8    3    4 1     
    9    3   24 1     
   10    3   25 1     
   11    4    8 1     
   12    4    5 1     
   13    5    6 2     
   14    5   26 1     
   15    6    7 1     
   16    6   27 1     
   17    7    8 2     
   18    7   42 1     
   19    8   28 1     
   20    9   10 am    
   21    9   29 1     
   22   10   11 2     
   23   10   12 am    
   24   12   19 1     
   25   12   13 1     
   26   13   14 1     
   27   13   30 1     
   28   13   31 1     
   29   14   15 1     
   30   14   32 1     
   31   14   33 1     
   32   15   16 1     
   33   15   18 1     
   34   15   34 1     
   35   16   17 1     
   36   16   35 1     
   37   16   36 1     
   38   17   37 1     
   39   18   19 1     
   40   18   38 1     
   41   18   39 1     
   42   19   40 1     
   43   19   41 1     
   44   11   43 1     
   45   11   44 1     
   46   17   45 1     
   47   17   46 1     
@<TRIPOS>SUBSTRUCTURE
      1 S1             1
@<TRIPOS>SET
LONE_PAIRS      STATIC     ATOMS    <user>   **** ""
4 43 44 45 46
DONOR_HYDROGENS      STATIC     ATOMS    <user>   **** ""
3 42 29 37
ATOM$BLUE        STATIC     ATOMS    COLORGROUP SYSTEM
4 43 44 45 46
ATOM$RED        STATIC     ATOMS    COLORGROUP SYSTEM
3 42 29 37
