AV-unprocessed.smi:1452|AV-procd|sdf|5904|dock9
  -GOLD-   22720 5593D 1   1.00000     0.00000
 Structure written by MMmdl.
 40 42  0  0  0  0  0  0  0  0  2 V2000
  146.9075  139.1313  154.6470 O   0  0  0  0  0  0  0  0  0  0  0  0
  147.6811  139.1813  153.6925 C   0  0  0  0  0  0  0  0  0  0  0  0
  148.8889  139.7738  153.8011 N   0  0  0  0  0  0  0  0  0  0  0  0
  149.5190  140.4215  154.9042 C   0  0  0  0  0  0  0  0  0  0  0  0
  148.6254  140.9827  155.8441 C   0  0  0  0  0  0  0  0  0  0  0  0
  149.1333  141.6340  156.9849 C   0  0  0  0  0  0  0  0  0  0  0  0
  150.5265  141.7044  157.1608 C   0  0  0  0  0  0  0  0  0  0  0  0
  151.3480  141.1160  156.1827 C   0  0  0  0  0  0  0  0  0  0  0  0
  150.8628  140.4919  155.0883 N   0  0  0  0  0  0  0  0  0  0  0  0
  147.3879  138.6571  152.4908 N   0  0  0  0  0  0  0  0  0  0  0  0
  146.1716  137.9240  152.1493 C   0  0  1  0  0  0  0  0  0  0  0  0
  146.1132  137.5248  150.6616 C   0  0  0  0  0  0  0  0  0  0  0  0
  145.5850  136.0868  150.6639 C   0  0  0  0  0  0  0  0  0  0  0  0
  146.1301  135.5388  151.9114 N   0  3  2  0  0  0  0  0  0  0  0  0
  145.6307  134.2328  152.3863 C   0  0  0  0  0  0  0  0  0  0  0  0
  146.4802  133.7968  153.5994 C   0  0  0  0  0  0  0  0  0  0  0  0
  146.5468  134.8895  154.6904 C   0  0  0  0  0  0  0  0  0  0  0  0
  146.9504  136.2600  154.1053 C   0  0  0  0  0  0  0  0  0  0  0  0
  146.0160  136.5974  152.9290 C   0  0  1  0  0  0  0  0  0  0  0  0
  149.4032  139.8365  152.9344 H   0  0  0  0  0  0  0  0  0  0  0  0
  147.5569  140.9177  155.6965 H   0  0  0  0  0  0  0  0  0  0  0  0
  148.4646  142.0704  157.7120 H   0  0  0  0  0  0  0  0  0  0  0  0
  150.9540  142.1945  158.0230 H   0  0  0  0  0  0  0  0  0  0  0  0
  152.4231  141.1455  156.2812 H   0  0  0  0  0  0  0  0  0  0  0  0
  148.0840  138.7484  151.7639 H   0  0  0  0  0  0  0  0  0  0  0  0
  145.3034  138.5509  152.3621 H   0  0  0  0  0  0  0  0  0  0  0  0
  145.4891  138.1961  150.0708 H   0  0  0  0  0  0  0  0  0  0  0  0
  147.1135  137.5387  150.2254 H   0  0  0  0  0  0  0  0  0  0  0  0
  144.4945  136.0779  150.7024 H   0  0  0  0  0  0  0  0  0  0  0  0
  145.9071  135.5170  149.7919 H   0  0  0  0  0  0  0  0  0  0  0  0
  144.5760  134.3078  152.6552 H   0  0  0  0  0  0  0  0  0  0  0  0
  145.7100  133.4950  151.5871 H   0  0  0  0  0  0  0  0  0  0  0  0
  146.0846  132.8718  154.0200 H   0  0  0  0  0  0  0  0  0  0  0  0
  147.4928  133.5704  153.2629 H   0  0  0  0  0  0  0  0  0  0  0  0
  145.5708  134.9765  155.1694 H   0  0  0  0  0  0  0  0  0  0  0  0
  147.2470  134.5957  155.4729 H   0  0  0  0  0  0  0  0  0  0  0  0
  146.8843  137.0257  154.8787 H   0  0  0  0  0  0  0  0  0  0  0  0
  147.9888  136.2320  153.7716 H   0  0  0  0  0  0  0  0  0  0  0  0
  144.9900  136.5823  153.3034 H   0  0  0  0  0  0  0  0  0  0  0  0
  147.1188  135.4217  151.7420 H   0  0  0  0  0  0  0  0  0  0  0  0
  1  2  2  0  0  0  0
  2  3  1  0  0  0  0
  2 10  1  0  0  0  0
  3  4  1  0  0  0  0
  3 20  1  0  0  0  0
  4  9  1  0  0  0  0
  4  5  2  0  0  0  0
  5  6  1  0  0  0  0
  5 21  1  0  0  0  0
  6  7  2  0  0  0  0
  6 22  1  0  0  0  0
  7  8  1  0  0  0  0
  7 23  1  0  0  0  0
  8  9  2  0  0  0  0
  8 24  1  0  0  0  0
 10 11  1  0  0  0  0
 10 25  1  0  0  0  0
 11 19  1  0  0  0  0
 11 12  1  0  0  0  0
 11 26  1  0  0  0  0
 12 13  1  0  0  0  0
 12 27  1  0  0  0  0
 12 28  1  0  0  0  0
 13 14  1  0  0  0  0
 13 29  1  0  0  0  0
 13 30  1  0  0  0  0
 14 19  1  0  0  0  0
 14 15  1  0  0  0  0
 14 40  1  0  0  0  0
 15 16  1  0  0  0  0
 15 31  1  0  0  0  0
 15 32  1  0  0  0  0
 16 17  1  0  0  0  0
 16 33  1  0  0  0  0
 16 34  1  0  0  0  0
 17 18  1  0  0  0  0
 17 35  1  0  0  0  0
 17 36  1  0  0  0  0
 18 19  1  0  0  0  0
 18 37  1  0  0  0  0
 18 38  1  0  0  0  0
 19 39  1  0  0  0  0
M  CHG  1  14   1
M  END
> <s_m_source_file>
AV-unprocessed.smi

> <i_m_source_file_index>
1452

> <i_lp_mmshare_version>
43012

> <i_f3d_flags>
0

> <s_epik_input>
W0NIMl0xW0NIMl1bQ0gyXVtDSDJdW0NASF0oTjEyKVtDQEBIXShbQ0gyXVtDSDJdMilbTkhdQyg9TylbTkhdYzNbY0hdW2NIXVtjSF1bY0hdbjM=

> <s_epik_cmdline>
J2VwaWtfcHl0aG9uJywgJy1waCcsICc3LjAnLCAnLXRuJywgJzgnLCAnLW1hJywgJzIwMCcsICctbWV0YWxfYmluZGluZycsICctaW1hZScsICc8aW5maWxlLm1hZT4nLCAnLW9tYWUnLCAnPG91dGZpbGUubWFlPic=

> <r_epik_Ionization_Penalty>
0.00100813

> <r_epik_Ionization_Penalty_Charging>
0.000974069

> <r_epik_Ionization_Penalty_Neutral>
3.40643e-05

> <r_epik_State_Penalty>
0.000633842

> <r_epik_Charging_Adjusted_Penalty>
0.00160791

> <i_epik_Tot_Q>
1

> <i_epik_Tot_abs_Q>
1

> <r_epik_Metal_State_Penalty>
-0

> <b_epik_Metal_Only>
0

> <s_lp_Force_Field>
OPLS_2005

> <r_lp_Energy>
45.5748

> <b_lp_Chiralities_Consistent>
1

> <s_lp_Variant>
AV-unprocessed.smi:1452-2

> <Gold.Version>
5.8.1

> <Gold.Id.Protein>
6NUR|6NUR_protein|mol2

> <Gold.PLP.Fitness>
39.5083

> <Gold.PLP.PLP>
-25.5538

> <Gold.PLP.part.hbond>
-5.0000

> <Gold.PLP.part.metal>
0.0000

> <Gold.PLP.part.buried>
4.3820

> <Gold.PLP.part.nonpolar>
-24.2112

> <Gold.PLP.part.repulsive>
0.3717

> <Gold.PLP.ligand.clash>
0.0000

> <Gold.PLP.ligand.torsion>
0.1751

> <Gold.PLP.Chemscore.Hbond>
4.7680

> <Gold.PLP.Chemscore.CHOScore>
0.0000

> <Gold.PLP.Chemscore.Metal>
0.0000

> <Gold.Chemscore.Hbonds>
donor molecule, donor type, donor heavy atom, donor atom, acceptor molecule, acceptor atom, score
      L1  H     3    20       P1  7957  1.00
      L1  H    10    25       P1  7957  0.80
      L1  H    14    40       P1  7948  1.92
      P1  H  7989  7998       L1     9  1.00

> <Gold.PLP.Chemscore.Internal.Correction>
0.0005

> <Gold.Rescore>
     Score         DG    S(hbond)    S(metal)    S(lipo)     H(rot)  DE(clash)    DE(int)     intcor
     17.25     -21.07       3.31        0.00      60.54       1.00       2.18       1.64       ----

> <Gold.Chemscore.Fitness>
17.2537

> <Gold.Chemscore.DG>
-21.0721

> <Gold.Chemscore.ZeroCoef>
-5.4800

> <Gold.Chemscore.Hbond>
3.3142

> <Gold.Chemscore.Metal>
0.0000

> <Gold.Chemscore.Lipo>
60.5354

> <Gold.Chemscore.Internal_Hbond>
0.0000

> <Gold.Chemscore.DEClash>
2.1802

> <Gold.Chemscore.DEInternal>
1.6383

> <Gold.Chemscore.Rot>
1.0000

> <Gold.Chemscore.Internal.Correction>
   9.000000E+99

> <Gold.Chemscore.Hbonds>
donor molecule, donor type, donor heavy atom, donor atom, acceptor molecule, acceptor atom, score
      L1  H     3    20       P1  7957  0.99
      L1  H    10    25       P1  7957  0.61
      L1  H    14    40       P1  7948  0.90
      P1  H  7989  7998       L1     9  0.59

> <Gold.Chemscore.Hbond.Weighted>
-11.0695

> <Gold.Chemscore.Metal.Weighted>
-0.0000

> <Gold.Chemscore.Lipo.Weighted>
-7.0826

> <Gold.Chemscore.Internal_Hbond.Weighted>
0.0000

> <Gold.Chemscore.DEClash.Weighted>
2.1802

> <Gold.Chemscore.DEInternal.Weighted>
1.6383

> <Gold.Chemscore.Rot.Weighted>
2.5600

> <Gold.Chemscore.Internal.Correction.Weighted>
   9.000000E+99

> <Gold.Protein.RotatedTorsions>
[ 6907 6896 6895 6894 ] final  -54.69 input  -60.11 | X-H torsion
[ 7974 7965 7964 7962 ] final  -74.97 input  175.53 | X-H torsion
[ 8008 7997 7996 7995 ] final  -95.04 input   59.86 | X-H torsion
[ 10167 10162 10161 10158 ] final  -97.90 input  -65.29 | X-H torsion
[ 10718 10713 10712 10709 ] final -147.10 input   66.30 | X-H torsion
[ 10763 10752 10751 10750 ] final  -38.09 input  -60.55 | X-H torsion
[ 11005 11000 10999 10996 ] final  106.33 input  -57.11 | X-H torsion

> <Gold.Protein.ActiveResidues>
 VAL166  LYS551  ARG553  GLY616  TRP617  ASP618  TYR619  PRO620  LYS621  CYS622 
 ASP623  PHE694  ASN695  SER759  ASP760  ASP761  ALA762  ILE779  LEU786  VAL792 
 PHE793  MET794  SER795  GLU796  ALA797  LYS798  CYS799  TRP800  GLU811  SER814 

> <Gold.Protein.RotatedAtoms>
  150.8316  134.7572  159.6858 H   0  0  0  0  0  0  0  0  0  0  0  0  # atno 6907 bound_to 6896
  152.4420  134.5569  159.9893 H   0  0  0  0  0  0  0  0  0  0  0  0  # atno 6908 bound_to 6896
  151.5728  133.3350  159.3029 H   0  0  0  0  0  0  0  0  0  0  0  0  # atno 6909 bound_to 6896
  145.6322  140.9334  143.1081 H   0  0  0  0  0  0  0  0  0  0  0  0  # atno 7974 bound_to 7965
  154.7562  140.0483  157.0935 H   0  0  0  0  0  0  0  0  0  0  0  0  # atno 8008 bound_to 7997
  154.9994  140.3123  155.4854 H   0  0  0  0  0  0  0  0  0  0  0  0  # atno 8009 bound_to 7997
  156.2895  140.2204  156.5103 H   0  0  0  0  0  0  0  0  0  0  0  0  # atno 8010 bound_to 7997
  140.2786  143.3297  152.0464 H   0  0  0  0  0  0  0  0  0  0  0  0  # atno 10167 bound_to 10162
  156.4032  130.7944  151.2156 H   0  0  0  0  0  0  0  0  0  0  0  0  # atno 10718 bound_to 10713
  153.9070  135.6796  153.4752 H   0  0  0  0  0  0  0  0  0  0  0  0  # atno 10763 bound_to 10752
  153.1099  135.4788  154.9013 H   0  0  0  0  0  0  0  0  0  0  0  0  # atno 10764 bound_to 10752
  154.7546  135.3194  154.8448 H   0  0  0  0  0  0  0  0  0  0  0  0  # atno 10765 bound_to 10752
  139.8813  134.9365  156.5649 H   0  0  0  0  0  0  0  0  0  0  0  0  # atno 11005 bound_to 11000
  144.7189  139.8098  143.7389 LP  0  0  0  0  0  0  0  0  0  0  0  0  # atno 17320 bound_to 7965
  146.1348  139.4391  143.0146 LP  0  0  0  0  0  0  0  0  0  0  0  0  # atno 17321 bound_to 7965
  139.4969  144.6607  151.6470 LP  0  0  0  0  0  0  0  0  0  0  0  0  # atno 17342 bound_to 10162
  140.5831  143.9912  150.6279 LP  0  0  0  0  0  0  0  0  0  0  0  0  # atno 17343 bound_to 10162
  157.7504  131.0280  150.4031 LP  0  0  0  0  0  0  0  0  0  0  0  0  # atno 17370 bound_to 10713
  156.4314  130.3973  149.6757 LP  0  0  0  0  0  0  0  0  0  0  0  0  # atno 17371 bound_to 10713
  140.8141  133.8405  155.8836 LP  0  0  0  0  0  0  0  0  0  0  0  0  # atno 17394 bound_to 11000
  140.9479  134.1817  157.4750 LP  0  0  0  0  0  0  0  0  0  0  0  0  # atno 17395 bound_to 11000

$$$$
