AV-unprocessed.smi:1066|AV-procd|sdf|4669|dock3
  -GOLD-   22720 3183D 1   1.00000     0.00000
 Structure written by MMmdl.
 38 40  0  0  0  0  0  0  0  0  2 V2000
  152.1422  138.7164  159.1498 C   0  0  0  0  0  0  0  0  0  0  0  0
  151.5835  137.6968  158.1990 C   0  0  0  0  0  0  0  0  0  0  0  0
  150.9467  136.6408  158.6878 N   0  0  0  0  0  0  0  0  0  0  0  0
  150.5524  135.8721  157.5866 O   0  0  0  0  0  0  0  0  0  0  0  0
  150.9799  136.5197  156.4791 C   0  0  0  0  0  0  0  0  0  0  0  0
  150.7219  135.9024  154.8953 Cl  0  0  0  0  0  0  0  0  0  0  0  0
  151.6389  137.6785  156.7738 C   0  0  0  0  0  0  0  0  0  0  0  0
  152.2749  138.6807  155.8434 C   0  0  0  0  0  0  0  0  0  0  0  0
  151.4018  139.9325  155.7664 C   0  0  0  0  0  0  0  0  0  0  0  0
  150.8276  140.2208  154.7170 O   0  0  0  0  0  0  0  0  0  0  0  0
  151.2999  140.6616  156.8882 N   0  0  0  0  0  0  0  0  0  0  0  0
  150.4736  141.8542  157.0321 C   0  0  1  0  0  0  0  0  0  0  0  0
  149.3054  141.6965  158.0094 C   0  0  0  0  0  0  0  0  0  0  0  0
  149.0902  143.1055  158.5868 C   0  0  0  0  0  0  0  0  0  0  0  0
  150.2167  143.9421  158.1112 N   0  3  1  0  0  0  0  0  0  0  0  0
  150.6939  144.9342  159.0976 C   0  0  0  0  0  0  0  0  0  0  0  0
  152.1588  145.2711  158.9533 C   0  0  0  0  0  0  0  0  0  0  0  0
  151.6940  144.3761  160.0815 C   0  0  0  0  0  0  0  0  0  0  0  0
  151.2585  143.0153  157.6347 C   0  0  0  0  0  0  0  0  0  0  0  0
  152.6977  139.4928  158.6242 H   0  0  0  0  0  0  0  0  0  0  0  0
  152.8230  138.2541  159.8650 H   0  0  0  0  0  0  0  0  0  0  0  0
  151.3463  139.2034  159.7137 H   0  0  0  0  0  0  0  0  0  0  0  0
  153.2735  138.9636  156.1784 H   0  0  0  0  0  0  0  0  0  0  0  0
  152.4007  138.2674  154.8422 H   0  0  0  0  0  0  0  0  0  0  0  0
  151.8103  140.3518  157.7030 H   0  0  0  0  0  0  0  0  0  0  0  0
  150.0911  142.1573  156.0551 H   0  0  0  0  0  0  0  0  0  0  0  0
  148.4116  141.3033  157.5239 H   0  0  0  0  0  0  0  0  0  0  0  0
  149.5721  141.0103  158.8151 H   0  0  0  0  0  0  0  0  0  0  0  0
  148.1498  143.5403  158.2471 H   0  0  0  0  0  0  0  0  0  0  0  0
  149.0614  143.0626  159.6768 H   0  0  0  0  0  0  0  0  0  0  0  0
  149.9801  145.6966  159.4048 H   0  0  0  0  0  0  0  0  0  0  0  0
  152.7169  144.8078  158.1414 H   0  0  0  0  0  0  0  0  0  0  0  0
  152.4701  146.2806  159.2142 H   0  0  0  0  0  0  0  0  0  0  0  0
  151.6996  144.7970  161.0850 H   0  0  0  0  0  0  0  0  0  0  0  0
  151.9440  143.3182  160.0194 H   0  0  0  0  0  0  0  0  0  0  0  0
  151.8620  142.6736  158.4783 H   0  0  0  0  0  0  0  0  0  0  0  0
  151.9212  143.4938  156.9126 H   0  0  0  0  0  0  0  0  0  0  0  0
  149.8831  144.4432  157.3002 H   0  0  0  0  0  0  0  0  0  0  0  0
  1  2  1  0  0  0  0
  1 20  1  0  0  0  0
  1 21  1  0  0  0  0
  1 22  1  0  0  0  0
  2  7  1  0  0  0  0
  2  3  2  0  0  0  0
  3  4  1  0  0  0  0
  4  5  1  0  0  0  0
  5  6  1  0  0  0  0
  5  7  2  0  0  0  0
  7  8  1  0  0  0  0
  8  9  1  0  0  0  0
  8 23  1  0  0  0  0
  8 24  1  0  0  0  0
  9 10  2  0  0  0  0
  9 11  1  0  0  0  0
 11 12  1  0  0  0  0
 11 25  1  0  0  0  0
 12 19  1  0  0  0  0
 12 13  1  0  0  0  0
 12 26  1  0  0  0  0
 13 14  1  0  0  0  0
 13 27  1  0  0  0  0
 13 28  1  0  0  0  0
 14 15  1  0  0  0  0
 14 29  1  0  0  0  0
 14 30  1  0  0  0  0
 15 16  1  0  0  0  0
 15 19  1  0  0  0  0
 15 38  1  0  0  0  0
 16 18  1  0  0  0  0
 16 17  1  0  0  0  0
 16 31  1  0  0  0  0
 17 18  1  0  0  0  0
 17 32  1  0  0  0  0
 17 33  1  0  0  0  0
 18 34  1  0  0  0  0
 18 35  1  0  0  0  0
 19 36  1  0  0  0  0
 19 37  1  0  0  0  0
M  CHG  1  15   1
M  END
> <s_m_source_file>
AV-unprocessed.smi

> <i_m_source_file_index>
1066

> <i_lp_mmshare_version>
43012

> <i_f3d_flags>
0

> <s_epik_input>
W0NIM11jMW5vYyhDbCljMVtDSDJdQyg9TylbTkhdW0NAQEhdMltDSDJdW0NIMl1OKFtDSDJdMilbQ0hdM1tDSDJdW0NIMl0z

> <s_epik_cmdline>
J2VwaWtfcHl0aG9uJywgJy1waCcsICc3LjAnLCAnLXRuJywgJzgnLCAnLW1hJywgJzIwMCcsICctbWV0YWxfYmluZGluZycsICctaW1hZScsICc8aW5maWxlLm1hZT4nLCAnLW9tYWUnLCAnPG91dGZpbGUubWFlPic=

> <r_epik_Ionization_Penalty>
0.00108138

> <r_epik_Ionization_Penalty_Charging>
0.00108128

> <r_epik_Ionization_Penalty_Neutral>
9.66632e-08

> <r_epik_State_Penalty>
0.000708577

> <r_epik_Charging_Adjusted_Penalty>
0.00178986

> <i_epik_Tot_Q>
1

> <i_epik_Tot_abs_Q>
1

> <r_epik_Metal_State_Penalty>
-0

> <b_epik_Metal_Only>
0

> <s_lp_Force_Field>
OPLS_2005

> <r_lp_Energy>
30.6816

> <b_lp_Chiralities_Consistent>
1

> <s_lp_Variant>
AV-unprocessed.smi:1066-2

> <Gold.Version>
5.8.1

> <Gold.Id.Protein>
6NUR|6NUR_protein|mol2

> <Gold.PLP.Fitness>
46.1556

> <Gold.PLP.PLP>
-35.6926

> <Gold.PLP.part.hbond>
-4.5472

> <Gold.PLP.part.metal>
0.0000

> <Gold.PLP.part.buried>
-6.8615

> <Gold.PLP.part.nonpolar>
-25.4141

> <Gold.PLP.part.repulsive>
0.2134

> <Gold.PLP.ligand.clash>
0.0000

> <Gold.PLP.ligand.torsion>
0.9249

> <Gold.PLP.Chemscore.Hbond>
3.6800

> <Gold.PLP.Chemscore.CHOScore>
0.0000

> <Gold.PLP.Chemscore.Metal>
0.0000

> <Gold.Chemscore.Hbonds>
donor molecule, donor type, donor heavy atom, donor atom, acceptor molecule, acceptor atom, score
      L1  H    15    38       P1  8028  2.00
      P1  H  6896  6908       L1     3  0.73
      P1  H  7989  7998       L1    10  1.00

> <Gold.PLP.Chemscore.Internal.Correction>
1.2727

> <Gold.Rescore>
     Score         DG    S(hbond)    S(metal)    S(lipo)     H(rot)  DE(clash)    DE(int)     intcor
     18.96     -20.32       2.37        0.00      93.44       1.57       0.30       1.06       ----

> <Gold.Chemscore.Fitness>
18.9594

> <Gold.Chemscore.DG>
-20.3226

> <Gold.Chemscore.ZeroCoef>
-5.4800

> <Gold.Chemscore.Hbond>
2.3750

> <Gold.Chemscore.Metal>
0.0000

> <Gold.Chemscore.Lipo>
93.4382

> <Gold.Chemscore.Internal_Hbond>
0.0000

> <Gold.Chemscore.DEClash>
0.2983

> <Gold.Chemscore.DEInternal>
1.0648

> <Gold.Chemscore.Rot>
1.5711

> <Gold.Chemscore.Internal.Correction>
   9.000000E+99

> <Gold.Chemscore.Hbonds>
donor molecule, donor type, donor heavy atom, donor atom, acceptor molecule, acceptor atom, score
      L1  H    15    38       P1  8028  0.30
      P1  H  6896  6908       L1     3  0.16
      P1  H  7989  7998       L1    10  0.97

> <Gold.Chemscore.Hbond.Weighted>
-7.9323

> <Gold.Chemscore.Metal.Weighted>
-0.0000

> <Gold.Chemscore.Lipo.Weighted>
-10.9323

> <Gold.Chemscore.Internal_Hbond.Weighted>
0.0000

> <Gold.Chemscore.DEClash.Weighted>
0.2983

> <Gold.Chemscore.DEInternal.Weighted>
1.0648

> <Gold.Chemscore.Rot.Weighted>
4.0221

> <Gold.Chemscore.Internal.Correction.Weighted>
   9.000000E+99

> <Gold.Protein.RotatedTorsions>
[ 6907 6896 6895 6894 ] final -125.92 input  -60.11 | X-H torsion
[ 7974 7965 7964 7962 ] final  114.26 input  175.53 | X-H torsion
[ 8008 7997 7996 7995 ] final   90.47 input   59.86 | X-H torsion
[ 10167 10162 10161 10158 ] final  133.78 input  -65.29 | X-H torsion
[ 10718 10713 10712 10709 ] final  -98.36 input   66.30 | X-H torsion
[ 10763 10752 10751 10750 ] final  -68.11 input  -60.55 | X-H torsion
[ 11005 11000 10999 10996 ] final   65.25 input  -57.11 | X-H torsion

> <Gold.Protein.ActiveResidues>
 VAL166  LYS551  ARG553  GLY616  TRP617  ASP618  TYR619  PRO620  LYS621  CYS622 
 ASP623  PHE694  ASN695  SER759  ASP760  ASP761  ALA762  ILE779  LEU786  VAL792 
 PHE793  MET794  SER795  GLU796  ALA797  LYS798  CYS799  TRP800  GLU811  SER814 

> <Gold.Protein.RotatedAtoms>
  150.8917  133.7235  159.2902 H   0  0  0  0  0  0  0  0  0  0  0  0  # atno 6907 bound_to 6896
  151.4783  135.1049  159.9780 H   0  0  0  0  0  0  0  0  0  0  0  0  # atno 6908 bound_to 6896
  152.4824  133.8240  159.7124 H   0  0  0  0  0  0  0  0  0  0  0  0  # atno 6909 bound_to 6896
  145.2067  139.2926  143.4290 H   0  0  0  0  0  0  0  0  0  0  0  0  # atno 7974 bound_to 7965
  156.0123  140.3349  155.6954 H   0  0  0  0  0  0  0  0  0  0  0  0  # atno 8008 bound_to 7997
  155.6139  140.0668  157.2716 H   0  0  0  0  0  0  0  0  0  0  0  0  # atno 8009 bound_to 7997
  154.4286  140.1788  156.1289 H   0  0  0  0  0  0  0  0  0  0  0  0  # atno 8010 bound_to 7997
  139.5283  144.6599  151.5045 H   0  0  0  0  0  0  0  0  0  0  0  0  # atno 10167 bound_to 10162
  156.0106  130.5235  150.6511 H   0  0  0  0  0  0  0  0  0  0  0  0  # atno 10718 bound_to 10713
  154.3843  135.6067  153.5808 H   0  0  0  0  0  0  0  0  0  0  0  0  # atno 10763 bound_to 10752
  152.9788  135.5868  154.4373 H   0  0  0  0  0  0  0  0  0  0  0  0  # atno 10764 bound_to 10752
  154.4147  135.2845  155.1992 H   0  0  0  0  0  0  0  0  0  0  0  0  # atno 10765 bound_to 10752
  139.9906  134.6597  156.0097 H   0  0  0  0  0  0  0  0  0  0  0  0  # atno 11005 bound_to 11000
  146.3406  140.2329  142.8593 LP  0  0  0  0  0  0  0  0  0  0  0  0  # atno 17320 bound_to 7965
  144.9896  140.8534  143.5348 LP  0  0  0  0  0  0  0  0  0  0  0  0  # atno 17321 bound_to 7965
  140.6443  143.8827  150.6721 LP  0  0  0  0  0  0  0  0  0  0  0  0  # atno 17342 bound_to 10162
  140.2171  143.3838  152.1672 LP  0  0  0  0  0  0  0  0  0  0  0  0  # atno 17343 bound_to 10162
  157.4273  131.0844  151.1073 LP  0  0  0  0  0  0  0  0  0  0  0  0  # atno 17370 bound_to 10713
  157.1657  130.6245  149.5624 LP  0  0  0  0  0  0  0  0  0  0  0  0  # atno 17371 bound_to 10713
  141.1563  133.6542  156.4171 LP  0  0  0  0  0  0  0  0  0  0  0  0  # atno 17394 bound_to 11000
  140.4915  134.6571  157.5212 LP  0  0  0  0  0  0  0  0  0  0  0  0  # atno 17395 bound_to 11000

$$$$
