AV-unprocessed.smi:2844|AV-procd|sdf|10942|dock9
  -GOLD-   2272015393D 1   1.00000     0.00000
 Structure written by MMmdl.
 39 41  0  0  0  0  0  0  0  0  2 V2000
  152.2972  143.9891  161.6478 C   0  0  0  0  0  0  0  0  0  0  0  0
  152.1692  143.1659  160.3770 C   0  0  0  0  0  0  0  0  0  0  0  0
  151.3135  143.6333  159.3538 C   0  0  0  0  0  0  0  0  0  0  0  0
  151.2145  142.8564  158.2055 C   0  0  0  0  0  0  0  0  0  0  0  0
  150.4671  143.0360  157.0394 N   0  3  0  0  0  0  0  0  0  0  0  0
  150.6984  141.9994  156.1868 C   0  0  0  0  0  0  0  0  0  0  0  0
  151.5828  141.1609  156.7919 N   0  0  0  0  0  0  0  0  0  0  0  0
  152.1632  139.8963  156.3219 C   0  0  0  0  0  0  0  0  0  0  0  0
  151.1135  138.9592  155.6945 C   0  0  1  0  0  0  0  0  0  0  0  0
  150.6456  139.5201  154.4817 O   0  0  0  0  0  0  0  0  0  0  0  0
  151.6761  137.5480  155.4381 C   0  0  0  0  0  0  0  0  0  0  0  0
  150.6532  136.5193  155.5016 N   0  0  0  0  0  0  0  0  0  0  0  0
  150.5195  135.3954  154.7089 C   0  0  0  0  0  0  0  0  0  0  0  0
  149.4075  134.7585  155.1686 C   0  0  0  0  0  0  0  0  0  0  0  0
  148.7351  133.2894  154.5650 Cl  0  0  0  0  0  0  0  0  0  0  0  0
  148.9121  135.5413  156.2421 C   0  0  0  0  0  0  0  0  0  0  0  0
  149.6756  136.6063  156.4400 N   0  0  0  0  0  0  0  0  0  0  0  0
  151.9321  141.6544  158.0532 C   0  0  0  0  0  0  0  0  0  0  0  0
  152.7805  141.1797  159.0503 C   0  0  0  0  0  0  0  0  0  0  0  0
  152.8930  141.9545  160.2271 C   0  0  0  0  0  0  0  0  0  0  0  0
  153.8093  141.4613  161.3340 C   0  0  0  0  0  0  0  0  0  0  0  0
  151.6936  144.8959  161.5983 H   0  0  0  0  0  0  0  0  0  0  0  0
  153.3331  144.2880  161.8090 H   0  0  0  0  0  0  0  0  0  0  0  0
  151.9636  143.4135  162.5117 H   0  0  0  0  0  0  0  0  0  0  0  0
  150.7592  144.5543  159.4608 H   0  0  0  0  0  0  0  0  0  0  0  0
  150.2560  141.8645  155.2103 H   0  0  0  0  0  0  0  0  0  0  0  0
  152.9403  140.1396  155.5956 H   0  0  0  0  0  0  0  0  0  0  0  0
  152.6647  139.4154  157.1627 H   0  0  0  0  0  0  0  0  0  0  0  0
  150.2603  138.8802  156.3692 H   0  0  0  0  0  0  0  0  0  0  0  0
  150.4257  138.8169  153.8899 H   0  0  0  0  0  0  0  0  0  0  0  0
  152.1574  137.5006  154.4602 H   0  0  0  0  0  0  0  0  0  0  0  0
  152.4445  137.3096  156.1748 H   0  0  0  0  0  0  0  0  0  0  0  0
  151.2057  135.1563  153.9100 H   0  0  0  0  0  0  0  0  0  0  0  0
  148.0479  135.3770  156.8687 H   0  0  0  0  0  0  0  0  0  0  0  0
  153.3297  140.2566  158.9361 H   0  0  0  0  0  0  0  0  0  0  0  0
  154.2927  140.5221  161.0637 H   0  0  0  0  0  0  0  0  0  0  0  0
  153.2451  141.2931  162.2517 H   0  0  0  0  0  0  0  0  0  0  0  0
  154.5925  142.1921  161.5366 H   0  0  0  0  0  0  0  0  0  0  0  0
  149.8421  143.8063  156.8389 H   0  0  0  0  0  0  0  0  0  0  0  0
  1  2  1  0  0  0  0
  1 22  1  0  0  0  0
  1 23  1  0  0  0  0
  1 24  1  0  0  0  0
  2 20  1  0  0  0  0
  2  3  2  0  0  0  0
  3  4  1  0  0  0  0
  3 25  1  0  0  0  0
  4 18  2  0  0  0  0
  4  5  1  0  0  0  0
  5  6  2  0  0  0  0
  5 39  1  0  0  0  0
  6  7  1  0  0  0  0
  6 26  1  0  0  0  0
  7  8  1  0  0  0  0
  7 18  1  0  0  0  0
  8  9  1  0  0  0  0
  8 27  1  0  0  0  0
  8 28  1  0  0  0  0
  9 10  1  0  0  0  0
  9 11  1  0  0  0  0
  9 29  1  0  0  0  0
 10 30  1  0  0  0  0
 11 12  1  0  0  0  0
 11 31  1  0  0  0  0
 11 32  1  0  0  0  0
 12 17  1  0  0  0  0
 12 13  1  0  0  0  0
 13 14  2  0  0  0  0
 13 33  1  0  0  0  0
 14 15  1  0  0  0  0
 14 16  1  0  0  0  0
 16 17  2  0  0  0  0
 16 34  1  0  0  0  0
 18 19  1  0  0  0  0
 19 20  2  0  0  0  0
 19 35  1  0  0  0  0
 20 21  1  0  0  0  0
 21 36  1  0  0  0  0
 21 37  1  0  0  0  0
 21 38  1  0  0  0  0
M  CHG  1   5   1
M  END
> <s_m_source_file>
AV-unprocessed.smi

> <i_m_source_file_index>
2844

> <i_lp_mmshare_version>
43012

> <i_f3d_flags>
0

> <s_epik_input>
W0NIM11jKFtjSF0xKWMoW0NIM10pW2NIXWMoYzEyKW4oW2NIXW4yKVtDSDJdW0NASF0oW09IXSlbQ0gyXW4zW2NIXWMoQ2wpW2NIXW4z

> <s_epik_cmdline>
J2VwaWtfcHl0aG9uJywgJy1waCcsICc3LjAnLCAnLXRuJywgJzgnLCAnLW1hJywgJzIwMCcsICctbWV0YWxfYmluZGluZycsICctaW1hZScsICc8aW5maWxlLm1hZT4nLCAnLW9tYWUnLCAnPG91dGZpbGUubWFlPic=

> <r_lp_tautomer_probability>
1

> <r_epik_Ionization_Penalty>
1.09214

> <r_epik_Ionization_Penalty_Charging>
1.09214

> <r_epik_Ionization_Penalty_Neutral>
2.93683e-06

> <r_epik_State_Penalty>
1.14852

> <r_epik_Charging_Adjusted_Penalty>
2.24066

> <i_epik_Tot_Q>
1

> <i_epik_Tot_abs_Q>
1

> <r_epik_Metal_State_Penalty>
1.23687

> <b_epik_Metal_Only>
0

> <s_lp_Force_Field>
OPLS_2005

> <r_lp_Energy>
15.1146

> <b_lp_Chiralities_Consistent>
1

> <s_lp_Variant>
AV-unprocessed.smi:2844-4

> <Gold.Version>
5.8.1

> <Gold.Id.Protein>
6NUR|6NUR_protein|mol2

> <Gold.PLP.Fitness>
53.4773

> <Gold.PLP.PLP>
-43.2615

> <Gold.PLP.part.hbond>
-2.0000

> <Gold.PLP.part.metal>
0.0000

> <Gold.PLP.part.buried>
-5.2959

> <Gold.PLP.part.nonpolar>
-36.0098

> <Gold.PLP.part.repulsive>
0.0307

> <Gold.PLP.ligand.clash>
0.0000

> <Gold.PLP.ligand.torsion>
0.8595

> <Gold.PLP.Chemscore.Hbond>
3.0000

> <Gold.PLP.Chemscore.CHOScore>
0.9752

> <Gold.PLP.Chemscore.Metal>
0.0000

> <Gold.Chemscore.Hbonds>
donor molecule, donor type, donor heavy atom, donor atom, acceptor molecule, acceptor atom, score
      L1  H     5    39       P1  8028  2.00
      P1  H  7989  7998       L1    10  1.00
      L1  C    13    33       P1  7949  0.95

> <Gold.PLP.Chemscore.Internal.Correction>
0.0092

> <Gold.Rescore>
     Score         DG    S(hbond)    S(metal)    S(lipo)     H(rot)  DE(clash)    DE(int)     intcor
     19.03     -19.88       1.97        0.00     115.33       2.21       0.08       0.78       ----

> <Gold.Chemscore.Fitness>
19.0258

> <Gold.Chemscore.DG>
-19.8812

> <Gold.Chemscore.ZeroCoef>
-5.4800

> <Gold.Chemscore.Hbond>
1.9679

> <Gold.Chemscore.Metal>
0.0000

> <Gold.Chemscore.Lipo>
115.3286

> <Gold.Chemscore.Internal_Hbond>
0.0000

> <Gold.Chemscore.DEClash>
0.0779

> <Gold.Chemscore.DEInternal>
0.7775

> <Gold.Chemscore.Rot>
2.2129

> <Gold.Chemscore.Internal.Correction>
   9.000000E+99

> <Gold.Chemscore.Hbonds>
donor molecule, donor type, donor heavy atom, donor atom, acceptor molecule, acceptor atom, score
      L1  H     5    39       P1  8028  0.93
      P1  H  7989  7998       L1    10  0.64

> <Gold.Chemscore.Hbond.Weighted>
-6.5726

> <Gold.Chemscore.Metal.Weighted>
-0.0000

> <Gold.Chemscore.Lipo.Weighted>
-13.4935

> <Gold.Chemscore.Internal_Hbond.Weighted>
0.0000

> <Gold.Chemscore.DEClash.Weighted>
0.0779

> <Gold.Chemscore.DEInternal.Weighted>
0.7775

> <Gold.Chemscore.Rot.Weighted>
5.6649

> <Gold.Chemscore.Internal.Correction.Weighted>
   9.000000E+99

> <Gold.Protein.RotatedTorsions>
[ 6907 6896 6895 6894 ] final  -91.77 input  -60.11 | X-H torsion
[ 7974 7965 7964 7962 ] final  -99.34 input  175.53 | X-H torsion
[ 8008 7997 7996 7995 ] final -105.56 input   59.86 | X-H torsion
[ 10167 10162 10161 10158 ] final   80.88 input  -65.29 | X-H torsion
[ 10718 10713 10712 10709 ] final  -95.39 input   66.30 | X-H torsion
[ 10763 10752 10751 10750 ] final   71.21 input  -60.55 | X-H torsion
[ 11005 11000 10999 10996 ] final   58.13 input  -57.11 | X-H torsion

> <Gold.Protein.ActiveResidues>
 VAL166  LYS551  ARG553  GLY616  TRP617  ASP618  TYR619  PRO620  LYS621  CYS622 
 ASP623  PHE694  ASN695  SER759  ASP760  ASP761  ALA762  ILE779  LEU786  VAL792 
 PHE793  MET794  SER795  GLU796  ALA797  LYS798  CYS799  TRP800  GLU811  SER814 

> <Gold.Protein.RotatedAtoms>
  150.6897  134.2226  159.4402 H   0  0  0  0  0  0  0  0  0  0  0  0  # atno 6907 bound_to 6896
  152.0181  134.9836  160.0579 H   0  0  0  0  0  0  0  0  0  0  0  0  # atno 6908 bound_to 6896
  152.1424  133.4437  159.4810 H   0  0  0  0  0  0  0  0  0  0  0  0  # atno 6909 bound_to 6896
  145.3089  140.9395  143.2781 H   0  0  0  0  0  0  0  0  0  0  0  0  # atno 7974 bound_to 7965
  154.9016  140.0412  157.1896 H   0  0  0  0  0  0  0  0  0  0  0  0  # atno 8008 bound_to 7997
  154.8438  140.2918  155.5621 H   0  0  0  0  0  0  0  0  0  0  0  0  # atno 8009 bound_to 7997
  156.2993  140.2478  156.3385 H   0  0  0  0  0  0  0  0  0  0  0  0  # atno 8010 bound_to 7997
  139.9451  144.6064  150.8215 H   0  0  0  0  0  0  0  0  0  0  0  0  # atno 10167 bound_to 10162
  156.0042  130.5107  150.6069 H   0  0  0  0  0  0  0  0  0  0  0  0  # atno 10718 bound_to 10713
  153.0385  135.5145  154.7558 H   0  0  0  0  0  0  0  0  0  0  0  0  # atno 10763 bound_to 10752
  154.6514  135.2925  154.9984 H   0  0  0  0  0  0  0  0  0  0  0  0  # atno 10764 bound_to 10752
  154.0867  135.6656  153.4898 H   0  0  0  0  0  0  0  0  0  0  0  0  # atno 10765 bound_to 10752
  140.0401  134.5886  155.9393 H   0  0  0  0  0  0  0  0  0  0  0  0  # atno 11005 bound_to 11000
  144.9032  139.4623  143.6622 LP  0  0  0  0  0  0  0  0  0  0  0  0  # atno 17320 bound_to 7965
  146.3125  139.7798  142.9009 LP  0  0  0  0  0  0  0  0  0  0  0  0  # atno 17321 bound_to 7965
  140.7600  143.3140  151.2776 LP  0  0  0  0  0  0  0  0  0  0  0  0  # atno 17342 bound_to 10162
  139.6673  144.0082  152.2731 LP  0  0  0  0  0  0  0  0  0  0  0  0  # atno 17343 bound_to 10162
  157.3909  131.0795  151.1395 LP  0  0  0  0  0  0  0  0  0  0  0  0  # atno 17370 bound_to 10713
  157.2087  130.6428  149.5766 LP  0  0  0  0  0  0  0  0  0  0  0  0  # atno 17371 bound_to 10713
  141.1878  133.6561  156.5298 LP  0  0  0  0  0  0  0  0  0  0  0  0  # atno 17394 bound_to 11000
  140.4084  134.7294  157.4821 LP  0  0  0  0  0  0  0  0  0  0  0  0  # atno 17395 bound_to 11000

$$$$
