AV-unprocessed.smi:2252|AV-procd|sdf|9113|dock1
  -GOLD-   2272012313D 1   1.00000     0.00000
 Structure written by MMmdl.
 44 46  0  0  0  0  0  0  0  0  1 V2000
  151.9581  144.5006  159.2992 C   0  0  0  0  0  0  0  0  0  0  0  0
  152.2383  143.1396  159.7151 N   0  0  0  0  0  0  0  0  0  0  0  0
  153.0272  142.7620  160.7937 C   0  0  0  0  0  0  0  0  0  0  0  0
  153.0148  141.3886  160.8289 C   0  0  0  0  0  0  0  0  0  0  0  0
  152.2309  140.9070  159.7858 N   0  0  0  0  0  0  0  0  0  0  0  0
  151.8027  141.9953  159.1532 C   0  0  0  0  0  0  0  0  0  0  0  0
  150.9007  141.9624  157.9591 C   0  0  0  0  0  0  0  0  0  0  0  0
  149.5552  142.6593  158.2198 C   0  0  0  0  0  0  0  0  0  0  0  0
  148.6868  142.5960  157.0508 N   0  0  0  0  0  0  0  0  0  0  0  0
  147.5963  141.8202  156.9470 C   0  0  0  0  0  0  0  0  0  0  0  0
  147.2265  141.0550  157.8386 O   0  0  0  0  0  0  0  0  0  0  0  0
  146.8042  141.9146  155.6307 C   0  0  2  0  0  0  0  0  0  0  0  0
  147.7453  141.6195  154.4423 C   0  0  0  0  0  0  0  0  0  0  0  0
  147.2333  140.9267  153.1968 C   0  0  0  0  0  0  0  0  0  0  0  0
  148.1677  140.1984  154.1244 C   0  0  0  0  0  0  0  0  0  0  0  0
  146.1291  143.2248  155.4591 N   0  0  0  0  0  0  0  0  0  0  0  0
  145.0064  143.4652  156.3646 C   0  0  0  0  0  0  0  0  0  0  0  0
  144.2867  144.6679  155.7518 C   0  0  0  0  0  0  0  0  0  0  0  0
  144.6806  144.6488  154.2780 C   0  0  0  0  0  0  0  0  0  0  0  0
  145.5562  143.4053  154.1287 C   0  0  0  0  0  0  0  0  0  0  0  0
  152.3206  145.2045  160.0488 H   0  0  0  0  0  0  0  0  0  0  0  0
  150.8836  144.6398  159.1771 H   0  0  0  0  0  0  0  0  0  0  0  0
  152.4565  144.7055  158.3517 H   0  0  0  0  0  0  0  0  0  0  0  0
  153.5172  143.4823  161.4322 H   0  0  0  0  0  0  0  0  0  0  0  0
  153.5044  140.7159  161.5175 H   0  0  0  0  0  0  0  0  0  0  0  0
  151.4116  142.4155  157.1089 H   0  0  0  0  0  0  0  0  0  0  0  0
  150.7287  140.9205  157.6857 H   0  0  0  0  0  0  0  0  0  0  0  0
  149.0427  142.1781  159.0532 H   0  0  0  0  0  0  0  0  0  0  0  0
  149.7109  143.6998  158.5107 H   0  0  0  0  0  0  0  0  0  0  0  0
  148.9246  143.1905  156.2699 H   0  0  0  0  0  0  0  0  0  0  0  0
  146.0369  141.1379  155.6613 H   0  0  0  0  0  0  0  0  0  0  0  0
  148.5187  142.3719  154.2947 H   0  0  0  0  0  0  0  0  0  0  0  0
  146.1923  140.6101  153.1832 H   0  0  0  0  0  0  0  0  0  0  0  0
  147.6305  141.2603  152.2404 H   0  0  0  0  0  0  0  0  0  0  0  0
  149.1917  140.0440  153.7903 H   0  0  0  0  0  0  0  0  0  0  0  0
  147.7473  139.3932  154.7239 H   0  0  0  0  0  0  0  0  0  0  0  0
  144.3423  142.5988  156.3752 H   0  0  0  0  0  0  0  0  0  0  0  0
  145.3266  143.6624  157.3884 H   0  0  0  0  0  0  0  0  0  0  0  0
  143.2073  144.5987  155.8903 H   0  0  0  0  0  0  0  0  0  0  0  0
  144.6226  145.5951  156.2177 H   0  0  0  0  0  0  0  0  0  0  0  0
  143.8145  144.6148  153.6163 H   0  0  0  0  0  0  0  0  0  0  0  0
  145.2511  145.5457  154.0330 H   0  0  0  0  0  0  0  0  0  0  0  0
  146.3194  143.5325  153.3602 H   0  0  0  0  0  0  0  0  0  0  0  0
  144.9408  142.5444  153.8602 H   0  0  0  0  0  0  0  0  0  0  0  0
  1  2  1  0  0  0  0
  1 21  1  0  0  0  0
  1 22  1  0  0  0  0
  1 23  1  0  0  0  0
  2  6  1  0  0  0  0
  2  3  1  0  0  0  0
  3  4  2  0  0  0  0
  3 24  1  0  0  0  0
  4  5  1  0  0  0  0
  4 25  1  0  0  0  0
  5  6  2  0  0  0  0
  6  7  1  0  0  0  0
  7  8  1  0  0  0  0
  7 26  1  0  0  0  0
  7 27  1  0  0  0  0
  8  9  1  0  0  0  0
  8 28  1  0  0  0  0
  8 29  1  0  0  0  0
  9 10  1  0  0  0  0
  9 30  1  0  0  0  0
 10 11  2  0  0  0  0
 10 12  1  0  0  0  0
 12 13  1  0  0  0  0
 12 16  1  0  0  0  0
 12 31  1  0  0  0  0
 13 15  1  0  0  0  0
 13 14  1  0  0  0  0
 13 32  1  0  0  0  0
 14 15  1  0  0  0  0
 14 33  1  0  0  0  0
 14 34  1  0  0  0  0
 15 35  1  0  0  0  0
 15 36  1  0  0  0  0
 16 20  1  0  0  0  0
 16 17  1  0  0  0  0
 17 18  1  0  0  0  0
 17 37  1  0  0  0  0
 17 38  1  0  0  0  0
 18 19  1  0  0  0  0
 18 39  1  0  0  0  0
 18 40  1  0  0  0  0
 19 20  1  0  0  0  0
 19 41  1  0  0  0  0
 19 42  1  0  0  0  0
 20 43  1  0  0  0  0
 20 44  1  0  0  0  0
M  END
> <s_m_source_file>
AV-unprocessed.smi

> <i_m_source_file_index>
2252

> <i_lp_mmshare_version>
43012

> <i_f3d_flags>
0

> <s_epik_input>
W0NIM11uMVtjSF1bY0hdbmMxW0NIMl1bQ0gyXVtOSF1DKD1PKVtDQEhdKFtDSF0yW0NIMl1bQ0gyXTIpTjNbQ0gyXVtDSDJdW0NIMl1bQ0gyXTM=

> <s_epik_cmdline>
J2VwaWtfcHl0aG9uJywgJy1waCcsICc3LjAnLCAnLXRuJywgJzgnLCAnLW1hJywgJzIwMCcsICctbWV0YWxfYmluZGluZycsICctaW1hZScsICc8aW5maWxlLm1hZT4nLCAnLW9tYWUnLCAnPG91dGZpbGUubWFlPic=

> <r_epik_Ionization_Penalty>
3.7689

> <r_epik_Ionization_Penalty_Charging>
1.29411

> <r_epik_Ionization_Penalty_Neutral>
2.4748

> <r_epik_State_Penalty>
3.85943

> <r_epik_Charging_Adjusted_Penalty>
5.15353

> <i_epik_Tot_Q>
0

> <i_epik_Tot_abs_Q>
0

> <r_epik_Metal_State_Penalty>
2.88358

> <b_epik_Metal_Only>
1

> <s_lp_Force_Field>
OPLS_2005

> <r_lp_Energy>
30.6984

> <b_lp_Chiralities_Consistent>
1

> <s_lp_Variant>
AV-unprocessed.smi:2252-11

> <Gold.Version>
5.8.1

> <Gold.Id.Protein>
6NUR|6NUR_protein|mol2

> <Gold.PLP.Fitness>
43.8273

> <Gold.PLP.PLP>
-41.3096

> <Gold.PLP.part.hbond>
-1.1743

> <Gold.PLP.part.metal>
0.0000

> <Gold.PLP.part.buried>
-5.1213

> <Gold.PLP.part.nonpolar>
-34.6918

> <Gold.PLP.part.repulsive>
0.2130

> <Gold.PLP.ligand.clash>
0.0000

> <Gold.PLP.ligand.torsion>
0.8363

> <Gold.PLP.Chemscore.Hbond>
0.9920

> <Gold.PLP.Chemscore.CHOScore>
0.0000

> <Gold.PLP.Chemscore.Metal>
0.0000

> <Gold.Chemscore.Hbonds>
donor molecule, donor type, donor heavy atom, donor atom, acceptor molecule, acceptor atom, score
      L1  H     9    30       P1  8028  0.91

> <Gold.PLP.Chemscore.Internal.Correction>
1.2143

> <Gold.Rescore>
     Score         DG    S(hbond)    S(metal)    S(lipo)     H(rot)  DE(clash)    DE(int)     intcor
     13.40     -14.19       0.95        0.00      88.20       1.86       0.00       0.79       ----

> <Gold.Chemscore.Fitness>
13.3992

> <Gold.Chemscore.DG>
-14.1917

> <Gold.Chemscore.ZeroCoef>
-5.4800

> <Gold.Chemscore.Hbond>
0.9456

> <Gold.Chemscore.Metal>
0.0000

> <Gold.Chemscore.Lipo>
88.2040

> <Gold.Chemscore.Internal_Hbond>
0.0000

> <Gold.Chemscore.DEClash>
0.0015

> <Gold.Chemscore.DEInternal>
0.7910

> <Gold.Chemscore.Rot>
1.8619

> <Gold.Chemscore.Internal.Correction>
   9.000000E+99

> <Gold.Chemscore.Hbonds>
donor molecule, donor type, donor heavy atom, donor atom, acceptor molecule, acceptor atom, score
      L1  H     9    30       P1  8028  0.87

> <Gold.Chemscore.Hbond.Weighted>
-3.1584

> <Gold.Chemscore.Metal.Weighted>
-0.0000

> <Gold.Chemscore.Lipo.Weighted>
-10.3199

> <Gold.Chemscore.Internal_Hbond.Weighted>
0.0000

> <Gold.Chemscore.DEClash.Weighted>
0.0015

> <Gold.Chemscore.DEInternal.Weighted>
0.7910

> <Gold.Chemscore.Rot.Weighted>
4.7665

> <Gold.Chemscore.Internal.Correction.Weighted>
   9.000000E+99

> <Gold.Protein.RotatedTorsions>
[ 6907 6896 6895 6894 ] final -114.01 input  -60.11 | X-H torsion
[ 7974 7965 7964 7962 ] final    0.85 input  175.53 | X-H torsion
[ 8008 7997 7996 7995 ] final   25.77 input   59.86 | X-H torsion
[ 10167 10162 10161 10158 ] final  140.17 input  -65.29 | X-H torsion
[ 10718 10713 10712 10709 ] final -106.35 input   66.30 | X-H torsion
[ 10763 10752 10751 10750 ] final  112.51 input  -60.55 | X-H torsion
[ 11005 11000 10999 10996 ] final  110.59 input  -57.11 | X-H torsion

> <Gold.Protein.ActiveResidues>
 VAL166  LYS551  ARG553  GLY616  TRP617  ASP618  TYR619  PRO620  LYS621  CYS622 
 ASP623  PHE694  ASN695  SER759  ASP760  ASP761  ALA762  ILE779  LEU786  VAL792 
 PHE793  MET794  SER795  GLU796  ALA797  LYS798  CYS799  TRP800  GLU811  SER814 

> <Gold.Protein.RotatedAtoms>
  150.7871  133.8862  159.3299 H   0  0  0  0  0  0  0  0  0  0  0  0  # atno 6907 bound_to 6896
  151.6710  135.0974  160.0207 H   0  0  0  0  0  0  0  0  0  0  0  0  # atno 6908 bound_to 6896
  152.3937  133.6677  159.6294 H   0  0  0  0  0  0  0  0  0  0  0  0  # atno 6909 bound_to 6896
  146.2437  140.1076  142.8345 H   0  0  0  0  0  0  0  0  0  0  0  0  # atno 7974 bound_to 7965
  155.0168  140.3143  155.4808 H   0  0  0  0  0  0  0  0  0  0  0  0  # atno 8008 bound_to 7997
  156.2899  140.2204  156.5227 H   0  0  0  0  0  0  0  0  0  0  0  0  # atno 8009 bound_to 7997
  154.7486  140.0468  157.0862 H   0  0  0  0  0  0  0  0  0  0  0  0  # atno 8010 bound_to 7997
  139.5057  144.6250  151.5958 H   0  0  0  0  0  0  0  0  0  0  0  0  # atno 10167 bound_to 10162
  156.0386  130.5609  150.7669 H   0  0  0  0  0  0  0  0  0  0  0  0  # atno 10718 bound_to 10713
  153.4788  135.3684  155.2431 H   0  0  0  0  0  0  0  0  0  0  0  0  # atno 10763 bound_to 10752
  154.8755  135.3949  154.3724 H   0  0  0  0  0  0  0  0  0  0  0  0  # atno 10764 bound_to 10752
  153.4324  135.7082  153.6287 H   0  0  0  0  0  0  0  0  0  0  0  0  # atno 10765 bound_to 10752
  139.8885  134.9488  156.6303 H   0  0  0  0  0  0  0  0  0  0  0  0  # atno 11005 bound_to 11000
  145.0515  140.9021  143.4993 LP  0  0  0  0  0  0  0  0  0  0  0  0  # atno 17320 bound_to 7965
  145.1174  139.2716  143.5606 LP  0  0  0  0  0  0  0  0  0  0  0  0  # atno 17321 bound_to 7965
  140.5965  143.9687  150.6357 LP  0  0  0  0  0  0  0  0  0  0  0  0  # atno 17342 bound_to 10162
  140.2885  143.3341  152.1085 LP  0  0  0  0  0  0  0  0  0  0  0  0  # atno 17343 bound_to 10162
  157.5173  131.0929  151.0123 LP  0  0  0  0  0  0  0  0  0  0  0  0  # atno 17370 bound_to 10713
  157.0463  130.5769  149.5363 LP  0  0  0  0  0  0  0  0  0  0  0  0  # atno 17371 bound_to 10713
  140.7672  133.8768  155.8463 LP  0  0  0  0  0  0  0  0  0  0  0  0  # atno 17394 bound_to 11000
  140.9873  134.1326  157.4441 LP  0  0  0  0  0  0  0  0  0  0  0  0  # atno 17395 bound_to 11000

$$$$
