AV-unprocessed.smi:2124|AV-procd|sdf|8669|dock3
  -GOLD-   2272011423D 1   1.00000     0.00000
 Structure written by MMmdl.
 46 48  0  0  0  0  0  0  0  0  2 V2000
  148.0458  135.1510  159.2802 C   0  0  0  0  0  0  0  0  0  0  0  0
  149.0140  136.0482  158.5395 C   0  0  0  0  0  0  0  0  0  0  0  0
  148.6800  136.5197  157.3992 N   0  0  0  0  0  0  0  0  0  0  0  0
  149.5737  137.3552  156.7080 C   0  0  0  0  0  0  0  0  0  0  0  0
  149.0935  137.8716  155.3628 C   0  0  0  0  0  0  0  0  0  0  0  0
  150.7924  137.6722  157.2319 C   0  0  0  0  0  0  0  0  0  0  0  0
  151.7985  138.5791  156.5232 C   0  0  0  0  0  0  0  0  0  0  0  0
  151.3867  140.0423  156.3399 C   0  0  0  0  0  0  0  0  0  0  0  0
  151.4510  140.5799  155.2342 O   0  0  0  0  0  0  0  0  0  0  0  0
  150.9547  140.6669  157.4484 N   0  0  0  0  0  0  0  0  0  0  0  0
  150.4737  142.0468  157.5670 C   0  0  1  0  0  0  0  0  0  0  0  0
  148.9336  142.0903  157.5126 C   0  0  0  0  0  0  0  0  0  0  0  0
  151.0664  142.7714  158.8070 C   0  0  1  0  0  0  0  0  0  0  0  0
  152.4732  143.3781  158.5723 C   0  0  0  0  0  0  0  0  0  0  0  0
  152.3056  144.8443  159.0072 C   0  0  2  0  0  0  0  0  0  0  0  0
  152.1096  144.9130  160.5326 C   0  0  0  0  0  0  0  0  0  0  0  0
  150.6816  144.3661  160.7147 C   0  0  0  0  0  0  0  0  0  0  0  0
  150.2658  144.0142  159.2733 C   0  0  1  0  0  0  0  0  0  0  0  0
  150.9081  145.1548  158.4896 C   0  0  0  0  0  0  0  0  0  0  0  0
  151.1413  137.1031  158.5456 C   0  0  0  0  0  0  0  0  0  0  0  0
  152.2343  137.3449  159.0565 O   0  0  0  0  0  0  0  0  0  0  0  0
  150.2169  136.3082  159.1567 N   0  5  0  0  0  0  0  0  0  0  0  0
  147.2458  134.8095  158.6217 H   0  0  0  0  0  0  0  0  0  0  0  0
  147.5978  135.6907  160.1147 H   0  0  0  0  0  0  0  0  0  0  0  0
  148.5605  134.2729  159.6717 H   0  0  0  0  0  0  0  0  0  0  0  0
  148.9719  138.9543  155.3919 H   0  0  0  0  0  0  0  0  0  0  0  0
  148.1320  137.4336  155.0927 H   0  0  0  0  0  0  0  0  0  0  0  0
  149.8058  137.6220  154.5765 H   0  0  0  0  0  0  0  0  0  0  0  0
  152.7302  138.5656  157.0889 H   0  0  0  0  0  0  0  0  0  0  0  0
  152.0619  138.1679  155.5482 H   0  0  0  0  0  0  0  0  0  0  0  0
  150.9490  140.1258  158.3007 H   0  0  0  0  0  0  0  0  0  0  0  0
  150.8417  142.5502  156.6727 H   0  0  0  0  0  0  0  0  0  0  0  0
  148.5641  143.1078  157.3924 H   0  0  0  0  0  0  0  0  0  0  0  0
  148.4853  141.6840  158.4195 H   0  0  0  0  0  0  0  0  0  0  0  0
  148.5556  141.5125  156.6687 H   0  0  0  0  0  0  0  0  0  0  0  0
  151.1162  142.0553  159.6283 H   0  0  0  0  0  0  0  0  0  0  0  0
  153.2468  142.8597  159.1398 H   0  0  0  0  0  0  0  0  0  0  0  0
  152.7572  143.3396  157.5201 H   0  0  0  0  0  0  0  0  0  0  0  0
  153.0917  145.5026  158.6363 H   0  0  0  0  0  0  0  0  0  0  0  0
  152.8530  144.3237  161.0704 H   0  0  0  0  0  0  0  0  0  0  0  0
  152.1746  145.9417  160.8889 H   0  0  0  0  0  0  0  0  0  0  0  0
  150.6450  143.5063  161.3847 H   0  0  0  0  0  0  0  0  0  0  0  0
  150.0280  145.1357  161.1276 H   0  0  0  0  0  0  0  0  0  0  0  0
  149.1861  143.9337  159.1553 H   0  0  0  0  0  0  0  0  0  0  0  0
  150.5466  146.1412  158.7858 H   0  0  0  0  0  0  0  0  0  0  0  0
  150.8131  145.0509  157.4077 H   0  0  0  0  0  0  0  0  0  0  0  0
  1  2  1  0  0  0  0
  1 23  1  0  0  0  0
  1 24  1  0  0  0  0
  1 25  1  0  0  0  0
  2 22  1  0  0  0  0
  2  3  2  0  0  0  0
  3  4  1  0  0  0  0
  4  5  1  0  0  0  0
  4  6  2  0  0  0  0
  5 26  1  0  0  0  0
  5 27  1  0  0  0  0
  5 28  1  0  0  0  0
  6  7  1  0  0  0  0
  6 20  1  0  0  0  0
  7  8  1  0  0  0  0
  7 29  1  0  0  0  0
  7 30  1  0  0  0  0
  8  9  2  0  0  0  0
  8 10  1  0  0  0  0
 10 11  1  0  0  0  0
 10 31  1  0  0  0  0
 11 12  1  0  0  0  0
 11 13  1  0  0  0  0
 11 32  1  0  0  0  0
 12 33  1  0  0  0  0
 12 34  1  0  0  0  0
 12 35  1  0  0  0  0
 13 18  1  0  0  0  0
 13 14  1  0  0  0  0
 13 36  1  0  0  0  0
 14 15  1  0  0  0  0
 14 37  1  0  0  0  0
 14 38  1  0  0  0  0
 15 19  1  0  0  0  0
 15 16  1  0  0  0  0
 15 39  1  0  0  0  0
 16 17  1  0  0  0  0
 16 40  1  0  0  0  0
 16 41  1  0  0  0  0
 17 18  1  0  0  0  0
 17 42  1  0  0  0  0
 17 43  1  0  0  0  0
 18 19  1  0  0  0  0
 18 44  1  0  0  0  0
 19 45  1  0  0  0  0
 19 46  1  0  0  0  0
 20 21  2  0  0  0  0
 20 22  1  0  0  0  0
M  CHG  1  22  -1
M  END
> <s_m_source_file>
AV-unprocessed.smi

> <i_m_source_file_index>
2124

> <i_lp_mmshare_version>
43012

> <i_f3d_flags>
0

> <s_epik_input>
W0NIM11jMW5jKFtDSDNdKWMoYyg9TylbbkhdMSlbQ0gyXUMoPU8pW05IXVtDQEhdKFtDSDNdKVtDQEhdKFtDSDJdW0NASF0yMylbQ0BIXShbQ0gyXTMpW0NIMl1bQ0gyXTI=

> <s_epik_cmdline>
J2VwaWtfcHl0aG9uJywgJy1waCcsICc3LjAnLCAnLXRuJywgJzgnLCAnLW1hJywgJzIwMCcsICctbWV0YWxfYmluZGluZycsICctaW1hZScsICc8aW5maWxlLm1hZT4nLCAnLW9tYWUnLCAnPG91dGZpbGUubWFlPic=

> <r_lp_tautomer_probability>
0.839158

> <r_epik_Ionization_Penalty>
6.63797

> <r_epik_Ionization_Penalty_Charging>
7.48558e-08

> <r_epik_Ionization_Penalty_Neutral>
6.63797

> <r_epik_State_Penalty>
4.49496

> <r_epik_Charging_Adjusted_Penalty>
4.49496

> <i_epik_Tot_Q>
-1

> <i_epik_Tot_abs_Q>
1

> <r_epik_Metal_State_Penalty>
0.841241

> <b_epik_Metal_Only>
1

> <s_lp_Force_Field>
OPLS_2005

> <r_lp_Energy>
56.2785

> <b_lp_Chiralities_Consistent>
1

> <s_lp_Variant>
AV-unprocessed.smi:2124-20

> <Gold.Version>
5.8.1

> <Gold.Id.Protein>
6NUR|6NUR_protein|mol2

> <Gold.PLP.Fitness>
40.0639

> <Gold.PLP.PLP>
-33.2055

> <Gold.PLP.part.hbond>
-2.2171

> <Gold.PLP.part.metal>
0.0000

> <Gold.PLP.part.buried>
-5.0838

> <Gold.PLP.part.nonpolar>
-26.0096

> <Gold.PLP.part.repulsive>
0.0705

> <Gold.PLP.ligand.clash>
0.0000

> <Gold.PLP.ligand.torsion>
0.9205

> <Gold.PLP.Chemscore.Hbond>
2.8800

> <Gold.PLP.Chemscore.CHOScore>
0.0000

> <Gold.PLP.Chemscore.Metal>
0.0000

> <Gold.Chemscore.Hbonds>
donor molecule, donor type, donor heavy atom, donor atom, acceptor molecule, acceptor atom, score
      P1  H  6896  6909       L1    22  2.00
      P1  H  7989  7998       L1     9  0.83

> <Gold.PLP.Chemscore.Internal.Correction>
0.0594

> <Gold.Rescore>
     Score         DG    S(hbond)    S(metal)    S(lipo)     H(rot)  DE(clash)    DE(int)     intcor
     17.44     -18.89       1.70        0.00     101.11       1.61       0.52       0.93       ----

> <Gold.Chemscore.Fitness>
17.4416

> <Gold.Chemscore.DG>
-18.8865

> <Gold.Chemscore.ZeroCoef>
-5.4800

> <Gold.Chemscore.Hbond>
1.7024

> <Gold.Chemscore.Metal>
0.0000

> <Gold.Chemscore.Lipo>
101.1069

> <Gold.Chemscore.Internal_Hbond>
0.0000

> <Gold.Chemscore.DEClash>
0.5160

> <Gold.Chemscore.DEInternal>
0.9289

> <Gold.Chemscore.Rot>
1.6051

> <Gold.Chemscore.Internal.Correction>
   9.000000E+99

> <Gold.Chemscore.Hbonds>
donor molecule, donor type, donor heavy atom, donor atom, acceptor molecule, acceptor atom, score
      P1  H  6896  6909       L1    22  0.64
      P1  H  7989  7998       L1     9  0.81

> <Gold.Chemscore.Hbond.Weighted>
-5.6859

> <Gold.Chemscore.Metal.Weighted>
-0.0000

> <Gold.Chemscore.Lipo.Weighted>
-11.8295

> <Gold.Chemscore.Internal_Hbond.Weighted>
0.0000

> <Gold.Chemscore.DEClash.Weighted>
0.5160

> <Gold.Chemscore.DEInternal.Weighted>
0.9289

> <Gold.Chemscore.Rot.Weighted>
4.1090

> <Gold.Chemscore.Internal.Correction.Weighted>
   9.000000E+99

> <Gold.Protein.RotatedTorsions>
[ 6907 6896 6895 6894 ] final   76.20 input  -60.11 | X-H torsion
[ 7974 7965 7964 7962 ] final -133.21 input  175.53 | X-H torsion
[ 8008 7997 7996 7995 ] final  -34.28 input   59.86 | X-H torsion
[ 10167 10162 10161 10158 ] final   78.50 input  -65.29 | X-H torsion
[ 10718 10713 10712 10709 ] final   72.55 input   66.30 | X-H torsion
[ 10763 10752 10751 10750 ] final  -54.03 input  -60.55 | X-H torsion
[ 11005 11000 10999 10996 ] final  116.49 input  -57.11 | X-H torsion

> <Gold.Protein.ActiveResidues>
 VAL166  LYS551  ARG553  GLY616  TRP617  ASP618  TYR619  PRO620  LYS621  CYS622 
 ASP623  PHE694  ASN695  SER759  ASP760  ASP761  ALA762  ILE779  LEU786  VAL792 
 PHE793  MET794  SER795  GLU796  ALA797  LYS798  CYS799  TRP800  GLU811  SER814 

> <Gold.Protein.RotatedAtoms>
  152.5062  134.4004  159.9414 H   0  0  0  0  0  0  0  0  0  0  0  0  # atno 6907 bound_to 6896
  151.3968  133.3764  159.2735 H   0  0  0  0  0  0  0  0  0  0  0  0  # atno 6908 bound_to 6896
  150.9391  134.8822  159.7660 H   0  0  0  0  0  0  0  0  0  0  0  0  # atno 6909 bound_to 6896
  144.9214  140.7019  143.4963 H   0  0  0  0  0  0  0  0  0  0  0  0  # atno 7974 bound_to 7965
  154.4125  140.1688  156.2024 H   0  0  0  0  0  0  0  0  0  0  0  0  # atno 8008 bound_to 7997
  155.9512  140.3401  155.6386 H   0  0  0  0  0  0  0  0  0  0  0  0  # atno 8009 bound_to 7997
  155.6867  140.0729  157.2455 H   0  0  0  0  0  0  0  0  0  0  0  0  # atno 8010 bound_to 7997
  139.9703  144.5899  150.7991 H   0  0  0  0  0  0  0  0  0  0  0  0  # atno 10167 bound_to 10162
  157.6506  130.9584  150.0944 H   0  0  0  0  0  0  0  0  0  0  0  0  # atno 10718 bound_to 10713
  154.1682  135.6463  153.5003 H   0  0  0  0  0  0  0  0  0  0  0  0  # atno 10763 bound_to 10752
  153.0091  135.5377  154.6640 H   0  0  0  0  0  0  0  0  0  0  0  0  # atno 10764 bound_to 10752
  154.5972  135.2940  155.0546 H   0  0  0  0  0  0  0  0  0  0  0  0  # atno 10765 bound_to 10752
  139.9043  134.9598  156.7207 H   0  0  0  0  0  0  0  0  0  0  0  0  # atno 11005 bound_to 11000
  145.3290  139.1765  143.4547 LP  0  0  0  0  0  0  0  0  0  0  0  0  # atno 17320 bound_to 7965
  146.3206  140.3317  142.8641 LP  0  0  0  0  0  0  0  0  0  0  0  0  # atno 17321 bound_to 7965
  140.7524  143.2990  151.3130 LP  0  0  0  0  0  0  0  0  0  0  0  0  # atno 17342 bound_to 10162
  139.6486  144.0404  152.2609 LP  0  0  0  0  0  0  0  0  0  0  0  0  # atno 17343 bound_to 10162
  156.1884  130.3653  149.8942 LP  0  0  0  0  0  0  0  0  0  0  0  0  # atno 17370 bound_to 10713
  156.6877  130.8883  151.3584 LP  0  0  0  0  0  0  0  0  0  0  0  0  # atno 17371 bound_to 10713
  140.7003  133.9312  155.8020 LP  0  0  0  0  0  0  0  0  0  0  0  0  # atno 17394 bound_to 11000
  141.0376  134.0667  157.3940 LP  0  0  0  0  0  0  0  0  0  0  0  0  # atno 17395 bound_to 11000

$$$$
