#       Name:                AV-unprocessed.smi:265
#       Creating user name   scv26
#       Creation time:       Thu Mar 26 21:21:53 2020


#       File generated by GOLD software.
#

@<TRIPOS>MOLECULE
AV-unprocessed.smi:265
    64    68     1
SMALL
NO_CHARGES


@<TRIPOS>ATOM
      1 ****        -2.7835   4.3473  -3.1530 C.3            1 S1                 0.0000
      2 ****        -2.7069   3.5051  -1.8700 C.3            1 S1                 0.0000
      3 ****        -4.0079   3.1257  -1.4229 O.3            1 S1                 0.0000
      4 ****        -4.1423   3.3636  -0.0267 C.3            1 S1                 0.0000
      5 ****        -2.7151   3.4775   0.4976 C.3            1 S1                 0.0000
      6 ****        -1.9911   4.1507  -0.6608 C.3            1 S1                 0.0000
      7 ****        -2.2624   5.5416  -0.6123 O.3            1 S1                 0.0000
      8 ****        -0.4460   4.0150  -0.6500 C.3            1 S1                 0.0000
      9 ****         0.0515   2.6482  -0.6304 N.pl3          1 S1                 0.0000
     10 ****         0.3441   1.8602  -1.7220 C.2            1 S1                 0.0000
     11 ****         0.7800   0.6614  -1.4452 N.2            1 S1                 0.0000
     12 ****         0.8086   0.6287  -0.0575 C.ar           1 S1                 0.0000
     13 ****         1.1751  -0.3535   0.8979 C.ar           1 S1                 0.0000
     14 ****         1.6041  -1.5796   0.5325 N.3            1 S1                 0.0000
     15 ****         3.0180  -1.8156   0.8262 C.3            1 S1                 0.0000
     16 ****         3.4992  -3.1408   0.2050 C.3            1 S1                 0.0000
     17 ****         2.5874  -4.2890   0.6588 C.3            1 S1                 0.0000
     18 ****         2.9209  -5.5174   0.0304 O.3            1 S1                 0.0000
     19 ****         2.1979  -6.6368   0.5547 C.3            1 S1                 0.0000
     20 ****         0.6852  -6.3610   0.6970 C.2            1 S1                 0.0000
     21 ****        -0.0890  -7.2917   0.9082 O.2            1 S1                 0.0000
     22 ****         0.2625  -5.0877   0.6260 N.am           1 S1                 0.0000
     23 ****         1.1340  -3.9769   0.2672 C.3            1 S1                 0.0000
     24 ****         0.6908  -2.6560   0.9159 C.3            1 S1                 0.0000
     25 ****         1.0825  -0.0313   2.2147 N.ar           1 S1                 0.0000
     26 ****         0.6546   1.1836   2.5730 C.ar           1 S1                 0.0000
     27 ****         0.2737   2.1990   1.7937 N.ar           1 S1                 0.0000
     28 ****         0.3654   1.8722   0.4721 C.ar           1 S1                 0.0000
     29 ****         2.6786  -4.4002   1.7416 H              1 S1                 0.0000
     30 ****         1.0735  -3.8678  -0.8173 H              1 S1                 0.0000
     31 ****        -1.7886   4.6400  -3.4889 H              1 S1                 0.0000
     32 ****        -3.3719   5.2533  -3.0066 H              1 S1                 0.0000
     33 ****        -3.2519   3.7803  -3.9575 H              1 S1                 0.0000
     34 ****        -2.2196   2.5629  -2.1155 H              1 S1                 0.0000
     35 ****        -4.6810   4.3005   0.1197 H              1 S1                 0.0000
     36 ****        -4.7068   2.5688   0.4611 H              1 S1                 0.0000
     37 ****        -2.6446   4.0250   1.4382 H              1 S1                 0.0000
     38 ****        -2.3324   2.4720   0.6681 H              1 S1                 0.0000
     39 ****        -1.9037   5.8895   0.1897 H              1 S1                 0.0000
     40 ****        -0.0245   4.5127  -1.5245 H              1 S1                 0.0000
     41 ****        -0.0335   4.5322   0.2174 H              1 S1                 0.0000
     42 ****         0.2139   2.2029  -2.7384 H              1 S1                 0.0000
     43 ****         3.6176  -0.9886   0.4433 H              1 S1                 0.0000
     44 ****         3.1638  -1.8415   1.9072 H              1 S1                 0.0000
     45 ****         3.4877  -3.0641  -0.8830 H              1 S1                 0.0000
     46 ****         4.5311  -3.3397   0.4948 H              1 S1                 0.0000
     47 ****         2.3566  -7.4979  -0.0949 H              1 S1                 0.0000
     48 ****         2.5999  -6.8946   1.5353 H              1 S1                 0.0000
     49 ****        -0.7205  -4.8933   0.7502 H              1 S1                 0.0000
     50 ****         0.6767  -2.7568   2.0023 H              1 S1                 0.0000
     51 ****        -0.3235  -2.4064   0.6010 H              1 S1                 0.0000
     52 ****         0.6103   1.3687   3.6362 H              1 S1                 0.0000
     53 ****        -4.1484   2.1527  -1.6063 LP             1 S1                 0.0000
     54 ****        -4.6944   3.6603  -1.9157 LP             1 S1                 0.0000
     55 ****        -3.2506   5.6934  -0.6335 LP             1 S1                 0.0000
     56 ****        -1.8385   5.9954  -1.3961 LP             1 S1                 0.0000
     57 ****         1.0343  -0.0647  -2.0841 LP             1 S1                 0.0000
     58 ****         1.5714  -1.5953  -0.4668 LP             1 S1                 0.0000
     59 ****         3.8988  -5.6836   0.1573 LP             1 S1                 0.0000
     60 ****         2.7201  -5.4391  -0.9461 LP             1 S1                 0.0000
     61 ****         0.2611  -8.2251   0.9875 LP             1 S1                 0.0000
     62 ****        -1.0690  -7.1157   1.0007 LP             1 S1                 0.0000
     63 ****         1.3337  -0.7009   2.9137 LP             1 S1                 0.0000
     64 ****        -0.0387   3.0855   2.1351 LP             1 S1                 0.0000
@<TRIPOS>BOND
    1    1    2 1     
    2    1   31 1     
    3    1   32 1     
    4    1   33 1     
    5    2    6 1     
    6    2    3 1     
    7    2   34 1     
    8    3    4 1     
    9    4    5 1     
   10    4   35 1     
   11    4   36 1     
   12    5    6 1     
   13    5   37 1     
   14    5   38 1     
   15    6    7 1     
   16    6    8 1     
   17    7   39 1     
   18    8    9 1     
   19    8   40 1     
   20    8   41 1     
   21    9   28 1     
   22    9   10 1     
   23   10   11 2     
   24   10   42 1     
   25   11   12 1     
   26   12   28 ar    
   27   12   13 ar    
   28   13   14 1     
   29   13   25 ar    
   30   14   24 1     
   31   14   15 1     
   32   15   16 1     
   33   15   43 1     
   34   15   44 1     
   35   16   17 1     
   36   16   45 1     
   37   16   46 1     
   38   17   29 1     
   39   17   23 1     
   40   17   18 1     
   41   18   19 1     
   42   19   20 1     
   43   19   47 1     
   44   19   48 1     
   45   20   21 2     
   46   20   22 am    
   47   22   23 1     
   48   22   49 1     
   49   23   30 1     
   50   23   24 1     
   51   24   50 1     
   52   24   51 1     
   53   25   26 ar    
   54   26   27 ar    
   55   26   52 1     
   56   27   28 ar    
   57    3   53 1     
   58    3   54 1     
   59    7   55 1     
   60    7   56 1     
   61   11   57 1     
   62   14   58 1     
   63   18   59 1     
   64   18   60 1     
   65   21   61 1     
   66   21   62 1     
   67   25   63 1     
   68   27   64 1     
@<TRIPOS>SUBSTRUCTURE
      1 S1             1
@<TRIPOS>SET
LONE_PAIRS      STATIC     ATOMS    <user>   **** ""
12 53 54 55 56 57 58 59 60 61 62 63 64
DONOR_HYDROGENS      STATIC     ATOMS    <user>   **** ""
2 39 49
ATOM$BLUE        STATIC     ATOMS    COLORGROUP SYSTEM
12 53 54 55 56 57 58 59 60 61 62 63 64
ATOM$RED        STATIC     ATOMS    COLORGROUP SYSTEM
2 39 49
