AV-unprocessed.smi:2457|AV-procd|sdf|9707|dock6
  -GOLD-   2272013343D 1   1.00000     0.00000
 Structure written by MMmdl.
 40 41  0  0  0  0  0  0  0  0  1 V2000
  151.4307  137.7859  154.6962 C   0  0  0  0  0  0  0  0  0  0  0  0
  150.4863  138.9418  154.5977 C   0  0  0  0  0  0  0  0  0  0  0  0
  150.7345  140.2445  154.9511 C   0  0  0  0  0  0  0  0  0  0  0  0
  149.3475  141.2639  154.6864 S   0  0  0  0  0  0  0  0  0  0  0  0
  148.4636  139.8592  154.0976 C   0  0  0  0  0  0  0  0  0  0  0  0
  147.0225  139.9099  153.6860 C   0  0  1  0  0  0  0  0  0  0  0  0
  146.4218  141.3120  153.8613 C   0  0  0  0  0  0  0  0  0  0  0  0
  146.7664  139.3170  152.2821 C   0  0  0  0  0  0  0  0  0  0  0  0
  146.9974  137.8736  152.2436 N   0  0  0  0  0  0  0  0  0  0  0  0
  146.0388  136.9362  152.2184 C   0  0  0  0  0  0  0  0  0  0  0  0
  144.8354  137.1724  152.3264 O   0  0  0  0  0  0  0  0  0  0  0  0
  146.5463  135.7131  152.0138 N   0  0  0  0  0  0  0  0  0  0  0  0
  145.7542  134.5034  151.8138 C   0  0  1  0  0  0  0  0  0  0  0  0
  144.9078  134.6312  150.5289 C   0  0  0  0  0  0  0  0  0  0  0  0
  144.0033  133.4106  150.2959 C   0  0  0  0  0  0  0  0  0  0  0  0
  144.8041  132.1101  150.1375 C   0  0  0  0  0  0  0  0  0  0  0  0
  145.7535  131.7348  151.6363 S   0  0  0  0  0  0  0  0  0  0  0  0
  146.6899  133.2837  151.7605 C   0  0  0  0  0  0  0  0  0  0  0  0
  149.1936  138.7396  154.1074 N   0  0  0  0  0  0  0  0  0  0  0  0
  152.4426  138.1169  154.9306 H   0  0  0  0  0  0  0  0  0  0  0  0
  151.4742  137.2307  153.7590 H   0  0  0  0  0  0  0  0  0  0  0  0
  151.1204  137.0927  155.4785 H   0  0  0  0  0  0  0  0  0  0  0  0
  151.6445  140.6643  155.3537 H   0  0  0  0  0  0  0  0  0  0  0  0
  146.4899  139.2672  154.3885 H   0  0  0  0  0  0  0  0  0  0  0  0
  146.5324  141.6606  154.8885 H   0  0  0  0  0  0  0  0  0  0  0  0
  145.3581  141.3161  153.6230 H   0  0  0  0  0  0  0  0  0  0  0  0
  146.9103  142.0366  153.2088 H   0  0  0  0  0  0  0  0  0  0  0  0
  145.7344  139.5037  151.9841 H   0  0  0  0  0  0  0  0  0  0  0  0
  147.3903  139.8239  151.5439 H   0  0  0  0  0  0  0  0  0  0  0  0
  147.9560  137.5715  152.1517 H   0  0  0  0  0  0  0  0  0  0  0  0
  147.5483  135.6194  151.9370 H   0  0  0  0  0  0  0  0  0  0  0  0
  145.0857  134.3787  152.6679 H   0  0  0  0  0  0  0  0  0  0  0  0
  144.2824  135.5232  150.5854 H   0  0  0  0  0  0  0  0  0  0  0  0
  145.5599  134.7736  149.6660 H   0  0  0  0  0  0  0  0  0  0  0  0
  143.2978  133.3112  151.1219 H   0  0  0  0  0  0  0  0  0  0  0  0
  143.4039  133.5743  149.3998 H   0  0  0  0  0  0  0  0  0  0  0  0
  144.1330  131.2759  149.9320 H   0  0  0  0  0  0  0  0  0  0  0  0
  145.4888  132.1854  149.2921 H   0  0  0  0  0  0  0  0  0  0  0  0
  147.3674  133.3556  150.9089 H   0  0  0  0  0  0  0  0  0  0  0  0
  147.3073  133.2373  152.6581 H   0  0  0  0  0  0  0  0  0  0  0  0
  1  2  1  0  0  0  0
  1 20  1  0  0  0  0
  1 21  1  0  0  0  0
  1 22  1  0  0  0  0
  2 19  1  0  0  0  0
  2  3  2  0  0  0  0
  3  4  1  0  0  0  0
  3 23  1  0  0  0  0
  4  5  1  0  0  0  0
  5  6  1  0  0  0  0
  5 19  2  0  0  0  0
  6  7  1  0  0  0  0
  6  8  1  0  0  0  0
  6 24  1  0  0  0  0
  7 25  1  0  0  0  0
  7 26  1  0  0  0  0
  7 27  1  0  0  0  0
  8  9  1  0  0  0  0
  8 28  1  0  0  0  0
  8 29  1  0  0  0  0
  9 10  1  0  0  0  0
  9 30  1  0  0  0  0
 10 11  2  0  0  0  0
 10 12  1  0  0  0  0
 12 13  1  0  0  0  0
 12 31  1  0  0  0  0
 13 18  1  0  0  0  0
 13 14  1  0  0  0  0
 13 32  1  0  0  0  0
 14 15  1  0  0  0  0
 14 33  1  0  0  0  0
 14 34  1  0  0  0  0
 15 16  1  0  0  0  0
 15 35  1  0  0  0  0
 15 36  1  0  0  0  0
 16 17  1  0  0  0  0
 16 37  1  0  0  0  0
 16 38  1  0  0  0  0
 17 18  1  0  0  0  0
 18 39  1  0  0  0  0
 18 40  1  0  0  0  0
M  END
> <s_m_source_file>
AV-unprocessed.smi

> <i_m_source_file_index>
2457

> <i_lp_mmshare_version>
43012

> <i_f3d_flags>
0

> <s_epik_input>
W0NIM11jMVtjSF1zYyhuMSlbQ0BIXShbQ0gzXSlbQ0gyXVtOSF1DKD1PKVtOSF1bQ0BASF0yW0NIMl1bQ0gyXVtDSDJdU1tDSDJdMg==

> <s_epik_cmdline>
J2VwaWtfcHl0aG9uJywgJy1waCcsICc3LjAnLCAnLXRuJywgJzgnLCAnLW1hJywgJzIwMCcsICctbWV0YWxfYmluZGluZycsICctaW1hZScsICc8aW5maWxlLm1hZT4nLCAnLW9tYWUnLCAnPG91dGZpbGUubWFlPic=

> <r_epik_Ionization_Penalty>
0.00154805

> <r_epik_Ionization_Penalty_Charging>
0

> <r_epik_Ionization_Penalty_Neutral>
0.00154805

> <r_epik_State_Penalty>
0.00100357

> <r_epik_Charging_Adjusted_Penalty>
0.00100357

> <i_epik_Tot_Q>
0

> <i_epik_Tot_abs_Q>
0

> <r_epik_Metal_State_Penalty>
-0

> <b_epik_Metal_Only>
0

> <s_lp_Force_Field>
OPLS_2005

> <r_lp_Energy>
-7.34104

> <b_lp_Chiralities_Consistent>
1

> <s_lp_Variant>
AV-unprocessed.smi:2457-4

> <Gold.Version>
5.8.1

> <Gold.Id.Protein>
6NUR|6NUR_protein|mol2

> <Gold.PLP.Fitness>
40.9048

> <Gold.PLP.PLP>
-35.5829

> <Gold.PLP.part.hbond>
-1.7985

> <Gold.PLP.part.metal>
0.0000

> <Gold.PLP.part.buried>
1.9234

> <Gold.PLP.part.nonpolar>
-36.2286

> <Gold.PLP.part.repulsive>
0.5706

> <Gold.PLP.ligand.clash>
0.0000

> <Gold.PLP.ligand.torsion>
0.2557

> <Gold.PLP.Chemscore.Hbond>
1.9033

> <Gold.PLP.Chemscore.CHOScore>
0.0000

> <Gold.PLP.Chemscore.Metal>
0.0000

> <Gold.Chemscore.Hbonds>
donor molecule, donor type, donor heavy atom, donor atom, acceptor molecule, acceptor atom, score
      L1  H     9    30       P1  7948  0.90
      L1  H    12    31       P1  7948  0.93

> <Gold.PLP.Chemscore.Internal.Correction>
0.1235

> <Gold.Rescore>
     Score         DG    S(hbond)    S(metal)    S(lipo)     H(rot)  DE(clash)    DE(int)     intcor
     17.78     -18.41       1.85        0.00      89.76       1.46       0.02       0.62       ----

> <Gold.Chemscore.Fitness>
17.7810

> <Gold.Chemscore.DG>
-18.4144

> <Gold.Chemscore.ZeroCoef>
-5.4800

> <Gold.Chemscore.Hbond>
1.8487

> <Gold.Chemscore.Metal>
0.0000

> <Gold.Chemscore.Lipo>
89.7557

> <Gold.Chemscore.Internal_Hbond>
0.0000

> <Gold.Chemscore.DEClash>
0.0178

> <Gold.Chemscore.DEInternal>
0.6157

> <Gold.Chemscore.Rot>
1.4616

> <Gold.Chemscore.Internal.Correction>
   9.000000E+99

> <Gold.Chemscore.Hbonds>
donor molecule, donor type, donor heavy atom, donor atom, acceptor molecule, acceptor atom, score
      L1  H     9    30       P1  7948  0.88
      L1  H    12    31       P1  7948  0.85

> <Gold.Chemscore.Hbond.Weighted>
-6.1746

> <Gold.Chemscore.Metal.Weighted>
-0.0000

> <Gold.Chemscore.Lipo.Weighted>
-10.5014

> <Gold.Chemscore.Internal_Hbond.Weighted>
0.0000

> <Gold.Chemscore.DEClash.Weighted>
0.0178

> <Gold.Chemscore.DEInternal.Weighted>
0.6157

> <Gold.Chemscore.Rot.Weighted>
3.7416

> <Gold.Chemscore.Internal.Correction.Weighted>
   9.000000E+99

> <Gold.Protein.RotatedTorsions>
[ 6907 6896 6895 6894 ] final   30.68 input  -60.11 | X-H torsion
[ 7974 7965 7964 7962 ] final  -43.46 input  175.53 | X-H torsion
[ 8008 7997 7996 7995 ] final   51.26 input   59.86 | X-H torsion
[ 10167 10162 10161 10158 ] final  -27.00 input  -65.29 | X-H torsion
[ 10718 10713 10712 10709 ] final   73.65 input   66.30 | X-H torsion
[ 10763 10752 10751 10750 ] final   87.32 input  -60.55 | X-H torsion
[ 11005 11000 10999 10996 ] final -175.04 input  -57.11 | X-H torsion

> <Gold.Protein.ActiveResidues>
 VAL166  LYS551  ARG553  GLY616  TRP617  ASP618  TYR619  PRO620  LYS621  CYS622 
 ASP623  PHE694  ASN695  SER759  ASP760  ASP761  ALA762  ILE779  LEU786  VAL792 
 PHE793  MET794  SER795  GLU796  ALA797  LYS798  CYS799  TRP800  GLU811  SER814 

> <Gold.Protein.RotatedAtoms>
  152.0495  134.9662  160.0574 H   0  0  0  0  0  0  0  0  0  0  0  0  # atno 6907 bound_to 6896
  152.1069  133.4275  159.4621 H   0  0  0  0  0  0  0  0  0  0  0  0  # atno 6908 bound_to 6896
  150.6841  134.2613  159.4594 H   0  0  0  0  0  0  0  0  0  0  0  0  # atno 6909 bound_to 6896
  146.0016  140.7067  142.9267 H   0  0  0  0  0  0  0  0  0  0  0  0  # atno 7974 bound_to 7965
  155.4324  140.3451  155.4281 H   0  0  0  0  0  0  0  0  0  0  0  0  # atno 8008 bound_to 7997
  156.1328  140.1519  156.9070 H   0  0  0  0  0  0  0  0  0  0  0  0  # atno 8009 bound_to 7997
  154.4908  140.0842  156.7570 H   0  0  0  0  0  0  0  0  0  0  0  0  # atno 8010 bound_to 7997
  140.7280  143.4130  151.1074 H   0  0  0  0  0  0  0  0  0  0  0  0  # atno 10167 bound_to 10162
  157.6557  130.9639  150.1100 H   0  0  0  0  0  0  0  0  0  0  0  0  # atno 10718 bound_to 10713
  153.1656  135.4548  154.9833 H   0  0  0  0  0  0  0  0  0  0  0  0  # atno 10763 bound_to 10752
  154.7929  135.3227  154.7736 H   0  0  0  0  0  0  0  0  0  0  0  0  # atno 10764 bound_to 10752
  153.8220  135.6946  153.4880 H   0  0  0  0  0  0  0  0  0  0  0  0  # atno 10765 bound_to 10752
  140.4678  134.6194  157.4869 H   0  0  0  0  0  0  0  0  0  0  0  0  # atno 11005 bound_to 11000
  144.6921  140.3244  143.7227 LP  0  0  0  0  0  0  0  0  0  0  0  0  # atno 17320 bound_to 7965
  145.7478  139.1784  143.2339 LP  0  0  0  0  0  0  0  0  0  0  0  0  # atno 17321 bound_to 7965
  139.7766  143.8416  152.3130 LP  0  0  0  0  0  0  0  0  0  0  0  0  # atno 17342 bound_to 10162
  139.8353  144.7235  150.9399 LP  0  0  0  0  0  0  0  0  0  0  0  0  # atno 17343 bound_to 10162
  156.1999  130.3659  149.8801 LP  0  0  0  0  0  0  0  0  0  0  0  0  # atno 17370 bound_to 10713
  156.6708  130.8819  151.3562 LP  0  0  0  0  0  0  0  0  0  0  0  0  # atno 17371 bound_to 10713
  139.9904  134.6994  155.9699 LP  0  0  0  0  0  0  0  0  0  0  0  0  # atno 17394 bound_to 11000
  141.1591  133.6540  156.4260 LP  0  0  0  0  0  0  0  0  0  0  0  0  # atno 17395 bound_to 11000

$$$$
