#       Name:                AV-unprocessed.smi:249
#       Creating user name   scv26
#       Creation time:       Thu Mar 26 20:59:26 2020


#       File generated by GOLD software.
#

@<TRIPOS>MOLECULE
AV-unprocessed.smi:249
    72    75     1
SMALL
NO_CHARGES


@<TRIPOS>ATOM
      1 ****        -2.6870  -2.6765   4.3975 C.3            1 S1                 0.0000
      2 ****        -3.2936  -1.3187   4.0074 C.3            1 S1                 0.0000
      3 ****        -3.2564  -1.0460   2.5411 N.4            1 S1                 1.0000
      4 ****        -1.8582  -0.9740   2.0274 C.3            1 S1                 0.0000
      5 ****        -1.8066  -0.7682   0.5055 C.3            1 S1                 0.0000
      6 ****        -2.5555   0.5119   0.0803 C.3            1 S1                 0.0000
      7 ****        -1.9227   1.7570   0.5472 N.3            1 S1                 0.0000
      8 ****        -2.5828   3.0145   0.2124 C.3            1 S1                 0.0000
      9 ****        -0.5891   1.8565   0.3509 C.ar           1 S1                 0.0000
     10 ****         0.1822   2.0870   1.4416 N.ar           1 S1                 0.0000
     11 ****         1.5097   2.1723   1.3125 C.ar           1 S1                 0.0000
     12 ****         2.2504   2.0535   0.2084 N.ar           1 S1                 0.0000
     13 ****         1.4736   1.8306  -0.8904 C.ar           1 S1                 0.0000
     14 ****         0.0549   1.7304  -0.9116 C.ar           1 S1                 0.0000
     15 ****        -0.3881   1.5159  -2.2109 N.2            1 S1                 0.0000
     16 ****         0.7087   1.4769  -2.9173 C.2            1 S1                 0.0000
     17 ****         1.8741   1.6272  -2.1990 N.pl3          1 S1                 0.0000
     18 ****         3.2265   1.6089  -2.7258 C.3            1 S1                 0.0000
     19 ****         4.1155   0.4460  -2.2008 C.3            1 S1                 0.0000
     20 ****         5.5453   0.6052  -2.7734 C.3            1 S1                 0.0000
     21 ****         6.1437   1.8097  -2.3404 O.3            1 S1                 0.0000
     22 ****         3.5273  -0.9660  -2.5064 C.3            1 S1                 0.0000
     23 ****         4.4581  -2.1331  -2.2100 C.3            1 S1                 0.0000
     24 ****         3.4976  -3.3118  -2.1526 C.3            1 S1                 0.0000
     25 ****         2.3428  -2.7937  -1.5128 O.3            1 S1                 0.0000
     26 ****         2.3030  -1.3781  -1.6682 C.3            1 S1                 0.0000
     27 ****        -3.9973   0.3620   0.5988 C.3            1 S1                 0.0000
     28 ****        -4.0645   0.1492   2.1296 C.3            1 S1                 0.0000
     29 ****        -5.5467   0.0490   2.5462 C.3            1 S1                 0.0000
     30 ****        -2.8897  -2.8953   5.4461 H              1 S1                 0.0000
     31 ****        -1.6043  -2.6973   4.2773 H              1 S1                 0.0000
     32 ****        -3.1138  -3.4866   3.8054 H              1 S1                 0.0000
     33 ****        -4.3217  -1.3419   4.3612 H              1 S1                 0.0000
     34 ****        -2.7969  -0.5120   4.5481 H              1 S1                 0.0000
     35 ****        -1.3237  -0.1716   2.5376 H              1 S1                 0.0000
     36 ****        -1.3230  -1.8956   2.2488 H              1 S1                 0.0000
     37 ****        -0.7718  -0.7632   0.1623 H              1 S1                 0.0000
     38 ****        -2.2645  -1.6292   0.0164 H              1 S1                 0.0000
     39 ****        -2.5916   0.5484  -1.0088 H              1 S1                 0.0000
     40 ****        -1.9261   3.8743   0.3571 H              1 S1                 0.0000
     41 ****        -3.4549   3.1636   0.8488 H              1 S1                 0.0000
     42 ****        -2.9125   3.0114  -0.8271 H              1 S1                 0.0000
     43 ****         2.0578   2.3561   2.2249 H              1 S1                 0.0000
     44 ****         0.6981   1.3167  -3.9857 H              1 S1                 0.0000
     45 ****         3.1713   1.5681  -3.8143 H              1 S1                 0.0000
     46 ****         3.6725   2.5730  -2.4807 H              1 S1                 0.0000
     47 ****         4.1990   0.5372  -1.1169 H              1 S1                 0.0000
     48 ****         6.2014  -0.1980  -2.4414 H              1 S1                 0.0000
     49 ****         5.5321   0.5796  -3.8635 H              1 S1                 0.0000
     50 ****         7.0181   1.8568  -2.6961 H              1 S1                 0.0000
     51 ****         3.2587  -1.0185  -3.5628 H              1 S1                 0.0000
     52 ****         5.2300  -2.2723  -2.9674 H              1 S1                 0.0000
     53 ****         4.9434  -2.0008  -1.2417 H              1 S1                 0.0000
     54 ****         3.2306  -3.6378  -3.1587 H              1 S1                 0.0000
     55 ****         3.9078  -4.1653  -1.6126 H              1 S1                 0.0000
     56 ****         2.3352  -0.9330  -0.6733 H              1 S1                 0.0000
     57 ****         1.3641  -1.0886  -2.1378 H              1 S1                 0.0000
     58 ****        -4.5966   1.2248   0.3073 H              1 S1                 0.0000
     59 ****        -4.4636  -0.4898   0.1011 H              1 S1                 0.0000
     60 ****        -3.6386   1.0270   2.6185 H              1 S1                 0.0000
     61 ****        -6.1325   0.8511   2.0960 H              1 S1                 0.0000
     62 ****        -5.6845   0.1472   3.6223 H              1 S1                 0.0000
     63 ****        -5.9875  -0.8962   2.2277 H              1 S1                 0.0000
     64 ****        -3.6860  -1.8421   2.0918 H              1 S1                 0.0000
     65 ****        -2.0710   1.6295   1.5279 LP             1 S1                 0.0000
     66 ****        -0.2414   2.1931   2.3413 LP             1 S1                 0.0000
     67 ****         3.2480   2.1196   0.1893 LP             1 S1                 0.0000
     68 ****        -1.3301   1.4148  -2.5310 LP             1 S1                 0.0000
     69 ****         6.1851   1.8253  -1.3413 LP             1 S1                 0.0000
     70 ****         5.6060   2.5884  -2.6638 LP             1 S1                 0.0000
     71 ****         2.3719  -3.0206  -0.5393 LP             1 S1                 0.0000
     72 ****         1.5254  -3.1965  -1.9247 LP             1 S1                 0.0000
@<TRIPOS>BOND
    1    1    2 1     
    2    1   30 1     
    3    1   31 1     
    4    1   32 1     
    5    2    3 1     
    6    2   33 1     
    7    2   34 1     
    8    3   28 1     
    9    3    4 1     
   10    3   64 1     
   11    4    5 1     
   12    4   35 1     
   13    4   36 1     
   14    5    6 1     
   15    5   37 1     
   16    5   38 1     
   17    6    7 1     
   18    6   27 1     
   19    6   39 1     
   20    7    8 1     
   21    7    9 1     
   22    8   40 1     
   23    8   41 1     
   24    8   42 1     
   25    9   14 ar    
   26    9   10 ar    
   27   10   11 ar    
   28   11   12 ar    
   29   11   43 1     
   30   12   13 ar    
   31   13   17 1     
   32   13   14 ar    
   33   14   15 1     
   34   15   16 2     
   35   16   17 1     
   36   16   44 1     
   37   17   18 1     
   38   18   19 1     
   39   18   45 1     
   40   18   46 1     
   41   19   20 1     
   42   19   22 1     
   43   19   47 1     
   44   20   21 1     
   45   20   48 1     
   46   20   49 1     
   47   21   50 1     
   48   22   26 1     
   49   22   23 1     
   50   22   51 1     
   51   23   24 1     
   52   23   52 1     
   53   23   53 1     
   54   24   25 1     
   55   24   54 1     
   56   24   55 1     
   57   25   26 1     
   58   26   56 1     
   59   26   57 1     
   60   27   28 1     
   61   27   58 1     
   62   27   59 1     
   63   28   29 1     
   64   28   60 1     
   65   29   61 1     
   66   29   62 1     
   67   29   63 1     
   68    7   65 1     
   69   10   66 1     
   70   12   67 1     
   71   15   68 1     
   72   21   69 1     
   73   21   70 1     
   74   25   71 1     
   75   25   72 1     
@<TRIPOS>SUBSTRUCTURE
      1 S1             1
@<TRIPOS>SET
LONE_PAIRS      STATIC     ATOMS    <user>   **** ""
8 65 66 67 68 69 70 71 72
DONOR_HYDROGENS      STATIC     ATOMS    <user>   **** ""
2 64 50
ATOM$BLUE        STATIC     ATOMS    COLORGROUP SYSTEM
8 65 66 67 68 69 70 71 72
ATOM$RED        STATIC     ATOMS    COLORGROUP SYSTEM
2 64 50
