AV-unprocessed.smi:3025|AV-procd|sdf|11511|dock8
  -GOLD-   2272016453D 1   1.00000     0.00000
 Structure written by MMmdl.
 41 42  0  0  0  0  0  0  0  0  3 V2000
  153.3910  142.7954  163.1808 C   0  0  0  0  0  0  0  0  0  0  0  0
  152.6828  142.8162  161.8216 C   0  0  0  0  0  0  0  0  0  0  0  0
  153.5668  142.2656  160.6897 C   0  0  0  0  0  0  0  0  0  0  0  0
  152.8923  142.2682  159.3022 C   0  0  2  0  0  0  0  0  0  0  0  0
  152.2898  143.6420  158.9370 C   0  0  0  0  0  0  0  0  0  0  0  0
  151.5984  143.6193  157.5640 C   0  0  0  0  0  0  0  0  0  0  0  0
  150.5105  142.5283  157.4931 C   0  0  1  0  0  0  0  0  0  0  0  0
  149.8853  142.4677  156.1532 N   0  3  0  0  0  0  0  0  0  0  0  0
  149.0346  141.2856  155.9079 C   0  0  0  0  0  0  0  0  0  0  0  0
  149.6011  140.4301  154.7699 C   0  0  0  0  0  0  0  0  0  0  0  0
  150.8683  139.7197  155.1863 C   0  0  0  0  0  0  0  0  0  0  0  0
  152.0947  139.9377  154.6708 N   0  5  0  0  0  0  0  0  0  0  0  0
  152.9842  139.1825  155.2854 N   0  0  0  0  0  0  0  0  0  0  0  0
  152.2701  138.5089  156.1950 C   0  0  0  0  0  0  0  0  0  0  0  0
  150.9704  138.8234  156.1636 N   0  0  0  0  0  0  0  0  0  0  0  0
  151.1158  141.1587  157.8488 C   0  0  0  0  0  0  0  0  0  0  0  0
  151.7998  141.1830  159.2248 C   0  0  0  0  0  0  0  0  0  0  0  0
  152.7440  143.1957  163.9618 H   0  0  0  0  0  0  0  0  0  0  0  0
  154.2998  143.3978  163.1613 H   0  0  0  0  0  0  0  0  0  0  0  0
  153.6668  141.7797  163.4659 H   0  0  0  0  0  0  0  0  0  0  0  0
  151.7634  142.2364  161.8988 H   0  0  0  0  0  0  0  0  0  0  0  0
  152.3855  143.8397  161.5902 H   0  0  0  0  0  0  0  0  0  0  0  0
  154.4719  142.8726  160.6404 H   0  0  0  0  0  0  0  0  0  0  0  0
  153.8962  141.2558  160.9379 H   0  0  0  0  0  0  0  0  0  0  0  0
  153.6535  142.0219  158.5600 H   0  0  0  0  0  0  0  0  0  0  0  0
  151.5710  143.9440  159.7001 H   0  0  0  0  0  0  0  0  0  0  0  0
  153.0650  144.4076  158.9247 H   0  0  0  0  0  0  0  0  0  0  0  0
  151.1700  144.6026  157.3709 H   0  0  0  0  0  0  0  0  0  0  0  0
  152.3439  143.4493  156.7857 H   0  0  0  0  0  0  0  0  0  0  0  0
  149.7311  142.7522  158.2232 H   0  0  0  0  0  0  0  0  0  0  0  0
  149.3397  143.3048  156.0064 H   0  0  0  0  0  0  0  0  0  0  0  0
  148.9701  140.6908  156.8200 H   0  0  0  0  0  0  0  0  0  0  0  0
  148.0222  141.6009  155.6549 H   0  0  0  0  0  0  0  0  0  0  0  0
  148.8693  139.6857  154.4540 H   0  0  0  0  0  0  0  0  0  0  0  0
  149.8184  141.0507  153.8996 H   0  0  0  0  0  0  0  0  0  0  0  0
  152.6991  137.7913  156.8834 H   0  0  0  0  0  0  0  0  0  0  0  0
  150.3381  140.3939  157.8434 H   0  0  0  0  0  0  0  0  0  0  0  0
  151.8424  140.8647  157.0899 H   0  0  0  0  0  0  0  0  0  0  0  0
  152.2324  140.2028  159.4295 H   0  0  0  0  0  0  0  0  0  0  0  0
  151.0519  141.3562  160.0000 H   0  0  0  0  0  0  0  0  0  0  0  0
  150.6279  142.4455  155.4691 H   0  0  0  0  0  0  0  0  0  0  0  0
  1  2  1  0  0  0  0
  1 18  1  0  0  0  0
  1 19  1  0  0  0  0
  1 20  1  0  0  0  0
  2  3  1  0  0  0  0
  2 21  1  0  0  0  0
  2 22  1  0  0  0  0
  3  4  1  0  0  0  0
  3 23  1  0  0  0  0
  3 24  1  0  0  0  0
  4 17  1  0  0  0  0
  4  5  1  0  0  0  0
  4 25  1  0  0  0  0
  5  6  1  0  0  0  0
  5 26  1  0  0  0  0
  5 27  1  0  0  0  0
  6  7  1  0  0  0  0
  6 28  1  0  0  0  0
  6 29  1  0  0  0  0
  7  8  1  0  0  0  0
  7 16  1  0  0  0  0
  7 30  1  0  0  0  0
  8  9  1  0  0  0  0
  8 31  1  0  0  0  0
  8 41  1  0  0  0  0
  9 10  1  0  0  0  0
  9 32  1  0  0  0  0
  9 33  1  0  0  0  0
 10 34  1  0  0  0  0
 10 35  1  0  0  0  0
 10 11  1  0  0  0  0
 11 15  2  0  0  0  0
 11 12  1  0  0  0  0
 12 13  1  0  0  0  0
 13 14  2  0  0  0  0
 14 15  1  0  0  0  0
 14 36  1  0  0  0  0
 16 17  1  0  0  0  0
 16 37  1  0  0  0  0
 16 38  1  0  0  0  0
 17 39  1  0  0  0  0
 17 40  1  0  0  0  0
M  CHG  1   8   1
M  CHG  1  12  -1
M  END
> <s_m_source_file>
AV-unprocessed.smi

> <i_m_source_file_index>
3025

> <i_lp_mmshare_version>
43012

> <i_f3d_flags>
0

> <s_epik_input>
W0NIM11bQ0gyXVtDSDJdW0NAQEhdMVtDSDJdW0NIMl1bQ0BIXShbQ0gyXVtDSDJdMSlbTkhdW0NIMl1bQ0gyXWMybm5bY0hdW25IXTI=

> <s_epik_cmdline>
J2VwaWtfcHl0aG9uJywgJy1waCcsICc3LjAnLCAnLXRuJywgJzgnLCAnLW1hJywgJzIwMCcsICctbWV0YWxfYmluZGluZycsICctaW1hZScsICc8aW5maWxlLm1hZT4nLCAnLW9tYWUnLCAnPG91dGZpbGUubWFlPic=

> <r_lp_tautomer_probability>
0.948284

> <r_epik_Ionization_Penalty>
6.65342

> <r_epik_Ionization_Penalty_Charging>
6.65342

> <r_epik_Ionization_Penalty_Neutral>
1.40767e-13

> <r_epik_State_Penalty>
2.88894

> <r_epik_Charging_Adjusted_Penalty>
9.54236

> <i_epik_Tot_Q>
0

> <i_epik_Tot_abs_Q>
2

> <r_epik_Metal_State_Penalty>
0.664188

> <b_epik_Metal_Only>
1

> <s_lp_Force_Field>
OPLS_2005

> <r_lp_Energy>
6.5819

> <b_lp_Chiralities_Consistent>
1

> <s_lp_Variant>
AV-unprocessed.smi:3025-7

> <Gold.Version>
5.8.1

> <Gold.Id.Protein>
6NUR|6NUR_protein|mol2

> <Gold.PLP.Fitness>
52.3346

> <Gold.PLP.PLP>
-41.8777

> <Gold.PLP.part.hbond>
-2.7501

> <Gold.PLP.part.metal>
0.0000

> <Gold.PLP.part.buried>
-4.8735

> <Gold.PLP.part.nonpolar>
-34.0783

> <Gold.PLP.part.repulsive>
0.1721

> <Gold.PLP.ligand.clash>
0.0000

> <Gold.PLP.ligand.torsion>
0.5566

> <Gold.PLP.Chemscore.Hbond>
3.8320

> <Gold.PLP.Chemscore.CHOScore>
0.0000

> <Gold.PLP.Chemscore.Metal>
0.0000

> <Gold.Chemscore.Hbonds>
donor molecule, donor type, donor heavy atom, donor atom, acceptor molecule, acceptor atom, score
      L1  H     8    31       P1  8028  1.98
      P1  H  7989  7998       L1    12  0.72
      P1  H  7997  8008       L1    13  1.00

> <Gold.PLP.Chemscore.Internal.Correction>
0.0741

> <Gold.Rescore>
     Score         DG    S(hbond)    S(metal)    S(lipo)     H(rot)  DE(clash)    DE(int)     intcor
     18.82     -19.45       2.61        0.00      99.68       2.50       0.00       0.62       ----

> <Gold.Chemscore.Fitness>
18.8207

> <Gold.Chemscore.DG>
-19.4475

> <Gold.Chemscore.ZeroCoef>
-5.4800

> <Gold.Chemscore.Hbond>
2.6076

> <Gold.Chemscore.Metal>
0.0000

> <Gold.Chemscore.Lipo>
99.6841

> <Gold.Chemscore.Internal_Hbond>
0.0000

> <Gold.Chemscore.DEClash>
0.0038

> <Gold.Chemscore.DEInternal>
0.6230

> <Gold.Chemscore.Rot>
2.5019

> <Gold.Chemscore.Internal.Correction>
   9.000000E+99

> <Gold.Chemscore.Hbonds>
donor molecule, donor type, donor heavy atom, donor atom, acceptor molecule, acceptor atom, score
      L1  H     8    31       P1  8028  0.92
      P1  H  7989  7998       L1    12  0.14
      P1  H  7997  8008       L1    13  0.59

> <Gold.Chemscore.Hbond.Weighted>
-8.7094

> <Gold.Chemscore.Metal.Weighted>
-0.0000

> <Gold.Chemscore.Lipo.Weighted>
-11.6630

> <Gold.Chemscore.Internal_Hbond.Weighted>
0.0000

> <Gold.Chemscore.DEClash.Weighted>
0.0038

> <Gold.Chemscore.DEInternal.Weighted>
0.6230

> <Gold.Chemscore.Rot.Weighted>
6.4049

> <Gold.Chemscore.Internal.Correction.Weighted>
   9.000000E+99

> <Gold.Protein.RotatedTorsions>
[ 6907 6896 6895 6894 ] final  145.93 input  -60.11 | X-H torsion
[ 7974 7965 7964 7962 ] final  -93.00 input  175.53 | X-H torsion
[ 8008 7997 7996 7995 ] final  -35.68 input   59.86 | X-H torsion
[ 10167 10162 10161 10158 ] final   -1.09 input  -65.29 | X-H torsion
[ 10718 10713 10712 10709 ] final   19.75 input   66.30 | X-H torsion
[ 10763 10752 10751 10750 ] final   52.30 input  -60.55 | X-H torsion
[ 11005 11000 10999 10996 ] final   30.01 input  -57.11 | X-H torsion

> <Gold.Protein.ActiveResidues>
 VAL166  LYS551  ARG553  GLY616  TRP617  ASP618  TYR619  PRO620  LYS621  CYS622 
 ASP623  PHE694  ASN695  SER759  ASP760  ASP761  ALA762  ILE779  LEU786  VAL792 
 PHE793  MET794  SER795  GLU796  ALA797  LYS798  CYS799  TRP800  GLU811  SER814 

> <Gold.Protein.RotatedAtoms>
  152.1744  133.4665  159.4925 H   0  0  0  0  0  0  0  0  0  0  0  0  # atno 6907 bound_to 6896
  150.6924  134.1912  159.4295 H   0  0  0  0  0  0  0  0  0  0  0  0  # atno 6908 bound_to 6896
  151.9820  135.0023  160.0608 H   0  0  0  0  0  0  0  0  0  0  0  0  # atno 6909 bound_to 6896
  145.3923  140.9529  143.2333 H   0  0  0  0  0  0  0  0  0  0  0  0  # atno 7974 bound_to 7965
  154.4090  140.1651  156.2250 H   0  0  0  0  0  0  0  0  0  0  0  0  # atno 8008 bound_to 7997
  155.9331  140.3413  155.6242 H   0  0  0  0  0  0  0  0  0  0  0  0  # atno 8009 bound_to 7997
  155.7082  140.0753  157.2373 H   0  0  0  0  0  0  0  0  0  0  0  0  # atno 8010 bound_to 7997
  140.6795  143.6816  150.8101 H   0  0  0  0  0  0  0  0  0  0  0  0  # atno 10167 bound_to 10162
  157.1148  130.6524  149.5907 H   0  0  0  0  0  0  0  0  0  0  0  0  # atno 10718 bound_to 10713
  152.9788  135.5817  154.4557 H   0  0  0  0  0  0  0  0  0  0  0  0  # atno 10763 bound_to 10752
  154.4140  135.2770  155.2021 H   0  0  0  0  0  0  0  0  0  0  0  0  # atno 10764 bound_to 10752
  154.3798  135.6149  153.5839 H   0  0  0  0  0  0  0  0  0  0  0  0  # atno 10765 bound_to 10752
  140.2989  134.2780  155.7758 H   0  0  0  0  0  0  0  0  0  0  0  0  # atno 11005 bound_to 11000
  144.8431  139.5439  143.6891 LP  0  0  0  0  0  0  0  0  0  0  0  0  # atno 17320 bound_to 7965
  146.2791  139.6831  142.9241 LP  0  0  0  0  0  0  0  0  0  0  0  0  # atno 17321 bound_to 7965
  140.0514  143.5246  152.2671 LP  0  0  0  0  0  0  0  0  0  0  0  0  # atno 17342 bound_to 10162
  139.6109  144.7608  151.2954 LP  0  0  0  0  0  0  0  0  0  0  0  0  # atno 17343 bound_to 10162
  155.9842  130.4865  150.6971 LP  0  0  0  0  0  0  0  0  0  0  0  0  # atno 17370 bound_to 10713
  157.4528  131.0874  151.0828 LP  0  0  0  0  0  0  0  0  0  0  0  0  # atno 17371 bound_to 10713
  141.2132  133.7633  156.9736 LP  0  0  0  0  0  0  0  0  0  0  0  0  # atno 17394 bound_to 11000
  140.1128  134.9466  157.2090 LP  0  0  0  0  0  0  0  0  0  0  0  0  # atno 17395 bound_to 11000

$$$$
