AV-unprocessed.smi:412|AV-procd|sdf|2510|dock3
  -GOLD-   2262022463D 1   1.00000     0.00000
 Structure written by MMmdl.
 36 38  0  0  0  0  0  0  0  0  1 V2000
  153.6578  140.8165  160.3334 C   0  0  0  0  0  0  0  0  0  0  0  0
  152.8380  141.5138  159.3499 N   0  0  0  0  0  0  0  0  0  0  0  0
  152.4272  141.0435  158.1485 C   0  0  0  0  0  0  0  0  0  0  0  0
  152.6786  139.9330  157.6812 O   0  0  0  0  0  0  0  0  0  0  0  0
  151.6895  142.0093  157.5512 N   0  0  0  0  0  0  0  0  0  0  0  0
  151.0382  141.9259  156.2457 C   0  0  0  0  0  0  0  0  0  0  0  0
  150.6770  140.4739  155.8746 C   0  0  2  0  0  0  0  0  0  0  0  0
  151.7905  139.8764  155.2401 O   0  0  0  0  0  0  0  0  0  0  0  0
  149.4436  140.4337  154.9851 C   0  0  0  0  0  0  0  0  0  0  0  0
  148.7773  141.6325  154.6515 C   0  0  0  0  0  0  0  0  0  0  0  0
  147.6408  141.6056  153.8196 C   0  0  0  0  0  0  0  0  0  0  0  0
  147.1658  140.3800  153.3145 C   0  0  0  0  0  0  0  0  0  0  0  0
  147.8293  139.1813  153.6391 C   0  0  0  0  0  0  0  0  0  0  0  0
  148.9658  139.2078  154.4706 C   0  0  0  0  0  0  0  0  0  0  0  0
  151.6203  143.1248  158.3983 C   0  0  0  0  0  0  0  0  0  0  0  0
  150.9747  144.3644  158.2468 C   0  0  0  0  0  0  0  0  0  0  0  0
  151.1003  145.2919  159.3077 C   0  0  0  0  0  0  0  0  0  0  0  0
  151.8498  144.9709  160.4696 C   0  0  0  0  0  0  0  0  0  0  0  0
  152.4883  143.7149  160.5963 C   0  0  0  0  0  0  0  0  0  0  0  0
  152.3455  142.8126  159.5284 C   0  0  0  0  0  0  0  0  0  0  0  0
  153.8870  139.7952  160.0269 H   0  0  0  0  0  0  0  0  0  0  0  0
  153.1397  140.7708  161.2915 H   0  0  0  0  0  0  0  0  0  0  0  0
  154.6006  141.3448  160.4788 H   0  0  0  0  0  0  0  0  0  0  0  0
  150.1269  142.5225  156.3066 H   0  0  0  0  0  0  0  0  0  0  0  0
  151.6437  142.3926  155.4667 H   0  0  0  0  0  0  0  0  0  0  0  0
  150.4660  139.9005  156.7786 H   0  0  0  0  0  0  0  0  0  0  0  0
  151.6172  138.9532  155.1377 H   0  0  0  0  0  0  0  0  0  0  0  0
  149.1369  142.5781  155.0302 H   0  0  0  0  0  0  0  0  0  0  0  0
  147.1344  142.5256  153.5676 H   0  0  0  0  0  0  0  0  0  0  0  0
  146.2943  140.3597  152.6766 H   0  0  0  0  0  0  0  0  0  0  0  0
  147.4679  138.2412  153.2490 H   0  0  0  0  0  0  0  0  0  0  0  0
  149.4718  138.2837  154.7096 H   0  0  0  0  0  0  0  0  0  0  0  0
  150.4048  144.6019  157.3605 H   0  0  0  0  0  0  0  0  0  0  0  0
  150.6195  146.2560  159.2325 H   0  0  0  0  0  0  0  0  0  0  0  0
  151.9332  145.6940  161.2676 H   0  0  0  0  0  0  0  0  0  0  0  0
  153.0592  143.4620  161.4775 H   0  0  0  0  0  0  0  0  0  0  0  0
  1  2  1  0  0  0  0
  1 21  1  0  0  0  0
  1 22  1  0  0  0  0
  1 23  1  0  0  0  0
  2 20  1  0  0  0  0
  2  3  1  0  0  0  0
  3  4  2  0  0  0  0
  3  5  1  0  0  0  0
  5  6  1  0  0  0  0
  5 15  1  0  0  0  0
  6  7  1  0  0  0  0
  6 24  1  0  0  0  0
  6 25  1  0  0  0  0
  7  8  1  0  0  0  0
  7  9  1  0  0  0  0
  7 26  1  0  0  0  0
  8 27  1  0  0  0  0
  9 14  1  0  0  0  0
  9 10  2  0  0  0  0
 10 11  1  0  0  0  0
 10 28  1  0  0  0  0
 11 12  2  0  0  0  0
 11 29  1  0  0  0  0
 12 13  1  0  0  0  0
 12 30  1  0  0  0  0
 13 14  2  0  0  0  0
 13 31  1  0  0  0  0
 14 32  1  0  0  0  0
 15 20  2  0  0  0  0
 15 16  1  0  0  0  0
 16 17  2  0  0  0  0
 16 33  1  0  0  0  0
 17 18  1  0  0  0  0
 17 34  1  0  0  0  0
 18 19  2  0  0  0  0
 18 35  1  0  0  0  0
 19 20  1  0  0  0  0
 19 36  1  0  0  0  0
M  END
> <s_m_source_file>
AV-unprocessed.smi

> <i_m_source_file_index>
412

> <i_lp_mmshare_version>
43012

> <i_f3d_flags>
0

> <s_epik_input>
W2NIXTFbY0hdW2NIXVtjSF1jKGMxMiluKFtDSDNdKWMoPU8pbjJbQ0gyXVtDQEhdKFtPSF0pYzNbY0hdW2NIXVtjSF1bY0hdW2NIXTM=

> <s_epik_cmdline>
J2VwaWtfcHl0aG9uJywgJy1waCcsICc3LjAnLCAnLXRuJywgJzgnLCAnLW1hJywgJzIwMCcsICctbWV0YWxfYmluZGluZycsICctaW1hZScsICc8aW5maWxlLm1hZT4nLCAnLW9tYWUnLCAnPG91dGZpbGUubWFlPic=

> <r_lp_tautomer_probability>
1

> <r_epik_Ionization_Penalty>
1.34619e-06

> <r_epik_Ionization_Penalty_Charging>
2.57375e-09

> <r_epik_Ionization_Penalty_Neutral>
1.34362e-06

> <r_epik_State_Penalty>
-0

> <r_epik_Charging_Adjusted_Penalty>
2.57375e-09

> <i_epik_Tot_Q>
0

> <i_epik_Tot_abs_Q>
0

> <r_epik_Metal_State_Penalty>
-0

> <b_epik_Metal_Only>
0

> <s_lp_Force_Field>
OPLS_2005

> <r_lp_Energy>
43.7895

> <b_lp_Chiralities_Consistent>
1

> <s_lp_Variant>
AV-unprocessed.smi:412-1

> <Gold.Version>
5.8.1

> <Gold.Id.Protein>
6NUR|6NUR_protein|mol2

> <Gold.PLP.Fitness>
54.8226

> <Gold.PLP.PLP>
-50.3095

> <Gold.PLP.part.hbond>
-2.0000

> <Gold.PLP.part.metal>
0.0000

> <Gold.PLP.part.buried>
-5.3731

> <Gold.PLP.part.nonpolar>
-41.5726

> <Gold.PLP.part.repulsive>
0.0000

> <Gold.PLP.ligand.clash>
0.0000

> <Gold.PLP.ligand.torsion>
0.7361

> <Gold.PLP.Chemscore.Hbond>
1.9920

> <Gold.PLP.Chemscore.CHOScore>
0.0000

> <Gold.PLP.Chemscore.Metal>
0.0000

> <Gold.Chemscore.Hbonds>
donor molecule, donor type, donor heavy atom, donor atom, acceptor molecule, acceptor atom, score
      P1  H  7989  7998       L1     8  0.86
      P1  H  7997  8010       L1     4  1.00

> <Gold.PLP.Chemscore.Internal.Correction>
0.0092

> <Gold.Rescore>
     Score         DG    S(hbond)    S(metal)    S(lipo)     H(rot)  DE(clash)    DE(int)     intcor
     18.24     -20.56       1.65        0.00     120.26       1.76       0.04       2.28       ----

> <Gold.Chemscore.Fitness>
18.2392

> <Gold.Chemscore.DG>
-20.5600

> <Gold.Chemscore.ZeroCoef>
-5.4800

> <Gold.Chemscore.Hbond>
1.6479

> <Gold.Chemscore.Metal>
0.0000

> <Gold.Chemscore.Lipo>
120.2568

> <Gold.Chemscore.Internal_Hbond>
0.0000

> <Gold.Chemscore.DEClash>
0.0395

> <Gold.Chemscore.DEInternal>
2.2813

> <Gold.Chemscore.Rot>
1.7555

> <Gold.Chemscore.Internal.Correction>
   9.000000E+99

> <Gold.Chemscore.Hbonds>
donor molecule, donor type, donor heavy atom, donor atom, acceptor molecule, acceptor atom, score
      P1  H  7989  7998       L1     8  0.13
      P1  H  7997  8010       L1     4  0.58

> <Gold.Chemscore.Hbond.Weighted>
-5.5041

> <Gold.Chemscore.Metal.Weighted>
-0.0000

> <Gold.Chemscore.Lipo.Weighted>
-14.0700

> <Gold.Chemscore.Internal_Hbond.Weighted>
0.0000

> <Gold.Chemscore.DEClash.Weighted>
0.0395

> <Gold.Chemscore.DEInternal.Weighted>
2.2813

> <Gold.Chemscore.Rot.Weighted>
4.4942

> <Gold.Chemscore.Internal.Correction.Weighted>
   9.000000E+99

> <Gold.Protein.RotatedTorsions>
[ 6907 6896 6895 6894 ] final  -36.10 input  -60.11 | X-H torsion
[ 7974 7965 7964 7962 ] final   93.69 input  175.53 | X-H torsion
[ 8008 7997 7996 7995 ] final   53.02 input   59.86 | X-H torsion
[ 10167 10162 10161 10158 ] final -137.33 input  -65.29 | X-H torsion
[ 10718 10713 10712 10709 ] final   28.88 input   66.30 | X-H torsion
[ 10763 10752 10751 10750 ] final  -83.41 input  -60.55 | X-H torsion
[ 11005 11000 10999 10996 ] final   81.87 input  -57.11 | X-H torsion

> <Gold.Protein.ActiveResidues>
 VAL166  LYS551  ARG553  GLY616  TRP617  ASP618  TYR619  PRO620  LYS621  CYS622 
 ASP623  PHE694  ASN695  SER759  ASP760  ASP761  ALA762  ILE779  LEU786  VAL792 
 PHE793  MET794  SER795  GLU796  ALA797  LYS798  CYS799  TRP800  GLU811  SER814 

> <Gold.Protein.RotatedAtoms>
  151.0315  134.9542  159.8113 H   0  0  0  0  0  0  0  0  0  0  0  0  # atno 6907 bound_to 6896
  152.5346  134.2775  159.9005 H   0  0  0  0  0  0  0  0  0  0  0  0  # atno 6908 bound_to 6896
  151.2784  133.4179  159.2659 H   0  0  0  0  0  0  0  0  0  0  0  0  # atno 6909 bound_to 6896
  145.4756  139.2280  143.2911 H   0  0  0  0  0  0  0  0  0  0  0  0  # atno 7974 bound_to 7965
  155.4613  140.3462  155.4313 H   0  0  0  0  0  0  0  0  0  0  0  0  # atno 8008 bound_to 7997
  156.1159  140.1473  156.9303 H   0  0  0  0  0  0  0  0  0  0  0  0  # atno 8009 bound_to 7997
  154.4788  140.0876  156.7307 H   0  0  0  0  0  0  0  0  0  0  0  0  # atno 8010 bound_to 7997
  139.8588  143.7103  152.2652 H   0  0  0  0  0  0  0  0  0  0  0  0  # atno 10167 bound_to 10162
  157.2393  130.7061  149.6350 H   0  0  0  0  0  0  0  0  0  0  0  0  # atno 10718 bound_to 10713
  154.5874  135.5557  153.7244 H   0  0  0  0  0  0  0  0  0  0  0  0  # atno 10763 bound_to 10752
  153.0104  135.6335  154.1898 H   0  0  0  0  0  0  0  0  0  0  0  0  # atno 10764 bound_to 10752
  154.1838  135.2886  155.3023 H   0  0  0  0  0  0  0  0  0  0  0  0  # atno 10765 bound_to 10752
  139.9083  134.8029  156.2099 H   0  0  0  0  0  0  0  0  0  0  0  0  # atno 11005 bound_to 11000
  146.2371  140.5538  142.8950 LP  0  0  0  0  0  0  0  0  0  0  0  0  # atno 17320 bound_to 7965
  144.7919  140.6048  143.6536 LP  0  0  0  0  0  0  0  0  0  0  0  0  # atno 17321 bound_to 7965
  139.7394  144.7563  151.0677 LP  0  0  0  0  0  0  0  0  0  0  0  0  # atno 17342 bound_to 10162
  140.7778  143.4991  150.9794 LP  0  0  0  0  0  0  0  0  0  0  0  0  # atno 17343 bound_to 10162
  155.9671  130.4463  150.5537 LP  0  0  0  0  0  0  0  0  0  0  0  0  # atno 17370 bound_to 10713
  157.3396  131.0714  151.1798 LP  0  0  0  0  0  0  0  0  0  0  0  0  # atno 17371 bound_to 10713
  141.0472  133.6907  156.1704 LP  0  0  0  0  0  0  0  0  0  0  0  0  # atno 17394 bound_to 11000
  140.6866  134.4710  157.5589 LP  0  0  0  0  0  0  0  0  0  0  0  0  # atno 17395 bound_to 11000

$$$$
