AV-unprocessed.smi:2004|AV-procd|sdf|8123|dock2
  -GOLD-   2272010353D 1   1.00000     0.00000
 Structure written by MMmdl.
 40 42  0  0  0  0  0  0  0  0  2 V2000
  150.6860  138.8958  159.2096 O   0  0  0  0  0  0  0  0  0  0  0  0
  150.5031  138.4255  157.8911 C   0  0  2  0  0  0  0  0  0  0  0  0
  150.6614  136.8924  157.8787 C   0  0  0  0  0  0  0  0  0  0  0  0
  150.0671  136.3821  159.0593 O   0  0  0  0  0  0  0  0  0  0  0  0
  148.6632  136.2239  158.9918 C   0  0  0  0  0  0  0  0  0  0  0  0
  148.1304  135.7074  160.3131 C   0  0  0  0  0  0  0  0  0  0  0  0
  147.7547  134.3534  160.4366 C   0  0  0  0  0  0  0  0  0  0  0  0
  147.2823  133.8588  161.6676 C   0  0  0  0  0  0  0  0  0  0  0  0
  147.1818  134.7172  162.7795 C   0  0  0  0  0  0  0  0  0  0  0  0
  147.5509  136.0710  162.6588 C   0  0  0  0  0  0  0  0  0  0  0  0
  148.0222  136.5664  161.4272 C   0  0  0  0  0  0  0  0  0  0  0  0
  151.4721  139.1932  156.9573 C   0  0  0  0  0  0  0  0  0  0  0  0
  151.2895  140.6520  156.9687 N   0  0  0  0  0  0  0  0  0  0  0  0
  150.5558  141.4456  156.1413 C   0  0  0  0  0  0  0  0  0  0  0  0
  150.6661  142.7254  156.5931 N   0  3  0  0  0  0  0  0  0  0  0  0
  151.4867  142.7520  157.7224 C   0  0  0  0  0  0  0  0  0  0  0  0
  151.8818  143.8086  158.5364 C   0  0  0  0  0  0  0  0  0  0  0  0
  152.7254  143.4900  159.6206 C   0  0  0  0  0  0  0  0  0  0  0  0
  153.1490  142.1658  159.8577 C   0  0  0  0  0  0  0  0  0  0  0  0
  152.7447  141.1026  159.0235 C   0  0  0  0  0  0  0  0  0  0  0  0
  151.9037  141.4251  157.9600 C   0  0  0  0  0  0  0  0  0  0  0  0
  150.6925  138.1550  159.7962 H   0  0  0  0  0  0  0  0  0  0  0  0
  149.4748  138.6633  157.6176 H   0  0  0  0  0  0  0  0  0  0  0  0
  150.2014  136.4711  156.9833 H   0  0  0  0  0  0  0  0  0  0  0  0
  151.7152  136.6099  157.8730 H   0  0  0  0  0  0  0  0  0  0  0  0
  148.1890  137.1784  158.7576 H   0  0  0  0  0  0  0  0  0  0  0  0
  148.4048  135.5245  158.1955 H   0  0  0  0  0  0  0  0  0  0  0  0
  147.8354  133.6895  159.5883 H   0  0  0  0  0  0  0  0  0  0  0  0
  146.9978  132.8210  161.7590 H   0  0  0  0  0  0  0  0  0  0  0  0
  146.8199  134.3380  163.7238 H   0  0  0  0  0  0  0  0  0  0  0  0
  147.4724  136.7292  163.5116 H   0  0  0  0  0  0  0  0  0  0  0  0
  148.3078  137.6048  161.3451 H   0  0  0  0  0  0  0  0  0  0  0  0
  152.5116  138.9705  157.2009 H   0  0  0  0  0  0  0  0  0  0  0  0
  151.3205  138.8734  155.9251 H   0  0  0  0  0  0  0  0  0  0  0  0
  149.9750  141.1168  155.2918 H   0  0  0  0  0  0  0  0  0  0  0  0
  151.5571  144.8233  158.3581 H   0  0  0  0  0  0  0  0  0  0  0  0
  153.0538  144.2772  160.2837 H   0  0  0  0  0  0  0  0  0  0  0  0
  153.7955  141.9607  160.6985 H   0  0  0  0  0  0  0  0  0  0  0  0
  153.0705  140.0911  159.2150 H   0  0  0  0  0  0  0  0  0  0  0  0
  150.2091  143.5198  156.1643 H   0  0  0  0  0  0  0  0  0  0  0  0
  1  2  1  0  0  0  0
  1 22  1  0  0  0  0
  2  3  1  0  0  0  0
  2 12  1  0  0  0  0
  2 23  1  0  0  0  0
  3  4  1  0  0  0  0
  3 24  1  0  0  0  0
  3 25  1  0  0  0  0
  4  5  1  0  0  0  0
  5  6  1  0  0  0  0
  5 26  1  0  0  0  0
  5 27  1  0  0  0  0
  6 11  1  0  0  0  0
  6  7  2  0  0  0  0
  7  8  1  0  0  0  0
  7 28  1  0  0  0  0
  8  9  2  0  0  0  0
  8 29  1  0  0  0  0
  9 10  1  0  0  0  0
  9 30  1  0  0  0  0
 10 11  2  0  0  0  0
 10 31  1  0  0  0  0
 11 32  1  0  0  0  0
 12 13  1  0  0  0  0
 12 33  1  0  0  0  0
 12 34  1  0  0  0  0
 13 21  1  0  0  0  0
 13 14  1  0  0  0  0
 14 15  2  0  0  0  0
 14 35  1  0  0  0  0
 15 16  1  0  0  0  0
 15 40  1  0  0  0  0
 16 21  2  0  0  0  0
 16 17  1  0  0  0  0
 17 18  2  0  0  0  0
 17 36  1  0  0  0  0
 18 19  1  0  0  0  0
 18 37  1  0  0  0  0
 19 20  2  0  0  0  0
 19 38  1  0  0  0  0
 20 21  1  0  0  0  0
 20 39  1  0  0  0  0
M  CHG  1  15   1
M  END
> <s_m_source_file>
AV-unprocessed.smi

> <i_m_source_file_index>
2004

> <i_lp_mmshare_version>
43012

> <i_f3d_flags>
0

> <s_epik_input>
W2NIXTFbY0hdW2NIXVtjSF1jKGMxMiluKFtjSF1uMilbQ0gyXVtDQEhdKFtPSF0pW0NIMl1PW0NIMl1jM1tjSF1bY0hdW2NIXVtjSF1bY0hdMw==

> <s_epik_cmdline>
J2VwaWtfcHl0aG9uJywgJy1waCcsICc3LjAnLCAnLXRuJywgJzgnLCAnLW1hJywgJzIwMCcsICctbWV0YWxfYmluZGluZycsICctaW1hZScsICc8aW5maWxlLm1hZT4nLCAnLW9tYWUnLCAnPG91dGZpbGUubWFlPic=

> <r_epik_Ionization_Penalty>
1.28975

> <r_epik_Ionization_Penalty_Charging>
1.28975

> <r_epik_Ionization_Penalty_Neutral>
1.07667e-06

> <r_epik_State_Penalty>
1.36276

> <r_epik_Charging_Adjusted_Penalty>
2.65251

> <i_epik_Tot_Q>
1

> <i_epik_Tot_abs_Q>
1

> <r_epik_Metal_State_Penalty>
5.39298

> <b_epik_Metal_Only>
0

> <s_lp_Force_Field>
OPLS_2005

> <r_lp_Energy>
17.8954

> <b_lp_Chiralities_Consistent>
1

> <s_lp_Variant>
AV-unprocessed.smi:2004-3

> <Gold.Version>
5.8.1

> <Gold.Id.Protein>
6NUR|6NUR_protein|mol2

> <Gold.PLP.Fitness>
54.9667

> <Gold.PLP.PLP>
-47.5365

> <Gold.PLP.part.hbond>
-3.0000

> <Gold.PLP.part.metal>
0.0000

> <Gold.PLP.part.buried>
-4.4532

> <Gold.PLP.part.nonpolar>
-41.2663

> <Gold.PLP.part.repulsive>
0.0729

> <Gold.PLP.ligand.clash>
0.0000

> <Gold.PLP.ligand.torsion>
0.8563

> <Gold.PLP.Chemscore.Hbond>
3.0000

> <Gold.PLP.Chemscore.CHOScore>
0.0000

> <Gold.PLP.Chemscore.Metal>
0.0000

> <Gold.Chemscore.Hbonds>
donor molecule, donor type, donor heavy atom, donor atom, acceptor molecule, acceptor atom, score
      L1  H    15    40       P1  8028  2.00
      P1  H  6896  6907       L1     4  1.00

> <Gold.PLP.Chemscore.Internal.Correction>
0.1429

> <Gold.Rescore>
     Score         DG    S(hbond)    S(metal)    S(lipo)     H(rot)  DE(clash)    DE(int)     intcor
     19.09     -19.93       1.88        0.00     122.85       2.43       0.03       0.82       ----

> <Gold.Chemscore.Fitness>
19.0877

> <Gold.Chemscore.DG>
-19.9338

> <Gold.Chemscore.ZeroCoef>
-5.4800

> <Gold.Chemscore.Hbond>
1.8843

> <Gold.Chemscore.Metal>
0.0000

> <Gold.Chemscore.Lipo>
122.8465

> <Gold.Chemscore.Internal_Hbond>
0.0000

> <Gold.Chemscore.DEClash>
0.0304

> <Gold.Chemscore.DEInternal>
0.8158

> <Gold.Chemscore.Rot>
2.4269

> <Gold.Chemscore.Internal.Correction>
   9.000000E+99

> <Gold.Chemscore.Hbonds>
donor molecule, donor type, donor heavy atom, donor atom, acceptor molecule, acceptor atom, score
      L1  H    15    40       P1  8028  1.00
      P1  H  6896  6907       L1     4  0.77

> <Gold.Chemscore.Hbond.Weighted>
-6.2935

> <Gold.Chemscore.Metal.Weighted>
-0.0000

> <Gold.Chemscore.Lipo.Weighted>
-14.3730

> <Gold.Chemscore.Internal_Hbond.Weighted>
0.0000

> <Gold.Chemscore.DEClash.Weighted>
0.0304

> <Gold.Chemscore.DEInternal.Weighted>
0.8158

> <Gold.Chemscore.Rot.Weighted>
6.2127

> <Gold.Chemscore.Internal.Correction.Weighted>
   9.000000E+99

> <Gold.Protein.RotatedTorsions>
[ 6907 6896 6895 6894 ] final  -38.02 input  -60.11 | X-H torsion
[ 7974 7965 7964 7962 ] final -119.01 input  175.53 | X-H torsion
[ 8008 7997 7996 7995 ] final  -95.93 input   59.86 | X-H torsion
[ 10167 10162 10161 10158 ] final  132.00 input  -65.29 | X-H torsion
[ 10718 10713 10712 10709 ] final  115.59 input   66.30 | X-H torsion
[ 10763 10752 10751 10750 ] final  110.16 input  -60.55 | X-H torsion
[ 11005 11000 10999 10996 ] final   63.24 input  -57.11 | X-H torsion

> <Gold.Protein.ActiveResidues>
 VAL166  LYS551  ARG553  GLY616  TRP617  ASP618  TYR619  PRO620  LYS621  CYS622 
 ASP623  PHE694  ASN695  SER759  ASP760  ASP761  ALA762  ILE779  LEU786  VAL792 
 PHE793  MET794  SER795  GLU796  ALA797  LYS798  CYS799  TRP800  GLU811  SER814 

> <Gold.Protein.RotatedAtoms>
  151.0075  134.9371  159.7988 H   0  0  0  0  0  0  0  0  0  0  0  0  # atno 6907 bound_to 6896
  152.5294  134.3072  159.9110 H   0  0  0  0  0  0  0  0  0  0  0  0  # atno 6908 bound_to 6896
  151.3078  133.4052  159.2679 H   0  0  0  0  0  0  0  0  0  0  0  0  # atno 6909 bound_to 6896
  145.0674  140.8334  143.4116 H   0  0  0  0  0  0  0  0  0  0  0  0  # atno 7974 bound_to 7965
  154.7678  140.0475  157.1027 H   0  0  0  0  0  0  0  0  0  0  0  0  # atno 8008 bound_to 7997
  154.9857  140.3107  155.4908 H   0  0  0  0  0  0  0  0  0  0  0  0  # atno 8009 bound_to 7997
  156.2916  140.2228  156.4959 H   0  0  0  0  0  0  0  0  0  0  0  0  # atno 8010 bound_to 7997
  139.5359  144.6681  151.4788 H   0  0  0  0  0  0  0  0  0  0  0  0  # atno 10167 bound_to 10162
  157.6213  131.1014  150.7351 H   0  0  0  0  0  0  0  0  0  0  0  0  # atno 10718 bound_to 10713
  153.4451  135.3757  155.2251 H   0  0  0  0  0  0  0  0  0  0  0  0  # atno 10763 bound_to 10752
  154.8755  135.3872  154.4106 H   0  0  0  0  0  0  0  0  0  0  0  0  # atno 10764 bound_to 10752
  153.4657  135.7087  153.6087 H   0  0  0  0  0  0  0  0  0  0  0  0  # atno 10765 bound_to 10752
  140.0038  134.6401  155.9888 H   0  0  0  0  0  0  0  0  0  0  0  0  # atno 11005 bound_to 11000
  145.1335  139.2617  143.5527 LP  0  0  0  0  0  0  0  0  0  0  0  0  # atno 17320 bound_to 7965
  146.3527  140.0992  142.8609 LP  0  0  0  0  0  0  0  0  0  0  0  0  # atno 17321 bound_to 7965
  140.6565  143.8589  150.6840 LP  0  0  0  0  0  0  0  0  0  0  0  0  # atno 17342 bound_to 10162
  140.1970  143.3990  152.1820 LP  0  0  0  0  0  0  0  0  0  0  0  0  # atno 17343 bound_to 10162
  156.7708  130.4828  149.5419 LP  0  0  0  0  0  0  0  0  0  0  0  0  # atno 17370 bound_to 10713
  156.1360  130.6211  151.0400 LP  0  0  0  0  0  0  0  0  0  0  0  0  # atno 17371 bound_to 10713
  141.1662  133.6537  156.4487 LP  0  0  0  0  0  0  0  0  0  0  0  0  # atno 17394 bound_to 11000
  140.4679  134.6781  157.5115 LP  0  0  0  0  0  0  0  0  0  0  0  0  # atno 17395 bound_to 11000

$$$$
