AV-unprocessed.smi:2391|AV-procd|sdf|9484|dock2
  -GOLD-   2272013113D 1   1.00000     0.00000
 Structure written by MMmdl.
 35 36  0  0  0  0  0  0  0  0  1 V2000
  152.5612  139.8458  155.1401 O   0  0  0  0  0  0  0  0  0  0  0  0
  151.5823  139.3745  155.7261 C   0  0  0  0  0  0  0  0  0  0  0  0
  150.3959  138.8914  155.1867 N   0  0  0  0  0  0  0  0  0  0  0  0
  149.4933  139.6721  154.6682 C   0  0  0  0  0  0  0  0  0  0  0  0
  148.2622  139.1256  154.1234 C   0  0  0  0  0  0  0  0  0  0  0  0
  147.3160  139.9258  153.5800 C   0  0  0  0  0  0  0  0  0  0  0  0
  147.5539  141.3554  153.5479 C   0  0  0  0  0  0  0  0  0  0  0  0
  148.6325  141.8843  154.0205 N   0  0  0  0  0  0  0  0  0  0  0  0
  149.5687  141.0780  154.5610 N   0  0  0  0  0  0  0  0  0  0  0  0
  151.5466  139.2671  157.0631 N   0  0  0  0  0  0  0  0  0  0  0  0
  152.6011  139.6618  158.0006 C   0  0  1  0  0  0  0  0  0  0  0  0
  152.0828  140.8050  158.9108 C   0  0  0  0  0  0  0  0  0  0  0  0
  151.4310  141.9714  158.1568 C   0  0  0  0  0  0  0  0  0  0  0  0
  151.3921  143.1079  159.1770 C   0  0  0  0  0  0  0  0  0  0  0  0
  152.6354  142.9133  160.0527 C   0  0  0  0  0  0  0  0  0  0  0  0
  153.1614  141.5017  159.7537 C   0  0  0  0  0  0  0  0  0  0  0  0
  153.0694  138.4095  158.7767 C   0  0  0  0  0  0  0  0  0  0  0  0
  153.3924  137.4409  157.9184 F   0  0  0  0  0  0  0  0  0  0  0  0
  154.1488  138.6772  159.5107 F   0  0  0  0  0  0  0  0  0  0  0  0
  152.1012  137.9639  159.5784 F   0  0  0  0  0  0  0  0  0  0  0  0
  148.0687  138.0628  154.1390 H   0  0  0  0  0  0  0  0  0  0  0  0
  146.3998  139.5203  153.1765 H   0  0  0  0  0  0  0  0  0  0  0  0
  146.7622  141.9547  153.0983 H   0  0  0  0  0  0  0  0  0  0  0  0
  150.7137  138.8694  157.4730 H   0  0  0  0  0  0  0  0  0  0  0  0
  153.4622  140.0392  157.4468 H   0  0  0  0  0  0  0  0  0  0  0  0
  151.3346  140.3994  159.5937 H   0  0  0  0  0  0  0  0  0  0  0  0
  152.0510  142.2618  157.3071 H   0  0  0  0  0  0  0  0  0  0  0  0
  150.4384  141.7278  157.7761 H   0  0  0  0  0  0  0  0  0  0  0  0
  151.3638  144.0896  158.7035 H   0  0  0  0  0  0  0  0  0  0  0  0
  150.4955  143.0134  159.7913 H   0  0  0  0  0  0  0  0  0  0  0  0
  153.3977  143.6572  159.8180 H   0  0  0  0  0  0  0  0  0  0  0  0
  152.3828  143.0276  161.1075 H   0  0  0  0  0  0  0  0  0  0  0  0
  153.3837  140.9516  160.6685 H   0  0  0  0  0  0  0  0  0  0  0  0
  154.0894  141.5794  159.1852 H   0  0  0  0  0  0  0  0  0  0  0  0
  150.3956  141.5339  154.9199 H   0  0  0  0  0  0  0  0  0  0  0  0
  1  2  2  0  0  0  0
  2  3  1  0  0  0  0
  2 10  1  0  0  0  0
  3  4  2  0  0  0  0
  4  9  1  0  0  0  0
  4  5  1  0  0  0  0
  5  6  2  0  0  0  0
  5 21  1  0  0  0  0
  6  7  1  0  0  0  0
  6 22  1  0  0  0  0
  7  8  2  0  0  0  0
  7 23  1  0  0  0  0
  8  9  1  0  0  0  0
  9 35  1  0  0  0  0
 10 11  1  0  0  0  0
 10 24  1  0  0  0  0
 11 12  1  0  0  0  0
 11 17  1  0  0  0  0
 11 25  1  0  0  0  0
 12 16  1  0  0  0  0
 12 13  1  0  0  0  0
 12 26  1  0  0  0  0
 13 14  1  0  0  0  0
 13 27  1  0  0  0  0
 13 28  1  0  0  0  0
 14 15  1  0  0  0  0
 14 29  1  0  0  0  0
 14 30  1  0  0  0  0
 15 16  1  0  0  0  0
 15 31  1  0  0  0  0
 15 32  1  0  0  0  0
 16 33  1  0  0  0  0
 16 34  1  0  0  0  0
 17 18  1  0  0  0  0
 17 19  1  0  0  0  0
 17 20  1  0  0  0  0
M  END
> <s_m_source_file>
AV-unprocessed.smi

> <i_m_source_file_index>
2391

> <i_lp_mmshare_version>
43012

> <i_f3d_flags>
0

> <s_epik_input>
W0NIMl0xW0NIMl1bQ0gyXVtDSDJdW0NIXTFbQ0BIXShDKEYpKEYpRilbTkhdQyg9TylbTkhdYzJbY0hdW2NIXVtjSF1ubjI=

> <s_epik_cmdline>
J2VwaWtfcHl0aG9uJywgJy1waCcsICc3LjAnLCAnLXRuJywgJzgnLCAnLW1hJywgJzIwMCcsICctbWV0YWxfYmluZGluZycsICctaW1hZScsICc8aW5maWxlLm1hZT4nLCAnLW9tYWUnLCAnPG91dGZpbGUubWFlPic=

> <r_epik_Ionization_Penalty>
0.0611197

> <r_epik_Ionization_Penalty_Charging>
0.0611196

> <r_epik_Ionization_Penalty_Neutral>
6.50554e-08

> <r_epik_State_Penalty>
2.29873

> <r_epik_Charging_Adjusted_Penalty>
2.35985

> <i_epik_Tot_Q>
0

> <i_epik_Tot_abs_Q>
0

> <r_epik_Metal_State_Penalty>
2.32932

> <b_epik_Metal_Only>
0

> <s_lp_Force_Field>
OPLS_2005

> <r_lp_Energy>
50.064

> <b_lp_Chiralities_Consistent>
1

> <s_lp_Variant>
AV-unprocessed.smi:2391-4

> <Gold.Version>
5.8.1

> <Gold.Id.Protein>
6NUR|6NUR_protein|mol2

> <Gold.PLP.Fitness>
38.1770

> <Gold.PLP.PLP>
-33.9465

> <Gold.PLP.part.hbond>
-3.0000

> <Gold.PLP.part.metal>
0.0000

> <Gold.PLP.part.buried>
-4.5541

> <Gold.PLP.part.nonpolar>
-26.9168

> <Gold.PLP.part.repulsive>
1.5770

> <Gold.PLP.ligand.clash>
0.0000

> <Gold.PLP.ligand.torsion>
0.8509

> <Gold.PLP.Chemscore.Hbond>
1.8505

> <Gold.PLP.Chemscore.CHOScore>
0.0000

> <Gold.PLP.Chemscore.Metal>
0.0000

> <Gold.Chemscore.Hbonds>
donor molecule, donor type, donor heavy atom, donor atom, acceptor molecule, acceptor atom, score
      P1  H  7989  7998       L1     1  0.46
      P1  H  7997  8009       L1     1  0.93
      P1  H  8011  8017       L1     8  0.30

> <Gold.PLP.Chemscore.Internal.Correction>
0.3810

> <Gold.Rescore>
     Score         DG    S(hbond)    S(metal)    S(lipo)     H(rot)  DE(clash)    DE(int)     intcor
     13.91     -15.06       1.20        0.00      76.81       1.33       0.08       1.07       ----

> <Gold.Chemscore.Fitness>
13.9109

> <Gold.Chemscore.DG>
-15.0616

> <Gold.Chemscore.ZeroCoef>
-5.4800

> <Gold.Chemscore.Hbond>
1.1977

> <Gold.Chemscore.Metal>
0.0000

> <Gold.Chemscore.Lipo>
76.8113

> <Gold.Chemscore.Internal_Hbond>
0.0000

> <Gold.Chemscore.DEClash>
0.0789

> <Gold.Chemscore.DEInternal>
1.0718

> <Gold.Chemscore.Rot>
1.3304

> <Gold.Chemscore.Internal.Correction>
   9.000000E+99

> <Gold.Chemscore.Hbonds>
donor molecule, donor type, donor heavy atom, donor atom, acceptor molecule, acceptor atom, score
      P1  H  7989  7998       L1     1  0.18
      P1  H  7997  8009       L1     1  0.88
      P1  H  8011  8017       L1     8  0.02

> <Gold.Chemscore.Hbond.Weighted>
-4.0004

> <Gold.Chemscore.Metal.Weighted>
-0.0000

> <Gold.Chemscore.Lipo.Weighted>
-8.9869

> <Gold.Chemscore.Internal_Hbond.Weighted>
0.0000

> <Gold.Chemscore.DEClash.Weighted>
0.0789

> <Gold.Chemscore.DEInternal.Weighted>
1.0718

> <Gold.Chemscore.Rot.Weighted>
3.4057

> <Gold.Chemscore.Internal.Correction.Weighted>
   9.000000E+99

> <Gold.Protein.RotatedTorsions>
[ 6907 6896 6895 6894 ] final   26.33 input  -60.11 | X-H torsion
[ 7974 7965 7964 7962 ] final -174.05 input  175.53 | X-H torsion
[ 8008 7997 7996 7995 ] final -147.26 input   59.86 | X-H torsion
[ 10167 10162 10161 10158 ] final  -36.64 input  -65.29 | X-H torsion
[ 10718 10713 10712 10709 ] final  104.47 input   66.30 | X-H torsion
[ 10763 10752 10751 10750 ] final  -42.24 input  -60.55 | X-H torsion
[ 11005 11000 10999 10996 ] final  -67.44 input  -57.11 | X-H torsion

> <Gold.Protein.ActiveResidues>
 VAL166  LYS551  ARG553  GLY616  TRP617  ASP618  TYR619  PRO620  LYS621  CYS622 
 ASP623  PHE694  ASN695  SER759  ASP760  ASP761  ALA762  ILE779  LEU786  VAL792 
 PHE793  MET794  SER795  GLU796  ALA797  LYS798  CYS799  TRP800  GLU811  SER814 

> <Gold.Protein.RotatedAtoms>
  151.9858  135.0005  160.0559 H   0  0  0  0  0  0  0  0  0  0  0  0  # atno 6907 bound_to 6896
  152.1654  133.4604  159.4890 H   0  0  0  0  0  0  0  0  0  0  0  0  # atno 6908 bound_to 6896
  150.6894  134.1937  159.4338 H   0  0  0  0  0  0  0  0  0  0  0  0  # atno 6909 bound_to 6896
  144.7134  140.1530  143.6382 H   0  0  0  0  0  0  0  0  0  0  0  0  # atno 7974 bound_to 7965
  155.5727  140.0636  157.2802 H   0  0  0  0  0  0  0  0  0  0  0  0  # atno 8008 bound_to 7997
  154.4356  140.1866  156.0942 H   0  0  0  0  0  0  0  0  0  0  0  0  # atno 8009 bound_to 7997
  156.0364  140.3300  155.7199 H   0  0  0  0  0  0  0  0  0  0  0  0  # atno 8010 bound_to 7997
  140.7138  143.3395  151.2388 H   0  0  0  0  0  0  0  0  0  0  0  0  # atno 10167 bound_to 10162
  157.6739  131.0804  150.5711 H   0  0  0  0  0  0  0  0  0  0  0  0  # atno 10718 bound_to 10713
  153.9758  135.6723  153.4748 H   0  0  0  0  0  0  0  0  0  0  0  0  # atno 10763 bound_to 10752
  153.0771  135.4943  154.8424 H   0  0  0  0  0  0  0  0  0  0  0  0  # atno 10764 bound_to 10752
  154.7193  135.3113  154.9034 H   0  0  0  0  0  0  0  0  0  0  0  0  # atno 10765 bound_to 10752
  141.1508  133.6719  156.6294 H   0  0  0  0  0  0  0  0  0  0  0  0  # atno 11005 bound_to 11000
  145.9099  139.2481  143.1444 LP  0  0  0  0  0  0  0  0  0  0  0  0  # atno 17320 bound_to 7965
  145.9727  140.8747  143.0154 LP  0  0  0  0  0  0  0  0  0  0  0  0  # atno 17321 bound_to 7965
  139.6899  143.9710  152.2854 LP  0  0  0  0  0  0  0  0  0  0  0  0  # atno 17342 bound_to 10162
  139.9368  144.6707  150.8307 LP  0  0  0  0  0  0  0  0  0  0  0  0  # atno 17343 bound_to 10162
  156.6012  130.4355  149.5896 LP  0  0  0  0  0  0  0  0  0  0  0  0  # atno 17370 bound_to 10713
  156.2505  130.6904  151.1640 LP  0  0  0  0  0  0  0  0  0  0  0  0  # atno 17371 bound_to 10713
  140.3479  134.7794  157.4445 LP  0  0  0  0  0  0  0  0  0  0  0  0  # atno 17394 bound_to 11000
  140.0885  134.5634  155.8468 LP  0  0  0  0  0  0  0  0  0  0  0  0  # atno 17395 bound_to 11000

$$$$
