AV-unprocessed.smi:2772|AV-procd|sdf|10673|dock2
  -GOLD-   2272015123D 1   1.00000     0.00000
 Structure written by MMmdl.
 56 58  0  0  0  0  0  0  0  0  4 V2000
  139.3039  140.1984  154.0781 C   0  0  0  0  0  0  0  0  0  0  0  0
  140.0750  138.9073  153.9021 C   0  0  0  0  0  0  0  0  0  0  0  0
  139.4979  137.6437  154.1470 C   0  0  0  0  0  0  0  0  0  0  0  0
  140.2777  136.4837  153.9612 C   0  0  0  0  0  0  0  0  0  0  0  0
  141.6162  136.6004  153.5260 C   0  0  0  0  0  0  0  0  0  0  0  0
  142.3660  135.4033  153.3638 N   0  0  0  0  0  0  0  0  0  0  0  0
  143.3893  135.1645  152.5250 C   0  0  0  0  0  0  0  0  0  0  0  0
  143.8504  135.9725  151.7199 O   0  0  0  0  0  0  0  0  0  0  0  0
  143.8443  133.9108  152.6631 N   0  0  0  0  0  0  0  0  0  0  0  0
  144.9373  133.3102  151.9022 C   0  0  2  0  0  0  0  0  0  0  0  0
  144.5292  131.9058  151.4191 C   0  0  0  0  0  0  0  0  0  0  0  0
  145.7195  131.1699  150.7737 C   0  0  0  0  0  0  0  0  0  0  0  0
  146.8831  131.0748  151.7021 N   0  3  2  0  0  0  0  0  0  0  0  0
  146.7110  130.1242  152.8554 C   0  0  2  0  0  0  0  0  0  0  0  0
  148.0276  129.9148  153.6465 C   0  0  0  0  0  0  0  0  0  0  0  0
  147.8802  128.8820  154.7769 C   0  0  0  0  0  0  0  0  0  0  0  0
  147.4007  127.5821  154.2549 N   0  3  1  0  0  0  0  0  0  0  0  0
  147.3679  126.5323  155.2961 C   0  0  0  0  0  0  0  0  0  0  0  0
  146.1027  127.7285  153.5578 C   0  0  0  0  0  0  0  0  0  0  0  0
  146.2055  128.7325  152.3966 C   0  0  0  0  0  0  0  0  0  0  0  0
  147.3238  132.4519  152.0679 C   0  0  0  0  0  0  0  0  0  0  0  0
  146.2050  133.2425  152.7737 C   0  0  0  0  0  0  0  0  0  0  0  0
  142.1424  137.8984  153.3088 C   0  0  0  0  0  0  0  0  0  0  0  0
  141.3625  138.9847  153.4998 N   0  3  0  0  0  0  0  0  0  0  0  0
  138.2767  140.0037  154.3874 H   0  0  0  0  0  0  0  0  0  0  0  0
  139.2767  140.7561  153.1415 H   0  0  0  0  0  0  0  0  0  0  0  0
  139.7758  140.8223  154.8376 H   0  0  0  0  0  0  0  0  0  0  0  0
  138.4715  137.5607  154.4738 H   0  0  0  0  0  0  0  0  0  0  0  0
  139.8449  135.5113  154.1475 H   0  0  0  0  0  0  0  0  0  0  0  0
  142.0539  134.6186  153.9170 H   0  0  0  0  0  0  0  0  0  0  0  0
  143.3964  133.3226  153.3506 H   0  0  0  0  0  0  0  0  0  0  0  0
  145.1692  133.9125  151.0217 H   0  0  0  0  0  0  0  0  0  0  0  0
  144.1350  131.3188  152.2495 H   0  0  0  0  0  0  0  0  0  0  0  0
  143.7163  131.9887  150.6966 H   0  0  0  0  0  0  0  0  0  0  0  0
  145.4166  130.1983  150.3900 H   0  0  0  0  0  0  0  0  0  0  0  0
  146.0374  131.7239  149.8892 H   0  0  0  0  0  0  0  0  0  0  0  0
  145.9726  130.5366  153.5432 H   0  0  0  0  0  0  0  0  0  0  0  0
  148.8221  129.6011  152.9678 H   0  0  0  0  0  0  0  0  0  0  0  0
  148.3583  130.8430  154.1099 H   0  0  0  0  0  0  0  0  0  0  0  0
  148.8435  128.7436  155.2699 H   0  0  0  0  0  0  0  0  0  0  0  0
  147.1870  129.2506  155.5348 H   0  0  0  0  0  0  0  0  0  0  0  0
  146.6609  126.7854  156.0875 H   0  0  0  0  0  0  0  0  0  0  0  0
  148.3534  126.4045  155.7454 H   0  0  0  0  0  0  0  0  0  0  0  0
  147.0731  125.5737  154.8674 H   0  0  0  0  0  0  0  0  0  0  0  0
  145.7848  126.7589  153.1722 H   0  0  0  0  0  0  0  0  0  0  0  0
  145.3398  128.0521  154.2679 H   0  0  0  0  0  0  0  0  0  0  0  0
  145.2139  128.8019  151.9517 H   0  0  0  0  0  0  0  0  0  0  0  0
  146.8677  128.3327  151.6273 H   0  0  0  0  0  0  0  0  0  0  0  0
  148.2359  132.4505  152.6609 H   0  0  0  0  0  0  0  0  0  0  0  0
  147.5985  132.9744  151.1501 H   0  0  0  0  0  0  0  0  0  0  0  0
  146.5540  134.2526  152.9922 H   0  0  0  0  0  0  0  0  0  0  0  0
  145.9787  132.7866  153.7381 H   0  0  0  0  0  0  0  0  0  0  0  0
  143.1537  138.1179  153.0024 H   0  0  0  0  0  0  0  0  0  0  0  0
  147.6370  130.6881  151.1518 H   0  0  0  0  0  0  0  0  0  0  0  0
  148.0722  127.2770  153.5644 H   0  0  0  0  0  0  0  0  0  0  0  0
  141.7666  139.9068  153.3342 H   0  0  0  0  0  0  0  0  0  0  0  0
  1  2  1  0  0  0  0
  1 25  1  0  0  0  0
  1 26  1  0  0  0  0
  1 27  1  0  0  0  0
  2 24  1  0  0  0  0
  2  3  2  0  0  0  0
  3  4  1  0  0  0  0
  3 28  1  0  0  0  0
  4  5  2  0  0  0  0
  4 29  1  0  0  0  0
  5  6  1  0  0  0  0
  5 23  1  0  0  0  0
  6  7  1  0  0  0  0
  6 30  1  0  0  0  0
  7  8  2  0  0  0  0
  7  9  1  0  0  0  0
  9 10  1  0  0  0  0
  9 31  1  0  0  0  0
 10 22  1  0  0  0  0
 10 11  1  0  0  0  0
 10 32  1  0  0  0  0
 11 12  1  0  0  0  0
 11 33  1  0  0  0  0
 11 34  1  0  0  0  0
 12 13  1  0  0  0  0
 12 35  1  0  0  0  0
 12 36  1  0  0  0  0
 13 14  1  0  0  0  0
 13 21  1  0  0  0  0
 13 54  1  0  0  0  0
 14 20  1  0  0  0  0
 14 15  1  0  0  0  0
 14 37  1  0  0  0  0
 15 16  1  0  0  0  0
 15 38  1  0  0  0  0
 15 39  1  0  0  0  0
 16 17  1  0  0  0  0
 16 40  1  0  0  0  0
 16 41  1  0  0  0  0
 17 18  1  0  0  0  0
 17 19  1  0  0  0  0
 17 55  1  0  0  0  0
 18 42  1  0  0  0  0
 18 43  1  0  0  0  0
 18 44  1  0  0  0  0
 19 20  1  0  0  0  0
 19 45  1  0  0  0  0
 19 46  1  0  0  0  0
 20 47  1  0  0  0  0
 20 48  1  0  0  0  0
 21 22  1  0  0  0  0
 21 49  1  0  0  0  0
 21 50  1  0  0  0  0
 22 51  1  0  0  0  0
 22 52  1  0  0  0  0
 23 24  2  0  0  0  0
 23 53  1  0  0  0  0
 24 56  1  0  0  0  0
M  CHG  1  13   1
M  CHG  1  17   1
M  CHG  1  24   1
M  END
> <s_m_source_file>
AV-unprocessed.smi

> <i_m_source_file_index>
2772

> <i_lp_mmshare_version>
43012

> <i_f3d_flags>
0

> <s_epik_input>
W0NIM11jMVtjSF1bY0hdYyhbY0hdbjEpW05IXUMoPU8pW05IXVtDSF0yW0NIMl1bQ0gyXU4oW0NIMl1bQ0gyXTIpW0NIXTNbQ0gyXVtDSDJdTihbQ0gzXSlbQ0gyXVtDSDJdMw==

> <s_epik_cmdline>
J2VwaWtfcHl0aG9uJywgJy1waCcsICc3LjAnLCAnLXRuJywgJzgnLCAnLW1hJywgJzIwMCcsICctbWV0YWxfYmluZGluZycsICctaW1hZScsICc8aW5maWxlLm1hZT4nLCAnLW9tYWUnLCAnPG91dGZpbGUubWFlPic=

> <r_epik_Ionization_Penalty>
2.34117

> <r_epik_Ionization_Penalty_Charging>
2.34115

> <r_epik_Ionization_Penalty_Neutral>
2.22786e-05

> <r_epik_State_Penalty>
2.43944

> <r_epik_Charging_Adjusted_Penalty>
4.78059

> <i_epik_Tot_Q>
3

> <i_epik_Tot_abs_Q>
3

> <r_epik_Metal_State_Penalty>
2.45906

> <b_epik_Metal_Only>
0

> <s_lp_Force_Field>
OPLS_2005

> <r_lp_Energy>
52.8488

> <b_lp_Chiralities_Consistent>
1

> <s_lp_Variant>
AV-unprocessed.smi:2772-10

> <Gold.Version>
5.8.1

> <Gold.Id.Protein>
6NUR|6NUR_protein|mol2

> <Gold.PLP.Fitness>
44.2297

> <Gold.PLP.PLP>
-37.4016

> <Gold.PLP.part.hbond>
-3.2491

> <Gold.PLP.part.metal>
0.0000

> <Gold.PLP.part.buried>
-3.8710

> <Gold.PLP.part.nonpolar>
-30.3921

> <Gold.PLP.part.repulsive>
0.2948

> <Gold.PLP.ligand.clash>
0.0000

> <Gold.PLP.ligand.torsion>
0.4189

> <Gold.PLP.Chemscore.Hbond>
2.5412

> <Gold.PLP.Chemscore.CHOScore>
0.0000

> <Gold.PLP.Chemscore.Metal>
0.0000

> <Gold.Chemscore.Hbonds>
donor molecule, donor type, donor heavy atom, donor atom, acceptor molecule, acceptor atom, score
      L1  H     9    31       P1 10957  0.49
      L1  H    13    54       P1 10747  1.00
      L1  H    24    56       P1 10175  1.12

> <Gold.PLP.Chemscore.Internal.Correction>
0.0425

> <Gold.Rescore>
     Score         DG    S(hbond)    S(metal)    S(lipo)     H(rot)  DE(clash)    DE(int)     intcor
     20.00     -21.71       2.41        0.00      96.75       1.22       0.18       1.52       ----

> <Gold.Chemscore.Fitness>
20.0021

> <Gold.Chemscore.DG>
-21.7098

> <Gold.Chemscore.ZeroCoef>
-5.4800

> <Gold.Chemscore.Hbond>
2.4069

> <Gold.Chemscore.Metal>
0.0000

> <Gold.Chemscore.Lipo>
96.7489

> <Gold.Chemscore.Internal_Hbond>
0.0000

> <Gold.Chemscore.DEClash>
0.1849

> <Gold.Chemscore.DEInternal>
1.5228

> <Gold.Chemscore.Rot>
1.2222

> <Gold.Chemscore.Internal.Correction>
   9.000000E+99

> <Gold.Chemscore.Hbonds>
donor molecule, donor type, donor heavy atom, donor atom, acceptor molecule, acceptor atom, score
      L1  H     9    31       P1 10957  0.47
      L1  H    13    54       P1 10747  0.95
      L1  H    24    56       P1 10175  0.24

> <Gold.Chemscore.Hbond.Weighted>
-8.0390

> <Gold.Chemscore.Metal.Weighted>
-0.0000

> <Gold.Chemscore.Lipo.Weighted>
-11.3196

> <Gold.Chemscore.Internal_Hbond.Weighted>
0.0000

> <Gold.Chemscore.DEClash.Weighted>
0.1849

> <Gold.Chemscore.DEInternal.Weighted>
1.5228

> <Gold.Chemscore.Rot.Weighted>
3.1289

> <Gold.Chemscore.Internal.Correction.Weighted>
   9.000000E+99

> <Gold.Protein.RotatedTorsions>
[ 6907 6896 6895 6894 ] final -129.78 input  -60.11 | X-H torsion
[ 7974 7965 7964 7962 ] final -145.15 input  175.53 | X-H torsion
[ 8008 7997 7996 7995 ] final  127.85 input   59.86 | X-H torsion
[ 10167 10162 10161 10158 ] final    7.80 input  -65.29 | X-H torsion
[ 10718 10713 10712 10709 ] final  165.14 input   66.30 | X-H torsion
[ 10763 10752 10751 10750 ] final   61.80 input  -60.55 | X-H torsion
[ 11005 11000 10999 10996 ] final  -18.40 input  -57.11 | X-H torsion

> <Gold.Protein.ActiveResidues>
 VAL166  LYS551  ARG553  GLY616  TRP617  ASP618  TYR619  PRO620  LYS621  CYS622 
 ASP623  PHE694  ASN695  SER759  ASP760  ASP761  ALA762  ILE779  LEU786  VAL792 
 PHE793  MET794  SER795  GLU796  ALA797  LYS798  CYS799  TRP800  GLU811  SER814 

> <Gold.Protein.RotatedAtoms>
  150.9324  133.6751  159.2807 H   0  0  0  0  0  0  0  0  0  0  0  0  # atno 6907 bound_to 6896
  151.4168  135.0991  159.9611 H   0  0  0  0  0  0  0  0  0  0  0  0  # atno 6908 bound_to 6896
  152.5032  133.8785  159.7389 H   0  0  0  0  0  0  0  0  0  0  0  0  # atno 6909 bound_to 6896
  144.8247  140.5620  143.5555 H   0  0  0  0  0  0  0  0  0  0  0  0  # atno 7974 bound_to 7965
  156.2901  140.2659  156.2341 H   0  0  0  0  0  0  0  0  0  0  0  0  # atno 8008 bound_to 7997
  155.0043  140.0387  157.2391 H   0  0  0  0  0  0  0  0  0  0  0  0  # atno 8009 bound_to 7997
  154.7574  140.2754  155.6247 H   0  0  0  0  0  0  0  0  0  0  0  0  # atno 8010 bound_to 7997
  140.6351  143.7905  150.7348 H   0  0  0  0  0  0  0  0  0  0  0  0  # atno 10167 bound_to 10162
  157.0843  131.0400  151.2562 H   0  0  0  0  0  0  0  0  0  0  0  0  # atno 10718 bound_to 10713
  152.9962  135.5487  154.6092 H   0  0  0  0  0  0  0  0  0  0  0  0  # atno 10763 bound_to 10752
  154.5416  135.2820  155.1092 H   0  0  0  0  0  0  0  0  0  0  0  0  # atno 10764 bound_to 10752
  154.2367  135.6424  153.5246 H   0  0  0  0  0  0  0  0  0  0  0  0  # atno 10765 bound_to 10752
  140.8265  133.8029  155.9713 H   0  0  0  0  0  0  0  0  0  0  0  0  # atno 11005 bound_to 11000
  145.5026  139.1482  143.3649 LP  0  0  0  0  0  0  0  0  0  0  0  0  # atno 17320 bound_to 7965
  146.2552  140.5166  142.8876 LP  0  0  0  0  0  0  0  0  0  0  0  0  # atno 17321 bound_to 7965
  140.1524  143.4346  152.2122 LP  0  0  0  0  0  0  0  0  0  0  0  0  # atno 17342 bound_to 10162
  139.5562  144.7374  151.4288 LP  0  0  0  0  0  0  0  0  0  0  0  0  # atno 17343 bound_to 10162
  157.4774  130.7745  149.7381 LP  0  0  0  0  0  0  0  0  0  0  0  0  # atno 17370 bound_to 10713
  155.9915  130.3937  150.2982 LP  0  0  0  0  0  0  0  0  0  0  0  0  # atno 17371 bound_to 10713
  140.9044  134.2338  157.5023 LP  0  0  0  0  0  0  0  0  0  0  0  0  # atno 17394 bound_to 11000
  139.8706  134.9721  156.4762 LP  0  0  0  0  0  0  0  0  0  0  0  0  # atno 17395 bound_to 11000

$$$$
