AV-unprocessed.smi:500|AV-procd|sdf|2735|dock10
  -GOLD-   2262023193D 1   1.00000     0.00000
 Structure written by MMmdl.
 45 47  0  0  0  0  0  0  0  0  1 V2000
  142.8755  130.8762  158.2474 C   0  0  0  0  0  0  0  0  0  0  0  0
  141.9282  131.0609  159.4350 C   0  0  0  0  0  0  0  0  0  0  0  0
  142.6985  131.3388  160.5950 O   0  0  0  0  0  0  0  0  0  0  0  0
  143.1784  132.6735  160.6638 C   0  0  0  0  0  0  0  0  0  0  0  0
  143.2173  133.1835  162.1142 C   0  0  0  0  0  0  0  0  0  0  0  0
  143.7725  134.5253  162.1922 N   0  0  0  0  0  0  0  0  0  0  0  0
  143.1245  135.7148  162.0907 C   0  0  0  0  0  0  0  0  0  0  0  0
  141.6342  135.8035  161.8692 C   0  0  1  0  0  0  0  0  0  0  0  0
  141.2208  135.2168  160.5132 C   0  0  0  0  0  0  0  0  0  0  0  0
  140.9533  135.0935  162.9507 N   0  0  0  0  0  0  0  0  0  0  0  0
  139.6244  135.0518  163.1395 C   0  0  0  0  0  0  0  0  0  0  0  0
  138.8133  135.5858  162.3832 O   0  0  0  0  0  0  0  0  0  0  0  0
  139.1692  134.3055  164.3272 C   0  0  0  0  0  0  0  0  0  0  0  0
  139.8577  133.8027  165.4002 C   0  0  0  0  0  0  0  0  0  0  0  0
  138.8955  133.1926  166.2516 C   0  0  0  0  0  0  0  0  0  0  0  0
  137.6873  133.3706  165.6412 C   0  0  0  0  0  0  0  0  0  0  0  0
  137.8362  134.0499  164.4716 O   0  0  0  0  0  0  0  0  0  0  0  0
  143.8929  136.7995  162.2289 N   0  0  0  0  0  0  0  0  0  0  0  0
  145.1532  136.2649  162.4043 C   0  0  0  0  0  0  0  0  0  0  0  0
  146.4020  136.8995  162.5909 C   0  0  0  0  0  0  0  0  0  0  0  0
  147.5754  136.1333  162.7485 C   0  0  0  0  0  0  0  0  0  0  0  0
  147.5167  134.7248  162.7228 C   0  0  0  0  0  0  0  0  0  0  0  0
  146.2818  134.0728  162.5405 C   0  0  0  0  0  0  0  0  0  0  0  0
  145.1135  134.8426  162.3834 C   0  0  0  0  0  0  0  0  0  0  0  0
  142.3183  130.6672  157.3339 H   0  0  0  0  0  0  0  0  0  0  0  0
  143.5606  130.0455  158.4186 H   0  0  0  0  0  0  0  0  0  0  0  0
  143.4710  131.7739  158.0784 H   0  0  0  0  0  0  0  0  0  0  0  0
  141.2412  131.8846  159.2347 H   0  0  0  0  0  0  0  0  0  0  0  0
  141.3307  130.1594  159.5701 H   0  0  0  0  0  0  0  0  0  0  0  0
  144.1913  132.6774  160.2601 H   0  0  0  0  0  0  0  0  0  0  0  0
  142.5904  133.3308  160.0225 H   0  0  0  0  0  0  0  0  0  0  0  0
  142.2296  133.1812  162.5731 H   0  0  0  0  0  0  0  0  0  0  0  0
  143.8302  132.5181  162.7226 H   0  0  0  0  0  0  0  0  0  0  0  0
  141.3148  136.8453  161.8963 H   0  0  0  0  0  0  0  0  0  0  0  0
  141.7070  135.7482  159.6948 H   0  0  0  0  0  0  0  0  0  0  0  0
  140.1436  135.2947  160.3633 H   0  0  0  0  0  0  0  0  0  0  0  0
  141.4942  134.1638  160.4345 H   0  0  0  0  0  0  0  0  0  0  0  0
  141.5405  134.6272  163.6269 H   0  0  0  0  0  0  0  0  0  0  0  0
  140.9245  133.8670  165.5568 H   0  0  0  0  0  0  0  0  0  0  0  0
  139.0652  132.6900  167.1922 H   0  0  0  0  0  0  0  0  0  0  0  0
  136.6727  133.0952  165.8891 H   0  0  0  0  0  0  0  0  0  0  0  0
  146.4575  137.9778  162.6107 H   0  0  0  0  0  0  0  0  0  0  0  0
  148.5249  136.6285  162.8887 H   0  0  0  0  0  0  0  0  0  0  0  0
  148.4205  134.1454  162.8429 H   0  0  0  0  0  0  0  0  0  0  0  0
  146.2340  132.9943  162.5192 H   0  0  0  0  0  0  0  0  0  0  0  0
  1  2  1  0  0  0  0
  1 25  1  0  0  0  0
  1 26  1  0  0  0  0
  1 27  1  0  0  0  0
  2  3  1  0  0  0  0
  2 28  1  0  0  0  0
  2 29  1  0  0  0  0
  3  4  1  0  0  0  0
  4  5  1  0  0  0  0
  4 30  1  0  0  0  0
  4 31  1  0  0  0  0
  5  6  1  0  0  0  0
  5 32  1  0  0  0  0
  5 33  1  0  0  0  0
  6 24  1  0  0  0  0
  6  7  1  0  0  0  0
  7  8  1  0  0  0  0
  7 18  2  0  0  0  0
  8  9  1  0  0  0  0
  8 10  1  0  0  0  0
  8 34  1  0  0  0  0
  9 35  1  0  0  0  0
  9 36  1  0  0  0  0
  9 37  1  0  0  0  0
 10 11  1  0  0  0  0
 10 38  1  0  0  0  0
 11 12  2  0  0  0  0
 11 13  1  0  0  0  0
 13 17  1  0  0  0  0
 13 14  2  0  0  0  0
 14 15  1  0  0  0  0
 14 39  1  0  0  0  0
 15 16  2  0  0  0  0
 15 40  1  0  0  0  0
 16 17  1  0  0  0  0
 16 41  1  0  0  0  0
 18 19  1  0  0  0  0
 19 24  2  0  0  0  0
 19 20  1  0  0  0  0
 20 21  2  0  0  0  0
 20 42  1  0  0  0  0
 21 22  1  0  0  0  0
 21 43  1  0  0  0  0
 22 23  2  0  0  0  0
 22 44  1  0  0  0  0
 23 24  1  0  0  0  0
 23 45  1  0  0  0  0
M  END
> <s_m_source_file>
AV-unprocessed.smi

> <i_m_source_file_index>
500

> <i_lp_mmshare_version>
43012

> <i_f3d_flags>
0

> <s_epik_input>
W0NIM11bQ0gyXU9bQ0gyXVtDSDJdbihjKGMxMilbY0hdW2NIXVtjSF1bY0hdMiljKG4xKVtDQEhdKFtDSDNdKVtOSF1DKD1PKWMzW2NIXVtjSF1bY0hdbzM=

> <s_epik_cmdline>
J2VwaWtfcHl0aG9uJywgJy1waCcsICc3LjAnLCAnLXRuJywgJzgnLCAnLW1hJywgJzIwMCcsICctbWV0YWxfYmluZGluZycsICctaW1hZScsICc8aW5maWxlLm1hZT4nLCAnLW9tYWUnLCAnPG91dGZpbGUubWFlPic=

> <r_epik_Ionization_Penalty>
0.109801

> <r_epik_Ionization_Penalty_Charging>
0

> <r_epik_Ionization_Penalty_Neutral>
0.109801

> <r_epik_State_Penalty>
0.0995533

> <r_epik_Charging_Adjusted_Penalty>
0.0995533

> <i_epik_Tot_Q>
0

> <i_epik_Tot_abs_Q>
0

> <r_epik_Metal_State_Penalty>
0.0918163

> <b_epik_Metal_Only>
0

> <s_lp_Force_Field>
OPLS_2005

> <r_lp_Energy>
7.77682

> <b_lp_Chiralities_Consistent>
1

> <s_lp_Variant>
AV-unprocessed.smi:500-2

> <Gold.Version>
5.8.1

> <Gold.Id.Protein>
6NUR|6NUR_protein|mol2

> <Gold.PLP.Fitness>
48.2374

> <Gold.PLP.PLP>
-49.7010

> <Gold.PLP.part.hbond>
-0.9229

> <Gold.PLP.part.metal>
0.0000

> <Gold.PLP.part.buried>
-7.6597

> <Gold.PLP.part.nonpolar>
-41.8279

> <Gold.PLP.part.repulsive>
0.1071

> <Gold.PLP.ligand.clash>
0.0000

> <Gold.PLP.ligand.torsion>
0.7644

> <Gold.PLP.Chemscore.Hbond>
0.0000

> <Gold.PLP.Chemscore.CHOScore>
0.0000

> <Gold.PLP.Chemscore.Metal>
0.0000

> <Gold.PLP.Chemscore.Internal.Correction>
0.0652

> <Gold.Rescore>
     Score         DG    S(hbond)    S(metal)    S(lipo)     H(rot)  DE(clash)    DE(int)     intcor
     13.29     -14.55       0.00        0.00     119.47       1.92       0.10       1.16       ----

> <Gold.Chemscore.Fitness>
13.2916

> <Gold.Chemscore.DG>
-14.5542

> <Gold.Chemscore.ZeroCoef>
-5.4800

> <Gold.Chemscore.Hbond>
0.0000

> <Gold.Chemscore.Metal>
0.0000

> <Gold.Chemscore.Lipo>
119.4724

> <Gold.Chemscore.Internal_Hbond>
0.0000

> <Gold.Chemscore.DEClash>
0.1004

> <Gold.Chemscore.DEInternal>
1.1623

> <Gold.Chemscore.Rot>
1.9156

> <Gold.Chemscore.Internal.Correction>
   9.000000E+99

> <Gold.Chemscore.Hbond.Weighted>
-0.0000

> <Gold.Chemscore.Metal.Weighted>
-0.0000

> <Gold.Chemscore.Lipo.Weighted>
-13.9783

> <Gold.Chemscore.Internal_Hbond.Weighted>
0.0000

> <Gold.Chemscore.DEClash.Weighted>
0.1004

> <Gold.Chemscore.DEInternal.Weighted>
1.1623

> <Gold.Chemscore.Rot.Weighted>
4.9041

> <Gold.Chemscore.Internal.Correction.Weighted>
   9.000000E+99

> <Gold.Protein.RotatedTorsions>
[ 6907 6896 6895 6894 ] final    3.13 input  -60.11 | X-H torsion
[ 7974 7965 7964 7962 ] final    8.87 input  175.53 | X-H torsion
[ 8008 7997 7996 7995 ] final  -31.93 input   59.86 | X-H torsion
[ 10167 10162 10161 10158 ] final -146.83 input  -65.29 | X-H torsion
[ 10718 10713 10712 10709 ] final  -47.62 input   66.30 | X-H torsion
[ 10763 10752 10751 10750 ] final   48.81 input  -60.55 | X-H torsion
[ 11005 11000 10999 10996 ] final -123.37 input  -57.11 | X-H torsion

> <Gold.Protein.ActiveResidues>
 VAL166  LYS551  ARG553  GLY616  TRP617  ASP618  TYR619  PRO620  LYS621  CYS622 
 ASP623  PHE694  ASN695  SER759  ASP760  ASP761  ALA762  ILE779  LEU786  VAL792 
 PHE793  MET794  SER795  GLU796  ALA797  LYS798  CYS799  TRP800  GLU811  SER814 

> <Gold.Protein.RotatedAtoms>
  151.6201  135.1033  160.0099 H   0  0  0  0  0  0  0  0  0  0  0  0  # atno 6907 bound_to 6896
  152.4162  133.7038  159.6450 H   0  0  0  0  0  0  0  0  0  0  0  0  # atno 6908 bound_to 6896
  150.8050  133.8452  159.3231 H   0  0  0  0  0  0  0  0  0  0  0  0  # atno 6909 bound_to 6896
  146.2411  139.9868  142.8430 H   0  0  0  0  0  0  0  0  0  0  0  0  # atno 7974 bound_to 7965
  154.4197  140.1751  156.1645 H   0  0  0  0  0  0  0  0  0  0  0  0  # atno 8008 bound_to 7997
  155.9811  140.3377  155.6640 H   0  0  0  0  0  0  0  0  0  0  0  0  # atno 8009 bound_to 7997
  155.6499  140.0689  157.2581 H   0  0  0  0  0  0  0  0  0  0  0  0  # atno 8010 bound_to 7997
  139.7677  143.8284  152.2619 H   0  0  0  0  0  0  0  0  0  0  0  0  # atno 10167 bound_to 10162
  156.2067  130.4158  149.9169 H   0  0  0  0  0  0  0  0  0  0  0  0  # atno 10718 bound_to 10713
  152.9790  135.5932  154.3987 H   0  0  0  0  0  0  0  0  0  0  0  0  # atno 10763 bound_to 10752
  154.3635  135.2767  155.2309 H   0  0  0  0  0  0  0  0  0  0  0  0  # atno 10764 bound_to 10752
  154.4296  135.6039  153.6115 H   0  0  0  0  0  0  0  0  0  0  0  0  # atno 10765 bound_to 10752
  140.9924  134.0520  157.3639 H   0  0  0  0  0  0  0  0  0  0  0  0  # atno 11005 bound_to 11000
  145.1540  140.9638  143.4416 LP  0  0  0  0  0  0  0  0  0  0  0  0  # atno 17320 bound_to 7965
  145.0178  139.3451  143.6087 LP  0  0  0  0  0  0  0  0  0  0  0  0  # atno 17321 bound_to 7965
  139.8309  144.7254  150.9452 LP  0  0  0  0  0  0  0  0  0  0  0  0  # atno 17342 bound_to 10162
  140.7812  143.4071  151.1053 LP  0  0  0  0  0  0  0  0  0  0  0  0  # atno 17343 bound_to 10162
  156.6860  130.8877  151.3582 LP  0  0  0  0  0  0  0  0  0  0  0  0  # atno 17370 bound_to 10713
  157.7016  130.9339  150.0803 LP  0  0  0  0  0  0  0  0  0  0  0  0  # atno 17371 bound_to 10713
  139.8998  135.0160  156.7214 LP  0  0  0  0  0  0  0  0  0  0  0  0  # atno 17394 bound_to 11000
  140.7019  133.9298  155.8030 LP  0  0  0  0  0  0  0  0  0  0  0  0  # atno 17395 bound_to 11000

$$$$
