#       Name:                AV-unprocessed.smi:3355
#       Creating user name   scv26
#       Creation time:       Fri Mar 27 19:40:08 2020


#       File generated by GOLD software.
#

@<TRIPOS>MOLECULE
AV-unprocessed.smi:3355
    49    50     1
SMALL
NO_CHARGES


@<TRIPOS>ATOM
      1 ****        -2.3588   4.5508   2.2458 C.3            1 S1                 0.0000
      2 ****        -3.3094   4.2828   1.0738 C.3            1 S1                 0.0000
      3 ****        -2.6751   4.5383  -0.2600 C.2            1 S1                 0.0000
      4 ****        -2.6204   5.7566  -0.8131 N.2            1 S1                 0.0000
      5 ****        -1.9570   5.5952  -2.0119 N.2            1 S1                 0.0000
      6 ****        -1.6708   4.2957  -2.0623 C.2            1 S1                 0.0000
      7 ****        -2.0841   3.5783  -1.0062 N.pl3          1 S1                 0.0000
      8 ****        -1.9083   2.1538  -0.7810 C.3            1 S1                 0.0000
      9 ****        -0.5413   1.8434  -0.1566 C.3            1 S1                 0.0000
     10 ****        -0.3828   0.4091   0.0338 N.am           1 S1                 0.0000
     11 ****         0.6986  -0.1752   0.5765 C.2            1 S1                 0.0000
     12 ****         1.6540   0.4846   0.9899 O.2            1 S1                 0.0000
     13 ****         0.6248  -1.5288   0.6847 N.am           1 S1                 0.0000
     14 ****        -0.4024  -2.3590   0.0202 C.3            1 S1                 0.0000
     15 ****         0.0918  -3.7342  -0.4756 C.3            1 S1                 0.0000
     16 ****         1.4447  -3.7073  -1.2124 C.3            1 S1                 0.0000
     17 ****         2.6636  -3.8332  -0.2741 C.3            1 S1                 0.0000
     18 ****         3.9440  -4.1019  -1.0800 C.3            1 S1                 0.0000
     19 ****         2.8611  -2.6159   0.6515 C.3            1 S1                 0.0000
     20 ****         1.6214  -2.2522   1.4886 C.3            1 S1                 0.0000
     21 ****        -2.8581   4.3725   3.1982 H              1 S1                 0.0000
     22 ****        -2.0104   5.5841   2.2409 H              1 S1                 0.0000
     23 ****        -1.4836   3.9031   2.2040 H              1 S1                 0.0000
     24 ****        -3.6902   3.2641   1.1236 H              1 S1                 0.0000
     25 ****        -4.1828   4.9296   1.1652 H              1 S1                 0.0000
     26 ****        -1.1396   3.8543  -2.8930 H              1 S1                 0.0000
     27 ****        -2.7152   1.7771  -0.1538 H              1 S1                 0.0000
     28 ****        -2.0036   1.6453  -1.7415 H              1 S1                 0.0000
     29 ****         0.2590   2.2105  -0.8014 H              1 S1                 0.0000
     30 ****        -0.4385   2.3481   0.8041 H              1 S1                 0.0000
     31 ****        -1.1432  -0.1831  -0.2666 H              1 S1                 0.0000
     32 ****        -1.2436  -2.4920   0.7015 H              1 S1                 0.0000
     33 ****        -0.8014  -1.8534  -0.8602 H              1 S1                 0.0000
     34 ****         0.1300  -4.4472   0.3486 H              1 S1                 0.0000
     35 ****        -0.6650  -4.1308  -1.1534 H              1 S1                 0.0000
     36 ****         1.4598  -4.5534  -1.9006 H              1 S1                 0.0000
     37 ****         1.5247  -2.8162  -1.8369 H              1 S1                 0.0000
     38 ****         2.5022  -4.7063   0.3600 H              1 S1                 0.0000
     39 ****         4.1688  -3.2746  -1.7540 H              1 S1                 0.0000
     40 ****         3.8491  -5.0055  -1.6829 H              1 S1                 0.0000
     41 ****         4.8028  -4.2379  -0.4217 H              1 S1                 0.0000
     42 ****         3.6819  -2.8360   1.3352 H              1 S1                 0.0000
     43 ****         3.1865  -1.7512   0.0713 H              1 S1                 0.0000
     44 ****         1.9299  -1.6409   2.3387 H              1 S1                 0.0000
     45 ****         1.1853  -3.1425   1.9428 H              1 S1                 0.0000
     46 ****        -2.9851   6.6076  -0.4352 LP             1 S1                 0.0000
     47 ****        -1.7398   6.2967  -2.6907 LP             1 S1                 0.0000
     48 ****         1.6376   1.4825   0.9261 LP             1 S1                 0.0000
     49 ****         2.4457   0.0221   1.3891 LP             1 S1                 0.0000
@<TRIPOS>BOND
    1    1    2 1     
    2    1   21 1     
    3    1   22 1     
    4    1   23 1     
    5    2    3 1     
    6    2   24 1     
    7    2   25 1     
    8    3    7 1     
    9    3    4 2     
   10    4    5 1     
   11    5    6 2     
   12    6    7 1     
   13    6   26 1     
   14    7    8 1     
   15    8    9 1     
   16    8   27 1     
   17    8   28 1     
   18    9   10 1     
   19    9   29 1     
   20    9   30 1     
   21   10   11 am    
   22   10   31 1     
   23   11   12 2     
   24   11   13 am    
   25   13   20 1     
   26   13   14 1     
   27   14   15 1     
   28   14   32 1     
   29   14   33 1     
   30   15   16 1     
   31   15   34 1     
   32   15   35 1     
   33   16   17 1     
   34   16   36 1     
   35   16   37 1     
   36   17   18 1     
   37   17   19 1     
   38   17   38 1     
   39   18   39 1     
   40   18   40 1     
   41   18   41 1     
   42   19   20 1     
   43   19   42 1     
   44   19   43 1     
   45   20   44 1     
   46   20   45 1     
   47    4   46 1     
   48    5   47 1     
   49   12   48 1     
   50   12   49 1     
@<TRIPOS>SUBSTRUCTURE
      1 S1             1
@<TRIPOS>SET
LONE_PAIRS      STATIC     ATOMS    <user>   **** ""
4 46 47 48 49
DONOR_HYDROGENS      STATIC     ATOMS    <user>   **** ""
1 31
ATOM$BLUE        STATIC     ATOMS    COLORGROUP SYSTEM
4 46 47 48 49
ATOM$RED        STATIC     ATOMS    COLORGROUP SYSTEM
1 31
