AV-unprocessed.smi:122|AV-procd|sdf|1141|dock8
  -GOLD-   2262018273D 1   1.00000     0.00000
 Structure written by MMmdl.
 48 50  0  0  0  0  0  0  0  0  1 V2000
  151.4659  140.0017  157.0383 C   0  0  0  0  0  0  0  0  0  0  0  0
  151.7144  139.3030  155.3549 S   0  0  0  0  0  0  0  0  0  0  0  0
  150.7086  139.8890  154.4558 O   0  0  0  0  0  0  0  0  0  0  0  0
  153.1435  139.3954  155.0194 O   0  0  0  0  0  0  0  0  0  0  0  0
  151.3240  137.6280  155.5732 N   0  0  0  0  0  0  0  0  0  0  0  0
  150.0752  137.1170  154.9624 C   0  0  0  0  0  0  0  0  0  0  0  0
  150.0253  135.5783  154.9637 C   0  0  0  0  0  0  0  0  0  0  0  0
  150.2647  135.1011  156.3250 N   0  0  0  0  0  0  0  0  0  0  0  0
  149.2991  134.5599  157.1050 C   0  0  0  0  0  0  0  0  0  0  0  0
  149.5115  134.2318  158.2741 O   0  0  0  0  0  0  0  0  0  0  0  0
  147.8936  134.3441  156.5061 C   0  0  0  0  0  0  0  0  0  0  0  0
  147.8982  133.5744  155.2419 N   0  0  0  0  0  0  0  0  0  0  0  0
  148.6152  132.3531  155.1908 C   0  0  0  0  0  0  0  0  0  0  0  0
  149.2197  131.9262  156.1756 O   0  0  0  0  0  0  0  0  0  0  0  0
  148.5907  131.6617  153.9068 C   0  0  0  0  0  0  0  0  0  0  0  0
  149.2429  130.4951  153.7673 F   0  0  0  0  0  0  0  0  0  0  0  0
  147.9244  132.1756  152.8524 C   0  0  0  0  0  0  0  0  0  0  0  0
  147.2303  133.3711  152.9158 N   0  0  0  0  0  0  0  0  0  0  0  0
  146.5011  133.9437  151.7185 C   0  0  2  0  0  0  0  0  0  0  0  0
  144.9826  133.9823  151.9751 C   0  0  0  0  0  0  0  0  0  0  0  0
  144.4184  133.3031  150.7432 C   0  0  0  0  0  0  0  0  0  0  0  0
  145.5407  132.3460  150.3718 C   0  0  0  0  0  0  0  0  0  0  0  0
  146.7063  133.1269  150.6006 O   0  0  0  0  0  0  0  0  0  0  0  0
  147.2138  134.1043  154.1222 C   0  0  0  0  0  0  0  0  0  0  0  0
  146.6190  135.1823  154.1931 O   0  0  0  0  0  0  0  0  0  0  0  0
  151.6269  135.4385  156.7397 C   0  0  0  0  0  0  0  0  0  0  0  0
  151.7503  136.9699  156.8295 C   0  0  0  0  0  0  0  0  0  0  0  0
  151.6716  141.0716  157.0176 H   0  0  0  0  0  0  0  0  0  0  0  0
  152.1443  139.5184  157.7406 H   0  0  0  0  0  0  0  0  0  0  0  0
  150.4360  139.8396  157.3549 H   0  0  0  0  0  0  0  0  0  0  0  0
  149.2242  137.5167  155.5150 H   0  0  0  0  0  0  0  0  0  0  0  0
  149.9893  137.4828  153.9393 H   0  0  0  0  0  0  0  0  0  0  0  0
  149.0715  135.2382  154.5582 H   0  0  0  0  0  0  0  0  0  0  0  0
  150.7883  135.1769  154.2951 H   0  0  0  0  0  0  0  0  0  0  0  0
  147.2684  133.8523  157.2527 H   0  0  0  0  0  0  0  0  0  0  0  0
  147.4212  135.3156  156.3519 H   0  0  0  0  0  0  0  0  0  0  0  0
  147.9494  131.6155  151.9304 H   0  0  0  0  0  0  0  0  0  0  0  0
  146.9503  134.9222  151.5383 H   0  0  0  0  0  0  0  0  0  0  0  0
  144.7358  133.4093  152.8707 H   0  0  0  0  0  0  0  0  0  0  0  0
  144.6321  135.0071  152.1020 H   0  0  0  0  0  0  0  0  0  0  0  0
  143.4698  132.7988  150.9285 H   0  0  0  0  0  0  0  0  0  0  0  0
  144.2710  134.0325  149.9453 H   0  0  0  0  0  0  0  0  0  0  0  0
  145.5378  131.4724  151.0252 H   0  0  0  0  0  0  0  0  0  0  0  0
  145.4820  132.0051  149.3380 H   0  0  0  0  0  0  0  0  0  0  0  0
  151.9229  134.9847  157.6841 H   0  0  0  0  0  0  0  0  0  0  0  0
  152.3346  135.0529  156.0041 H   0  0  0  0  0  0  0  0  0  0  0  0
  152.7824  137.2392  157.0535 H   0  0  0  0  0  0  0  0  0  0  0  0
  151.1385  137.3461  157.6501 H   0  0  0  0  0  0  0  0  0  0  0  0
  1  2  1  0  0  0  0
  1 28  1  0  0  0  0
  1 29  1  0  0  0  0
  1 30  1  0  0  0  0
  2  3  2  0  0  0  0
  2  4  2  0  0  0  0
  2  5  1  0  0  0  0
  5 27  1  0  0  0  0
  5  6  1  0  0  0  0
  6  7  1  0  0  0  0
  6 31  1  0  0  0  0
  6 32  1  0  0  0  0
  7  8  1  0  0  0  0
  7 33  1  0  0  0  0
  7 34  1  0  0  0  0
  8  9  1  0  0  0  0
  8 26  1  0  0  0  0
  9 10  2  0  0  0  0
  9 11  1  0  0  0  0
 11 12  1  0  0  0  0
 11 35  1  0  0  0  0
 11 36  1  0  0  0  0
 12 24  1  0  0  0  0
 12 13  1  0  0  0  0
 13 14  2  0  0  0  0
 13 15  1  0  0  0  0
 15 16  1  0  0  0  0
 15 17  2  0  0  0  0
 17 18  1  0  0  0  0
 17 37  1  0  0  0  0
 18 19  1  0  0  0  0
 18 24  1  0  0  0  0
 19 23  1  0  0  0  0
 19 20  1  0  0  0  0
 19 38  1  0  0  0  0
 20 21  1  0  0  0  0
 20 39  1  0  0  0  0
 20 40  1  0  0  0  0
 21 22  1  0  0  0  0
 21 41  1  0  0  0  0
 21 42  1  0  0  0  0
 22 23  1  0  0  0  0
 22 43  1  0  0  0  0
 22 44  1  0  0  0  0
 24 25  2  0  0  0  0
 26 27  1  0  0  0  0
 26 45  1  0  0  0  0
 26 46  1  0  0  0  0
 27 47  1  0  0  0  0
 27 48  1  0  0  0  0
M  END
> <s_m_source_file>
AV-unprocessed.smi

> <i_m_source_file_index>
122

> <i_lp_mmshare_version>
43012

> <i_f3d_flags>
0

> <s_epik_input>
W0NIM11TKD1PKSg9TylOMVtDSDJdW0NIMl1OKFtDSDJdW0NIMl0xKUMoPU8pW0NIMl1uMmMoPU8pYyhGKVtjSF1uKGMyPU8pW0NAQEhdM1tDSDJdW0NIMl1bQ0gyXU8z

> <s_epik_cmdline>
J2VwaWtfcHl0aG9uJywgJy1waCcsICc3LjAnLCAnLXRuJywgJzgnLCAnLW1hJywgJzIwMCcsICctbWV0YWxfYmluZGluZycsICctaW1hZScsICc8aW5maWxlLm1hZT4nLCAnLW9tYWUnLCAnPG91dGZpbGUubWFlPic=

> <r_lp_tautomer_probability>
1

> <r_epik_Ionization_Penalty>
4.55442e-09

> <r_epik_Ionization_Penalty_Charging>
4.02834e-09

> <r_epik_Ionization_Penalty_Neutral>
5.2608e-10

> <r_epik_State_Penalty>
-0

> <r_epik_Charging_Adjusted_Penalty>
4.02834e-09

> <i_epik_Tot_Q>
0

> <i_epik_Tot_abs_Q>
0

> <r_epik_Metal_State_Penalty>
-0

> <b_epik_Metal_Only>
0

> <s_epik_Chemistry_Notes>
This compound contains an acetal/aminal-like group ( X-CH(R)-Y where X, Y are N, S, or O) that may be acid/base labile, releasing an aldehyde.

> <s_lp_Force_Field>
OPLS_2005

> <r_lp_Energy>
39.2384

> <b_lp_Chiralities_Consistent>
1

> <s_lp_Variant>
AV-unprocessed.smi:122-1

> <Gold.Version>
5.8.1

> <Gold.Id.Protein>
6NUR|6NUR_protein|mol2

> <Gold.PLP.Fitness>
46.4437

> <Gold.PLP.PLP>
-34.9082

> <Gold.PLP.part.hbond>
-3.3435

> <Gold.PLP.part.metal>
0.0000

> <Gold.PLP.part.buried>
-5.4973

> <Gold.PLP.part.nonpolar>
-27.9018

> <Gold.PLP.part.repulsive>
0.4348

> <Gold.PLP.ligand.clash>
0.0000

> <Gold.PLP.ligand.torsion>
1.2705

> <Gold.PLP.Chemscore.Hbond>
3.0000

> <Gold.PLP.Chemscore.CHOScore>
1.0000

> <Gold.PLP.Chemscore.Metal>
0.0000

> <Gold.Chemscore.Hbonds>
donor molecule, donor type, donor heavy atom, donor atom, acceptor molecule, acceptor atom, score
      P1  H  6896  6908       L1    10  1.00
      P1  H  7989  7998       L1     3  1.00
      P1  H  7997  8008       L1     4  1.00
      L1  C    17    37       P1 10747  1.00

> <Gold.PLP.Chemscore.Internal.Correction>
2.0765

> <Gold.Rescore>
     Score         DG    S(hbond)    S(metal)    S(lipo)     H(rot)  DE(clash)    DE(int)     intcor
     14.00     -17.84       2.98        0.00      57.59       1.69       0.04       3.79       ----

> <Gold.Chemscore.Fitness>
14.0033

> <Gold.Chemscore.DG>
-17.8369

> <Gold.Chemscore.ZeroCoef>
-5.4800

> <Gold.Chemscore.Hbond>
2.9769

> <Gold.Chemscore.Metal>
0.0000

> <Gold.Chemscore.Lipo>
57.5895

> <Gold.Chemscore.Internal_Hbond>
0.0000

> <Gold.Chemscore.DEClash>
0.0445

> <Gold.Chemscore.DEInternal>
3.7891

> <Gold.Chemscore.Rot>
1.6890

> <Gold.Chemscore.Internal.Correction>
   9.000000E+99

> <Gold.Chemscore.Hbonds>
donor molecule, donor type, donor heavy atom, donor atom, acceptor molecule, acceptor atom, score
      P1  H  6896  6908       L1    10  0.97
      P1  H  7989  7998       L1     3  0.35
      P1  H  7997  8008       L1     4  1.00

> <Gold.Chemscore.Hbond.Weighted>
-9.9428

> <Gold.Chemscore.Metal.Weighted>
-0.0000

> <Gold.Chemscore.Lipo.Weighted>
-6.7380

> <Gold.Chemscore.Internal_Hbond.Weighted>
0.0000

> <Gold.Chemscore.DEClash.Weighted>
0.0445

> <Gold.Chemscore.DEInternal.Weighted>
3.7891

> <Gold.Chemscore.Rot.Weighted>
4.3239

> <Gold.Chemscore.Internal.Correction.Weighted>
   9.000000E+99

> <Gold.Protein.RotatedTorsions>
[ 6907 6896 6895 6894 ] final  137.50 input  -60.11 | X-H torsion
[ 7974 7965 7964 7962 ] final  -81.82 input  175.53 | X-H torsion
[ 8008 7997 7996 7995 ] final  -15.01 input   59.86 | X-H torsion
[ 10167 10162 10161 10158 ] final  -13.32 input  -65.29 | X-H torsion
[ 10718 10713 10712 10709 ] final  145.11 input   66.30 | X-H torsion
[ 10763 10752 10751 10750 ] final  106.92 input  -60.55 | X-H torsion
[ 11005 11000 10999 10996 ] final  -21.77 input  -57.11 | X-H torsion

> <Gold.Protein.ActiveResidues>
 VAL166  LYS551  ARG553  GLY616  TRP617  ASP618  TYR619  PRO620  LYS621  CYS622 
 ASP623  PHE694  ASN695  SER759  ASP760  ASP761  ALA762  ILE779  LEU786  VAL792 
 PHE793  MET794  SER795  GLU796  ALA797  LYS798  CYS799  TRP800  GLU811  SER814 

> <Gold.Protein.RotatedAtoms>
  152.2774  133.5438  159.5476 H   0  0  0  0  0  0  0  0  0  0  0  0  # atno 6907 bound_to 6896
  150.7182  134.0612  159.3841 H   0  0  0  0  0  0  0  0  0  0  0  0  # atno 6908 bound_to 6896
  151.8525  135.0553  160.0511 H   0  0  0  0  0  0  0  0  0  0  0  0  # atno 6909 bound_to 6896
  145.5415  140.9509  143.1548 H   0  0  0  0  0  0  0  0  0  0  0  0  # atno 7974 bound_to 7965
  154.5164  140.2208  155.9057 H   0  0  0  0  0  0  0  0  0  0  0  0  # atno 8008 bound_to 7997
  156.1612  140.3141  155.8777 H   0  0  0  0  0  0  0  0  0  0  0  0  # atno 8009 bound_to 7997
  155.3747  140.0468  157.3035 H   0  0  0  0  0  0  0  0  0  0  0  0  # atno 8010 bound_to 7997
  140.7179  143.5439  150.9377 H   0  0  0  0  0  0  0  0  0  0  0  0  # atno 10167 bound_to 10162
  157.3492  131.0948  151.1015 H   0  0  0  0  0  0  0  0  0  0  0  0  # atno 10718 bound_to 10713
  153.3996  135.3861  155.1979 H   0  0  0  0  0  0  0  0  0  0  0  0  # atno 10763 bound_to 10752
  154.8728  135.3768  154.4635 H   0  0  0  0  0  0  0  0  0  0  0  0  # atno 10764 bound_to 10752
  153.5131  135.7087  153.5832 H   0  0  0  0  0  0  0  0  0  0  0  0  # atno 10765 bound_to 10752
  140.8593  133.7799  156.0056 H   0  0  0  0  0  0  0  0  0  0  0  0  # atno 11005 bound_to 11000
  144.7575  139.7039  143.7248 LP  0  0  0  0  0  0  0  0  0  0  0  0  # atno 17320 bound_to 7965
  146.1978  139.5254  142.9763 LP  0  0  0  0  0  0  0  0  0  0  0  0  # atno 17321 bound_to 7965
  139.9162  143.6660  152.3106 LP  0  0  0  0  0  0  0  0  0  0  0  0  # atno 17342 bound_to 10162
  139.7061  144.7628  151.1191 LP  0  0  0  0  0  0  0  0  0  0  0  0  # atno 17343 bound_to 10162
  157.2197  130.6475  149.5806 LP  0  0  0  0  0  0  0  0  0  0  0  0  # atno 17370 bound_to 10713
  155.9719  130.4633  150.6178 LP  0  0  0  0  0  0  0  0  0  0  0  0  # atno 17371 bound_to 10713
  140.8701  134.2737  157.5195 LP  0  0  0  0  0  0  0  0  0  0  0  0  # atno 17394 bound_to 11000
  139.8706  134.9563  156.4232 LP  0  0  0  0  0  0  0  0  0  0  0  0  # atno 17395 bound_to 11000

$$$$
