AV-unprocessed.smi:1867|AV-procd|sdf|7580|dock5
  -GOLD-   22720 9293D 1   1.00000     0.00000
 Structure written by MMmdl.
 52 55  0  0  0  0  0  0  0  0  4 V2000
  153.0728  137.2051  157.2422 O   0  0  0  0  0  0  0  0  0  0  0  0
  152.0423  137.1999  156.5713 C   0  0  0  0  0  0  0  0  0  0  0  0
  151.2575  138.3059  156.5638 N   0  0  0  0  0  0  0  0  0  0  0  0
  151.4658  139.5572  157.2030 C   0  0  0  0  0  0  0  0  0  0  0  0
  151.0730  140.7232  156.5140 C   0  0  0  0  0  0  0  0  0  0  0  0
  151.2789  141.9873  157.1033 C   0  0  0  0  0  0  0  0  0  0  0  0
  151.8886  142.0755  158.3772 C   0  0  0  0  0  0  0  0  0  0  0  0
  152.1278  143.3030  159.0237 N   0  0  0  0  0  0  0  0  0  0  0  0
  152.0953  143.4144  160.4736 C   0  0  0  0  0  0  0  0  0  0  0  0
  152.2055  144.9133  160.7471 C   0  0  0  0  0  0  0  0  0  0  0  0
  151.4820  145.5355  159.5524 C   0  0  0  0  0  0  0  0  0  0  0  0
  151.7645  144.5671  158.3977 C   0  0  0  0  0  0  0  0  0  0  0  0
  152.2724  140.9306  158.9908 N   0  3  0  0  0  0  0  0  0  0  0  0
  152.0914  139.7003  158.4637 C   0  0  0  0  0  0  0  0  0  0  0  0
  151.6650  136.0939  155.8608 N   0  5  0  0  0  0  0  0  0  0  0  0
  150.4877  135.8994  155.0004 C   0  0  2  0  0  0  0  0  0  0  0  0
  149.1634  136.1549  155.7352 C   0  0  0  0  0  0  0  0  0  0  0  0
  148.1420  135.2527  155.0202 C   0  0  0  0  0  0  0  0  0  0  0  0
  148.9199  134.4326  154.0634 N   0  3  2  0  0  0  0  0  0  0  0  0
  148.3535  133.1066  153.7056 C   0  0  0  0  0  0  0  0  0  0  0  0
  148.6294  132.0358  154.7732 C   0  0  0  0  0  0  0  0  0  0  0  0
  150.1261  131.9669  155.0909 C   0  0  0  0  0  0  0  0  0  0  0  0
  150.6091  133.3412  155.5668 C   0  0  0  0  0  0  0  0  0  0  0  0
  150.3352  134.4481  154.5033 C   0  0  2  0  0  0  0  0  0  0  0  0
  150.3757  138.2060  156.0833 H   0  0  0  0  0  0  0  0  0  0  0  0
  150.6106  140.6522  155.5401 H   0  0  0  0  0  0  0  0  0  0  0  0
  150.9732  142.8736  156.5674 H   0  0  0  0  0  0  0  0  0  0  0  0
  151.1481  143.0243  160.8492 H   0  0  0  0  0  0  0  0  0  0  0  0
  152.9090  142.8579  160.9398 H   0  0  0  0  0  0  0  0  0  0  0  0
  151.7763  145.2032  161.7067 H   0  0  0  0  0  0  0  0  0  0  0  0
  153.2541  145.2152  160.7405 H   0  0  0  0  0  0  0  0  0  0  0  0
  150.4099  145.5632  159.7522 H   0  0  0  0  0  0  0  0  0  0  0  0
  151.8083  146.5540  159.3398 H   0  0  0  0  0  0  0  0  0  0  0  0
  152.6048  144.9169  157.7970 H   0  0  0  0  0  0  0  0  0  0  0  0
  150.8937  144.4727  157.7482 H   0  0  0  0  0  0  0  0  0  0  0  0
  152.4655  138.8854  159.0654 H   0  0  0  0  0  0  0  0  0  0  0  0
  150.5176  136.5485  154.1230 H   0  0  0  0  0  0  0  0  0  0  0  0
  149.2356  135.8637  156.7844 H   0  0  0  0  0  0  0  0  0  0  0  0
  148.8778  137.2068  155.7062 H   0  0  0  0  0  0  0  0  0  0  0  0
  147.6214  134.6262  155.7459 H   0  0  0  0  0  0  0  0  0  0  0  0
  147.3903  135.8322  154.4825 H   0  0  0  0  0  0  0  0  0  0  0  0
  147.2832  133.2006  153.5192 H   0  0  0  0  0  0  0  0  0  0  0  0
  148.8057  132.7952  152.7633 H   0  0  0  0  0  0  0  0  0  0  0  0
  148.0687  132.2577  155.6818 H   0  0  0  0  0  0  0  0  0  0  0  0
  148.2777  131.0647  154.4237 H   0  0  0  0  0  0  0  0  0  0  0  0
  150.3134  131.2164  155.8595 H   0  0  0  0  0  0  0  0  0  0  0  0
  150.6849  131.6588  154.2064 H   0  0  0  0  0  0  0  0  0  0  0  0
  150.1151  133.5612  156.5160 H   0  0  0  0  0  0  0  0  0  0  0  0
  151.6763  133.2836  155.7884 H   0  0  0  0  0  0  0  0  0  0  0  0
  150.9778  134.2733  153.6392 H   0  0  0  0  0  0  0  0  0  0  0  0
  148.9137  134.9746  153.2114 H   0  0  0  0  0  0  0  0  0  0  0  0
  152.7245  140.9984  159.9027 H   0  0  0  0  0  0  0  0  0  0  0  0
  1  2  2  0  0  0  0
  2  3  1  0  0  0  0
  2 15  1  0  0  0  0
  3  4  1  0  0  0  0
  3 25  1  0  0  0  0
  4 14  1  0  0  0  0
  4  5  2  0  0  0  0
  5  6  1  0  0  0  0
  5 26  1  0  0  0  0
  6  7  2  0  0  0  0
  6 27  1  0  0  0  0
  7  8  1  0  0  0  0
  7 13  1  0  0  0  0
  8 12  1  0  0  0  0
  8  9  1  0  0  0  0
  9 10  1  0  0  0  0
  9 28  1  0  0  0  0
  9 29  1  0  0  0  0
 10 11  1  0  0  0  0
 10 30  1  0  0  0  0
 10 31  1  0  0  0  0
 11 12  1  0  0  0  0
 11 32  1  0  0  0  0
 11 33  1  0  0  0  0
 12 34  1  0  0  0  0
 12 35  1  0  0  0  0
 13 14  2  0  0  0  0
 13 52  1  0  0  0  0
 14 36  1  0  0  0  0
 15 16  1  0  0  0  0
 16 24  1  0  0  0  0
 16 17  1  0  0  0  0
 16 37  1  0  0  0  0
 17 18  1  0  0  0  0
 17 38  1  0  0  0  0
 17 39  1  0  0  0  0
 18 19  1  0  0  0  0
 18 40  1  0  0  0  0
 18 41  1  0  0  0  0
 19 24  1  0  0  0  0
 19 20  1  0  0  0  0
 19 51  1  0  0  0  0
 20 21  1  0  0  0  0
 20 42  1  0  0  0  0
 20 43  1  0  0  0  0
 21 22  1  0  0  0  0
 21 44  1  0  0  0  0
 21 45  1  0  0  0  0
 22 23  1  0  0  0  0
 22 46  1  0  0  0  0
 22 47  1  0  0  0  0
 23 24  1  0  0  0  0
 23 48  1  0  0  0  0
 23 49  1  0  0  0  0
 24 50  1  0  0  0  0
M  CHG  1  13   1
M  CHG  1  15  -1
M  CHG  1  19   1
M  END
> <s_m_source_file>
AV-unprocessed.smi

> <i_m_source_file_index>
1867

> <i_lp_mmshare_version>
43012

> <i_f3d_flags>
0

> <s_epik_input>
W0NIMl0xW0NIMl1bQ0gyXVtDSDJdW0NASF0oTjEyKVtDQEBIXShbQ0gyXVtDSDJdMilbTkhdQyg9TylbTkhdYzNbY0hdW2NIXWMobltjSF0zKU40W0NIMl1bQ0gyXVtDSDJdW0NIMl00

> <s_epik_cmdline>
J2VwaWtfcHl0aG9uJywgJy1waCcsICc3LjAnLCAnLXRuJywgJzgnLCAnLW1hJywgJzIwMCcsICctbWV0YWxfYmluZGluZycsICctaW1hZScsICc8aW5maWxlLm1hZT4nLCAnLW9tYWUnLCAnPG91dGZpbGUubWFlPic=

> <r_lp_tautomer_probability>
0.999994

> <r_epik_Ionization_Penalty>
8.56137

> <r_epik_Ionization_Penalty_Charging>
8.56136

> <r_epik_Ionization_Penalty_Neutral>
3.91889e-06

> <r_epik_State_Penalty>
8.16255

> <r_epik_Charging_Adjusted_Penalty>
16.7239

> <i_epik_Tot_Q>
1

> <i_epik_Tot_abs_Q>
3

> <r_epik_Metal_State_Penalty>
4.14279

> <b_epik_Metal_Only>
1

> <s_lp_Force_Field>
OPLS_2005

> <r_lp_Energy>
70.2226

> <b_lp_Chiralities_Consistent>
1

> <s_lp_Variant>
AV-unprocessed.smi:1867-21

> <Gold.Version>
5.8.1

> <Gold.Id.Protein>
6NUR|6NUR_protein|mol2

> <Gold.PLP.Fitness>
54.0523

> <Gold.PLP.PLP>
-42.8042

> <Gold.PLP.part.hbond>
-2.0000

> <Gold.PLP.part.metal>
0.0000

> <Gold.PLP.part.buried>
-5.8419

> <Gold.PLP.part.nonpolar>
-34.3434

> <Gold.PLP.part.repulsive>
0.2008

> <Gold.PLP.ligand.clash>
0.0000

> <Gold.PLP.ligand.torsion>
0.5040

> <Gold.PLP.Chemscore.Hbond>
4.0000

> <Gold.PLP.Chemscore.CHOScore>
0.0000

> <Gold.PLP.Chemscore.Metal>
0.0000

> <Gold.Chemscore.Hbonds>
donor molecule, donor type, donor heavy atom, donor atom, acceptor molecule, acceptor atom, score
      L1  H    19    51       P1  7948  2.00
      P1  H 10752 10764       L1    15  2.00

> <Gold.PLP.Chemscore.Internal.Correction>
0.2562

> <Gold.Rescore>
     Score         DG    S(hbond)    S(metal)    S(lipo)     H(rot)  DE(clash)    DE(int)     intcor
     18.73     -20.52       1.47        0.00     108.61       1.00       0.18       1.61       ----

> <Gold.Chemscore.Fitness>
18.7302

> <Gold.Chemscore.DG>
-20.5213

> <Gold.Chemscore.ZeroCoef>
-5.4800

> <Gold.Chemscore.Hbond>
1.4652

> <Gold.Chemscore.Metal>
0.0000

> <Gold.Chemscore.Lipo>
108.6121

> <Gold.Chemscore.Internal_Hbond>
0.0000

> <Gold.Chemscore.DEClash>
0.1789

> <Gold.Chemscore.DEInternal>
1.6121

> <Gold.Chemscore.Rot>
1.0000

> <Gold.Chemscore.Internal.Correction>
   9.000000E+99

> <Gold.Chemscore.Hbonds>
donor molecule, donor type, donor heavy atom, donor atom, acceptor molecule, acceptor atom, score
      L1  H    19    51       P1  7948  0.26
      P1  H 10752 10764       L1    15  0.39

> <Gold.Chemscore.Hbond.Weighted>
-4.8936

> <Gold.Chemscore.Metal.Weighted>
-0.0000

> <Gold.Chemscore.Lipo.Weighted>
-12.7076

> <Gold.Chemscore.Internal_Hbond.Weighted>
0.0000

> <Gold.Chemscore.DEClash.Weighted>
0.1789

> <Gold.Chemscore.DEInternal.Weighted>
1.6121

> <Gold.Chemscore.Rot.Weighted>
2.5600

> <Gold.Chemscore.Internal.Correction.Weighted>
   9.000000E+99

> <Gold.Protein.RotatedTorsions>
[ 6907 6896 6895 6894 ] final  145.20 input  -60.11 | X-H torsion
[ 7974 7965 7964 7962 ] final   99.59 input  175.53 | X-H torsion
[ 8008 7997 7996 7995 ] final   23.30 input   59.86 | X-H torsion
[ 10167 10162 10161 10158 ] final  125.96 input  -65.29 | X-H torsion
[ 10718 10713 10712 10709 ] final  178.80 input   66.30 | X-H torsion
[ 10763 10752 10751 10750 ] final  -38.05 input  -60.55 | X-H torsion
[ 11005 11000 10999 10996 ] final  -93.67 input  -57.11 | X-H torsion

> <Gold.Protein.ActiveResidues>
 VAL166  LYS551  ARG553  GLY616  TRP617  ASP618  TYR619  PRO620  LYS621  CYS622 
 ASP623  PHE694  ASN695  SER759  ASP760  ASP761  ALA762  ILE779  LEU786  VAL792 
 PHE793  MET794  SER795  GLU796  ALA797  LYS798  CYS799  TRP800  GLU811  SER814 

> <Gold.Protein.RotatedAtoms>
  152.1839  133.4726  159.4972 H   0  0  0  0  0  0  0  0  0  0  0  0  # atno 6907 bound_to 6896
  150.6939  134.1798  159.4253 H   0  0  0  0  0  0  0  0  0  0  0  0  # atno 6908 bound_to 6896
  151.9710  135.0076  160.0603 H   0  0  0  0  0  0  0  0  0  0  0  0  # atno 6909 bound_to 6896
  145.3968  139.2354  143.3321 H   0  0  0  0  0  0  0  0  0  0  0  0  # atno 7974 bound_to 7965
  154.9788  140.3099  155.4955 H   0  0  0  0  0  0  0  0  0  0  0  0  # atno 8008 bound_to 7997
  156.2956  140.2270  156.4825 H   0  0  0  0  0  0  0  0  0  0  0  0  # atno 8009 bound_to 7997
  154.7808  140.0446  157.1114 H   0  0  0  0  0  0  0  0  0  0  0  0  # atno 8010 bound_to 7997
  139.5657  144.6909  151.3917 H   0  0  0  0  0  0  0  0  0  0  0  0  # atno 10167 bound_to 10162
  156.8853  130.9829  151.3057 H   0  0  0  0  0  0  0  0  0  0  0  0  # atno 10718 bound_to 10713
  153.9065  135.6797  153.4753 H   0  0  0  0  0  0  0  0  0  0  0  0  # atno 10763 bound_to 10752
  153.1101  135.4787  154.9018 H   0  0  0  0  0  0  0  0  0  0  0  0  # atno 10764 bound_to 10752
  154.7549  135.3194  154.8444 H   0  0  0  0  0  0  0  0  0  0  0  0  # atno 10765 bound_to 10752
  141.1491  133.7903  157.0192 H   0  0  0  0  0  0  0  0  0  0  0  0  # atno 11005 bound_to 11000
  146.2771  140.4660  142.8791 LP  0  0  0  0  0  0  0  0  0  0  0  0  # atno 17320 bound_to 7965
  144.8401  140.6844  143.6235 LP  0  0  0  0  0  0  0  0  0  0  0  0  # atno 17321 bound_to 7965
  140.6940  143.7793  150.7298 LP  0  0  0  0  0  0  0  0  0  0  0  0  # atno 17342 bound_to 10162
  140.1284  143.4548  152.2270 LP  0  0  0  0  0  0  0  0  0  0  0  0  # atno 17343 bound_to 10162
  157.6116  130.8587  149.8961 LP  0  0  0  0  0  0  0  0  0  0  0  0  # atno 17370 bound_to 10713
  156.0656  130.3692  150.0885 LP  0  0  0  0  0  0  0  0  0  0  0  0  # atno 17371 bound_to 10713
  140.0827  134.9639  157.1650 LP  0  0  0  0  0  0  0  0  0  0  0  0  # atno 17394 bound_to 11000
  140.3554  134.2552  155.7193 LP  0  0  0  0  0  0  0  0  0  0  0  0  # atno 17395 bound_to 11000

$$$$
