AV-unprocessed.smi:2064|AV-procd|sdf|8416|dock10
  -GOLD-   2272011103D 1   1.00000     0.00000
 Structure written by MMmdl.
 46 48  0  0  0  0  0  0  0  0  1 V2000
  147.8892  142.0444  154.0056 N   0  0  0  0  0  0  0  0  0  0  0  0
  148.7716  141.6961  154.6685 C   0  0  0  0  0  0  0  0  0  0  0  0
  149.8383  141.2604  155.5078 C   0  0  0  0  0  0  0  0  0  0  0  0
  150.1946  141.9418  156.6162 C   0  0  0  0  0  0  0  0  0  0  0  0
  151.2270  141.5387  157.4347 N   0  0  0  0  0  0  0  0  0  0  0  0
  151.4849  142.1890  158.6885 C   0  0  0  0  0  0  0  0  0  0  0  0
  151.9158  143.6394  158.6873 C   0  0  0  0  0  0  0  0  0  0  0  0
  152.9005  142.5657  159.0808 C   0  0  0  0  0  0  0  0  0  0  0  0
  151.9079  140.3294  157.1742 C   0  0  0  0  0  0  0  0  0  0  0  0
  152.7659  139.8994  157.9495 O   0  0  0  0  0  0  0  0  0  0  0  0
  151.5671  139.6170  155.9989 N   0  0  0  0  0  0  0  0  0  0  0  0
  152.2925  138.3634  155.6974 C   0  0  0  0  0  0  0  0  0  0  0  0
  151.6326  137.1109  156.2942 C   0  0  0  0  0  0  0  0  0  0  0  0
  151.5902  136.9333  157.5125 O   0  0  0  0  0  0  0  0  0  0  0  0
  151.1171  136.2465  155.4067 N   0  0  0  0  0  0  0  0  0  0  0  0
  150.4428  134.9918  155.7320 C   0  0  0  0  0  0  0  0  0  0  0  0
  151.4222  134.0714  156.4899 C   0  0  0  0  0  0  0  0  0  0  0  0
  150.8674  132.6851  156.8602 C   0  0  0  0  0  0  0  0  0  0  0  0
  150.7727  131.7394  155.6522 C   0  0  0  0  0  0  0  0  0  0  0  0
  149.4736  131.8416  154.8346 C   0  0  0  0  0  0  0  0  0  0  0  0
  148.8701  133.2483  154.6775 C   0  0  0  0  0  0  0  0  0  0  0  0
  149.8811  134.3809  154.4309 C   0  0  0  0  0  0  0  0  0  0  0  0
  150.5331  140.0343  155.1221 C   0  0  0  0  0  0  0  0  0  0  0  0
  150.2513  139.3816  154.1156 O   0  0  0  0  0  0  0  0  0  0  0  0
  149.6541  142.8418  156.8722 H   0  0  0  0  0  0  0  0  0  0  0  0
  150.8318  141.8911  159.5070 H   0  0  0  0  0  0  0  0  0  0  0  0
  152.0712  144.1285  157.7274 H   0  0  0  0  0  0  0  0  0  0  0  0
  151.5260  144.2783  159.4771 H   0  0  0  0  0  0  0  0  0  0  0  0
  153.1664  142.4876  160.1330 H   0  0  0  0  0  0  0  0  0  0  0  0
  153.7049  142.3491  158.3803 H   0  0  0  0  0  0  0  0  0  0  0  0
  152.3958  138.2165  154.6212 H   0  0  0  0  0  0  0  0  0  0  0  0
  153.3223  138.4196  156.0548 H   0  0  0  0  0  0  0  0  0  0  0  0
  151.1988  136.4739  154.4263 H   0  0  0  0  0  0  0  0  0  0  0  0
  149.5990  135.2173  156.3872 H   0  0  0  0  0  0  0  0  0  0  0  0
  152.3415  133.9530  155.9141 H   0  0  0  0  0  0  0  0  0  0  0  0
  151.7200  134.5706  157.4130 H   0  0  0  0  0  0  0  0  0  0  0  0
  151.5547  132.2391  157.5797 H   0  0  0  0  0  0  0  0  0  0  0  0
  149.9097  132.7666  157.3753 H   0  0  0  0  0  0  0  0  0  0  0  0
  151.6296  131.9019  154.9973 H   0  0  0  0  0  0  0  0  0  0  0  0
  150.8695  130.7099  155.9988 H   0  0  0  0  0  0  0  0  0  0  0  0
  149.6595  131.4186  153.8466 H   0  0  0  0  0  0  0  0  0  0  0  0
  148.7171  131.1997  155.2875 H   0  0  0  0  0  0  0  0  0  0  0  0
  148.1670  133.2159  153.8445 H   0  0  0  0  0  0  0  0  0  0  0  0
  148.2630  133.4867  155.5516 H   0  0  0  0  0  0  0  0  0  0  0  0
  149.3587  135.1685  153.8857 H   0  0  0  0  0  0  0  0  0  0  0  0
  150.6847  134.0477  153.7728 H   0  0  0  0  0  0  0  0  0  0  0  0
  1  2  3  0  0  0  0
  2  3  1  0  0  0  0
  3 23  1  0  0  0  0
  3  4  2  0  0  0  0
  4  5  1  0  0  0  0
  4 25  1  0  0  0  0
  5  6  1  0  0  0  0
  5  9  1  0  0  0  0
  6  8  1  0  0  0  0
  6  7  1  0  0  0  0
  6 26  1  0  0  0  0
  7  8  1  0  0  0  0
  7 27  1  0  0  0  0
  7 28  1  0  0  0  0
  8 29  1  0  0  0  0
  8 30  1  0  0  0  0
  9 10  2  0  0  0  0
  9 11  1  0  0  0  0
 11 12  1  0  0  0  0
 11 23  1  0  0  0  0
 12 13  1  0  0  0  0
 12 31  1  0  0  0  0
 12 32  1  0  0  0  0
 13 14  2  0  0  0  0
 13 15  1  0  0  0  0
 15 16  1  0  0  0  0
 15 33  1  0  0  0  0
 16 22  1  0  0  0  0
 16 17  1  0  0  0  0
 16 34  1  0  0  0  0
 17 18  1  0  0  0  0
 17 35  1  0  0  0  0
 17 36  1  0  0  0  0
 18 19  1  0  0  0  0
 18 37  1  0  0  0  0
 18 38  1  0  0  0  0
 19 20  1  0  0  0  0
 19 39  1  0  0  0  0
 19 40  1  0  0  0  0
 20 21  1  0  0  0  0
 20 41  1  0  0  0  0
 20 42  1  0  0  0  0
 21 22  1  0  0  0  0
 21 43  1  0  0  0  0
 21 44  1  0  0  0  0
 22 45  1  0  0  0  0
 22 46  1  0  0  0  0
 23 24  2  0  0  0  0
M  END
> <s_m_source_file>
AV-unprocessed.smi

> <i_m_source_file_index>
2064

> <i_lp_mmshare_version>
43012

> <i_f3d_flags>
0

> <s_epik_input>
TiNDYzFbY0hdbihbQ0hdMltDSDJdW0NIMl0yKWMoPU8pbihjMT1PKVtDSDJdQyg9TylbTkhdW0NIXTNbQ0gyXVtDSDJdW0NIMl1bQ0gyXVtDSDJdW0NIMl0z

> <s_epik_cmdline>
J2VwaWtfcHl0aG9uJywgJy1waCcsICc3LjAnLCAnLXRuJywgJzgnLCAnLW1hJywgJzIwMCcsICctbWV0YWxfYmluZGluZycsICctaW1hZScsICc8aW5maWxlLm1hZT4nLCAnLW9tYWUnLCAnPG91dGZpbGUubWFlPic=

> <r_lp_tautomer_probability>
1

> <r_epik_Ionization_Penalty>
2.03018e-08

> <r_epik_Ionization_Penalty_Charging>
8.701e-11

> <r_epik_Ionization_Penalty_Neutral>
2.02148e-08

> <r_epik_State_Penalty>
-0

> <r_epik_Charging_Adjusted_Penalty>
8.701e-11

> <i_epik_Tot_Q>
0

> <i_epik_Tot_abs_Q>
0

> <r_epik_Metal_State_Penalty>
-0

> <b_epik_Metal_Only>
0

> <s_lp_Force_Field>
OPLS_2005

> <r_lp_Energy>
40.6124

> <b_lp_Chiralities_Consistent>
1

> <s_lp_Variant>
AV-unprocessed.smi:2064-1

> <Gold.Version>
5.8.1

> <Gold.Id.Protein>
6NUR|6NUR_protein|mol2

> <Gold.PLP.Fitness>
47.0824

> <Gold.PLP.PLP>
-42.0008

> <Gold.PLP.part.hbond>
-2.1862

> <Gold.PLP.part.metal>
0.0000

> <Gold.PLP.part.buried>
-3.1665

> <Gold.PLP.part.nonpolar>
-38.2251

> <Gold.PLP.part.repulsive>
1.0281

> <Gold.PLP.ligand.clash>
0.0000

> <Gold.PLP.ligand.torsion>
0.5701

> <Gold.PLP.Chemscore.Hbond>
1.0000

> <Gold.PLP.Chemscore.CHOScore>
1.0000

> <Gold.PLP.Chemscore.Metal>
0.0000

> <Gold.Chemscore.Hbonds>
donor molecule, donor type, donor heavy atom, donor atom, acceptor molecule, acceptor atom, score
      P1  H  7997  8009       L1    10  0.83
      L1  C     4    25       P1  8028  1.00

> <Gold.PLP.Chemscore.Internal.Correction>
0.2217

> <Gold.Rescore>
     Score         DG    S(hbond)    S(metal)    S(lipo)     H(rot)  DE(clash)    DE(int)     intcor
     11.70     -14.60       0.95        0.00      88.10       1.70       0.11       2.79       ----

> <Gold.Chemscore.Fitness>
11.6983

> <Gold.Chemscore.DG>
-14.5975

> <Gold.Chemscore.ZeroCoef>
-5.4800

> <Gold.Chemscore.Hbond>
0.9494

> <Gold.Chemscore.Metal>
0.0000

> <Gold.Chemscore.Lipo>
88.1039

> <Gold.Chemscore.Internal_Hbond>
0.0000

> <Gold.Chemscore.DEClash>
0.1092

> <Gold.Chemscore.DEInternal>
2.7900

> <Gold.Chemscore.Rot>
1.7038

> <Gold.Chemscore.Internal.Correction>
   9.000000E+99

> <Gold.Chemscore.Hbonds>
donor molecule, donor type, donor heavy atom, donor atom, acceptor molecule, acceptor atom, score
      P1  H  7997  8009       L1    10  0.15

> <Gold.Chemscore.Hbond.Weighted>
-3.1711

> <Gold.Chemscore.Metal.Weighted>
-0.0000

> <Gold.Chemscore.Lipo.Weighted>
-10.3082

> <Gold.Chemscore.Internal_Hbond.Weighted>
0.0000

> <Gold.Chemscore.DEClash.Weighted>
0.1092

> <Gold.Chemscore.DEInternal.Weighted>
2.7900

> <Gold.Chemscore.Rot.Weighted>
4.3618

> <Gold.Chemscore.Internal.Correction.Weighted>
   9.000000E+99

> <Gold.Protein.RotatedTorsions>
[ 6907 6896 6895 6894 ] final -155.31 input  -60.11 | X-H torsion
[ 7974 7965 7964 7962 ] final  104.95 input  175.53 | X-H torsion
[ 8008 7997 7996 7995 ] final  178.34 input   59.86 | X-H torsion
[ 10167 10162 10161 10158 ] final  -91.48 input  -65.29 | X-H torsion
[ 10718 10713 10712 10709 ] final  113.57 input   66.30 | X-H torsion
[ 10763 10752 10751 10750 ] final -133.86 input  -60.55 | X-H torsion
[ 11005 11000 10999 10996 ] final  -37.75 input  -57.11 | X-H torsion

> <Gold.Protein.ActiveResidues>
 VAL166  LYS551  ARG553  GLY616  TRP617  ASP618  TYR619  PRO620  LYS621  CYS622 
 ASP623  PHE694  ASN695  SER759  ASP760  ASP761  ALA762  ILE779  LEU786  VAL792 
 PHE793  MET794  SER795  GLU796  ALA797  LYS798  CYS799  TRP800  GLU811  SER814 

> <Gold.Protein.RotatedAtoms>
  151.2705  133.4257  159.2620 H   0  0  0  0  0  0  0  0  0  0  0  0  # atno 6907 bound_to 6896
  151.0449  134.9633  159.8191 H   0  0  0  0  0  0  0  0  0  0  0  0  # atno 6908 bound_to 6896
  152.5372  134.2662  159.9007 H   0  0  0  0  0  0  0  0  0  0  0  0  # atno 6909 bound_to 6896
  145.3261  139.2499  143.3686 H   0  0  0  0  0  0  0  0  0  0  0  0  # atno 7974 bound_to 7965
  156.0557  140.1336  156.9999 H   0  0  0  0  0  0  0  0  0  0  0  0  # atno 8008 bound_to 7997
  154.4457  140.1001  156.6513 H   0  0  0  0  0  0  0  0  0  0  0  0  # atno 8009 bound_to 7997
  155.5455  140.3462  155.4458 H   0  0  0  0  0  0  0  0  0  0  0  0  # atno 8010 bound_to 7997
  140.3444  143.2925  151.9798 H   0  0  0  0  0  0  0  0  0  0  0  0  # atno 10167 bound_to 10162
  157.6331  131.0985  150.7060 H   0  0  0  0  0  0  0  0  0  0  0  0  # atno 10718 bound_to 10713
  154.8727  135.3752  154.4642 H   0  0  0  0  0  0  0  0  0  0  0  0  # atno 10763 bound_to 10752
  153.5308  135.7028  153.5689 H   0  0  0  0  0  0  0  0  0  0  0  0  # atno 10764 bound_to 10752
  153.3895  135.3976  155.1878 H   0  0  0  0  0  0  0  0  0  0  0  0  # atno 10765 bound_to 10752
  140.9976  133.6972  156.1962 H   0  0  0  0  0  0  0  0  0  0  0  0  # atno 11005 bound_to 11000
  146.3064  140.3828  142.8686 LP  0  0  0  0  0  0  0  0  0  0  0  0  # atno 17320 bound_to 7965
  144.8901  140.7513  143.5932 LP  0  0  0  0  0  0  0  0  0  0  0  0  # atno 17321 bound_to 7965
  139.4835  144.6129  151.7400 LP  0  0  0  0  0  0  0  0  0  0  0  0  # atno 17342 bound_to 10162
  140.5278  144.0778  150.6043 LP  0  0  0  0  0  0  0  0  0  0  0  0  # atno 17343 bound_to 10162
  156.7396  130.4735  149.5480 LP  0  0  0  0  0  0  0  0  0  0  0  0  # atno 17370 bound_to 10713
  156.1548  130.6334  151.0643 LP  0  0  0  0  0  0  0  0  0  0  0  0  # atno 17371 bound_to 10713
  140.6941  134.4634  157.5588 LP  0  0  0  0  0  0  0  0  0  0  0  0  # atno 17394 bound_to 11000
  139.9022  134.8529  156.1848 LP  0  0  0  0  0  0  0  0  0  0  0  0  # atno 17395 bound_to 11000

$$$$
