AV-unprocessed.smi:2095|AV-procd|sdf|8556|dock7
  -GOLD-   2272011283D 1   1.00000     0.00000
 Structure written by MMmdl.
 42 43  0  0  0  0  0  0  0  0  2 V2000
  147.6624  133.8955  153.5725 C   0  0  0  0  0  0  0  0  0  0  0  0
  146.1475  134.1482  153.4773 C   0  0  2  0  0  0  0  0  0  0  0  0
  145.5274  133.5826  152.1851 C   0  0  0  0  0  0  0  0  0  0  0  0
  145.8942  134.4404  150.9645 C   0  0  0  0  0  0  0  0  0  0  0  0
  145.5433  135.9180  151.2006 C   0  0  0  0  0  0  0  0  0  0  0  0
  146.1990  136.4243  152.4347 N   0  3  1  0  0  0  0  0  0  0  0  0
  146.1246  137.9069  152.5815 C   0  0  2  0  0  0  0  0  0  0  0  0
  146.5756  138.6070  151.2846 C   0  0  0  0  0  0  0  0  0  0  0  0
  146.8654  138.4337  153.8374 C   0  0  0  0  0  0  0  0  0  0  0  0
  148.2970  138.1641  153.7804 N   0  0  0  0  0  0  0  0  0  0  0  0
  149.2426  138.9056  154.3774 C   0  0  0  0  0  0  0  0  0  0  0  0
  148.9922  139.8674  155.1031 O   0  0  0  0  0  0  0  0  0  0  0  0
  150.6926  138.5207  154.0864 C   0  0  0  0  0  0  0  0  0  0  0  0
  151.0385  137.2936  154.7784 N   0  0  0  0  0  0  0  0  0  0  0  0
  150.4341  136.1041  154.8088 C   0  0  0  0  0  0  0  0  0  0  0  0
  151.0685  135.2544  155.6022 N   0  0  0  0  0  0  0  0  0  0  0  0
  152.1341  136.0012  156.0764 N   0  0  0  0  0  0  0  0  0  0  0  0
  152.1216  137.2122  155.5914 N   0  0  0  0  0  0  0  0  0  0  0  0
  145.7943  135.6414  153.6355 C   0  0  0  0  0  0  0  0  0  0  0  0
  148.2124  134.4061  152.7820 H   0  0  0  0  0  0  0  0  0  0  0  0
  147.8866  132.8310  153.4977 H   0  0  0  0  0  0  0  0  0  0  0  0
  148.0575  134.2462  154.5265 H   0  0  0  0  0  0  0  0  0  0  0  0
  145.6948  133.6153  154.3144 H   0  0  0  0  0  0  0  0  0  0  0  0
  145.8393  132.5492  152.0296 H   0  0  0  0  0  0  0  0  0  0  0  0
  144.4418  133.5605  152.2891 H   0  0  0  0  0  0  0  0  0  0  0  0
  146.9587  134.3454  150.7486 H   0  0  0  0  0  0  0  0  0  0  0  0
  145.3706  134.0714  150.0821 H   0  0  0  0  0  0  0  0  0  0  0  0
  145.8659  136.5013  150.3375 H   0  0  0  0  0  0  0  0  0  0  0  0
  144.4618  136.0366  151.2773 H   0  0  0  0  0  0  0  0  0  0  0  0
  145.0672  138.1520  152.6900 H   0  0  0  0  0  0  0  0  0  0  0  0
  146.3487  139.6733  151.3101 H   0  0  0  0  0  0  0  0  0  0  0  0
  146.0625  138.1921  150.4165 H   0  0  0  0  0  0  0  0  0  0  0  0
  147.6479  138.5083  151.1173 H   0  0  0  0  0  0  0  0  0  0  0  0
  146.7044  139.5045  153.9697 H   0  0  0  0  0  0  0  0  0  0  0  0
  146.4861  137.9501  154.7375 H   0  0  0  0  0  0  0  0  0  0  0  0
  148.5947  137.3901  153.2036 H   0  0  0  0  0  0  0  0  0  0  0  0
  150.8353  138.3734  153.0149 H   0  0  0  0  0  0  0  0  0  0  0  0
  151.3686  139.3185  154.3980 H   0  0  0  0  0  0  0  0  0  0  0  0
  149.5328  135.8667  154.2630 H   0  0  0  0  0  0  0  0  0  0  0  0
  144.7185  135.7381  153.7874 H   0  0  0  0  0  0  0  0  0  0  0  0
  146.2720  136.0346  154.5325 H   0  0  0  0  0  0  0  0  0  0  0  0
  147.1814  136.2299  152.3034 H   0  0  0  0  0  0  0  0  0  0  0  0
  1  2  1  0  0  0  0
  1 20  1  0  0  0  0
  1 21  1  0  0  0  0
  1 22  1  0  0  0  0
  2 19  1  0  0  0  0
  2  3  1  0  0  0  0
  2 23  1  0  0  0  0
  3  4  1  0  0  0  0
  3 24  1  0  0  0  0
  3 25  1  0  0  0  0
  4  5  1  0  0  0  0
  4 26  1  0  0  0  0
  4 27  1  0  0  0  0
  5  6  1  0  0  0  0
  5 28  1  0  0  0  0
  5 29  1  0  0  0  0
  6  7  1  0  0  0  0
  6 19  1  0  0  0  0
  6 42  1  0  0  0  0
  7  8  1  0  0  0  0
  7  9  1  0  0  0  0
  7 30  1  0  0  0  0
  8 31  1  0  0  0  0
  8 32  1  0  0  0  0
  8 33  1  0  0  0  0
  9 10  1  0  0  0  0
  9 34  1  0  0  0  0
  9 35  1  0  0  0  0
 10 11  1  0  0  0  0
 10 36  1  0  0  0  0
 11 12  2  0  0  0  0
 11 13  1  0  0  0  0
 13 14  1  0  0  0  0
 13 37  1  0  0  0  0
 13 38  1  0  0  0  0
 14 18  1  0  0  0  0
 14 15  1  0  0  0  0
 15 16  2  0  0  0  0
 15 39  1  0  0  0  0
 16 17  1  0  0  0  0
 17 18  2  0  0  0  0
 19 40  1  0  0  0  0
 19 41  1  0  0  0  0
M  CHG  1   6   1
M  END
> <s_m_source_file>
AV-unprocessed.smi

> <i_m_source_file_index>
2095

> <i_lp_mmshare_version>
43012

> <i_f3d_flags>
0

> <s_epik_input>
W0NIM11bQ0BASF0xW0NIMl1bQ0gyXVtDSDJdTihbQ0gyXTEpW0NASF0oW0NIM10pW0NIMl1bTkhdQyg9TylbQ0gyXW4yW2NIXW5ubjI=

> <s_epik_cmdline>
J2VwaWtfcHl0aG9uJywgJy1waCcsICc3LjAnLCAnLXRuJywgJzgnLCAnLW1hJywgJzIwMCcsICctbWV0YWxfYmluZGluZycsICctaW1hZScsICc8aW5maWxlLm1hZT4nLCAnLW9tYWUnLCAnPG91dGZpbGUubWFlPic=

> <r_lp_tautomer_probability>
1

> <r_epik_Ionization_Penalty>
0.00268321

> <r_epik_Ionization_Penalty_Charging>
0.00267875

> <r_epik_Ionization_Penalty_Neutral>
4.46125e-06

> <r_epik_State_Penalty>
0.00186642

> <r_epik_Charging_Adjusted_Penalty>
0.00454517

> <i_epik_Tot_Q>
1

> <i_epik_Tot_abs_Q>
1

> <r_epik_Metal_State_Penalty>
-0

> <b_epik_Metal_Only>
0

> <s_lp_Force_Field>
OPLS_2005

> <r_lp_Energy>
23.935

> <b_lp_Chiralities_Consistent>
1

> <s_lp_Variant>
AV-unprocessed.smi:2095-3

> <Gold.Version>
5.8.1

> <Gold.Id.Protein>
6NUR|6NUR_protein|mol2

> <Gold.PLP.Fitness>
43.3828

> <Gold.PLP.PLP>
-29.1385

> <Gold.PLP.part.hbond>
-4.9106

> <Gold.PLP.part.metal>
0.0000

> <Gold.PLP.part.buried>
-1.9058

> <Gold.PLP.part.nonpolar>
-23.8895

> <Gold.PLP.part.repulsive>
0.2056

> <Gold.PLP.ligand.clash>
0.0000

> <Gold.PLP.ligand.torsion>
0.4347

> <Gold.PLP.Chemscore.Hbond>
4.0000

> <Gold.PLP.Chemscore.CHOScore>
1.0000

> <Gold.PLP.Chemscore.Metal>
0.0000

> <Gold.Chemscore.Hbonds>
donor molecule, donor type, donor heavy atom, donor atom, acceptor molecule, acceptor atom, score
      L1  H     6    42       P1  7948  2.00
      L1  H    10    36       P1  7948  1.00
      P1  H 10752 10765       L1    17  0.94
      L1  C    15    39       P1  7948  0.99

> <Gold.PLP.Chemscore.Internal.Correction>
0.1136

> <Gold.Rescore>
     Score         DG    S(hbond)    S(metal)    S(lipo)     H(rot)  DE(clash)    DE(int)     intcor
     11.72     -12.25       2.14        0.00      54.62       2.64       0.11       0.42       ----

> <Gold.Chemscore.Fitness>
11.7198

> <Gold.Chemscore.DG>
-12.2456

> <Gold.Chemscore.ZeroCoef>
-5.4800

> <Gold.Chemscore.Hbond>
2.1389

> <Gold.Chemscore.Metal>
0.0000

> <Gold.Chemscore.Lipo>
54.6154

> <Gold.Chemscore.Internal_Hbond>
0.0000

> <Gold.Chemscore.DEClash>
0.1059

> <Gold.Chemscore.DEInternal>
0.4198

> <Gold.Chemscore.Rot>
2.6439

> <Gold.Chemscore.Internal.Correction>
   9.000000E+99

> <Gold.Chemscore.Hbonds>
donor molecule, donor type, donor heavy atom, donor atom, acceptor molecule, acceptor atom, score
      L1  H     6    42       P1  7948  1.00
      L1  H    10    36       P1  7948  1.00
      P1  H 10752 10765       L1    17  0.08

> <Gold.Chemscore.Hbond.Weighted>
-7.1440

> <Gold.Chemscore.Metal.Weighted>
-0.0000

> <Gold.Chemscore.Lipo.Weighted>
-6.3900

> <Gold.Chemscore.Internal_Hbond.Weighted>
0.0000

> <Gold.Chemscore.DEClash.Weighted>
0.1059

> <Gold.Chemscore.DEInternal.Weighted>
0.4198

> <Gold.Chemscore.Rot.Weighted>
6.7685

> <Gold.Chemscore.Internal.Correction.Weighted>
   9.000000E+99

> <Gold.Protein.RotatedTorsions>
[ 6907 6896 6895 6894 ] final  113.83 input  -60.11 | X-H torsion
[ 7974 7965 7964 7962 ] final -112.91 input  175.53 | X-H torsion
[ 8008 7997 7996 7995 ] final   81.84 input   59.86 | X-H torsion
[ 10167 10162 10161 10158 ] final  100.42 input  -65.29 | X-H torsion
[ 10718 10713 10712 10709 ] final   35.59 input   66.30 | X-H torsion
[ 10763 10752 10751 10750 ] final -129.23 input  -60.55 | X-H torsion
[ 11005 11000 10999 10996 ] final   88.79 input  -57.11 | X-H torsion

> <Gold.Protein.ActiveResidues>
 VAL166  LYS551  ARG553  GLY616  TRP617  ASP618  TYR619  PRO620  LYS621  CYS622 
 ASP623  PHE694  ASN695  SER759  ASP760  ASP761  ALA762  ILE779  LEU786  VAL792 
 PHE793  MET794  SER795  GLU796  ALA797  LYS798  CYS799  TRP800  GLU811  SER814 

> <Gold.Protein.RotatedAtoms>
  152.4838  133.8321  159.7108 H   0  0  0  0  0  0  0  0  0  0  0  0  # atno 6907 bound_to 6896
  150.8908  133.7236  159.2912 H   0  0  0  0  0  0  0  0  0  0  0  0  # atno 6908 bound_to 6896
  151.4709  135.1049  159.9803 H   0  0  0  0  0  0  0  0  0  0  0  0  # atno 6909 bound_to 6896
  145.1383  140.8763  143.3717 H   0  0  0  0  0  0  0  0  0  0  0  0  # atno 7974 bound_to 7965
  155.9026  140.3432  155.6038 H   0  0  0  0  0  0  0  0  0  0  0  0  # atno 8008 bound_to 7997
  155.7482  140.0816  157.2232 H   0  0  0  0  0  0  0  0  0  0  0  0  # atno 8009 bound_to 7997
  154.4045  140.1558  156.2681 H   0  0  0  0  0  0  0  0  0  0  0  0  # atno 8010 bound_to 7997
  139.7528  144.6978  151.0406 H   0  0  0  0  0  0  0  0  0  0  0  0  # atno 10167 bound_to 10162
  157.3246  130.7466  149.6807 H   0  0  0  0  0  0  0  0  0  0  0  0  # atno 10718 bound_to 10713
  154.8757  135.3902  154.3886 H   0  0  0  0  0  0  0  0  0  0  0  0  # atno 10763 bound_to 10752
  153.4625  135.7029  153.6047 H   0  0  0  0  0  0  0  0  0  0  0  0  # atno 10764 bound_to 10752
  153.4539  135.3827  155.2268 H   0  0  0  0  0  0  0  0  0  0  0  0  # atno 10765 bound_to 10752
  139.8889  134.8510  156.3051 H   0  0  0  0  0  0  0  0  0  0  0  0  # atno 11005 bound_to 11000
  145.0560  139.3143  143.5904 LP  0  0  0  0  0  0  0  0  0  0  0  0  # atno 17320 bound_to 7965
  146.3507  139.9985  142.8678 LP  0  0  0  0  0  0  0  0  0  0  0  0  # atno 17321 bound_to 7965
  140.7799  143.4788  151.0046 LP  0  0  0  0  0  0  0  0  0  0  0  0  # atno 17342 bound_to 10162
  139.8476  143.7481  152.3179 LP  0  0  0  0  0  0  0  0  0  0  0  0  # atno 17343 bound_to 10162
  155.9689  130.4213  150.4463 LP  0  0  0  0  0  0  0  0  0  0  0  0  # atno 17370 bound_to 10713
  157.2484  131.0541  151.2394 LP  0  0  0  0  0  0  0  0  0  0  0  0  # atno 17371 bound_to 10713
  140.9888  133.7222  156.0782 LP  0  0  0  0  0  0  0  0  0  0  0  0  # atno 17394 bound_to 11000
  140.7653  134.3893  157.5518 LP  0  0  0  0  0  0  0  0  0  0  0  0  # atno 17395 bound_to 11000

$$$$
