AV-unprocessed.smi:1473|AV-procd|sdf|5970|dock8
  -GOLD-   22720 6 63D 1   1.00000     0.00000
 Structure written by MMmdl.
 33 34  0  0  0  0  0  0  0  0  2 V2000
  148.4326  135.5812  154.6603 N   0  5  0  0  0  0  0  0  0  0  0  0
  149.5507  136.2567  155.6054 S   0  0  0  0  0  0  0  0  0  0  0  0
  148.9949  136.9673  156.7677 O   0  0  0  0  0  0  0  0  0  0  0  0
  150.7384  135.4134  155.8089 O   0  0  0  0  0  0  0  0  0  0  0  0
  150.0278  137.4749  154.4898 N   0  0  0  0  0  0  0  0  0  0  0  0
  151.2612  138.2309  154.6805 C   0  0  0  0  0  0  0  0  0  0  0  0
  151.0156  139.5497  155.3824 C   0  0  0  0  0  0  0  0  0  0  0  0
  150.0444  140.4498  154.9003 C   0  0  0  0  0  0  0  0  0  0  0  0
  149.8659  141.6699  155.5806 C   0  0  0  0  0  0  0  0  0  0  0  0
  150.5804  142.0221  156.6707 N   0  0  0  0  0  0  0  0  0  0  0  0
  151.5187  141.1584  157.1294 C   0  0  0  0  0  0  0  0  0  0  0  0
  152.2706  141.5256  158.2545 N   0  0  0  0  0  0  0  0  0  0  0  0
  151.9643  142.8628  158.7475 C   0  0  0  0  0  0  0  0  0  0  0  0
  152.9169  143.2299  159.8982 C   0  0  0  0  0  0  0  0  0  0  0  0
  152.8302  142.2427  160.9222 O   0  0  0  0  0  0  0  0  0  0  0  0
  153.2020  140.9500  160.4515 C   0  0  0  0  0  0  0  0  0  0  0  0
  152.2585  140.5237  159.3130 C   0  0  0  0  0  0  0  0  0  0  0  0
  151.7687  139.9120  156.5176 C   0  0  0  0  0  0  0  0  0  0  0  0
  148.6118  135.8736  153.6921 H   0  0  0  0  0  0  0  0  0  0  0  0
  149.2727  137.9384  153.9854 H   0  0  0  0  0  0  0  0  0  0  0  0
  151.9585  137.6370  155.2724 H   0  0  0  0  0  0  0  0  0  0  0  0
  151.7311  138.3985  153.7109 H   0  0  0  0  0  0  0  0  0  0  0  0
  149.4522  140.2136  154.0283 H   0  0  0  0  0  0  0  0  0  0  0  0
  149.1309  142.3835  155.2388 H   0  0  0  0  0  0  0  0  0  0  0  0
  152.0590  143.5859  157.9364 H   0  0  0  0  0  0  0  0  0  0  0  0
  150.9315  142.9015  159.0970 H   0  0  0  0  0  0  0  0  0  0  0  0
  153.9453  143.3103  159.5421 H   0  0  0  0  0  0  0  0  0  0  0  0
  152.6468  144.2001  160.3148 H   0  0  0  0  0  0  0  0  0  0  0  0
  154.2396  140.9599  160.1140 H   0  0  0  0  0  0  0  0  0  0  0  0
  153.1416  140.2400  161.2763 H   0  0  0  0  0  0  0  0  0  0  0  0
  151.2446  140.4053  159.6980 H   0  0  0  0  0  0  0  0  0  0  0  0
  152.5675  139.5578  158.9117 H   0  0  0  0  0  0  0  0  0  0  0  0
  152.5278  139.2491  156.9075 H   0  0  0  0  0  0  0  0  0  0  0  0
  1  2  1  0  0  0  0
  1 19  1  0  0  0  0
  2  3  2  0  0  0  0
  2  4  2  0  0  0  0
  2  5  1  0  0  0  0
  5  6  1  0  0  0  0
  5 20  1  0  0  0  0
  6  7  1  0  0  0  0
  6 21  1  0  0  0  0
  6 22  1  0  0  0  0
  7 18  1  0  0  0  0
  7  8  2  0  0  0  0
  8  9  1  0  0  0  0
  8 23  1  0  0  0  0
  9 10  2  0  0  0  0
  9 24  1  0  0  0  0
 10 11  1  0  0  0  0
 11 12  1  0  0  0  0
 11 18  2  0  0  0  0
 12 17  1  0  0  0  0
 12 13  1  0  0  0  0
 13 14  1  0  0  0  0
 13 25  1  0  0  0  0
 13 26  1  0  0  0  0
 14 15  1  0  0  0  0
 14 27  1  0  0  0  0
 14 28  1  0  0  0  0
 15 16  1  0  0  0  0
 16 17  1  0  0  0  0
 16 29  1  0  0  0  0
 16 30  1  0  0  0  0
 17 31  1  0  0  0  0
 17 32  1  0  0  0  0
 18 33  1  0  0  0  0
M  CHG  1   1  -1
M  END
> <s_m_source_file>
AV-unprocessed.smi

> <i_m_source_file_index>
1473

> <i_lp_mmshare_version>
43012

> <i_f3d_flags>
0

> <s_epik_input>
W05IMl1TKD1PKSg9TylbTkhdW0NIMl1jMVtjSF1bY0hdbmMoW2NIXTEpTjJbQ0gyXVtDSDJdT1tDSDJdW0NIMl0y

> <s_epik_cmdline>
J2VwaWtfcHl0aG9uJywgJy1waCcsICc3LjAnLCAnLXRuJywgJzgnLCAnLW1hJywgJzIwMCcsICctbWV0YWxfYmluZGluZycsICctaW1hZScsICc8aW5maWxlLm1hZT4nLCAnLW9tYWUnLCAnPG91dGZpbGUubWFlPic=

> <r_lp_tautomer_probability>
1

> <r_epik_Ionization_Penalty>
2.7939

> <r_epik_Ionization_Penalty_Charging>
2.75358

> <r_epik_Ionization_Penalty_Neutral>
0.0403146

> <r_epik_State_Penalty>
2.98411

> <r_epik_Charging_Adjusted_Penalty>
5.73769

> <i_epik_Tot_Q>
-1

> <i_epik_Tot_abs_Q>
1

> <r_epik_Metal_State_Penalty>
0.875881

> <b_epik_Metal_Only>
1

> <s_lp_Force_Field>
OPLS_2005

> <r_lp_Energy>
15.423

> <b_lp_Chiralities_Consistent>
1

> <s_lp_Variant>
AV-unprocessed.smi:1473-5

> <Gold.Version>
5.8.1

> <Gold.Id.Protein>
6NUR|6NUR_protein|mol2

> <Gold.PLP.Fitness>
40.7820

> <Gold.PLP.PLP>
-32.5756

> <Gold.PLP.part.hbond>
-2.9220

> <Gold.PLP.part.metal>
0.0000

> <Gold.PLP.part.buried>
-2.9360

> <Gold.PLP.part.nonpolar>
-26.3067

> <Gold.PLP.part.repulsive>
0.2522

> <Gold.PLP.ligand.clash>
0.0000

> <Gold.PLP.ligand.torsion>
0.8893

> <Gold.PLP.Chemscore.Hbond>
2.0000

> <Gold.PLP.Chemscore.CHOScore>
0.9401

> <Gold.PLP.Chemscore.Metal>
0.0000

> <Gold.Chemscore.Hbonds>
donor molecule, donor type, donor heavy atom, donor atom, acceptor molecule, acceptor atom, score
      L1  H     1    19       P1  7948  1.00
      L1  C     9    24       P1  8028  1.00

> <Gold.PLP.Chemscore.Internal.Correction>
1.1647

> <Gold.Rescore>
     Score         DG    S(hbond)    S(metal)    S(lipo)     H(rot)  DE(clash)    DE(int)     intcor
     15.13     -16.03       1.97        0.00      75.04       1.88       0.02       0.88       ----

> <Gold.Chemscore.Fitness>
15.1252

> <Gold.Chemscore.DG>
-16.0317

> <Gold.Chemscore.ZeroCoef>
-5.4800

> <Gold.Chemscore.Hbond>
1.9726

> <Gold.Chemscore.Metal>
0.0000

> <Gold.Chemscore.Lipo>
75.0398

> <Gold.Chemscore.Internal_Hbond>
0.0000

> <Gold.Chemscore.DEClash>
0.0234

> <Gold.Chemscore.DEInternal>
0.8832

> <Gold.Chemscore.Rot>
1.8814

> <Gold.Chemscore.Internal.Correction>
   9.000000E+99

> <Gold.Chemscore.Hbonds>
donor molecule, donor type, donor heavy atom, donor atom, acceptor molecule, acceptor atom, score
      L1  H     1    19       P1  7948  1.00
      P1  H 10752 10764       L1     4  0.03

> <Gold.Chemscore.Hbond.Weighted>
-6.5886

> <Gold.Chemscore.Metal.Weighted>
-0.0000

> <Gold.Chemscore.Lipo.Weighted>
-8.7797

> <Gold.Chemscore.Internal_Hbond.Weighted>
0.0000

> <Gold.Chemscore.DEClash.Weighted>
0.0234

> <Gold.Chemscore.DEInternal.Weighted>
0.8832

> <Gold.Chemscore.Rot.Weighted>
4.8165

> <Gold.Chemscore.Internal.Correction.Weighted>
   9.000000E+99

> <Gold.Protein.RotatedTorsions>
[ 6907 6896 6895 6894 ] final   47.10 input  -60.11 | X-H torsion
[ 7974 7965 7964 7962 ] final   79.77 input  175.53 | X-H torsion
[ 8008 7997 7996 7995 ] final   80.98 input   59.86 | X-H torsion
[ 10167 10162 10161 10158 ] final   95.34 input  -65.29 | X-H torsion
[ 10718 10713 10712 10709 ] final  -57.07 input   66.30 | X-H torsion
[ 10763 10752 10751 10750 ] final  -54.25 input  -60.55 | X-H torsion
[ 11005 11000 10999 10996 ] final   59.96 input  -57.11 | X-H torsion

> <Gold.Protein.ActiveResidues>
 VAL166  LYS551  ARG553  GLY616  TRP617  ASP618  TYR619  PRO620  LYS621  CYS622 
 ASP623  PHE694  ASN695  SER759  ASP760  ASP761  ALA762  ILE779  LEU786  VAL792 
 PHE793  MET794  SER795  GLU796  ALA797  LYS798  CYS799  TRP800  GLU811  SER814 

> <Gold.Protein.RotatedAtoms>
  152.2641  134.8003  160.0425 H   0  0  0  0  0  0  0  0  0  0  0  0  # atno 6907 bound_to 6896
  151.8639  133.3457  159.3721 H   0  0  0  0  0  0  0  0  0  0  0  0  # atno 6908 bound_to 6896
  150.7127  134.5107  159.5650 H   0  0  0  0  0  0  0  0  0  0  0  0  # atno 6909 bound_to 6896
  145.6599  139.2469  143.1928 H   0  0  0  0  0  0  0  0  0  0  0  0  # atno 7974 bound_to 7965
  155.8909  140.3439  155.5955 H   0  0  0  0  0  0  0  0  0  0  0  0  # atno 8008 bound_to 7997
  155.7612  140.0833  157.2173 H   0  0  0  0  0  0  0  0  0  0  0  0  # atno 8009 bound_to 7997
  154.4033  140.1535  156.2822 H   0  0  0  0  0  0  0  0  0  0  0  0  # atno 8010 bound_to 7997
  139.7997  144.6819  150.9781 H   0  0  0  0  0  0  0  0  0  0  0  0  # atno 10167 bound_to 10162
  156.1239  130.4164  150.0391 H   0  0  0  0  0  0  0  0  0  0  0  0  # atno 10718 bound_to 10713
  154.1718  135.6458  153.5011 H   0  0  0  0  0  0  0  0  0  0  0  0  # atno 10763 bound_to 10752
  153.0082  135.5385  154.6605 H   0  0  0  0  0  0  0  0  0  0  0  0  # atno 10764 bound_to 10752
  154.5946  135.2937  155.0572 H   0  0  0  0  0  0  0  0  0  0  0  0  # atno 10765 bound_to 10752
  140.0266  134.6074  155.9564 H   0  0  0  0  0  0  0  0  0  0  0  0  # atno 11005 bound_to 11000
  146.1134  140.7400  142.9492 LP  0  0  0  0  0  0  0  0  0  0  0  0  # atno 17320 bound_to 7965
  144.7093  140.3975  143.7093 LP  0  0  0  0  0  0  0  0  0  0  0  0  # atno 17321 bound_to 7965
  140.7820  143.4294  151.0718 LP  0  0  0  0  0  0  0  0  0  0  0  0  # atno 17342 bound_to 10162
  139.7967  143.8142  152.3158 LP  0  0  0  0  0  0  0  0  0  0  0  0  # atno 17343 bound_to 10162
  156.8322  130.9396  151.3636 LP  0  0  0  0  0  0  0  0  0  0  0  0  # atno 17370 bound_to 10713
  157.6421  130.8814  149.9469 LP  0  0  0  0  0  0  0  0  0  0  0  0  # atno 17371 bound_to 10713
  141.1806  133.6546  156.5005 LP  0  0  0  0  0  0  0  0  0  0  0  0  # atno 17394 bound_to 11000
  140.4296  134.7113  157.4935 LP  0  0  0  0  0  0  0  0  0  0  0  0  # atno 17395 bound_to 11000

$$$$
