AV-unprocessed.smi:840|AV-procd|sdf|3911|dock1
  -GOLD-   22720 1373D 1   1.00000     0.00000
 Structure written by MMmdl.
 37 38  0  0  0  0  0  0  0  0  1 V2000
  149.8948  134.0206  155.5786 C   0  0  0  0  0  0  0  0  0  0  0  0
  148.9526  135.2164  155.3630 C   0  0  2  0  0  0  0  0  0  0  0  0
  148.3101  135.0586  154.0586 N   0  0  0  0  0  0  0  0  0  0  0  0
  147.2419  134.2858  153.8097 C   0  0  0  0  0  0  0  0  0  0  0  0
  146.6926  133.5918  154.6660 O   0  0  0  0  0  0  0  0  0  0  0  0
  146.8649  134.3773  152.5224 N   0  0  0  0  0  0  0  0  0  0  0  0
  145.7747  133.7352  151.8787 C   0  0  0  0  0  0  0  0  0  0  0  0
  144.4988  134.1234  151.9866 N   0  0  0  0  0  0  0  0  0  0  0  0
  143.6386  133.3109  151.2435 C   0  0  0  0  0  0  0  0  0  0  0  0
  144.2810  132.3011  150.5714 C   0  0  0  0  0  0  0  0  0  0  0  0
  146.0026  132.3314  150.8461 S   0  0  0  0  0  0  0  0  0  0  0  0
  149.7933  136.5030  155.4078 C   0  0  0  0  0  0  0  0  0  0  0  0
  150.3117  136.8797  156.4603 O   0  0  0  0  0  0  0  0  0  0  0  0
  149.9060  137.1741  154.2520 N   0  0  0  0  0  0  0  0  0  0  0  0
  150.6622  138.4094  154.0699 C   0  0  0  0  0  0  0  0  0  0  0  0
  152.1497  138.1867  154.3981 C   0  0  0  0  0  0  0  0  0  0  0  0
  152.3997  138.9060  155.7238 C   0  0  0  0  0  0  0  0  0  0  0  0
  151.4258  140.0796  155.6996 C   0  0  0  0  0  0  0  0  0  0  0  0
  150.1731  139.5187  155.0242 C   0  0  0  0  0  0  0  0  0  0  0  0
  150.4027  134.0840  156.5420 H   0  0  0  0  0  0  0  0  0  0  0  0
  150.6598  133.9612  154.8026 H   0  0  0  0  0  0  0  0  0  0  0  0
  149.3402  133.0817  155.5670 H   0  0  0  0  0  0  0  0  0  0  0  0
  148.1955  135.2335  156.1496 H   0  0  0  0  0  0  0  0  0  0  0  0
  148.6939  135.5995  153.2977 H   0  0  0  0  0  0  0  0  0  0  0  0
  147.4167  134.9860  151.9359 H   0  0  0  0  0  0  0  0  0  0  0  0
  142.5800  133.5239  151.2491 H   0  0  0  0  0  0  0  0  0  0  0  0
  143.8478  131.5452  149.9336 H   0  0  0  0  0  0  0  0  0  0  0  0
  149.4469  136.7955  153.4362 H   0  0  0  0  0  0  0  0  0  0  0  0
  150.5786  138.7400  153.0328 H   0  0  0  0  0  0  0  0  0  0  0  0
  152.4320  137.1337  154.4423 H   0  0  0  0  0  0  0  0  0  0  0  0
  152.7604  138.6480  153.6208 H   0  0  0  0  0  0  0  0  0  0  0  0
  152.1558  138.2427  156.5547 H   0  0  0  0  0  0  0  0  0  0  0  0
  153.4365  139.2221  155.8414 H   0  0  0  0  0  0  0  0  0  0  0  0
  151.2237  140.4795  156.6935 H   0  0  0  0  0  0  0  0  0  0  0  0
  151.8399  140.8863  155.0935 H   0  0  0  0  0  0  0  0  0  0  0  0
  149.6114  140.2929  154.5005 H   0  0  0  0  0  0  0  0  0  0  0  0
  149.5129  139.1059  155.7889 H   0  0  0  0  0  0  0  0  0  0  0  0
  1  2  1  0  0  0  0
  1 20  1  0  0  0  0
  1 21  1  0  0  0  0
  1 22  1  0  0  0  0
  2  3  1  0  0  0  0
  2 12  1  0  0  0  0
  2 23  1  0  0  0  0
  3  4  1  0  0  0  0
  3 24  1  0  0  0  0
  4  5  2  0  0  0  0
  4  6  1  0  0  0  0
  6  7  1  0  0  0  0
  6 25  1  0  0  0  0
  7 11  1  0  0  0  0
  7  8  2  0  0  0  0
  8  9  1  0  0  0  0
  9 10  2  0  0  0  0
  9 26  1  0  0  0  0
 10 11  1  0  0  0  0
 10 27  1  0  0  0  0
 12 13  2  0  0  0  0
 12 14  1  0  0  0  0
 14 15  1  0  0  0  0
 14 28  1  0  0  0  0
 15 19  1  0  0  0  0
 15 16  1  0  0  0  0
 15 29  1  0  0  0  0
 16 17  1  0  0  0  0
 16 30  1  0  0  0  0
 16 31  1  0  0  0  0
 17 18  1  0  0  0  0
 17 32  1  0  0  0  0
 17 33  1  0  0  0  0
 18 19  1  0  0  0  0
 18 34  1  0  0  0  0
 18 35  1  0  0  0  0
 19 36  1  0  0  0  0
 19 37  1  0  0  0  0
M  END
> <s_m_source_file>
AV-unprocessed.smi

> <i_m_source_file_index>
840

> <i_lp_mmshare_version>
43012

> <i_f3d_flags>
0

> <s_epik_input>
W0NIMl0xW0NIMl1bQ0gyXVtDSDJdW0NIXTFbTkhdQyg9TylbQ0BIXShbQ0gzXSlbTkhdQyg9TylbTkhdYzJuW2NIXVtjSF1zMg==

> <s_epik_cmdline>
J2VwaWtfcHl0aG9uJywgJy1waCcsICc3LjAnLCAnLXRuJywgJzgnLCAnLW1hJywgJzIwMCcsICctbWV0YWxfYmluZGluZycsICctaW1hZScsICc8aW5maWxlLm1hZT4nLCAnLW9tYWUnLCAnPG91dGZpbGUubWFlPic=

> <r_lp_tautomer_probability>
1

> <r_epik_Ionization_Penalty>
0.000138928

> <r_epik_Ionization_Penalty_Charging>
0

> <r_epik_Ionization_Penalty_Neutral>
0.000138928

> <r_epik_State_Penalty>
-0

> <r_epik_Charging_Adjusted_Penalty>
0

> <i_epik_Tot_Q>
0

> <i_epik_Tot_abs_Q>
0

> <r_epik_Metal_State_Penalty>
0.0502858

> <b_epik_Metal_Only>
0

> <s_lp_Force_Field>
OPLS_2005

> <r_lp_Energy>
16.5686

> <b_lp_Chiralities_Consistent>
1

> <s_lp_Variant>
AV-unprocessed.smi:840-1

> <Gold.Version>
5.8.1

> <Gold.Id.Protein>
6NUR|6NUR_protein|mol2

> <Gold.PLP.Fitness>
42.6414

> <Gold.PLP.PLP>
-33.0354

> <Gold.PLP.part.hbond>
-3.3909

> <Gold.PLP.part.metal>
0.0000

> <Gold.PLP.part.buried>
-5.2845

> <Gold.PLP.part.nonpolar>
-25.9950

> <Gold.PLP.part.repulsive>
0.1992

> <Gold.PLP.ligand.clash>
0.0000

> <Gold.PLP.ligand.torsion>
1.1202

> <Gold.PLP.Chemscore.Hbond>
2.9440

> <Gold.PLP.Chemscore.CHOScore>
1.0000

> <Gold.PLP.Chemscore.Metal>
0.0000

> <Gold.Chemscore.Hbonds>
donor molecule, donor type, donor heavy atom, donor atom, acceptor molecule, acceptor atom, score
      L1  H     3    24       P1  7948  1.00
      L1  H     6    25       P1  7948  0.94
      L1  H    14    28       P1  7948  1.00
      L1  C     9    26       P1 10186  1.00

> <Gold.PLP.Chemscore.Internal.Correction>
0.0144

> <Gold.Rescore>
     Score         DG    S(hbond)    S(metal)    S(lipo)     H(rot)  DE(clash)    DE(int)     intcor
     16.36     -18.77       2.81        0.00      69.41       1.65       0.00       2.41       ----

> <Gold.Chemscore.Fitness>
16.3641

> <Gold.Chemscore.DG>
-18.7703

> <Gold.Chemscore.ZeroCoef>
-5.4800

> <Gold.Chemscore.Hbond>
2.8117

> <Gold.Chemscore.Metal>
0.0000

> <Gold.Chemscore.Lipo>
69.4089

> <Gold.Chemscore.Internal_Hbond>
0.0000

> <Gold.Chemscore.DEClash>
0.0000

> <Gold.Chemscore.DEInternal>
2.4062

> <Gold.Chemscore.Rot>
1.6490

> <Gold.Chemscore.Internal.Correction>
   9.000000E+99

> <Gold.Chemscore.Hbonds>
donor molecule, donor type, donor heavy atom, donor atom, acceptor molecule, acceptor atom, score
      L1  H     3    24       P1  7948  0.93
      L1  H     6    25       P1  7948  0.82
      L1  H    14    28       P1  7948  0.85

> <Gold.Chemscore.Hbond.Weighted>
-9.3909

> <Gold.Chemscore.Metal.Weighted>
-0.0000

> <Gold.Chemscore.Lipo.Weighted>
-8.1208

> <Gold.Chemscore.Internal_Hbond.Weighted>
0.0000

> <Gold.Chemscore.DEClash.Weighted>
0.0000

> <Gold.Chemscore.DEInternal.Weighted>
2.4062

> <Gold.Chemscore.Rot.Weighted>
4.2215

> <Gold.Chemscore.Internal.Correction.Weighted>
   9.000000E+99

> <Gold.Protein.RotatedTorsions>
[ 6907 6896 6895 6894 ] final   92.21 input  -60.11 | X-H torsion
[ 7974 7965 7964 7962 ] final    1.65 input  175.53 | X-H torsion
[ 8008 7997 7996 7995 ] final -178.47 input   59.86 | X-H torsion
[ 10167 10162 10161 10158 ] final  -73.90 input  -65.29 | X-H torsion
[ 10718 10713 10712 10709 ] final   13.93 input   66.30 | X-H torsion
[ 10763 10752 10751 10750 ] final  -86.30 input  -60.55 | X-H torsion
[ 11005 11000 10999 10996 ] final   94.12 input  -57.11 | X-H torsion

> <Gold.Protein.ActiveResidues>
 VAL166  LYS551  ARG553  GLY616  TRP617  ASP618  TYR619  PRO620  LYS621  CYS622 
 ASP623  PHE694  ASN695  SER759  ASP760  ASP761  ALA762  ILE779  LEU786  VAL792 
 PHE793  MET794  SER795  GLU796  ALA797  LYS798  CYS799  TRP800  GLU811  SER814 

> <Gold.Protein.RotatedAtoms>
  152.5452  134.1537  159.8528 H   0  0  0  0  0  0  0  0  0  0  0  0  # atno 6907 bound_to 6896
  151.1562  133.4868  159.2602 H   0  0  0  0  0  0  0  0  0  0  0  0  # atno 6908 bound_to 6896
  151.1420  135.0195  159.8685 H   0  0  0  0  0  0  0  0  0  0  0  0  # atno 6909 bound_to 6896
  146.2441  140.0956  142.8350 H   0  0  0  0  0  0  0  0  0  0  0  0  # atno 7974 bound_to 7965
  156.0192  140.1257  157.0375 H   0  0  0  0  0  0  0  0  0  0  0  0  # atno 8008 bound_to 7997
  154.4305  140.1072  156.6010 H   0  0  0  0  0  0  0  0  0  0  0  0  # atno 8009 bound_to 7997
  155.5969  140.3470  155.4584 H   0  0  0  0  0  0  0  0  0  0  0  0  # atno 8010 bound_to 7997
  140.5072  143.2351  151.7654 H   0  0  0  0  0  0  0  0  0  0  0  0  # atno 10167 bound_to 10162
  157.0318  130.6196  149.5736 H   0  0  0  0  0  0  0  0  0  0  0  0  # atno 10718 bound_to 10713
  154.6209  135.5454  153.7574 H   0  0  0  0  0  0  0  0  0  0  0  0  # atno 10763 bound_to 10752
  153.0238  135.6412  154.1442 H   0  0  0  0  0  0  0  0  0  0  0  0  # atno 10764 bound_to 10752
  154.1376  135.2910  155.3149 H   0  0  0  0  0  0  0  0  0  0  0  0  # atno 10765 bound_to 10752
  139.8802  134.8828  156.3818 H   0  0  0  0  0  0  0  0  0  0  0  0  # atno 11005 bound_to 11000
  145.0613  140.9089  143.4937 LP  0  0  0  0  0  0  0  0  0  0  0  0  # atno 17320 bound_to 7965
  145.1072  139.2782  143.5656 LP  0  0  0  0  0  0  0  0  0  0  0  0  # atno 17321 bound_to 7965
  139.4886  144.4441  151.9730 LP  0  0  0  0  0  0  0  0  0  0  0  0  # atno 17342 bound_to 10162
  140.3532  144.3063  150.5945 LP  0  0  0  0  0  0  0  0  0  0  0  0  # atno 17343 bound_to 10162
  156.0067  130.5154  150.7853 LP  0  0  0  0  0  0  0  0  0  0  0  0  # atno 17370 bound_to 10713
  157.5171  131.0929  151.0125 LP  0  0  0  0  0  0  0  0  0  0  0  0  # atno 17371 bound_to 10713
  140.9393  133.7525  156.0126 LP  0  0  0  0  0  0  0  0  0  0  0  0  # atno 17394 bound_to 11000
  140.8238  134.3258  157.5373 LP  0  0  0  0  0  0  0  0  0  0  0  0  # atno 17395 bound_to 11000

$$$$
