AV-unprocessed.smi:1081|AV-procd|sdf|4710|dock7
  -GOLD-   22720 3233D 1   1.00000     0.00000
 Structure written by MMmdl.
 52 54  0  0  0  0  0  0  0  0  1 V2000
  147.1951  136.5147  155.9323 O   0  0  0  0  0  0  0  0  0  0  0  0
  147.8041  136.5073  154.8631 C   0  0  0  0  0  0  0  0  0  0  0  0
  147.5254  135.6566  153.8639 N   0  0  0  0  0  0  0  0  0  0  0  0
  146.4848  134.6295  153.8994 C   0  0  0  0  0  0  0  0  0  0  0  0
  146.7176  133.4765  152.9032 C   0  0  0  0  0  0  0  0  0  0  0  0
  147.6130  132.6606  153.1318 O   0  0  0  0  0  0  0  0  0  0  0  0
  145.9367  133.3962  151.7980 N   0  0  0  0  0  0  0  0  0  0  0  0
  145.9736  132.3166  150.8004 C   0  0  0  0  0  0  0  0  0  0  0  0
  144.6701  131.5024  150.8965 C   0  0  0  0  0  0  0  0  0  0  0  0
  143.4382  132.4097  150.7213 C   0  0  0  0  0  0  0  0  0  0  0  0
  143.5023  133.6361  151.6502 C   0  0  0  0  0  0  0  0  0  0  0  0
  144.8576  134.3542  151.5196 C   0  0  0  0  0  0  0  0  0  0  0  0
  148.8259  137.3179  154.5378 N   0  0  0  0  0  0  0  0  0  0  0  0
  149.4390  138.3458  155.3062 C   0  0  0  0  0  0  0  0  0  0  0  0
  149.3915  138.4398  156.7171 C   0  0  0  0  0  0  0  0  0  0  0  0
  150.0373  139.5185  157.3509 C   0  0  0  0  0  0  0  0  0  0  0  0
  150.7111  140.4817  156.5648 C   0  0  0  0  0  0  0  0  0  0  0  0
  151.3668  141.5660  157.1858 N   0  0  0  0  0  0  0  0  0  0  0  0
  150.8568  142.8900  156.8242 C   0  0  0  0  0  0  0  0  0  0  0  0
  151.8556  143.9947  157.2100 C   0  0  0  0  0  0  0  0  0  0  0  0
  152.2469  143.8950  158.6919 C   0  0  0  0  0  0  0  0  0  0  0  0
  152.7780  142.4877  159.0016 C   0  0  0  0  0  0  0  0  0  0  0  0
  151.7610  141.4102  158.5881 C   0  0  0  0  0  0  0  0  0  0  0  0
  150.7426  140.3974  155.2126 N   0  0  0  0  0  0  0  0  0  0  0  0
  150.1243  139.3609  154.6095 C   0  0  0  0  0  0  0  0  0  0  0  0
  148.0810  135.7110  153.0230 H   0  0  0  0  0  0  0  0  0  0  0  0
  146.4101  134.2337  154.9136 H   0  0  0  0  0  0  0  0  0  0  0  0
  145.5327  135.1089  153.6696 H   0  0  0  0  0  0  0  0  0  0  0  0
  146.0667  132.7546  149.8056 H   0  0  0  0  0  0  0  0  0  0  0  0
  146.8259  131.6472  150.9029 H   0  0  0  0  0  0  0  0  0  0  0  0
  144.6627  130.7149  150.1426 H   0  0  0  0  0  0  0  0  0  0  0  0
  144.6230  131.0041  151.8657 H   0  0  0  0  0  0  0  0  0  0  0  0
  143.3900  132.7492  149.6858 H   0  0  0  0  0  0  0  0  0  0  0  0
  142.5234  131.8453  150.9035 H   0  0  0  0  0  0  0  0  0  0  0  0
  142.6885  134.3237  151.4180 H   0  0  0  0  0  0  0  0  0  0  0  0
  143.3564  133.3207  152.6842 H   0  0  0  0  0  0  0  0  0  0  0  0
  144.8789  135.2234  152.1779 H   0  0  0  0  0  0  0  0  0  0  0  0
  144.9781  134.7469  150.5090 H   0  0  0  0  0  0  0  0  0  0  0  0
  149.2466  137.1516  153.6355 H   0  0  0  0  0  0  0  0  0  0  0  0
  148.8687  137.7233  157.3297 H   0  0  0  0  0  0  0  0  0  0  0  0
  149.9956  139.6048  158.4265 H   0  0  0  0  0  0  0  0  0  0  0  0
  150.6449  142.9623  155.7582 H   0  0  0  0  0  0  0  0  0  0  0  0
  149.9094  143.0491  157.3410 H   0  0  0  0  0  0  0  0  0  0  0  0
  152.7491  143.9096  156.5900 H   0  0  0  0  0  0  0  0  0  0  0  0
  151.4254  144.9747  157.0013 H   0  0  0  0  0  0  0  0  0  0  0  0
  153.0009  144.6446  158.9341 H   0  0  0  0  0  0  0  0  0  0  0  0
  151.3793  144.1075  159.3180 H   0  0  0  0  0  0  0  0  0  0  0  0
  153.7161  142.3267  158.4686 H   0  0  0  0  0  0  0  0  0  0  0  0
  153.0062  142.3976  160.0639 H   0  0  0  0  0  0  0  0  0  0  0  0
  150.8731  141.4736  159.2187 H   0  0  0  0  0  0  0  0  0  0  0  0
  152.2014  140.4250  158.7476 H   0  0  0  0  0  0  0  0  0  0  0  0
  150.1819  139.3427  153.5308 H   0  0  0  0  0  0  0  0  0  0  0  0
  1  2  2  0  0  0  0
  2  3  1  0  0  0  0
  2 13  1  0  0  0  0
  3  4  1  0  0  0  0
  3 26  1  0  0  0  0
  4  5  1  0  0  0  0
  4 27  1  0  0  0  0
  4 28  1  0  0  0  0
  5  6  2  0  0  0  0
  5  7  1  0  0  0  0
  7 12  1  0  0  0  0
  7  8  1  0  0  0  0
  8  9  1  0  0  0  0
  8 29  1  0  0  0  0
  8 30  1  0  0  0  0
  9 10  1  0  0  0  0
  9 31  1  0  0  0  0
  9 32  1  0  0  0  0
 10 11  1  0  0  0  0
 10 33  1  0  0  0  0
 10 34  1  0  0  0  0
 11 12  1  0  0  0  0
 11 35  1  0  0  0  0
 11 36  1  0  0  0  0
 12 37  1  0  0  0  0
 12 38  1  0  0  0  0
 13 14  1  0  0  0  0
 13 39  1  0  0  0  0
 14 25  1  0  0  0  0
 14 15  2  0  0  0  0
 15 16  1  0  0  0  0
 15 40  1  0  0  0  0
 16 17  2  0  0  0  0
 16 41  1  0  0  0  0
 17 18  1  0  0  0  0
 17 24  1  0  0  0  0
 18 23  1  0  0  0  0
 18 19  1  0  0  0  0
 19 20  1  0  0  0  0
 19 42  1  0  0  0  0
 19 43  1  0  0  0  0
 20 21  1  0  0  0  0
 20 44  1  0  0  0  0
 20 45  1  0  0  0  0
 21 22  1  0  0  0  0
 21 46  1  0  0  0  0
 21 47  1  0  0  0  0
 22 23  1  0  0  0  0
 22 48  1  0  0  0  0
 22 49  1  0  0  0  0
 23 50  1  0  0  0  0
 23 51  1  0  0  0  0
 24 25  2  0  0  0  0
 25 52  1  0  0  0  0
M  END
> <s_m_source_file>
AV-unprocessed.smi

> <i_m_source_file_index>
1081

> <i_lp_mmshare_version>
43012

> <i_f3d_flags>
0

> <s_epik_input>
W0NIMl0xW0NIMl1bQ0gyXVtDSDJdW0NIMl1OMUMoPU8pW0NIMl1bTkhdQyg9TylbTkhdYzJbY0hdW2NIXWMobltjSF0yKU4zW0NIMl1bQ0gyXVtDSDJdW0NIMl1bQ0gyXTM=

> <s_epik_cmdline>
J2VwaWtfcHl0aG9uJywgJy1waCcsICc3LjAnLCAnLXRuJywgJzgnLCAnLW1hJywgJzIwMCcsICctbWV0YWxfYmluZGluZycsICctaW1hZScsICc8aW5maWxlLm1hZT4nLCAnLW9tYWUnLCAnPG91dGZpbGUubWFlPic=

> <r_lp_tautomer_probability>
1

> <r_epik_Ionization_Penalty>
0.2566

> <r_epik_Ionization_Penalty_Charging>
0

> <r_epik_Ionization_Penalty_Neutral>
0.2566

> <r_epik_State_Penalty>
0.242651

> <r_epik_Charging_Adjusted_Penalty>
0.242651

> <i_epik_Tot_Q>
0

> <i_epik_Tot_abs_Q>
0

> <r_epik_Metal_State_Penalty>
0.169478

> <b_epik_Metal_Only>
0

> <s_lp_Force_Field>
OPLS_2005

> <r_lp_Energy>
36.1946

> <b_lp_Chiralities_Consistent>
1

> <s_lp_Variant>
AV-unprocessed.smi:1081-1

> <Gold.Version>
5.8.1

> <Gold.Id.Protein>
6NUR|6NUR_protein|mol2

> <Gold.PLP.Fitness>
50.4784

> <Gold.PLP.PLP>
-41.1750

> <Gold.PLP.part.hbond>
-2.9570

> <Gold.PLP.part.metal>
0.0000

> <Gold.PLP.part.buried>
-5.1616

> <Gold.PLP.part.nonpolar>
-34.9322

> <Gold.PLP.part.repulsive>
0.2404

> <Gold.PLP.ligand.clash>
0.0000

> <Gold.PLP.ligand.torsion>
0.7323

> <Gold.PLP.Chemscore.Hbond>
2.4460

> <Gold.PLP.Chemscore.CHOScore>
1.0000

> <Gold.PLP.Chemscore.Metal>
0.0000

> <Gold.Chemscore.Hbonds>
donor molecule, donor type, donor heavy atom, donor atom, acceptor molecule, acceptor atom, score
      L1  H     3    26       P1  7948  1.00
      L1  H    13    39       P1  7948  0.90
      P1  H  7989  7998       L1    24  0.55
      L1  C    25    52       P1  7957  1.00

> <Gold.PLP.Chemscore.Internal.Correction>
0.4300

> <Gold.Rescore>
     Score         DG    S(hbond)    S(metal)    S(lipo)     H(rot)  DE(clash)    DE(int)     intcor
     19.58     -21.18       2.01        0.00     107.63       1.41       0.04       1.56       ----

> <Gold.Chemscore.Fitness>
19.5784

> <Gold.Chemscore.DG>
-21.1761

> <Gold.Chemscore.ZeroCoef>
-5.4800

> <Gold.Chemscore.Hbond>
2.0104

> <Gold.Chemscore.Metal>
0.0000

> <Gold.Chemscore.Lipo>
107.6349

> <Gold.Chemscore.Internal_Hbond>
0.0000

> <Gold.Chemscore.DEClash>
0.0424

> <Gold.Chemscore.DEInternal>
1.5554

> <Gold.Chemscore.Rot>
1.4109

> <Gold.Chemscore.Internal.Correction>
   9.000000E+99

> <Gold.Chemscore.Hbonds>
donor molecule, donor type, donor heavy atom, donor atom, acceptor molecule, acceptor atom, score
      L1  H     3    26       P1  7948  0.93
      L1  H    13    39       P1  7948  0.82
      P1  H  7989  7998       L1    24  0.03

> <Gold.Chemscore.Hbond.Weighted>
-6.7146

> <Gold.Chemscore.Metal.Weighted>
-0.0000

> <Gold.Chemscore.Lipo.Weighted>
-12.5933

> <Gold.Chemscore.Internal_Hbond.Weighted>
0.0000

> <Gold.Chemscore.DEClash.Weighted>
0.0424

> <Gold.Chemscore.DEInternal.Weighted>
1.5554

> <Gold.Chemscore.Rot.Weighted>
3.6118

> <Gold.Chemscore.Internal.Correction.Weighted>
   9.000000E+99

> <Gold.Protein.RotatedTorsions>
[ 6907 6896 6895 6894 ] final  123.29 input  -60.11 | X-H torsion
[ 7974 7965 7964 7962 ] final   73.75 input  175.53 | X-H torsion
[ 8008 7997 7996 7995 ] final  -38.94 input   59.86 | X-H torsion
[ 10167 10162 10161 10158 ] final -134.35 input  -65.29 | X-H torsion
[ 10718 10713 10712 10709 ] final   10.60 input   66.30 | X-H torsion
[ 10763 10752 10751 10750 ] final   91.64 input  -60.55 | X-H torsion
[ 11005 11000 10999 10996 ] final   28.70 input  -57.11 | X-H torsion

> <Gold.Protein.ActiveResidues>
 VAL166  LYS551  ARG553  GLY616  TRP617  ASP618  TYR619  PRO620  LYS621  CYS622 
 ASP623  PHE694  ASN695  SER759  ASP760  ASP761  ALA762  ILE779  LEU786  VAL792 
 PHE793  MET794  SER795  GLU796  ALA797  LYS798  CYS799  TRP800  GLU811  SER814 

> <Gold.Protein.RotatedAtoms>
  152.4173  133.7060  159.6450 H   0  0  0  0  0  0  0  0  0  0  0  0  # atno 6907 bound_to 6896
  150.8050  133.8516  159.3215 H   0  0  0  0  0  0  0  0  0  0  0  0  # atno 6908 bound_to 6896
  151.6242  135.1031  160.0159 H   0  0  0  0  0  0  0  0  0  0  0  0  # atno 6909 bound_to 6896
  145.7370  139.2706  143.1508 H   0  0  0  0  0  0  0  0  0  0  0  0  # atno 7974 bound_to 7965
  154.4030  140.1565  156.2781 H   0  0  0  0  0  0  0  0  0  0  0  0  # atno 8008 bound_to 7997
  155.8894  140.3439  155.5923 H   0  0  0  0  0  0  0  0  0  0  0  0  # atno 8009 bound_to 7997
  155.7576  140.0813  157.2161 H   0  0  0  0  0  0  0  0  0  0  0  0  # atno 8010 bound_to 7997
  139.8889  143.6747  152.2615 H   0  0  0  0  0  0  0  0  0  0  0  0  # atno 10167 bound_to 10162
  156.9833  130.6014  149.5679 H   0  0  0  0  0  0  0  0  0  0  0  0  # atno 10718 bound_to 10713
  153.2105  135.4390  155.0374 H   0  0  0  0  0  0  0  0  0  0  0  0  # atno 10763 bound_to 10752
  154.8197  135.3332  154.7076 H   0  0  0  0  0  0  0  0  0  0  0  0  # atno 10764 bound_to 10752
  153.7514  135.6998  153.5000 H   0  0  0  0  0  0  0  0  0  0  0  0  # atno 10765 bound_to 10752
  140.3128  134.2631  155.7731 H   0  0  0  0  0  0  0  0  0  0  0  0  # atno 11005 bound_to 11000
  146.0484  140.8094  142.9794 LP  0  0  0  0  0  0  0  0  0  0  0  0  # atno 17320 bound_to 7965
  144.6879  140.3015  143.7262 LP  0  0  0  0  0  0  0  0  0  0  0  0  # atno 17321 bound_to 7965
  139.7128  144.7617  151.1084 LP  0  0  0  0  0  0  0  0  0  0  0  0  # atno 17342 bound_to 10162
  140.7730  143.5309  150.9425 LP  0  0  0  0  0  0  0  0  0  0  0  0  # atno 17343 bound_to 10162
  156.0236  130.5330  150.8344 LP  0  0  0  0  0  0  0  0  0  0  0  0  # atno 17370 bound_to 10713
  157.5511  131.0944  150.9694 LP  0  0  0  0  0  0  0  0  0  0  0  0  # atno 17371 bound_to 10713
  141.2104  133.7719  156.9932 LP  0  0  0  0  0  0  0  0  0  0  0  0  # atno 17394 bound_to 11000
  140.1010  134.9535  157.1923 LP  0  0  0  0  0  0  0  0  0  0  0  0  # atno 17395 bound_to 11000

$$$$
