AV-unprocessed.smi:3331|AV-procd|sdf|12824|dock3
  -GOLD-   2272019203D 1   1.00000     0.00000
 Structure written by MMmdl.
 46 47  0  0  0  0  0  0  0  0  1 V2000
  155.0578  140.0477  162.1400 C   0  0  0  0  0  0  0  0  0  0  0  0
  153.9697  140.7878  161.3501 C   0  0  1  0  0  0  0  0  0  0  0  0
  153.5473  142.0976  162.0541 C   0  0  0  0  0  0  0  0  0  0  0  0
  152.5471  142.9243  161.2138 C   0  0  1  0  0  0  0  0  0  0  0  0
  152.2396  144.2773  161.8696 C   0  0  0  0  0  0  0  0  0  0  0  0
  153.0736  143.0968  159.7732 C   0  0  0  0  0  0  0  0  0  0  0  0
  153.3196  141.7646  159.2073 N   0  0  0  0  0  0  0  0  0  0  0  0
  152.5101  141.2152  158.2670 C   0  0  0  0  0  0  0  0  0  0  0  0
  152.6358  140.0423  157.9078 O   0  0  0  0  0  0  0  0  0  0  0  0
  151.4023  142.0654  157.5995 C   0  0  2  0  0  0  0  0  0  0  0  0
  150.3071  142.3970  158.6253 C   0  0  0  0  0  0  0  0  0  0  0  0
  150.7964  141.3962  156.4358 N   0  0  0  0  0  0  0  0  0  0  0  0
  149.9015  140.3006  156.7993 C   0  0  0  0  0  0  0  0  0  0  0  0
  149.4999  139.5135  155.5422 C   0  0  0  0  0  0  0  0  0  0  0  0
  148.4476  140.1857  154.8010 N   0  0  0  0  0  0  0  0  0  0  0  0
  148.1079  141.5221  154.8130 C   0  0  0  0  0  0  0  0  0  0  0  0
  147.0403  141.6769  153.9761 C   0  0  0  0  0  0  0  0  0  0  0  0
  146.7963  140.3609  153.4930 C   0  0  0  0  0  0  0  0  0  0  0  0
  147.6413  139.4707  153.9869 N   0  0  0  0  0  0  0  0  0  0  0  0
  154.4208  141.0924  159.9076 C   0  0  0  0  0  0  0  0  0  0  0  0
  155.9663  140.6455  162.2196 H   0  0  0  0  0  0  0  0  0  0  0  0
  155.3197  139.1057  161.6573 H   0  0  0  0  0  0  0  0  0  0  0  0
  154.7205  139.8175  163.1508 H   0  0  0  0  0  0  0  0  0  0  0  0
  153.0974  140.1339  161.2999 H   0  0  0  0  0  0  0  0  0  0  0  0
  153.1163  141.8731  163.0305 H   0  0  0  0  0  0  0  0  0  0  0  0
  154.4356  142.7017  162.2441 H   0  0  0  0  0  0  0  0  0  0  0  0
  151.6111  142.3653  161.1625 H   0  0  0  0  0  0  0  0  0  0  0  0
  153.1353  144.8946  161.9446 H   0  0  0  0  0  0  0  0  0  0  0  0
  151.8403  144.1442  162.8753 H   0  0  0  0  0  0  0  0  0  0  0  0
  151.4999  144.8326  161.2924 H   0  0  0  0  0  0  0  0  0  0  0  0
  152.3660  143.6815  159.1837 H   0  0  0  0  0  0  0  0  0  0  0  0
  154.0007  143.6721  159.7726 H   0  0  0  0  0  0  0  0  0  0  0  0
  151.8186  143.0010  157.2286 H   0  0  0  0  0  0  0  0  0  0  0  0
  150.7136  142.9188  159.4923 H   0  0  0  0  0  0  0  0  0  0  0  0
  149.8116  141.4941  158.9853 H   0  0  0  0  0  0  0  0  0  0  0  0
  149.5436  143.0408  158.1878 H   0  0  0  0  0  0  0  0  0  0  0  0
  151.4930  141.0630  155.7853 H   0  0  0  0  0  0  0  0  0  0  0  0
  150.4187  139.6475  157.5027 H   0  0  0  0  0  0  0  0  0  0  0  0
  149.0015  140.6545  157.3034 H   0  0  0  0  0  0  0  0  0  0  0  0
  150.3570  139.3605  154.8849 H   0  0  0  0  0  0  0  0  0  0  0  0
  149.1414  138.5223  155.8232 H   0  0  0  0  0  0  0  0  0  0  0  0
  148.6440  142.2412  155.4143 H   0  0  0  0  0  0  0  0  0  0  0  0
  146.5116  142.5901  153.7468 H   0  0  0  0  0  0  0  0  0  0  0  0
  146.0353  140.0280  152.8029 H   0  0  0  0  0  0  0  0  0  0  0  0
  155.2886  141.7537  159.9233 H   0  0  0  0  0  0  0  0  0  0  0  0
  154.7722  140.1923  159.4072 H   0  0  0  0  0  0  0  0  0  0  0  0
  1  2  1  0  0  0  0
  1 21  1  0  0  0  0
  1 22  1  0  0  0  0
  1 23  1  0  0  0  0
  2 20  1  0  0  0  0
  2  3  1  0  0  0  0
  2 24  1  0  0  0  0
  3  4  1  0  0  0  0
  3 25  1  0  0  0  0
  3 26  1  0  0  0  0
  4  5  1  0  0  0  0
  4  6  1  0  0  0  0
  4 27  1  0  0  0  0
  5 28  1  0  0  0  0
  5 29  1  0  0  0  0
  5 30  1  0  0  0  0
  6  7  1  0  0  0  0
  6 31  1  0  0  0  0
  6 32  1  0  0  0  0
  7  8  1  0  0  0  0
  7 20  1  0  0  0  0
  8  9  2  0  0  0  0
  8 10  1  0  0  0  0
 10 11  1  0  0  0  0
 10 12  1  0  0  0  0
 10 33  1  0  0  0  0
 11 34  1  0  0  0  0
 11 35  1  0  0  0  0
 11 36  1  0  0  0  0
 12 13  1  0  0  0  0
 12 37  1  0  0  0  0
 13 14  1  0  0  0  0
 13 38  1  0  0  0  0
 13 39  1  0  0  0  0
 14 15  1  0  0  0  0
 14 40  1  0  0  0  0
 14 41  1  0  0  0  0
 15 19  1  0  0  0  0
 15 16  1  0  0  0  0
 16 17  2  0  0  0  0
 16 42  1  0  0  0  0
 17 18  1  0  0  0  0
 17 43  1  0  0  0  0
 18 19  2  0  0  0  0
 18 44  1  0  0  0  0
 20 45  1  0  0  0  0
 20 46  1  0  0  0  0
M  END
> <s_m_source_file>
AV-unprocessed.smi

> <i_m_source_file_index>
3331

> <i_lp_mmshare_version>
43012

> <i_f3d_flags>
0

> <s_epik_input>
W0NIM11bQ0BASF0xW0NIMl1bQ0BASF0oW0NIM10pW0NIMl1OKFtDSDJdMSlDKD1PKVtDQEhdKFtDSDNdKVtOSF1bQ0gyXVtDSDJdbjJbY0hdW2NIXVtjSF1uMg==

> <s_epik_cmdline>
J2VwaWtfcHl0aG9uJywgJy1waCcsICc3LjAnLCAnLXRuJywgJzgnLCAnLW1hJywgJzIwMCcsICctbWV0YWxfYmluZGluZycsICctaW1hZScsICc8aW5maWxlLm1hZT4nLCAnLW9tYWUnLCAnPG91dGZpbGUubWFlPic=

> <r_lp_tautomer_probability>
1

> <r_epik_Ionization_Penalty>
0.767994

> <r_epik_Ionization_Penalty_Charging>
0

> <r_epik_Ionization_Penalty_Neutral>
0.767994

> <r_epik_State_Penalty>
0.795453

> <r_epik_Charging_Adjusted_Penalty>
0.795453

> <i_epik_Tot_Q>
0

> <i_epik_Tot_abs_Q>
0

> <r_epik_Metal_State_Penalty>
0.794784

> <b_epik_Metal_Only>
0

> <s_lp_Force_Field>
OPLS_2005

> <r_lp_Energy>
28.4276

> <b_lp_Chiralities_Consistent>
1

> <s_lp_Variant>
AV-unprocessed.smi:3331-8

> <Gold.Version>
5.8.1

> <Gold.Id.Protein>
6NUR|6NUR_protein|mol2

> <Gold.PLP.Fitness>
49.4169

> <Gold.PLP.PLP>
-41.7875

> <Gold.PLP.part.hbond>
-1.0000

> <Gold.PLP.part.metal>
0.0000

> <Gold.PLP.part.buried>
-4.8658

> <Gold.PLP.part.nonpolar>
-36.1411

> <Gold.PLP.part.repulsive>
0.1734

> <Gold.PLP.ligand.clash>
0.0000

> <Gold.PLP.ligand.torsion>
0.7125

> <Gold.PLP.Chemscore.Hbond>
0.9913

> <Gold.PLP.Chemscore.CHOScore>
1.9993

> <Gold.PLP.Chemscore.Metal>
0.0000

> <Gold.Chemscore.Hbonds>
donor molecule, donor type, donor heavy atom, donor atom, acceptor molecule, acceptor atom, score
      P1  H  7997  8008       L1     9  0.78
      L1  C    16    42       P1  8028  1.00
      L1  C    18    44       P1 10175  1.00

> <Gold.PLP.Chemscore.Internal.Correction>
0.0829

> <Gold.Rescore>
     Score         DG    S(hbond)    S(metal)    S(lipo)     H(rot)  DE(clash)    DE(int)     intcor
     14.45     -17.54       0.67        0.00     120.40       1.66       0.56       2.53       ----

> <Gold.Chemscore.Fitness>
14.4518

> <Gold.Chemscore.DG>
-17.5414

> <Gold.Chemscore.ZeroCoef>
-5.4800

> <Gold.Chemscore.Hbond>
0.6695

> <Gold.Chemscore.Metal>
0.0000

> <Gold.Chemscore.Lipo>
120.4038

> <Gold.Chemscore.Internal_Hbond>
0.0000

> <Gold.Chemscore.DEClash>
0.5613

> <Gold.Chemscore.DEInternal>
2.5282

> <Gold.Chemscore.Rot>
1.6649

> <Gold.Chemscore.Internal.Correction>
   9.000000E+99

> <Gold.Chemscore.Hbonds>
donor molecule, donor type, donor heavy atom, donor atom, acceptor molecule, acceptor atom, score
      P1  H  7997  8008       L1     9  0.29

> <Gold.Chemscore.Hbond.Weighted>
-2.2362

> <Gold.Chemscore.Metal.Weighted>
-0.0000

> <Gold.Chemscore.Lipo.Weighted>
-14.0872

> <Gold.Chemscore.Internal_Hbond.Weighted>
0.0000

> <Gold.Chemscore.DEClash.Weighted>
0.5613

> <Gold.Chemscore.DEInternal.Weighted>
2.5282

> <Gold.Chemscore.Rot.Weighted>
4.2621

> <Gold.Chemscore.Internal.Correction.Weighted>
   9.000000E+99

> <Gold.Protein.RotatedTorsions>
[ 6907 6896 6895 6894 ] final   34.76 input  -60.11 | X-H torsion
[ 7974 7965 7964 7962 ] final  -47.73 input  175.53 | X-H torsion
[ 8008 7997 7996 7995 ] final  -67.38 input   59.86 | X-H torsion
[ 10167 10162 10161 10158 ] final  138.04 input  -65.29 | X-H torsion
[ 10718 10713 10712 10709 ] final  -12.81 input   66.30 | X-H torsion
[ 10763 10752 10751 10750 ] final -136.43 input  -60.55 | X-H torsion
[ 11005 11000 10999 10996 ] final  -24.73 input  -57.11 | X-H torsion

> <Gold.Protein.ActiveResidues>
 VAL166  LYS551  ARG553  GLY616  TRP617  ASP618  TYR619  PRO620  LYS621  CYS622 
 ASP623  PHE694  ASN695  SER759  ASP760  ASP761  ALA762  ILE779  LEU786  VAL792 
 PHE793  MET794  SER795  GLU796  ALA797  LYS798  CYS799  TRP800  GLU811  SER814 

> <Gold.Protein.RotatedAtoms>
  152.1068  134.9303  160.0567 H   0  0  0  0  0  0  0  0  0  0  0  0  # atno 6907 bound_to 6896
  152.0496  133.4008  159.4379 H   0  0  0  0  0  0  0  0  0  0  0  0  # atno 6908 bound_to 6896
  150.6841  134.3244  159.4844 H   0  0  0  0  0  0  0  0  0  0  0  0  # atno 6909 bound_to 6896
  145.9586  140.7502  142.9469 H   0  0  0  0  0  0  0  0  0  0  0  0  # atno 7974 bound_to 7965
  154.4796  140.0894  156.7345 H   0  0  0  0  0  0  0  0  0  0  0  0  # atno 8008 bound_to 7997
  155.4505  140.3457  155.4282 H   0  0  0  0  0  0  0  0  0  0  0  0  # atno 8009 bound_to 7997
  156.1171  140.1463  156.9246 H   0  0  0  0  0  0  0  0  0  0  0  0  # atno 8010 bound_to 7997
  139.5124  144.6376  151.5655 H   0  0  0  0  0  0  0  0  0  0  0  0  # atno 10167 bound_to 10162
  156.6393  130.4923  149.6101 H   0  0  0  0  0  0  0  0  0  0  0  0  # atno 10718 bound_to 10713
  154.8684  135.3673  154.5060 H   0  0  0  0  0  0  0  0  0  0  0  0  # atno 10763 bound_to 10752
  153.5698  135.7021  153.5515 H   0  0  0  0  0  0  0  0  0  0  0  0  # atno 10764 bound_to 10752
  153.3552  135.4061  155.1640 H   0  0  0  0  0  0  0  0  0  0  0  0  # atno 10765 bound_to 10752
  140.8873  133.7613  156.0376 H   0  0  0  0  0  0  0  0  0  0  0  0  # atno 11005 bound_to 11000
  144.6810  140.2552  143.7326 LP  0  0  0  0  0  0  0  0  0  0  0  0  # atno 17320 bound_to 7965
  145.8072  139.1988  143.2014 LP  0  0  0  0  0  0  0  0  0  0  0  0  # atno 17321 bound_to 7965
  140.6131  143.9400  150.6468 LP  0  0  0  0  0  0  0  0  0  0  0  0  # atno 17342 bound_to 10162
  140.2649  143.3497  152.1290 LP  0  0  0  0  0  0  0  0  0  0  0  0  # atno 17343 bound_to 10162
  156.2172  130.6715  151.1331 LP  0  0  0  0  0  0  0  0  0  0  0  0  # atno 17370 bound_to 10713
  157.7176  131.0701  150.6265 LP  0  0  0  0  0  0  0  0  0  0  0  0  # atno 17371 bound_to 10713
  140.8390  134.3089  157.5321 LP  0  0  0  0  0  0  0  0  0  0  0  0  # atno 17394 bound_to 11000
  139.8725  134.9405  156.3772 LP  0  0  0  0  0  0  0  0  0  0  0  0  # atno 17395 bound_to 11000

$$$$
