AV-unprocessed.smi:2554|AV-procd|sdf|10019|dock7
  -GOLD-   2272014 63D 1   1.00000     0.00000
 Structure written by MMmdl.
 21 21  0  0  0  0  0  0  0  0  2 V2000
  144.4671  135.7449  151.3614 C   0  0  0  0  0  0  0  0  0  0  0  0
  145.3152  134.5241  151.2255 C   0  0  0  0  0  0  0  0  0  0  0  0
  146.6515  134.4961  151.5878 N   0  0  0  0  0  0  0  0  0  0  0  0
  147.1058  133.2649  151.3416 C   0  0  0  0  0  0  0  0  0  0  0  0
  146.1795  132.4562  150.8420 N   0  0  0  0  0  0  0  0  0  0  0  0
  145.0351  133.2543  150.7617 C   0  0  0  0  0  0  0  0  0  0  0  0
  143.7444  132.6977  150.2402 C   0  0  0  0  0  0  0  0  0  0  0  0
  143.7815  132.4856  148.7208 C   0  0  0  0  0  0  0  0  0  0  0  0
  143.3594  133.6971  147.9985 N   0  3  0  0  0  0  0  0  0  0  0  0
  147.1862  135.2641  151.9683 H   0  0  0  0  0  0  0  0  0  0  0  0
  143.4284  135.5387  151.1040 H   0  0  0  0  0  0  0  0  0  0  0  0
  144.8248  136.5381  150.7043 H   0  0  0  0  0  0  0  0  0  0  0  0
  144.4889  136.1192  152.3852 H   0  0  0  0  0  0  0  0  0  0  0  0
  148.1239  132.9577  151.5311 H   0  0  0  0  0  0  0  0  0  0  0  0
  143.5141  131.7547  150.7368 H   0  0  0  0  0  0  0  0  0  0  0  0
  142.9261  133.3733  150.4925 H   0  0  0  0  0  0  0  0  0  0  0  0
  144.7894  132.2216  148.3986 H   0  0  0  0  0  0  0  0  0  0  0  0
  143.1255  131.6620  148.4370 H   0  0  0  0  0  0  0  0  0  0  0  0
  144.1628  134.2859  147.8307 H   0  0  0  0  0  0  0  0  0  0  0  0
  142.6836  134.2016  148.5543 H   0  0  0  0  0  0  0  0  0  0  0  0
  142.9430  133.4372  147.1159 H   0  0  0  0  0  0  0  0  0  0  0  0
  1  2  1  0  0  0  0
  1 11  1  0  0  0  0
  1 12  1  0  0  0  0
  1 13  1  0  0  0  0
  2  6  2  0  0  0  0
  2  3  1  0  0  0  0
  3 10  1  0  0  0  0
  3  4  1  0  0  0  0
  4  5  2  0  0  0  0
  4 14  1  0  0  0  0
  5  6  1  0  0  0  0
  6  7  1  0  0  0  0
  7  8  1  0  0  0  0
  7 15  1  0  0  0  0
  7 16  1  0  0  0  0
  8  9  1  0  0  0  0
  8 17  1  0  0  0  0
  8 18  1  0  0  0  0
  9 19  1  0  0  0  0
  9 20  1  0  0  0  0
  9 21  1  0  0  0  0
M  CHG  1   9   1
M  END
> <s_m_source_file>
AV-unprocessed.smi

> <i_m_source_file_index>
2554

> <i_lp_mmshare_version>
43012

> <i_f3d_flags>
0

> <s_epik_input>
W0NIM11jMVtuSF1bY0hdbmMxW0NIMl1bQ0gyXVtOSDJd

> <s_epik_cmdline>
J2VwaWtfcHl0aG9uJywgJy1waCcsICc3LjAnLCAnLXRuJywgJzgnLCAnLW1hJywgJzIwMCcsICctbWV0YWxfYmluZGluZycsICctaW1hZScsICc8aW5maWxlLm1hZT4nLCAnLW9tYWUnLCAnPG91dGZpbGUubWFlPic=

> <r_lp_tautomer_probability>
0.5

> <r_epik_Ionization_Penalty>
0.151655

> <r_epik_Ionization_Penalty_Charging>
0.151655

> <r_epik_Ionization_Penalty_Neutral>
1.31637e-07

> <r_epik_State_Penalty>
0.545826

> <r_epik_Charging_Adjusted_Penalty>
0.697481

> <i_epik_Tot_Q>
1

> <i_epik_Tot_abs_Q>
1

> <r_epik_Metal_State_Penalty>
0.436539

> <b_epik_Metal_Only>
0

> <s_lp_Force_Field>
OPLS_2005

> <r_lp_Energy>
1.06437

> <b_lp_Chiralities_Consistent>
1

> <s_lp_Variant>
AV-unprocessed.smi:2554-1

> <Gold.Version>
5.8.1

> <Gold.Id.Protein>
6NUR|6NUR_protein|mol2

> <Gold.PLP.Fitness>
37.3899

> <Gold.PLP.PLP>
-20.9950

> <Gold.PLP.part.hbond>
-4.0000

> <Gold.PLP.part.metal>
0.0000

> <Gold.PLP.part.buried>
-3.3096

> <Gold.PLP.part.nonpolar>
-15.0685

> <Gold.PLP.part.repulsive>
0.4092

> <Gold.PLP.ligand.clash>
0.0000

> <Gold.PLP.ligand.torsion>
0.3134

> <Gold.PLP.Chemscore.Hbond>
4.8960

> <Gold.PLP.Chemscore.CHOScore>
0.7778

> <Gold.PLP.Chemscore.Metal>
0.0000

> <Gold.Chemscore.Hbonds>
donor molecule, donor type, donor heavy atom, donor atom, acceptor molecule, acceptor atom, score
      L1  H     3    10       P1  7948  0.85
      L1  H     9    19       P1  7921  1.00
      L1  H     9    20       P1 10186  2.00
      L1  H     9    21       P1 10195  1.00
      L1  C     4    14       P1 10747  0.66

> <Gold.PLP.Chemscore.Internal.Correction>
0.0002

> <Gold.Rescore>
     Score         DG    S(hbond)    S(metal)    S(lipo)     H(rot)  DE(clash)    DE(int)     intcor
     18.76     -19.19       3.77        0.00      41.12       1.45       0.11       0.31       ----

> <Gold.Chemscore.Fitness>
18.7622

> <Gold.Chemscore.DG>
-19.1875

> <Gold.Chemscore.ZeroCoef>
-5.4800

> <Gold.Chemscore.Hbond>
3.7716

> <Gold.Chemscore.Metal>
0.0000

> <Gold.Chemscore.Lipo>
41.1247

> <Gold.Chemscore.Internal_Hbond>
0.0000

> <Gold.Chemscore.DEClash>
0.1119

> <Gold.Chemscore.DEInternal>
0.3134

> <Gold.Chemscore.Rot>
1.4458

> <Gold.Chemscore.Internal.Correction>
   9.000000E+99

> <Gold.Chemscore.Hbonds>
donor molecule, donor type, donor heavy atom, donor atom, acceptor molecule, acceptor atom, score
      L1  H     3    10       P1  7948  0.81
      L1  H     9    19       P1  7921  0.93
      L1  H     9    20       P1 10186  0.97
      L1  H     9    21       P1 10195  0.99

> <Gold.Chemscore.Hbond.Weighted>
-12.5971

> <Gold.Chemscore.Metal.Weighted>
-0.0000

> <Gold.Chemscore.Lipo.Weighted>
-4.8116

> <Gold.Chemscore.Internal_Hbond.Weighted>
0.0000

> <Gold.Chemscore.DEClash.Weighted>
0.1119

> <Gold.Chemscore.DEInternal.Weighted>
0.3134

> <Gold.Chemscore.Rot.Weighted>
3.7012

> <Gold.Chemscore.Internal.Correction.Weighted>
   9.000000E+99

> <Gold.Protein.RotatedTorsions>
[ 6907 6896 6895 6894 ] final -118.19 input  -60.11 | X-H torsion
[ 7974 7965 7964 7962 ] final   87.65 input  175.53 | X-H torsion
[ 8008 7997 7996 7995 ] final -154.03 input   59.86 | X-H torsion
[ 10167 10162 10161 10158 ] final  126.00 input  -65.29 | X-H torsion
[ 10718 10713 10712 10709 ] final  122.92 input   66.30 | X-H torsion
[ 10763 10752 10751 10750 ] final   43.13 input  -60.55 | X-H torsion
[ 11005 11000 10999 10996 ] final -178.94 input  -57.11 | X-H torsion

> <Gold.Protein.ActiveResidues>
 VAL166  LYS551  ARG553  GLY616  TRP617  ASP618  TYR619  PRO620  LYS621  CYS622 
 ASP623  PHE694  ASN695  SER759  ASP760  ASP761  ALA762  ILE779  LEU786  VAL792 
 PHE793  MET794  SER795  GLU796  ALA797  LYS798  CYS799  TRP800  GLU811  SER814 

> <Gold.Protein.RotatedAtoms>
  150.8199  133.8271  159.3143 H   0  0  0  0  0  0  0  0  0  0  0  0  # atno 6907 bound_to 6896
  151.6032  135.1044  160.0074 H   0  0  0  0  0  0  0  0  0  0  0  0  # atno 6908 bound_to 6896
  152.4288  133.7201  159.6585 H   0  0  0  0  0  0  0  0  0  0  0  0  # atno 6909 bound_to 6896
  145.5562  139.2299  143.2485 H   0  0  0  0  0  0  0  0  0  0  0  0  # atno 7974 bound_to 7965
  155.6800  140.0743  157.2488 H   0  0  0  0  0  0  0  0  0  0  0  0  # atno 8008 bound_to 7997
  154.4107  140.1683  156.2024 H   0  0  0  0  0  0  0  0  0  0  0  0  # atno 8009 bound_to 7997
  155.9542  140.3375  155.6437 H   0  0  0  0  0  0  0  0  0  0  0  0  # atno 8010 bound_to 7997
  139.5655  144.6908  151.3923 H   0  0  0  0  0  0  0  0  0  0  0  0  # atno 10167 bound_to 10162
  157.5705  131.1083  150.8376 H   0  0  0  0  0  0  0  0  0  0  0  0  # atno 10718 bound_to 10713
  152.9867  135.6111  154.3061 H   0  0  0  0  0  0  0  0  0  0  0  0  # atno 10763 bound_to 10752
  154.2779  135.2778  155.2711 H   0  0  0  0  0  0  0  0  0  0  0  0  # atno 10764 bound_to 10752
  154.5064  135.5853  153.6627 H   0  0  0  0  0  0  0  0  0  0  0  0  # atno 10765 bound_to 10752
  140.4242  134.6578  157.4679 H   0  0  0  0  0  0  0  0  0  0  0  0  # atno 11005 bound_to 11000
  146.1883  140.6386  142.9157 LP  0  0  0  0  0  0  0  0  0  0  0  0  # atno 17320 bound_to 7965
  144.7505  140.5179  143.6805 LP  0  0  0  0  0  0  0  0  0  0  0  0  # atno 17321 bound_to 7965
  140.6938  143.7798  150.7295 LP  0  0  0  0  0  0  0  0  0  0  0  0  # atno 17342 bound_to 10162
  140.1289  143.4544  152.2267 LP  0  0  0  0  0  0  0  0  0  0  0  0  # atno 17343 bound_to 10162
  156.8849  130.5192  149.5289 LP  0  0  0  0  0  0  0  0  0  0  0  0  # atno 17370 bound_to 10713
  156.0750  130.5774  150.9457 LP  0  0  0  0  0  0  0  0  0  0  0  0  # atno 17371 bound_to 10713
  140.0179  134.6591  155.9282 LP  0  0  0  0  0  0  0  0  0  0  0  0  # atno 17394 bound_to 11000
  141.1772  133.6541  156.4875 LP  0  0  0  0  0  0  0  0  0  0  0  0  # atno 17395 bound_to 11000

$$$$
