AV-unprocessed.smi:2902|AV-procd|sdf|11155|dock1
  -GOLD-   2272016 33D 1   1.00000     0.00000
 Structure written by MMmdl.
 47 48  0  0  0  0  0  0  0  0  1 V2000
  152.5505  140.2673  160.2325 C   0  0  0  0  0  0  0  0  0  0  0  0
  151.3493  140.4915  159.3012 C   0  0  0  0  0  0  0  0  0  0  0  0
  151.6648  141.3637  158.0695 C   0  0  2  0  0  0  0  0  0  0  0  0
  151.4496  142.7205  158.4463 O   0  0  0  0  0  0  0  0  0  0  0  0
  152.5365  143.3641  159.1083 C   0  0  0  0  0  0  0  0  0  0  0  0
  152.3246  143.2446  160.6176 C   0  0  0  0  0  0  0  0  0  0  0  0
  151.3377  144.3602  160.9849 C   0  0  0  0  0  0  0  0  0  0  0  0
  151.3761  145.3729  159.8295 C   0  0  0  0  0  0  0  0  0  0  0  0
  152.4448  144.8688  158.8543 C   0  0  0  0  0  0  0  0  0  0  0  0
  150.7782  141.0173  156.8605 C   0  0  0  0  0  0  0  0  0  0  0  0
  150.0268  141.8651  156.3787 O   0  0  0  0  0  0  0  0  0  0  0  0
  150.8927  139.7688  156.3824 N   0  0  0  0  0  0  0  0  0  0  0  0
  150.1659  139.2022  155.2465 C   0  0  2  0  0  0  0  0  0  0  0  0
  148.6723  139.1134  155.6016 C   0  0  0  0  0  0  0  0  0  0  0  0
  150.7759  137.8449  154.8053 C   0  0  1  0  0  0  0  0  0  0  0  0
  152.2763  137.9355  154.4670 C   0  0  0  0  0  0  0  0  0  0  0  0
  150.5033  136.7663  155.7501 N   0  0  0  0  0  0  0  0  0  0  0  0
  150.0085  136.8134  156.9889 C   0  0  0  0  0  0  0  0  0  0  0  0
  149.9194  135.6295  157.5789 N   0  0  0  0  0  0  0  0  0  0  0  0
  150.4150  134.8396  156.5810 C   0  0  0  0  0  0  0  0  0  0  0  0
  150.7854  135.4701  155.4667 N   0  0  0  0  0  0  0  0  0  0  0  0
  152.2560  139.6910  161.1097 H   0  0  0  0  0  0  0  0  0  0  0  0
  152.9595  141.2160  160.5806 H   0  0  0  0  0  0  0  0  0  0  0  0
  153.3502  139.7194  159.7339 H   0  0  0  0  0  0  0  0  0  0  0  0
  150.9484  139.5270  158.9864 H   0  0  0  0  0  0  0  0  0  0  0  0
  150.5540  140.9700  159.8734 H   0  0  0  0  0  0  0  0  0  0  0  0
  152.7183  141.2295  157.8150 H   0  0  0  0  0  0  0  0  0  0  0  0
  153.5080  142.9630  158.8147 H   0  0  0  0  0  0  0  0  0  0  0  0
  151.9743  142.2560  160.9165 H   0  0  0  0  0  0  0  0  0  0  0  0
  153.2727  143.4225  161.1268 H   0  0  0  0  0  0  0  0  0  0  0  0
  150.3298  143.9558  161.0888 H   0  0  0  0  0  0  0  0  0  0  0  0
  151.6035  144.8214  161.9368 H   0  0  0  0  0  0  0  0  0  0  0  0
  150.4051  145.3980  159.3329 H   0  0  0  0  0  0  0  0  0  0  0  0
  151.5915  146.3845  160.1746 H   0  0  0  0  0  0  0  0  0  0  0  0
  153.4013  145.3337  159.0959 H   0  0  0  0  0  0  0  0  0  0  0  0
  152.2167  145.1094  157.8154 H   0  0  0  0  0  0  0  0  0  0  0  0
  151.5518  139.1554  156.8402 H   0  0  0  0  0  0  0  0  0  0  0  0
  150.2457  139.8761  154.3921 H   0  0  0  0  0  0  0  0  0  0  0  0
  148.0980  138.6912  154.7765 H   0  0  0  0  0  0  0  0  0  0  0  0
  148.2637  140.1022  155.8128 H   0  0  0  0  0  0  0  0  0  0  0  0
  148.5000  138.4926  156.4813 H   0  0  0  0  0  0  0  0  0  0  0  0
  150.2728  137.5660  153.8781 H   0  0  0  0  0  0  0  0  0  0  0  0
  152.4605  138.7001  153.7120 H   0  0  0  0  0  0  0  0  0  0  0  0
  152.6455  136.9883  154.0730 H   0  0  0  0  0  0  0  0  0  0  0  0
  152.8782  138.1841  155.3400 H   0  0  0  0  0  0  0  0  0  0  0  0
  149.7122  137.7333  157.4711 H   0  0  0  0  0  0  0  0  0  0  0  0
  150.5102  133.7682  156.6798 H   0  0  0  0  0  0  0  0  0  0  0  0
  1  2  1  0  0  0  0
  1 22  1  0  0  0  0
  1 23  1  0  0  0  0
  1 24  1  0  0  0  0
  2  3  1  0  0  0  0
  2 25  1  0  0  0  0
  2 26  1  0  0  0  0
  3  4  1  0  0  0  0
  3 10  1  0  0  0  0
  3 27  1  0  0  0  0
  4  5  1  0  0  0  0
  5  9  1  0  0  0  0
  5  6  1  0  0  0  0
  5 28  1  0  0  0  0
  6  7  1  0  0  0  0
  6 29  1  0  0  0  0
  6 30  1  0  0  0  0
  7  8  1  0  0  0  0
  7 31  1  0  0  0  0
  7 32  1  0  0  0  0
  8  9  1  0  0  0  0
  8 33  1  0  0  0  0
  8 34  1  0  0  0  0
  9 35  1  0  0  0  0
  9 36  1  0  0  0  0
 10 11  2  0  0  0  0
 10 12  1  0  0  0  0
 12 13  1  0  0  0  0
 12 37  1  0  0  0  0
 13 14  1  0  0  0  0
 13 15  1  0  0  0  0
 13 38  1  0  0  0  0
 14 39  1  0  0  0  0
 14 40  1  0  0  0  0
 14 41  1  0  0  0  0
 15 16  1  0  0  0  0
 15 17  1  0  0  0  0
 15 42  1  0  0  0  0
 16 43  1  0  0  0  0
 16 44  1  0  0  0  0
 16 45  1  0  0  0  0
 17 21  1  0  0  0  0
 17 18  1  0  0  0  0
 18 19  2  0  0  0  0
 18 46  1  0  0  0  0
 19 20  1  0  0  0  0
 20 21  2  0  0  0  0
 20 47  1  0  0  0  0
M  END
> <s_m_source_file>
AV-unprocessed.smi

> <i_m_source_file_index>
2902

> <i_lp_mmshare_version>
43012

> <i_f3d_flags>
0

> <s_epik_input>
W0NIMl0xW0NIMl1bQ0gyXVtDSDJdW0NIXTFPW0NAQEhdKFtDSDJdW0NIM10pQyg9TylbTkhdW0NASF0oW0NIM10pW0NASF0oW0NIM10pbjJbY0hdbltjSF1uMg==

> <s_epik_cmdline>
J2VwaWtfcHl0aG9uJywgJy1waCcsICc3LjAnLCAnLXRuJywgJzgnLCAnLW1hJywgJzIwMCcsICctbWV0YWxfYmluZGluZycsICctaW1hZScsICc8aW5maWxlLm1hZT4nLCAnLW9tYWUnLCAnPG91dGZpbGUubWFlPic=

> <r_lp_tautomer_probability>
1

> <r_epik_Ionization_Penalty>
6.95617e-05

> <r_epik_Ionization_Penalty_Charging>
0

> <r_epik_Ionization_Penalty_Neutral>
6.95617e-05

> <r_epik_State_Penalty>
-0

> <r_epik_Charging_Adjusted_Penalty>
0

> <i_epik_Tot_Q>
0

> <i_epik_Tot_abs_Q>
0

> <r_epik_Metal_State_Penalty>
-0

> <b_epik_Metal_Only>
0

> <s_lp_Force_Field>
OPLS_2005

> <r_lp_Energy>
29.711

> <b_lp_Chiralities_Consistent>
1

> <s_lp_Variant>
AV-unprocessed.smi:2902-5

> <Gold.Version>
5.8.1

> <Gold.Id.Protein>
6NUR|6NUR_protein|mol2

> <Gold.PLP.Fitness>
43.5837

> <Gold.PLP.PLP>
-41.5924

> <Gold.PLP.part.hbond>
-2.0000

> <Gold.PLP.part.metal>
0.0000

> <Gold.PLP.part.buried>
-7.5090

> <Gold.PLP.part.nonpolar>
-32.8164

> <Gold.PLP.part.repulsive>
0.3275

> <Gold.PLP.ligand.clash>
0.0000

> <Gold.PLP.ligand.torsion>
1.2687

> <Gold.PLP.Chemscore.Hbond>
1.3305

> <Gold.PLP.Chemscore.CHOScore>
0.0000

> <Gold.PLP.Chemscore.Metal>
0.0000

> <Gold.Chemscore.Hbonds>
donor molecule, donor type, donor heavy atom, donor atom, acceptor molecule, acceptor atom, score
      P1  H  6896  6908       L1    19  0.18
      P1  H 10752 10765       L1    21  0.32

> <Gold.PLP.Chemscore.Internal.Correction>
0.5374

> <Gold.Rescore>
     Score         DG    S(hbond)    S(metal)    S(lipo)     H(rot)  DE(clash)    DE(int)     intcor
     13.12     -15.49       1.31        0.00     107.24       2.69       0.08       2.30       ----

> <Gold.Chemscore.Fitness>
13.1160

> <Gold.Chemscore.DG>
-15.4908

> <Gold.Chemscore.ZeroCoef>
-5.4800

> <Gold.Chemscore.Hbond>
1.3053

> <Gold.Chemscore.Metal>
0.0000

> <Gold.Chemscore.Lipo>
107.2351

> <Gold.Chemscore.Internal_Hbond>
0.0000

> <Gold.Chemscore.DEClash>
0.0777

> <Gold.Chemscore.DEInternal>
2.2971

> <Gold.Chemscore.Rot>
2.6935

> <Gold.Chemscore.Internal.Correction>
   9.000000E+99

> <Gold.Chemscore.Hbonds>
donor molecule, donor type, donor heavy atom, donor atom, acceptor molecule, acceptor atom, score
      P1  H  6896  6908       L1    19  0.08
      P1  H 10752 10765       L1    21  0.15

> <Gold.Chemscore.Hbond.Weighted>
-4.3597

> <Gold.Chemscore.Metal.Weighted>
-0.0000

> <Gold.Chemscore.Lipo.Weighted>
-12.5465

> <Gold.Chemscore.Internal_Hbond.Weighted>
0.0000

> <Gold.Chemscore.DEClash.Weighted>
0.0777

> <Gold.Chemscore.DEInternal.Weighted>
2.2971

> <Gold.Chemscore.Rot.Weighted>
6.8954

> <Gold.Chemscore.Internal.Correction.Weighted>
   9.000000E+99

> <Gold.Protein.RotatedTorsions>
[ 6907 6896 6895 6894 ] final  170.37 input  -60.11 | X-H torsion
[ 7974 7965 7964 7962 ] final  -86.98 input  175.53 | X-H torsion
[ 8008 7997 7996 7995 ] final   17.26 input   59.86 | X-H torsion
[ 10167 10162 10161 10158 ] final   88.85 input  -65.29 | X-H torsion
[ 10718 10713 10712 10709 ] final   80.00 input   66.30 | X-H torsion
[ 10763 10752 10751 10750 ] final -174.27 input  -60.55 | X-H torsion
[ 11005 11000 10999 10996 ] final   14.00 input  -57.11 | X-H torsion

> <Gold.Protein.ActiveResidues>
 VAL166  LYS551  ARG553  GLY616  TRP617  ASP618  TYR619  PRO620  LYS621  CYS622 
 ASP623  PHE694  ASN695  SER759  ASP760  ASP761  ALA762  ILE779  LEU786  VAL792 
 PHE793  MET794  SER795  GLU796  ALA797  LYS798  CYS799  TRP800  GLU811  SER814 

> <Gold.Protein.RotatedAtoms>
  151.8171  133.3389  159.3572 H   0  0  0  0  0  0  0  0  0  0  0  0  # atno 6907 bound_to 6896
  150.7307  134.5609  159.5851 H   0  0  0  0  0  0  0  0  0  0  0  0  # atno 6908 bound_to 6896
  152.3033  134.7586  160.0404 H   0  0  0  0  0  0  0  0  0  0  0  0  # atno 6909 bound_to 6896
  145.4727  140.9559  143.1908 H   0  0  0  0  0  0  0  0  0  0  0  0  # atno 7974 bound_to 7965
  154.8888  140.2984  155.5383 H   0  0  0  0  0  0  0  0  0  0  0  0  # atno 8008 bound_to 7997
  156.3021  140.2428  156.3835 H   0  0  0  0  0  0  0  0  0  0  0  0  # atno 8009 bound_to 7997
  154.8640  140.0404  157.1672 H   0  0  0  0  0  0  0  0  0  0  0  0  # atno 8010 bound_to 7997
  139.8632  144.6533  150.9035 H   0  0  0  0  0  0  0  0  0  0  0  0  # atno 10167 bound_to 10162
  157.6793  130.9940  150.2015 H   0  0  0  0  0  0  0  0  0  0  0  0  # atno 10718 bound_to 10713
  154.5981  135.2852  155.0564 H   0  0  0  0  0  0  0  0  0  0  0  0  # atno 10763 bound_to 10752
  154.1839  135.6452  153.5045 H   0  0  0  0  0  0  0  0  0  0  0  0  # atno 10764 bound_to 10752
  153.0146  135.5430  154.6691 H   0  0  0  0  0  0  0  0  0  0  0  0  # atno 10765 bound_to 10752
  140.4744  134.0998  155.7739 H   0  0  0  0  0  0  0  0  0  0  0  0  # atno 11005 bound_to 11000
  144.7936  139.6279  143.7102 LP  0  0  0  0  0  0  0  0  0  0  0  0  # atno 17320 bound_to 7965
  146.2387  139.5958  142.9506 LP  0  0  0  0  0  0  0  0  0  0  0  0  # atno 17321 bound_to 7965
  140.7772  143.3727  151.1620 LP  0  0  0  0  0  0  0  0  0  0  0  0  # atno 17342 bound_to 10162
  139.7354  143.9007  152.3033 LP  0  0  0  0  0  0  0  0  0  0  0  0  # atno 17343 bound_to 10162
  156.2705  130.3721  149.8036 LP  0  0  0  0  0  0  0  0  0  0  0  0  # atno 17370 bound_to 10713
  156.5755  130.8443  151.3368 LP  0  0  0  0  0  0  0  0  0  0  0  0  # atno 17371 bound_to 10713
  141.1561  133.8879  157.1972 LP  0  0  0  0  0  0  0  0  0  0  0  0  # atno 17394 bound_to 11000
  139.9865  135.0080  156.9874 LP  0  0  0  0  0  0  0  0  0  0  0  0  # atno 17395 bound_to 11000

$$$$
