AV-unprocessed.smi:1437|AV-procd|sdf|5866|dock2
  -GOLD-   22720 5543D 1   1.00000     0.00000
 Structure written by MMmdl.
 35 36  0  0  0  0  0  0  0  0  3 V2000
  152.3574  141.1790  158.9565 C   0  0  0  0  0  0  0  0  0  0  0  0
  152.0330  140.6519  157.6005 C   0  0  0  0  0  0  0  0  0  0  0  0
  151.0429  140.9416  156.7050 C   0  0  0  0  0  0  0  0  0  0  0  0
  151.3228  140.0689  155.6179 C   0  0  0  0  0  0  0  0  0  0  0  0
  150.6273  139.9856  154.4734 N   0  5  0  0  0  0  0  0  0  0  0  0
  149.4967  140.7094  154.3096 C   0  0  0  0  0  0  0  0  0  0  0  0
  149.3442  141.9029  154.5789 O   0  0  0  0  0  0  0  0  0  0  0  0
  148.4806  140.0039  153.7933 N   0  0  0  0  0  0  0  0  0  0  0  0
  147.1437  140.5093  153.4834 C   0  0  2  0  0  0  0  0  0  0  0  0
  146.1018  139.8532  154.4066 C   0  0  0  0  0  0  0  0  0  0  0  0
  145.8995  138.3628  154.0751 C   0  0  0  0  0  0  0  0  0  0  0  0
  145.5390  138.1747  152.6476 N   0  3  2  0  0  0  0  0  0  0  0  0
  145.2300  136.7647  152.3279 C   0  0  0  0  0  0  0  0  0  0  0  0
  146.5558  138.7501  151.7324 C   0  0  0  0  0  0  0  0  0  0  0  0
  146.7647  140.2488  152.0115 C   0  0  0  0  0  0  0  0  0  0  0  0
  152.3976  139.3278  155.8282 N   0  0  0  0  0  0  0  0  0  0  0  0
  152.8560  139.6914  157.1000 O   0  0  0  0  0  0  0  0  0  0  0  0
  152.7806  142.1811  158.8888 H   0  0  0  0  0  0  0  0  0  0  0  0
  153.0803  140.5400  159.4642 H   0  0  0  0  0  0  0  0  0  0  0  0
  151.4610  141.2308  159.5746 H   0  0  0  0  0  0  0  0  0  0  0  0
  150.2440  141.6602  156.8107 H   0  0  0  0  0  0  0  0  0  0  0  0
  148.6554  139.0284  153.6015 H   0  0  0  0  0  0  0  0  0  0  0  0
  147.1357  141.5847  153.6694 H   0  0  0  0  0  0  0  0  0  0  0  0
  146.3959  139.9688  155.4507 H   0  0  0  0  0  0  0  0  0  0  0  0
  145.1498  140.3750  154.3013 H   0  0  0  0  0  0  0  0  0  0  0  0
  146.8050  137.7973  154.3011 H   0  0  0  0  0  0  0  0  0  0  0  0
  145.1089  137.9559  154.7067 H   0  0  0  0  0  0  0  0  0  0  0  0
  146.1070  136.1313  152.4680 H   0  0  0  0  0  0  0  0  0  0  0  0
  144.8994  136.6679  151.2933 H   0  0  0  0  0  0  0  0  0  0  0  0
  144.4307  136.3903  152.9684 H   0  0  0  0  0  0  0  0  0  0  0  0
  147.4974  138.2090  151.8409 H   0  0  0  0  0  0  0  0  0  0  0  0
  146.2335  138.6165  150.6993 H   0  0  0  0  0  0  0  0  0  0  0  0
  145.8444  140.7864  151.7794 H   0  0  0  0  0  0  0  0  0  0  0  0
  147.5240  140.6510  151.3401 H   0  0  0  0  0  0  0  0  0  0  0  0
  144.6882  138.6972  152.4955 H   0  0  0  0  0  0  0  0  0  0  0  0
  1  2  1  0  0  0  0
  1 18  1  0  0  0  0
  1 19  1  0  0  0  0
  1 20  1  0  0  0  0
  2 17  1  0  0  0  0
  2  3  2  0  0  0  0
  3  4  1  0  0  0  0
  3 21  1  0  0  0  0
  4  5  1  0  0  0  0
  4 16  2  0  0  0  0
  5  6  1  0  0  0  0
  6  7  2  0  0  0  0
  6  8  1  0  0  0  0
  8  9  1  0  0  0  0
  8 22  1  0  0  0  0
  9 15  1  0  0  0  0
  9 10  1  0  0  0  0
  9 23  1  0  0  0  0
 10 11  1  0  0  0  0
 10 24  1  0  0  0  0
 10 25  1  0  0  0  0
 11 12  1  0  0  0  0
 11 26  1  0  0  0  0
 11 27  1  0  0  0  0
 12 13  1  0  0  0  0
 12 14  1  0  0  0  0
 12 35  1  0  0  0  0
 13 28  1  0  0  0  0
 13 29  1  0  0  0  0
 13 30  1  0  0  0  0
 14 15  1  0  0  0  0
 14 31  1  0  0  0  0
 14 32  1  0  0  0  0
 15 33  1  0  0  0  0
 15 34  1  0  0  0  0
 16 17  1  0  0  0  0
M  CHG  1   5  -1
M  CHG  1  12   1
M  END
> <s_m_source_file>
AV-unprocessed.smi

> <i_m_source_file_index>
1437

> <i_lp_mmshare_version>
43012

> <i_f3d_flags>
0

> <s_epik_input>
W0NIM11jMVtjSF1jKG5vMSlbTkhdQyg9TylbTkhdW0NIXTJbQ0gyXVtDSDJdTihbQ0gzXSlbQ0gyXVtDSDJdMg==

> <s_epik_cmdline>
J2VwaWtfcHl0aG9uJywgJy1waCcsICc3LjAnLCAnLXRuJywgJzgnLCAnLW1hJywgJzIwMCcsICctbWV0YWxfYmluZGluZycsICctaW1hZScsICc8aW5maWxlLm1hZT4nLCAnLW9tYWUnLCAnPG91dGZpbGUubWFlPic=

> <r_epik_Ionization_Penalty>
6.28535

> <r_epik_Ionization_Penalty_Charging>
6.28525

> <r_epik_Ionization_Penalty_Neutral>
9.66055e-05

> <r_epik_State_Penalty>
6.28414

> <r_epik_Charging_Adjusted_Penalty>
12.5694

> <i_epik_Tot_Q>
0

> <i_epik_Tot_abs_Q>
2

> <r_epik_Metal_State_Penalty>
2.21724

> <b_epik_Metal_Only>
1

> <s_lp_Force_Field>
OPLS_2005

> <r_lp_Energy>
2.0091

> <b_lp_Chiralities_Consistent>
1

> <s_lp_Variant>
AV-unprocessed.smi:1437-4

> <Gold.Version>
5.8.1

> <Gold.Id.Protein>
6NUR|6NUR_protein|mol2

> <Gold.PLP.Fitness>
38.3054

> <Gold.PLP.PLP>
-27.1843

> <Gold.PLP.part.hbond>
-6.0429

> <Gold.PLP.part.metal>
0.0000

> <Gold.PLP.part.buried>
1.8796

> <Gold.PLP.part.nonpolar>
-24.5480

> <Gold.PLP.part.repulsive>
0.9711

> <Gold.PLP.ligand.clash>
0.0000

> <Gold.PLP.ligand.torsion>
0.4213

> <Gold.PLP.Chemscore.Hbond>
3.9837

> <Gold.PLP.Chemscore.CHOScore>
0.0000

> <Gold.PLP.Chemscore.Metal>
0.0000

> <Gold.Chemscore.Hbonds>
donor molecule, donor type, donor heavy atom, donor atom, acceptor molecule, acceptor atom, score
      L1  H    12    35       P1 10175  2.00
      P1  H  7989  7998       L1     5  0.86
      P1  H  7997  8009       L1    17  1.00
      P1  H  8011  8017       L1     7  0.04

> <Gold.PLP.Chemscore.Internal.Correction>
0.0126

> <Gold.Rescore>
     Score         DG    S(hbond)    S(metal)    S(lipo)     H(rot)  DE(clash)    DE(int)     intcor
     12.13     -15.03       1.65        0.00      56.48       1.00       1.18       1.71       ----

> <Gold.Chemscore.Fitness>
12.1312

> <Gold.Chemscore.DG>
-15.0260

> <Gold.Chemscore.ZeroCoef>
-5.4800

> <Gold.Chemscore.Hbond>
1.6462

> <Gold.Chemscore.Metal>
0.0000

> <Gold.Chemscore.Lipo>
56.4757

> <Gold.Chemscore.Internal_Hbond>
0.0000

> <Gold.Chemscore.DEClash>
1.1846

> <Gold.Chemscore.DEInternal>
1.7101

> <Gold.Chemscore.Rot>
1.0000

> <Gold.Chemscore.Internal.Correction>
   9.000000E+99

> <Gold.Chemscore.Hbonds>
donor molecule, donor type, donor heavy atom, donor atom, acceptor molecule, acceptor atom, score
      L1  H    12    35       P1 10175  0.89
      P1  H  7989  7998       L1     5  0.04
      P1  H  7997  8009       L1    17  0.25

> <Gold.Chemscore.Hbond.Weighted>
-5.4983

> <Gold.Chemscore.Metal.Weighted>
-0.0000

> <Gold.Chemscore.Lipo.Weighted>
-6.6077

> <Gold.Chemscore.Internal_Hbond.Weighted>
0.0000

> <Gold.Chemscore.DEClash.Weighted>
1.1846

> <Gold.Chemscore.DEInternal.Weighted>
1.7101

> <Gold.Chemscore.Rot.Weighted>
2.5600

> <Gold.Chemscore.Internal.Correction.Weighted>
   9.000000E+99

> <Gold.Protein.RotatedTorsions>
[ 6907 6896 6895 6894 ] final   72.20 input  -60.11 | X-H torsion
[ 7974 7965 7964 7962 ] final -126.23 input  175.53 | X-H torsion
[ 8008 7997 7996 7995 ] final  173.56 input   59.86 | X-H torsion
[ 10167 10162 10161 10158 ] final  -23.82 input  -65.29 | X-H torsion
[ 10718 10713 10712 10709 ] final  -10.59 input   66.30 | X-H torsion
[ 10763 10752 10751 10750 ] final   76.07 input  -60.55 | X-H torsion
[ 11005 11000 10999 10996 ] final   56.14 input  -57.11 | X-H torsion

> <Gold.Protein.ActiveResidues>
 VAL166  LYS551  ARG553  GLY616  TRP617  ASP618  TYR619  PRO620  LYS621  CYS622 
 ASP623  PHE694  ASN695  SER759  ASP760  ASP761  ALA762  ILE779  LEU786  VAL792 
 PHE793  MET794  SER795  GLU796  ALA797  LYS798  CYS799  TRP800  GLU811  SER814 

> <Gold.Protein.RotatedAtoms>
  152.4854  134.4607  159.9604 H   0  0  0  0  0  0  0  0  0  0  0  0  # atno 6907 bound_to 6896
  151.4605  133.3588  159.2816 H   0  0  0  0  0  0  0  0  0  0  0  0  # atno 6908 bound_to 6896
  150.8960  134.8393  159.7387 H   0  0  0  0  0  0  0  0  0  0  0  0  # atno 6909 bound_to 6896
  144.9894  140.7717  143.4563 H   0  0  0  0  0  0  0  0  0  0  0  0  # atno 7974 bound_to 7965
  156.1063  140.1457  156.9399 H   0  0  0  0  0  0  0  0  0  0  0  0  # atno 8008 bound_to 7997
  154.4736  140.0901  156.7251 H   0  0  0  0  0  0  0  0  0  0  0  0  # atno 8009 bound_to 7997
  155.4673  140.3440  155.4323 H   0  0  0  0  0  0  0  0  0  0  0  0  # atno 8010 bound_to 7997
  140.7288  143.4409  151.0659 H   0  0  0  0  0  0  0  0  0  0  0  0  # atno 10167 bound_to 10162
  156.6713  130.5010  149.5999 H   0  0  0  0  0  0  0  0  0  0  0  0  # atno 10718 bound_to 10713
  153.0699  135.4965  154.8282 H   0  0  0  0  0  0  0  0  0  0  0  0  # atno 10763 bound_to 10752
  154.7008  135.3001  154.9346 H   0  0  0  0  0  0  0  0  0  0  0  0  # atno 10764 bound_to 10752
  154.0071  135.6759  153.4815 H   0  0  0  0  0  0  0  0  0  0  0  0  # atno 10765 bound_to 10752
  140.0552  134.5680  155.9216 H   0  0  0  0  0  0  0  0  0  0  0  0  # atno 11005 bound_to 11000
  145.2307  139.2116  143.5044 LP  0  0  0  0  0  0  0  0  0  0  0  0  # atno 17320 bound_to 7965
  146.3428  140.2184  142.8591 LP  0  0  0  0  0  0  0  0  0  0  0  0  # atno 17321 bound_to 7965
  139.8076  143.7996  152.3168 LP  0  0  0  0  0  0  0  0  0  0  0  0  # atno 17342 bound_to 10162
  139.8034  144.7365  150.9793 LP  0  0  0  0  0  0  0  0  0  0  0  0  # atno 17343 bound_to 10162
  156.1936  130.6575  151.1089 LP  0  0  0  0  0  0  0  0  0  0  0  0  # atno 17370 bound_to 10713
  157.7076  131.0749  150.6613 LP  0  0  0  0  0  0  0  0  0  0  0  0  # atno 17371 bound_to 10713
  141.1949  133.6585  156.5616 LP  0  0  0  0  0  0  0  0  0  0  0  0  # atno 17394 bound_to 11000
  140.3855  134.7486  157.4688 LP  0  0  0  0  0  0  0  0  0  0  0  0  # atno 17395 bound_to 11000

$$$$
