AV-unprocessed.smi:3267|AV-procd|sdf|12506|dock4
  -GOLD-   2272018413D 1   1.00000     0.00000
 Structure written by MMmdl.
 38 39  0  0  0  0  0  0  0  0  1 V2000
  148.0753  145.8347  161.1519 C   0  0  0  0  0  0  0  0  0  0  0  0
  148.9539  144.7520  160.5096 C   0  0  2  0  0  0  0  0  0  0  0  0
  150.4385  144.8885  160.9299 C   0  0  0  0  0  0  0  0  0  0  0  0
  151.1915  143.6776  160.6626 N   0  0  0  0  0  0  0  0  0  0  0  0
  151.9586  143.3716  159.5586 C   0  0  0  0  0  0  0  0  0  0  0  0
  152.4621  142.1169  159.7499 C   0  0  0  0  0  0  0  0  0  0  0  0
  151.9394  141.7328  161.0166 C   0  0  0  0  0  0  0  0  0  0  0  0
  151.1795  142.6694  161.5612 N   0  0  0  0  0  0  0  0  0  0  0  0
  148.8083  144.8156  159.0574 N   0  0  0  0  0  0  0  0  0  0  0  0
  147.6892  144.5175  158.3816 C   0  0  0  0  0  0  0  0  0  0  0  0
  146.6438  144.1377  158.9096 O   0  0  0  0  0  0  0  0  0  0  0  0
  147.8487  144.6735  157.0607 N   0  0  0  0  0  0  0  0  0  0  0  0
  146.8278  144.3872  156.0595 C   0  0  0  0  0  0  0  0  0  0  0  0
  147.4407  144.2518  154.6560 C   0  0  1  0  0  0  0  0  0  0  0  0
  148.3050  145.4430  154.2450 C   0  0  0  0  0  0  0  0  0  0  0  0
  149.2401  144.8103  153.2402 C   0  0  0  0  0  0  0  0  0  0  0  0
  149.4986  143.4490  153.8774 C   0  0  0  0  0  0  0  0  0  0  0  0
  148.3115  143.1232  154.5959 O   0  0  0  0  0  0  0  0  0  0  0  0
  148.1278  145.7838  162.2399 H   0  0  0  0  0  0  0  0  0  0  0  0
  147.0295  145.7133  160.8680 H   0  0  0  0  0  0  0  0  0  0  0  0
  148.3902  146.8339  160.8492 H   0  0  0  0  0  0  0  0  0  0  0  0
  148.5638  143.7863  160.8391 H   0  0  0  0  0  0  0  0  0  0  0  0
  150.9281  145.7127  160.4088 H   0  0  0  0  0  0  0  0  0  0  0  0
  150.5271  145.1187  161.9927 H   0  0  0  0  0  0  0  0  0  0  0  0
  152.0768  144.0626  158.7368 H   0  0  0  0  0  0  0  0  0  0  0  0
  153.1033  141.5579  159.0850 H   0  0  0  0  0  0  0  0  0  0  0  0
  152.0878  140.8070  161.5524 H   0  0  0  0  0  0  0  0  0  0  0  0
  149.6162  145.1142  158.5311 H   0  0  0  0  0  0  0  0  0  0  0  0
  148.7455  144.9875  156.7198 H   0  0  0  0  0  0  0  0  0  0  0  0
  146.2905  143.4758  156.3270 H   0  0  0  0  0  0  0  0  0  0  0  0
  146.0944  145.1938  156.0737 H   0  0  0  0  0  0  0  0  0  0  0  0
  146.6583  144.1113  153.9082 H   0  0  0  0  0  0  0  0  0  0  0  0
  147.7230  146.2664  153.8298 H   0  0  0  0  0  0  0  0  0  0  0  0
  148.8739  145.8205  155.0960 H   0  0  0  0  0  0  0  0  0  0  0  0
  148.7344  144.6882  152.2814 H   0  0  0  0  0  0  0  0  0  0  0  0
  150.1517  145.3859  153.0775 H   0  0  0  0  0  0  0  0  0  0  0  0
  149.7432  142.6836  153.1406 H   0  0  0  0  0  0  0  0  0  0  0  0
  150.3247  143.5127  154.5867 H   0  0  0  0  0  0  0  0  0  0  0  0
  1  2  1  0  0  0  0
  1 19  1  0  0  0  0
  1 20  1  0  0  0  0
  1 21  1  0  0  0  0
  2  3  1  0  0  0  0
  2  9  1  0  0  0  0
  2 22  1  0  0  0  0
  3  4  1  0  0  0  0
  3 23  1  0  0  0  0
  3 24  1  0  0  0  0
  4  8  1  0  0  0  0
  4  5  1  0  0  0  0
  5  6  2  0  0  0  0
  5 25  1  0  0  0  0
  6  7  1  0  0  0  0
  6 26  1  0  0  0  0
  7  8  2  0  0  0  0
  7 27  1  0  0  0  0
  9 10  1  0  0  0  0
  9 28  1  0  0  0  0
 10 11  2  0  0  0  0
 10 12  1  0  0  0  0
 12 13  1  0  0  0  0
 12 29  1  0  0  0  0
 13 14  1  0  0  0  0
 13 30  1  0  0  0  0
 13 31  1  0  0  0  0
 14 18  1  0  0  0  0
 14 15  1  0  0  0  0
 14 32  1  0  0  0  0
 15 16  1  0  0  0  0
 15 33  1  0  0  0  0
 15 34  1  0  0  0  0
 16 17  1  0  0  0  0
 16 35  1  0  0  0  0
 16 36  1  0  0  0  0
 17 18  1  0  0  0  0
 17 37  1  0  0  0  0
 17 38  1  0  0  0  0
M  END
> <s_m_source_file>
AV-unprocessed.smi

> <i_m_source_file_index>
3267

> <i_lp_mmshare_version>
43012

> <i_f3d_flags>
0

> <s_epik_input>
bjFbY0hdW2NIXVtjSF1uMVtDSDJdW0NAQEhdKFtDSDNdKVtOSF1DKD1PKVtOSF1bQ0gyXVtDQEBIXTJbQ0gyXVtDSDJdW0NIMl1PMg==

> <s_epik_cmdline>
J2VwaWtfcHl0aG9uJywgJy1waCcsICc3LjAnLCAnLXRuJywgJzgnLCAnLW1hJywgJzIwMCcsICctbWV0YWxfYmluZGluZycsICctaW1hZScsICc8aW5maWxlLm1hZT4nLCAnLW9tYWUnLCAnPG91dGZpbGUubWFlPic=

> <r_lp_tautomer_probability>
1

> <r_epik_Ionization_Penalty>
6.24796e-05

> <r_epik_Ionization_Penalty_Charging>
0

> <r_epik_Ionization_Penalty_Neutral>
6.24796e-05

> <r_epik_State_Penalty>
-0

> <r_epik_Charging_Adjusted_Penalty>
0

> <i_epik_Tot_Q>
0

> <i_epik_Tot_abs_Q>
0

> <r_epik_Metal_State_Penalty>
-0

> <b_epik_Metal_Only>
0

> <s_lp_Force_Field>
OPLS_2005

> <r_lp_Energy>
17.3536

> <b_lp_Chiralities_Consistent>
1

> <s_lp_Variant>
AV-unprocessed.smi:3267-3

> <Gold.Version>
5.8.1

> <Gold.Id.Protein>
6NUR|6NUR_protein|mol2

> <Gold.PLP.Fitness>
47.5223

> <Gold.PLP.PLP>
-37.9658

> <Gold.PLP.part.hbond>
-4.0000

> <Gold.PLP.part.metal>
0.0000

> <Gold.PLP.part.buried>
-4.3982

> <Gold.PLP.part.nonpolar>
-29.9908

> <Gold.PLP.part.repulsive>
0.3427

> <Gold.PLP.ligand.clash>
0.0000

> <Gold.PLP.ligand.torsion>
0.6861

> <Gold.PLP.Chemscore.Hbond>
2.6368

> <Gold.PLP.Chemscore.CHOScore>
1.0000

> <Gold.PLP.Chemscore.Metal>
0.0000

> <Gold.Chemscore.Hbonds>
donor molecule, donor type, donor heavy atom, donor atom, acceptor molecule, acceptor atom, score
      P1  H  6933  6945       L1     8  0.46

> <Gold.PLP.Chemscore.Internal.Correction>
0.0182

> <Gold.Rescore>
     Score         DG    S(hbond)    S(metal)    S(lipo)     H(rot)  DE(clash)    DE(int)     intcor
     16.60     -17.82       2.49        0.00      75.29       1.87       0.07       1.16       ----

> <Gold.Chemscore.Fitness>
16.6018

> <Gold.Chemscore.DG>
-17.8228

> <Gold.Chemscore.ZeroCoef>
-5.4800

> <Gold.Chemscore.Hbond>
2.4932

> <Gold.Chemscore.Metal>
0.0000

> <Gold.Chemscore.Lipo>
75.2891

> <Gold.Chemscore.Internal_Hbond>
0.0000

> <Gold.Chemscore.DEClash>
0.0659

> <Gold.Chemscore.DEInternal>
1.1551

> <Gold.Chemscore.Rot>
1.8724

> <Gold.Chemscore.Internal.Correction>
   9.000000E+99

> <Gold.Chemscore.Hbonds>
donor molecule, donor type, donor heavy atom, donor atom, acceptor molecule, acceptor atom, score
      P1  H  6933  6945       L1     8  0.14

> <Gold.Chemscore.Hbond.Weighted>
-8.3272

> <Gold.Chemscore.Metal.Weighted>
-0.0000

> <Gold.Chemscore.Lipo.Weighted>
-8.8088

> <Gold.Chemscore.Internal_Hbond.Weighted>
0.0000

> <Gold.Chemscore.DEClash.Weighted>
0.0659

> <Gold.Chemscore.DEInternal.Weighted>
1.1551

> <Gold.Chemscore.Rot.Weighted>
4.7933

> <Gold.Chemscore.Internal.Correction.Weighted>
   9.000000E+99

> <Gold.Protein.RotatedTorsions>
[ 6907 6896 6895 6894 ] final  -88.15 input  -60.11 | X-H torsion
[ 7974 7965 7964 7962 ] final  -66.65 input  175.53 | X-H torsion
[ 8008 7997 7996 7995 ] final -104.18 input   59.86 | X-H torsion
[ 10167 10162 10161 10158 ] final  136.24 input  -65.29 | X-H torsion
[ 10718 10713 10712 10709 ] final  -13.25 input   66.30 | X-H torsion
[ 10763 10752 10751 10750 ] final  -20.14 input  -60.55 | X-H torsion
[ 11005 11000 10999 10996 ] final  138.62 input  -57.11 | X-H torsion

> <Gold.Protein.ActiveResidues>
 VAL166  LYS551  ARG553  GLY616  TRP617  ASP618  TYR619  PRO620  LYS621  CYS622 
 ASP623  PHE694  ASN695  SER759  ASP760  ASP761  ALA762  ILE779  LEU786  VAL792 
 PHE793  MET794  SER795  GLU796  ALA797  LYS798  CYS799  TRP800  GLU811  SER814 

> <Gold.Protein.RotatedAtoms>
  150.6868  134.2786  159.4617 H   0  0  0  0  0  0  0  0  0  0  0  0  # atno 6907 bound_to 6896
  152.0702  134.9536  160.0584 H   0  0  0  0  0  0  0  0  0  0  0  0  # atno 6908 bound_to 6896
  152.0928  133.4174  159.4588 H   0  0  0  0  0  0  0  0  0  0  0  0  # atno 6909 bound_to 6896
  145.7391  140.8962  143.0539 H   0  0  0  0  0  0  0  0  0  0  0  0  # atno 7974 bound_to 7965
  154.8815  140.0419  157.1785 H   0  0  0  0  0  0  0  0  0  0  0  0  # atno 8008 bound_to 7997
  154.8634  140.2947  155.5504 H   0  0  0  0  0  0  0  0  0  0  0  0  # atno 8009 bound_to 7997
  156.2998  140.2442  156.3611 H   0  0  0  0  0  0  0  0  0  0  0  0  # atno 8010 bound_to 7997
  139.5187  144.6475  151.5399 H   0  0  0  0  0  0  0  0  0  0  0  0  # atno 10167 bound_to 10162
  156.6330  130.4907  149.6122 H   0  0  0  0  0  0  0  0  0  0  0  0  # atno 10718 bound_to 10713
  153.6158  135.6994  153.5329 H   0  0  0  0  0  0  0  0  0  0  0  0  # atno 10763 bound_to 10752
  153.2978  135.4138  155.1225 H   0  0  0  0  0  0  0  0  0  0  0  0  # atno 10764 bound_to 10752
  154.8554  135.3641  154.5698 H   0  0  0  0  0  0  0  0  0  0  0  0  # atno 10765 bound_to 10752
  140.0196  134.9402  157.0447 H   0  0  0  0  0  0  0  0  0  0  0  0  # atno 11005 bound_to 11000
  144.6875  139.9436  143.7476 LP  0  0  0  0  0  0  0  0  0  0  0  0  # atno 17320 bound_to 7965
  146.0465  139.3470  143.0666 LP  0  0  0  0  0  0  0  0  0  0  0  0  # atno 17321 bound_to 7965
  140.6265  143.9158  150.6569 LP  0  0  0  0  0  0  0  0  0  0  0  0  # atno 17342 bound_to 10162
  140.2448  143.3637  152.1456 LP  0  0  0  0  0  0  0  0  0  0  0  0  # atno 17343 bound_to 10162
  156.2219  130.6742  151.1377 LP  0  0  0  0  0  0  0  0  0  0  0  0  # atno 17370 bound_to 10713
  157.7194  131.0690  150.6197 LP  0  0  0  0  0  0  0  0  0  0  0  0  # atno 17371 bound_to 10713
  140.4410  134.1681  155.7174 LP  0  0  0  0  0  0  0  0  0  0  0  0  # atno 17394 bound_to 11000
  141.1765  133.8502  157.1402 LP  0  0  0  0  0  0  0  0  0  0  0  0  # atno 17395 bound_to 11000

$$$$
