AV-unprocessed.smi:83|AV-procd|sdf|800|dock5
  -GOLD-   2262017183D 1   1.00000     0.00000
 Structure written by MMmdl.
 56 59  0  0  0  0  0  0  0  0  1 V2000
  147.3391  136.1925  162.6239 C   0  0  0  0  0  0  0  0  0  0  0  0
  147.4527  135.2310  161.4394 C   0  0  0  0  0  0  0  0  0  0  0  0
  147.5137  134.0214  161.6576 O   0  0  0  0  0  0  0  0  0  0  0  0
  147.4831  135.7445  160.1928 N   0  0  0  0  0  0  0  0  0  0  0  0
  147.4106  137.1733  159.9001 C   0  0  0  0  0  0  0  0  0  0  0  0
  147.4038  137.2773  158.3719 C   0  0  0  0  0  0  0  0  0  0  0  0
  148.1024  136.0027  157.8995 C   0  0  1  0  0  0  0  0  0  0  0  0
  149.6343  136.2230  157.8453 C   0  0  0  0  0  0  0  0  0  0  0  0
  150.1609  136.4516  156.4986 N   0  0  0  0  0  0  0  0  0  0  0  0
  150.3123  135.2795  155.6379 C   0  0  0  0  0  0  0  0  0  0  0  0
  150.8479  137.5914  156.1852 C   0  0  0  0  0  0  0  0  0  0  0  0
  151.9011  137.4882  155.3286 N   0  0  0  0  0  0  0  0  0  0  0  0
  152.6420  138.5523  155.0122 C   0  0  0  0  0  0  0  0  0  0  0  0
  152.5141  139.8093  155.4335 N   0  0  0  0  0  0  0  0  0  0  0  0
  151.4554  139.9375  156.2808 C   0  0  0  0  0  0  0  0  0  0  0  0
  150.5710  138.8987  156.6998 C   0  0  0  0  0  0  0  0  0  0  0  0
  149.6115  139.4400  157.5510 N   0  0  0  0  0  0  0  0  0  0  0  0
  149.9210  140.7024  157.6469 C   0  0  0  0  0  0  0  0  0  0  0  0
  151.0182  141.0864  156.9158 N   0  0  0  0  0  0  0  0  0  0  0  0
  151.5832  142.4221  156.8413 C   0  0  0  0  0  0  0  0  0  0  0  0
  151.1614  143.3056  158.0309 C   0  0  2  0  0  0  0  0  0  0  0  0
  150.8084  144.6027  157.5887 O   0  0  0  0  0  0  0  0  0  0  0  0
  152.2395  143.3775  159.1318 C   0  0  2  0  0  0  0  0  0  0  0  0
  152.6795  142.0461  159.7475 C   0  0  0  0  0  0  0  0  0  0  0  0
  153.2235  142.5045  161.0820 C   0  0  0  0  0  0  0  0  0  0  0  0
  152.2429  143.6144  161.4523 C   0  0  0  0  0  0  0  0  0  0  0  0
  151.8408  144.2075  160.2206 O   0  0  0  0  0  0  0  0  0  0  0  0
  147.6390  134.9855  158.9544 C   0  0  0  0  0  0  0  0  0  0  0  0
  148.1206  136.9515  162.5837 H   0  0  0  0  0  0  0  0  0  0  0  0
  147.4411  135.6547  163.5669 H   0  0  0  0  0  0  0  0  0  0  0  0
  146.3691  136.6891  162.6253 H   0  0  0  0  0  0  0  0  0  0  0  0
  146.5232  137.6337  160.3369 H   0  0  0  0  0  0  0  0  0  0  0  0
  148.2901  137.6685  160.3149 H   0  0  0  0  0  0  0  0  0  0  0  0
  146.3730  137.2783  158.0147 H   0  0  0  0  0  0  0  0  0  0  0  0
  147.8752  138.1915  158.0093 H   0  0  0  0  0  0  0  0  0  0  0  0
  147.7482  135.7172  156.9082 H   0  0  0  0  0  0  0  0  0  0  0  0
  149.8676  137.1143  158.4285 H   0  0  0  0  0  0  0  0  0  0  0  0
  150.1583  135.4305  158.3683 H   0  0  0  0  0  0  0  0  0  0  0  0
  150.0828  135.5266  154.6008 H   0  0  0  0  0  0  0  0  0  0  0  0
  149.6366  134.4800  155.9424 H   0  0  0  0  0  0  0  0  0  0  0  0
  151.3309  134.8932  155.6879 H   0  0  0  0  0  0  0  0  0  0  0  0
  153.4574  138.3687  154.3279 H   0  0  0  0  0  0  0  0  0  0  0  0
  149.3548  141.3906  158.2576 H   0  0  0  0  0  0  0  0  0  0  0  0
  152.6694  142.3290  156.8091 H   0  0  0  0  0  0  0  0  0  0  0  0
  151.2830  142.8770  155.8967 H   0  0  0  0  0  0  0  0  0  0  0  0
  150.2622  142.8773  158.4754 H   0  0  0  0  0  0  0  0  0  0  0  0
  150.2039  144.5193  156.8672 H   0  0  0  0  0  0  0  0  0  0  0  0
  153.1255  143.8542  158.7091 H   0  0  0  0  0  0  0  0  0  0  0  0
  151.8339  141.3775  159.9107 H   0  0  0  0  0  0  0  0  0  0  0  0
  153.4174  141.5204  159.1411 H   0  0  0  0  0  0  0  0  0  0  0  0
  153.2672  141.7083  161.8256 H   0  0  0  0  0  0  0  0  0  0  0  0
  154.2267  142.9141  160.9579 H   0  0  0  0  0  0  0  0  0  0  0  0
  151.3609  143.1944  161.9369 H   0  0  0  0  0  0  0  0  0  0  0  0
  152.6808  144.3512  162.1260 H   0  0  0  0  0  0  0  0  0  0  0  0
  148.3089  134.1347  159.0503 H   0  0  0  0  0  0  0  0  0  0  0  0
  146.6615  134.5867  158.6798 H   0  0  0  0  0  0  0  0  0  0  0  0
  1  2  1  0  0  0  0
  1 29  1  0  0  0  0
  1 30  1  0  0  0  0
  1 31  1  0  0  0  0
  2  3  2  0  0  0  0
  2  4  1  0  0  0  0
  4 28  1  0  0  0  0
  4  5  1  0  0  0  0
  5  6  1  0  0  0  0
  5 32  1  0  0  0  0
  5 33  1  0  0  0  0
  6  7  1  0  0  0  0
  6 34  1  0  0  0  0
  6 35  1  0  0  0  0
  7  8  1  0  0  0  0
  7 28  1  0  0  0  0
  7 36  1  0  0  0  0
  8  9  1  0  0  0  0
  8 37  1  0  0  0  0
  8 38  1  0  0  0  0
  9 10  1  0  0  0  0
  9 11  1  0  0  0  0
 10 39  1  0  0  0  0
 10 40  1  0  0  0  0
 10 41  1  0  0  0  0
 11 16  1  0  0  0  0
 11 12  2  0  0  0  0
 12 13  1  0  0  0  0
 13 14  2  0  0  0  0
 13 42  1  0  0  0  0
 14 15  1  0  0  0  0
 15 19  1  0  0  0  0
 15 16  2  0  0  0  0
 16 17  1  0  0  0  0
 17 18  2  0  0  0  0
 18 19  1  0  0  0  0
 18 43  1  0  0  0  0
 19 20  1  0  0  0  0
 20 21  1  0  0  0  0
 20 44  1  0  0  0  0
 20 45  1  0  0  0  0
 21 22  1  0  0  0  0
 21 23  1  0  0  0  0
 21 46  1  0  0  0  0
 22 47  1  0  0  0  0
 23 27  1  0  0  0  0
 23 24  1  0  0  0  0
 23 48  1  0  0  0  0
 24 25  1  0  0  0  0
 24 49  1  0  0  0  0
 24 50  1  0  0  0  0
 25 26  1  0  0  0  0
 25 51  1  0  0  0  0
 25 52  1  0  0  0  0
 26 27  1  0  0  0  0
 26 53  1  0  0  0  0
 26 54  1  0  0  0  0
 28 55  1  0  0  0  0
 28 56  1  0  0  0  0
M  END
> <s_m_source_file>
AV-unprocessed.smi

> <i_m_source_file_index>
83

> <i_lp_mmshare_version>
43012

> <i_f3d_flags>
0

> <s_epik_input>
W0NIM11DKD1PKU4xW0NIMl1bQ0gyXVtDQEhdKFtDSDJdMSlbQ0gyXU4oW0NIM10pYyhuW2NIXW4yKWMoYzIzKW5bY0hdbjNbQ0gyXVtDQEhdKFtPSF0pW0NAQEhdNFtDSDJdW0NIMl1bQ0gyXU80

> <s_epik_cmdline>
J2VwaWtfcHl0aG9uJywgJy1waCcsICc3LjAnLCAnLXRuJywgJzgnLCAnLW1hJywgJzIwMCcsICctbWV0YWxfYmluZGluZycsICctaW1hZScsICc8aW5maWxlLm1hZT4nLCAnLW9tYWUnLCAnPG91dGZpbGUubWFlPic=

> <r_lp_tautomer_probability>
1

> <r_epik_Ionization_Penalty>
0.00109752

> <r_epik_Ionization_Penalty_Charging>
0

> <r_epik_Ionization_Penalty_Neutral>
0.00109752

> <r_epik_State_Penalty>
0.000634803

> <r_epik_Charging_Adjusted_Penalty>
0.000634803

> <i_epik_Tot_Q>
0

> <i_epik_Tot_abs_Q>
0

> <r_epik_Metal_State_Penalty>
-0

> <b_epik_Metal_Only>
0

> <s_lp_Force_Field>
OPLS_2005

> <r_lp_Energy>
57.114

> <b_lp_Chiralities_Consistent>
1

> <s_lp_Variant>
AV-unprocessed.smi:83-1

> <Gold.Version>
5.8.1

> <Gold.Id.Protein>
6NUR|6NUR_protein|mol2

> <Gold.PLP.Fitness>
52.8752

> <Gold.PLP.PLP>
-47.6665

> <Gold.PLP.part.hbond>
-4.0929

> <Gold.PLP.part.metal>
0.0000

> <Gold.PLP.part.buried>
-8.8974

> <Gold.PLP.part.nonpolar>
-35.5080

> <Gold.PLP.part.repulsive>
0.1422

> <Gold.PLP.ligand.clash>
0.0000

> <Gold.PLP.ligand.torsion>
1.8665

> <Gold.PLP.Chemscore.Hbond>
2.8454

> <Gold.PLP.Chemscore.CHOScore>
0.0000

> <Gold.PLP.Chemscore.Metal>
0.0000

> <Gold.Chemscore.Hbonds>
donor molecule, donor type, donor heavy atom, donor atom, acceptor molecule, acceptor atom, score
      L1  H    22    47       P1  8028  1.00
      P1  H  7989  7998       L1    14  0.12
      P1  H  7997  8010       L1    14  1.00
      P1  H 10752 10765       L1    12  0.36

> <Gold.PLP.Chemscore.Internal.Correction>
0.4057

> <Gold.Rescore>
     Score         DG    S(hbond)    S(metal)    S(lipo)     H(rot)  DE(clash)    DE(int)     intcor
     14.22     -17.66       2.21        0.00      98.19       2.62       1.61       1.83       ----

> <Gold.Chemscore.Fitness>
14.2176

> <Gold.Chemscore.DG>
-17.6564

> <Gold.Chemscore.ZeroCoef>
-5.4800

> <Gold.Chemscore.Hbond>
2.2105

> <Gold.Chemscore.Metal>
0.0000

> <Gold.Chemscore.Lipo>
98.1911

> <Gold.Chemscore.Internal_Hbond>
0.0000

> <Gold.Chemscore.DEClash>
1.6067

> <Gold.Chemscore.DEInternal>
1.8322

> <Gold.Chemscore.Rot>
2.6152

> <Gold.Chemscore.Internal.Correction>
   9.000000E+99

> <Gold.Chemscore.Hbonds>
donor molecule, donor type, donor heavy atom, donor atom, acceptor molecule, acceptor atom, score
      L1  H    22    47       P1  8028  0.78
      P1  H  7989  7998       L1    14  0.01
      P1  H  7997  8010       L1    14  0.24
      P1  H 10752 10765       L1    12  0.26

> <Gold.Chemscore.Hbond.Weighted>
-7.3830

> <Gold.Chemscore.Metal.Weighted>
-0.0000

> <Gold.Chemscore.Lipo.Weighted>
-11.4884

> <Gold.Chemscore.Internal_Hbond.Weighted>
0.0000

> <Gold.Chemscore.DEClash.Weighted>
1.6067

> <Gold.Chemscore.DEInternal.Weighted>
1.8322

> <Gold.Chemscore.Rot.Weighted>
6.6949

> <Gold.Chemscore.Internal.Correction.Weighted>
   9.000000E+99

> <Gold.Protein.RotatedTorsions>
[ 6907 6896 6895 6894 ] final  -92.40 input  -60.11 | X-H torsion
[ 7974 7965 7964 7962 ] final  143.34 input  175.53 | X-H torsion
[ 8008 7997 7996 7995 ] final   93.90 input   59.86 | X-H torsion
[ 10167 10162 10161 10158 ] final   38.96 input  -65.29 | X-H torsion
[ 10718 10713 10712 10709 ] final  -80.20 input   66.30 | X-H torsion
[ 10763 10752 10751 10750 ] final  179.54 input  -60.55 | X-H torsion
[ 11005 11000 10999 10996 ] final   50.83 input  -57.11 | X-H torsion

> <Gold.Protein.ActiveResidues>
 VAL166  LYS551  ARG553  GLY616  TRP617  ASP618  TYR619  PRO620  LYS621  CYS622 
 ASP623  PHE694  ASN695  SER759  ASP760  ASP761  ALA762  ILE779  LEU786  VAL792 
 PHE793  MET794  SER795  GLU796  ALA797  LYS798  CYS799  TRP800  GLU811  SER814 

> <Gold.Protein.RotatedAtoms>
  150.6905  134.2128  159.4365 H   0  0  0  0  0  0  0  0  0  0  0  0  # atno 6907 bound_to 6896
  152.0089  134.9885  160.0577 H   0  0  0  0  0  0  0  0  0  0  0  0  # atno 6908 bound_to 6896
  152.1507  133.4485  159.4849 H   0  0  0  0  0  0  0  0  0  0  0  0  # atno 6909 bound_to 6896
  144.8929  139.5532  143.5790 H   0  0  0  0  0  0  0  0  0  0  0  0  # atno 7974 bound_to 7965
  156.0520  140.3307  155.7361 H   0  0  0  0  0  0  0  0  0  0  0  0  # atno 8008 bound_to 7997
  155.5587  140.0617  157.2851 H   0  0  0  0  0  0  0  0  0  0  0  0  # atno 8009 bound_to 7997
  154.4440  140.1881  156.0749 H   0  0  0  0  0  0  0  0  0  0  0  0  # atno 8010 bound_to 7997
  140.3886  144.1883  150.6130 H   0  0  0  0  0  0  0  0  0  0  0  0  # atno 10167 bound_to 10162
  156.0075  130.4567  150.3765 H   0  0  0  0  0  0  0  0  0  0  0  0  # atno 10718 bound_to 10713
  154.5219  135.2794  155.1255 H   0  0  0  0  0  0  0  0  0  0  0  0  # atno 10763 bound_to 10752
  154.2809  135.6285  153.5350 H   0  0  0  0  0  0  0  0  0  0  0  0  # atno 10764 bound_to 10752
  152.9938  135.5651  154.5711 H   0  0  0  0  0  0  0  0  0  0  0  0  # atno 10765 bound_to 10752
  140.0984  134.5114  155.8785 H   0  0  0  0  0  0  0  0  0  0  0  0  # atno 11005 bound_to 11000
  146.3064  139.7596  142.9053 LP  0  0  0  0  0  0  0  0  0  0  0  0  # atno 17320 bound_to 7965
  145.3751  141.0349  143.3209 LP  0  0  0  0  0  0  0  0  0  0  0  0  # atno 17321 bound_to 7965
  140.4863  143.2362  151.8883 LP  0  0  0  0  0  0  0  0  0  0  0  0  # atno 17342 bound_to 10162
  139.4790  144.5215  151.8795 LP  0  0  0  0  0  0  0  0  0  0  0  0  # atno 17343 bound_to 10162
  157.1847  131.0400  151.2731 LP  0  0  0  0  0  0  0  0  0  0  0  0  # atno 17370 bound_to 10713
  157.4115  130.7387  149.6842 LP  0  0  0  0  0  0  0  0  0  0  0  0  # atno 17371 bound_to 10713
  141.2098  133.6688  156.6469 LP  0  0  0  0  0  0  0  0  0  0  0  0  # atno 17394 bound_to 11000
  140.3254  134.7973  157.4285 LP  0  0  0  0  0  0  0  0  0  0  0  0  # atno 17395 bound_to 11000

$$$$
