#       Name:                AV-unprocessed.smi:2177
#       Creating user name   scv26
#       Creation time:       Fri Mar 27 12:04:06 2020


#       File generated by GOLD software.
#

@<TRIPOS>MOLECULE
AV-unprocessed.smi:2177
    47    48     1
SMALL
NO_CHARGES


@<TRIPOS>ATOM
      1 ****        -1.5832   3.6598  -1.0395 C.3            1 S1                 0.0000
      2 ****        -1.7372   2.1924  -1.3199 C.2            1 S1                 0.0000
      3 ****        -2.8976   1.6027  -1.0850 N.2            1 S1                 0.0000
      4 ****        -2.7011   0.3117  -1.4192 N.pl3          1 S1                 0.0000
      5 ****        -3.7899  -0.6344  -1.2718 C.3            1 S1                 0.0000
      6 ****        -1.4165   0.0866  -1.8735 C.2            1 S1                 0.0000
      7 ****        -0.9500  -1.2688  -2.2981 C.3            1 S1                 0.0000
      8 ****        -0.7565   1.2857  -1.8188 C.2            1 S1                 0.0000
      9 ****         0.6774   1.5964  -2.1731 C.3            1 S1                 0.0000
     10 ****         1.5480   1.4719  -0.9224 C.2            1 S1                 0.0000
     11 ****         2.0885   2.4684  -0.4438 O.2            1 S1                 0.0000
     12 ****         1.6551   0.2416  -0.3973 N.am           1 S1                 0.0000
     13 ****         2.3102  -0.0997   0.8610 C.3            1 S1                 0.0000
     14 ****         3.7536  -0.5506   0.5907 C.3            1 S1                 0.0000
     15 ****         1.4876  -1.1839   1.5829 C.3            1 S1                 0.0000
     16 ****         0.0276  -0.8069   1.8507 C.3            1 S1                 0.0000
     17 ****        -0.3438  -1.6375   3.0695 C.3            1 S1                 0.0000
     18 ****         0.9986  -2.1545   3.5944 C.3            1 S1                 0.0000
     19 ****         1.9824  -1.4072   2.8936 O.3            1 S1                 0.0000
     20 ****        -0.8343   3.8302  -0.2658 H              1 S1                 0.0000
     21 ****        -2.5176   4.1088  -0.7008 H              1 S1                 0.0000
     22 ****        -1.2642   4.1957  -1.9334 H              1 S1                 0.0000
     23 ****        -4.1217  -0.9655  -2.2559 H              1 S1                 0.0000
     24 ****        -4.6311  -0.1761  -0.7497 H              1 S1                 0.0000
     25 ****        -3.4507  -1.4982  -0.6995 H              1 S1                 0.0000
     26 ****         0.0309  -1.2215  -2.7700 H              1 S1                 0.0000
     27 ****        -1.6417  -1.7125  -3.0142 H              1 S1                 0.0000
     28 ****        -0.8755  -1.9367  -1.4398 H              1 S1                 0.0000
     29 ****         1.0612   0.9246  -2.9411 H              1 S1                 0.0000
     30 ****         0.7752   2.6039  -2.5789 H              1 S1                 0.0000
     31 ****         1.1792  -0.5106  -0.8737 H              1 S1                 0.0000
     32 ****         2.3389   0.7820   1.5042 H              1 S1                 0.0000
     33 ****         4.2690  -0.7945   1.5199 H              1 S1                 0.0000
     34 ****         4.3248   0.2355   0.0962 H              1 S1                 0.0000
     35 ****         3.7811  -1.4349  -0.0469 H              1 S1                 0.0000
     36 ****         1.5265  -2.1232   1.0271 H              1 S1                 0.0000
     37 ****        -0.0499   0.2534   2.0956 H              1 S1                 0.0000
     38 ****        -0.6208  -0.9989   0.9952 H              1 S1                 0.0000
     39 ****        -0.8558  -1.0243   3.8121 H              1 S1                 0.0000
     40 ****        -1.0012  -2.4671   2.8068 H              1 S1                 0.0000
     41 ****         1.1033  -2.0308   4.6725 H              1 S1                 0.0000
     42 ****         1.1193  -3.2133   3.3599 H              1 S1                 0.0000
     43 ****        -3.7358   2.0221  -0.7364 LP             1 S1                 0.0000
     44 ****         1.9589   3.3623  -0.8729 LP             1 S1                 0.0000
     45 ****         2.6575   2.3843   0.3743 LP             1 S1                 0.0000
     46 ****         2.1403  -0.5333   3.3534 LP             1 S1                 0.0000
     47 ****         2.8388  -1.9220   2.8531 LP             1 S1                 0.0000
@<TRIPOS>BOND
    1    1    2 1     
    2    1   20 1     
    3    1   21 1     
    4    1   22 1     
    5    2    8 1     
    6    2    3 2     
    7    3    4 1     
    8    4    5 1     
    9    4    6 1     
   10    5   23 1     
   11    5   24 1     
   12    5   25 1     
   13    6    7 1     
   14    6    8 2     
   15    7   26 1     
   16    7   27 1     
   17    7   28 1     
   18    8    9 1     
   19    9   10 1     
   20    9   29 1     
   21    9   30 1     
   22   10   11 2     
   23   10   12 am    
   24   12   13 1     
   25   12   31 1     
   26   13   14 1     
   27   13   15 1     
   28   13   32 1     
   29   14   33 1     
   30   14   34 1     
   31   14   35 1     
   32   15   19 1     
   33   15   16 1     
   34   15   36 1     
   35   16   17 1     
   36   16   37 1     
   37   16   38 1     
   38   17   18 1     
   39   17   39 1     
   40   17   40 1     
   41   18   19 1     
   42   18   41 1     
   43   18   42 1     
   44    3   43 1     
   45   11   44 1     
   46   11   45 1     
   47   19   46 1     
   48   19   47 1     
@<TRIPOS>SUBSTRUCTURE
      1 S1             1
@<TRIPOS>SET
LONE_PAIRS      STATIC     ATOMS    <user>   **** ""
5 43 44 45 46 47
DONOR_HYDROGENS      STATIC     ATOMS    <user>   **** ""
1 31
ATOM$BLUE        STATIC     ATOMS    COLORGROUP SYSTEM
5 43 44 45 46 47
ATOM$RED        STATIC     ATOMS    COLORGROUP SYSTEM
1 31
