AV-unprocessed.smi:371|AV-procd|sdf|2442|dock9
  -GOLD-   2262022383D 1   1.00000     0.00000
 Structure written by MMmdl.
 39 40  0  0  0  0  0  0  0  0  1 V2000
  150.3439  134.4468  156.2395 C   0  0  0  0  0  0  0  0  0  0  0  0
  150.5761  135.9441  156.4004 C   0  0  0  0  0  0  0  0  0  0  0  0
  151.2602  136.6426  155.3370 C   0  0  0  0  0  0  0  0  0  0  0  0
  151.5872  137.9395  155.4565 C   0  0  0  0  0  0  0  0  0  0  0  0
  152.3039  138.6697  154.3265 C   0  0  0  0  0  0  0  0  0  0  0  0
  151.2338  138.6688  156.6251 N   0  0  0  0  0  0  0  0  0  0  0  0
  151.7007  140.0701  156.7760 C   0  0  0  0  0  0  0  0  0  0  0  0
  152.3033  140.3591  158.1748 C   0  0  1  0  0  0  0  0  0  0  0  0
  153.6434  139.9085  158.1786 O   0  0  0  0  0  0  0  0  0  0  0  0
  152.1799  141.8193  158.6000 C   0  0  0  0  0  0  0  0  0  0  0  0
  151.3873  142.7150  157.8476 C   0  0  0  0  0  0  0  0  0  0  0  0
  151.2406  144.0541  158.2577 C   0  0  0  0  0  0  0  0  0  0  0  0
  151.8849  144.5081  159.4238 C   0  0  0  0  0  0  0  0  0  0  0  0
  152.6767  143.6224  160.1786 C   0  0  0  0  0  0  0  0  0  0  0  0
  152.8254  142.2826  159.7701 C   0  0  0  0  0  0  0  0  0  0  0  0
  153.5767  141.4405  160.5198 F   0  0  0  0  0  0  0  0  0  0  0  0
  150.4745  138.1110  157.6235 C   0  0  0  0  0  0  0  0  0  0  0  0
  150.0576  138.8061  158.5557 O   0  0  0  0  0  0  0  0  0  0  0  0
  150.2122  136.6514  157.5035 C   0  0  0  0  0  0  0  0  0  0  0  0
  149.5238  136.0105  158.6407 C   0  0  0  0  0  0  0  0  0  0  0  0
  148.7494  136.8272  159.3694 N   0  0  0  0  0  0  0  0  0  0  0  0
  149.6781  134.8405  158.9874 O   0  0  0  0  0  0  0  0  0  0  0  0
  150.8731  134.0574  155.3692 H   0  0  0  0  0  0  0  0  0  0  0  0
  149.2831  134.2367  156.1029 H   0  0  0  0  0  0  0  0  0  0  0  0
  150.7018  133.8975  157.1109 H   0  0  0  0  0  0  0  0  0  0  0  0
  151.5186  136.1089  154.4338 H   0  0  0  0  0  0  0  0  0  0  0  0
  152.5921  137.9737  153.5381 H   0  0  0  0  0  0  0  0  0  0  0  0
  153.2168  139.1568  154.6649 H   0  0  0  0  0  0  0  0  0  0  0  0
  151.6487  139.4147  153.8742 H   0  0  0  0  0  0  0  0  0  0  0  0
  152.4228  140.3267  156.0027 H   0  0  0  0  0  0  0  0  0  0  0  0
  150.8950  140.7812  156.5860 H   0  0  0  0  0  0  0  0  0  0  0  0
  151.7902  139.7500  158.9175 H   0  0  0  0  0  0  0  0  0  0  0  0
  153.6424  138.9666  158.2548 H   0  0  0  0  0  0  0  0  0  0  0  0
  150.8764  142.3744  156.9589 H   0  0  0  0  0  0  0  0  0  0  0  0
  150.6291  144.7314  157.6797 H   0  0  0  0  0  0  0  0  0  0  0  0
  151.7702  145.5342  159.7404 H   0  0  0  0  0  0  0  0  0  0  0  0
  153.1676  143.9696  161.0758 H   0  0  0  0  0  0  0  0  0  0  0  0
  148.2542  136.4697  160.1738 H   0  0  0  0  0  0  0  0  0  0  0  0
  148.6751  137.8023  159.1182 H   0  0  0  0  0  0  0  0  0  0  0  0
  1  2  1  0  0  0  0
  1 23  1  0  0  0  0
  1 24  1  0  0  0  0
  1 25  1  0  0  0  0
  2 19  2  0  0  0  0
  2  3  1  0  0  0  0
  3  4  2  0  0  0  0
  3 26  1  0  0  0  0
  4  5  1  0  0  0  0
  4  6  1  0  0  0  0
  5 27  1  0  0  0  0
  5 28  1  0  0  0  0
  5 29  1  0  0  0  0
  6  7  1  0  0  0  0
  6 17  1  0  0  0  0
  7  8  1  0  0  0  0
  7 30  1  0  0  0  0
  7 31  1  0  0  0  0
  8  9  1  0  0  0  0
  8 10  1  0  0  0  0
  8 32  1  0  0  0  0
  9 33  1  0  0  0  0
 10 15  1  0  0  0  0
 10 11  2  0  0  0  0
 11 12  1  0  0  0  0
 11 34  1  0  0  0  0
 12 13  2  0  0  0  0
 12 35  1  0  0  0  0
 13 14  1  0  0  0  0
 13 36  1  0  0  0  0
 14 15  2  0  0  0  0
 14 37  1  0  0  0  0
 15 16  1  0  0  0  0
 17 18  2  0  0  0  0
 17 19  1  0  0  0  0
 19 20  1  0  0  0  0
 20 21  1  0  0  0  0
 20 22  2  0  0  0  0
 21 38  1  0  0  0  0
 21 39  1  0  0  0  0
M  END
> <s_m_source_file>
AV-unprocessed.smi

> <i_m_source_file_index>
371

> <i_lp_mmshare_version>
43012

> <i_f3d_flags>
0

> <s_epik_input>
W0NIM11jMVtjSF1jKFtDSDNdKW4oYyg9TyljMUMoPU8pW05IMl0pW0NIMl1bQ0BIXShbT0hdKWMyW2NIXVtjSF1bY0hdW2NIXWMyRg==

> <s_epik_cmdline>
J2VwaWtfcHl0aG9uJywgJy1waCcsICc3LjAnLCAnLXRuJywgJzgnLCAnLW1hJywgJzIwMCcsICctbWV0YWxfYmluZGluZycsICctaW1hZScsICc8aW5maWxlLm1hZT4nLCAnLW9tYWUnLCAnPG91dGZpbGUubWFlPic=

> <r_lp_tautomer_probability>
1

> <r_epik_Ionization_Penalty>
3.46512e-07

> <r_epik_Ionization_Penalty_Charging>
1.35363e-07

> <r_epik_Ionization_Penalty_Neutral>
2.11149e-07

> <r_epik_State_Penalty>
-0

> <r_epik_Charging_Adjusted_Penalty>
1.35363e-07

> <i_epik_Tot_Q>
0

> <i_epik_Tot_abs_Q>
0

> <r_epik_Metal_State_Penalty>
-0

> <b_epik_Metal_Only>
0

> <s_lp_Force_Field>
OPLS_2005

> <r_lp_Energy>
37.7279

> <b_lp_Chiralities_Consistent>
1

> <s_lp_Variant>
AV-unprocessed.smi:371-2

> <Gold.Version>
5.8.1

> <Gold.Id.Protein>
6NUR|6NUR_protein|mol2

> <Gold.PLP.Fitness>
45.1492

> <Gold.PLP.PLP>
-40.7629

> <Gold.PLP.part.hbond>
-2.0000

> <Gold.PLP.part.metal>
0.0000

> <Gold.PLP.part.buried>
-5.8674

> <Gold.PLP.part.nonpolar>
-32.9432

> <Gold.PLP.part.repulsive>
0.1816

> <Gold.PLP.ligand.clash>
0.0000

> <Gold.PLP.ligand.torsion>
0.9658

> <Gold.PLP.Chemscore.Hbond>
1.9760

> <Gold.PLP.Chemscore.CHOScore>
0.0000

> <Gold.PLP.Chemscore.Metal>
0.0000

> <Gold.Chemscore.Hbonds>
donor molecule, donor type, donor heavy atom, donor atom, acceptor molecule, acceptor atom, score
      P1  H  6896  6908       L1    22  0.11
      P1  H  7997  8009       L1     9  0.76

> <Gold.PLP.Chemscore.Internal.Correction>
0.3901

> <Gold.Rescore>
     Score         DG    S(hbond)    S(metal)    S(lipo)     H(rot)  DE(clash)    DE(int)     intcor
     14.51     -19.44       1.92        0.00     109.29       2.04       0.06       4.87       ----

> <Gold.Chemscore.Fitness>
14.5135

> <Gold.Chemscore.DG>
-19.4420

> <Gold.Chemscore.ZeroCoef>
-5.4800

> <Gold.Chemscore.Hbond>
1.9151

> <Gold.Chemscore.Metal>
0.0000

> <Gold.Chemscore.Lipo>
109.2905

> <Gold.Chemscore.Internal_Hbond>
0.0000

> <Gold.Chemscore.DEClash>
0.0599

> <Gold.Chemscore.DEInternal>
4.8686

> <Gold.Chemscore.Rot>
2.0396

> <Gold.Chemscore.Internal.Correction>
   9.000000E+99

> <Gold.Chemscore.Hbonds>
donor molecule, donor type, donor heavy atom, donor atom, acceptor molecule, acceptor atom, score
      P1  H  6896  6908       L1    22  0.13
      P1  H  7997  8009       L1     9  0.12

> <Gold.Chemscore.Hbond.Weighted>
-6.3964

> <Gold.Chemscore.Metal.Weighted>
-0.0000

> <Gold.Chemscore.Lipo.Weighted>
-12.7870

> <Gold.Chemscore.Internal_Hbond.Weighted>
0.0000

> <Gold.Chemscore.DEClash.Weighted>
0.0599

> <Gold.Chemscore.DEInternal.Weighted>
4.8686

> <Gold.Chemscore.Rot.Weighted>
5.2214

> <Gold.Chemscore.Internal.Correction.Weighted>
   9.000000E+99

> <Gold.Protein.RotatedTorsions>
[ 6907 6896 6895 6894 ] final  171.68 input  -60.11 | X-H torsion
[ 7974 7965 7964 7962 ] final  139.70 input  175.53 | X-H torsion
[ 8008 7997 7996 7995 ] final  132.32 input   59.86 | X-H torsion
[ 10167 10162 10161 10158 ] final  120.29 input  -65.29 | X-H torsion
[ 10718 10713 10712 10709 ] final  143.00 input   66.30 | X-H torsion
[ 10763 10752 10751 10750 ] final  133.98 input  -60.55 | X-H torsion
[ 11005 11000 10999 10996 ] final   87.69 input  -57.11 | X-H torsion

> <Gold.Protein.ActiveResidues>
 VAL166  LYS551  ARG553  GLY616  TRP617  ASP618  TYR619  PRO620  LYS621  CYS622 
 ASP623  PHE694  ASN695  SER759  ASP760  ASP761  ALA762  ILE779  LEU786  VAL792 
 PHE793  MET794  SER795  GLU796  ALA797  LYS798  CYS799  TRP800  GLU811  SER814 

> <Gold.Protein.RotatedAtoms>
  151.7964  133.3365  159.3513 H   0  0  0  0  0  0  0  0  0  0  0  0  # atno 6907 bound_to 6896
  150.7373  134.5794  159.5940 H   0  0  0  0  0  0  0  0  0  0  0  0  # atno 6908 bound_to 6896
  152.3174  134.7424  160.0373 H   0  0  0  0  0  0  0  0  0  0  0  0  # atno 6909 bound_to 6896
  144.9254  139.5114  143.5643 H   0  0  0  0  0  0  0  0  0  0  0  0  # atno 7974 bound_to 7965
  156.2981  140.2549  156.3071 H   0  0  0  0  0  0  0  0  0  0  0  0  # atno 8008 bound_to 7997
  154.9362  140.0397  157.2092 H   0  0  0  0  0  0  0  0  0  0  0  0  # atno 8009 bound_to 7997
  154.8170  140.2854  155.5817 H   0  0  0  0  0  0  0  0  0  0  0  0  # atno 8010 bound_to 7997
  139.5991  144.7051  151.3105 H   0  0  0  0  0  0  0  0  0  0  0  0  # atno 10167 bound_to 10162
  157.3740  131.0983  151.0802 H   0  0  0  0  0  0  0  0  0  0  0  0  # atno 10718 bound_to 10713
  153.8160  135.3122  155.3405 H   0  0  0  0  0  0  0  0  0  0  0  0  # atno 10763 bound_to 10752
  154.8032  135.4714  154.0330 H   0  0  0  0  0  0  0  0  0  0  0  0  # atno 10764 bound_to 10752
  153.1723  135.6880  153.8680 H   0  0  0  0  0  0  0  0  0  0  0  0  # atno 10765 bound_to 10752
  139.8914  134.8438  156.2895 H   0  0  0  0  0  0  0  0  0  0  0  0  # atno 11005 bound_to 11000
  146.3224  139.8166  142.8935 LP  0  0  0  0  0  0  0  0  0  0  0  0  # atno 17320 bound_to 7965
  145.3227  141.0248  143.3491 LP  0  0  0  0  0  0  0  0  0  0  0  0  # atno 17321 bound_to 7965
  140.7235  143.7068  150.7801 LP  0  0  0  0  0  0  0  0  0  0  0  0  # atno 17342 bound_to 10162
  140.0641  143.5126  152.2613 LP  0  0  0  0  0  0  0  0  0  0  0  0  # atno 17343 bound_to 10162
  157.1895  130.6345  149.5699 LP  0  0  0  0  0  0  0  0  0  0  0  0  # atno 17370 bound_to 10713
  155.9761  130.4727  150.6507 LP  0  0  0  0  0  0  0  0  0  0  0  0  # atno 17371 bound_to 10713
  140.9986  133.7165  156.0924 LP  0  0  0  0  0  0  0  0  0  0  0  0  # atno 17394 bound_to 11000
  140.7529  134.4025  157.5538 LP  0  0  0  0  0  0  0  0  0  0  0  0  # atno 17395 bound_to 11000

$$$$
