AV-unprocessed.smi:672|AV-procd|sdf|3293|dock6
  -GOLD-   22720 0253D 1   1.00000     0.00000
 Structure written by MMmdl.
 35 36  0  0  0  0  0  0  0  0  2 V2000
  153.0976  134.5017  164.6793 C   0  0  0  0  0  0  0  0  0  0  0  0
  154.1620  135.5165  164.2491 C   0  0  0  0  0  0  0  0  0  0  0  0
  153.9035  136.0754  162.8899 C   0  0  0  0  0  0  0  0  0  0  0  0
  153.7043  135.3068  161.8159 N   0  0  0  0  0  0  0  0  0  0  0  0
  153.5154  136.0569  160.6642 N   0  0  0  0  0  0  0  0  0  0  0  0
  153.5998  137.3777  160.8774 C   0  0  0  0  0  0  0  0  0  0  0  0
  153.4494  138.2780  159.8920 N   0  5  0  0  0  0  0  0  0  0  0  0
  154.0537  139.4847  159.9825 C   0  0  0  0  0  0  0  0  0  0  0  0
  155.1360  139.7995  159.4822 O   0  0  0  0  0  0  0  0  0  0  0  0
  153.3639  140.3815  160.7019 N   0  0  0  0  0  0  0  0  0  0  0  0
  153.7718  141.7594  160.9682 C   0  0  2  0  0  0  0  0  0  0  0  0
  152.9078  142.4127  162.0679 C   0  0  0  0  0  0  0  0  0  0  0  0
  152.4113  143.7390  161.4892 C   0  0  0  0  0  0  0  0  0  0  0  0
  152.3570  143.4967  159.9816 C   0  0  1  0  0  0  0  0  0  0  0  0
  152.3583  145.0303  159.0082 S   0  0  0  0  0  0  0  0  0  0  0  0
  152.3720  144.3461  157.3299 C   0  0  0  0  0  0  0  0  0  0  0  0
  153.5872  142.6278  159.7114 C   0  0  0  0  0  0  0  0  0  0  0  0
  153.9037  137.8000  162.5621 S   0  0  0  0  0  0  0  0  0  0  0  0
  153.3145  134.1080  165.6723 H   0  0  0  0  0  0  0  0  0  0  0  0
  153.0556  133.6595  163.9880 H   0  0  0  0  0  0  0  0  0  0  0  0
  152.1084  134.9595  164.7101 H   0  0  0  0  0  0  0  0  0  0  0  0
  154.2063  136.3371  164.9662 H   0  0  0  0  0  0  0  0  0  0  0  0
  155.1458  135.0464  164.2517 H   0  0  0  0  0  0  0  0  0  0  0  0
  152.4828  140.0819  161.0930 H   0  0  0  0  0  0  0  0  0  0  0  0
  154.8251  141.7721  161.2540 H   0  0  0  0  0  0  0  0  0  0  0  0
  152.0480  141.7846  162.3065 H   0  0  0  0  0  0  0  0  0  0  0  0
  153.4651  142.5571  162.9939 H   0  0  0  0  0  0  0  0  0  0  0  0
  151.4484  144.0368  161.9044 H   0  0  0  0  0  0  0  0  0  0  0  0
  153.1306  144.5274  161.7151 H   0  0  0  0  0  0  0  0  0  0  0  0
  151.4614  142.9229  159.7393 H   0  0  0  0  0  0  0  0  0  0  0  0
  152.4109  145.1521  156.5972 H   0  0  0  0  0  0  0  0  0  0  0  0
  151.4726  143.7587  157.1465 H   0  0  0  0  0  0  0  0  0  0  0  0
  153.2427  143.7060  157.1863 H   0  0  0  0  0  0  0  0  0  0  0  0
  154.4654  143.2636  159.5904 H   0  0  0  0  0  0  0  0  0  0  0  0
  153.4873  142.0456  158.7943 H   0  0  0  0  0  0  0  0  0  0  0  0
  1  2  1  0  0  0  0
  1 19  1  0  0  0  0
  1 20  1  0  0  0  0
  1 21  1  0  0  0  0
  2  3  1  0  0  0  0
  2 22  1  0  0  0  0
  2 23  1  0  0  0  0
  3 18  1  0  0  0  0
  3  4  2  0  0  0  0
  4  5  1  0  0  0  0
  5  6  2  0  0  0  0
  6  7  1  0  0  0  0
  6 18  1  0  0  0  0
  7  8  1  0  0  0  0
  8  9  2  0  0  0  0
  8 10  1  0  0  0  0
 10 11  1  0  0  0  0
 10 24  1  0  0  0  0
 11 17  1  0  0  0  0
 11 12  1  0  0  0  0
 11 25  1  0  0  0  0
 12 13  1  0  0  0  0
 12 26  1  0  0  0  0
 12 27  1  0  0  0  0
 13 14  1  0  0  0  0
 13 28  1  0  0  0  0
 13 29  1  0  0  0  0
 14 15  1  0  0  0  0
 14 17  1  0  0  0  0
 14 30  1  0  0  0  0
 15 16  1  0  0  0  0
 16 31  1  0  0  0  0
 16 32  1  0  0  0  0
 16 33  1  0  0  0  0
 17 34  1  0  0  0  0
 17 35  1  0  0  0  0
M  CHG  1   7  -1
M  END
> <s_m_source_file>
AV-unprocessed.smi

> <i_m_source_file_index>
672

> <i_lp_mmshare_version>
43012

> <i_f3d_flags>
0

> <s_epik_input>
W0NIM11bQ0gyXWMxbm5jKHMxKVtOSF1DKD1PKVtOSF1bQ0BASF0yW0NIMl1bQ0gyXVtDQEhdKFtDSDJdMilTW0NIM10=

> <s_epik_cmdline>
J2VwaWtfcHl0aG9uJywgJy1waCcsICc3LjAnLCAnLXRuJywgJzgnLCAnLW1hJywgJzIwMCcsICctbWV0YWxfYmluZGluZycsICctaW1hZScsICc8aW5maWxlLm1hZT4nLCAnLW9tYWUnLCAnPG91dGZpbGUubWFlPic=

> <r_lp_tautomer_probability>
1

> <r_epik_Ionization_Penalty>
4.49964

> <r_epik_Ionization_Penalty_Charging>
4.32991

> <r_epik_Ionization_Penalty_Neutral>
0.169727

> <r_epik_State_Penalty>
4.32952

> <r_epik_Charging_Adjusted_Penalty>
8.65943

> <i_epik_Tot_Q>
-1

> <i_epik_Tot_abs_Q>
1

> <r_epik_Metal_State_Penalty>
0.740482

> <b_epik_Metal_Only>
1

> <s_lp_Force_Field>
OPLS_2005

> <r_lp_Energy>
9.96547

> <b_lp_Chiralities_Consistent>
1

> <s_lp_Variant>
AV-unprocessed.smi:672-5

> <Gold.Version>
5.8.1

> <Gold.Id.Protein>
6NUR|6NUR_protein|mol2

> <Gold.PLP.Fitness>
46.3885

> <Gold.PLP.PLP>
-43.3032

> <Gold.PLP.part.hbond>
-1.8234

> <Gold.PLP.part.metal>
0.0000

> <Gold.PLP.part.buried>
-4.8281

> <Gold.PLP.part.nonpolar>
-37.3311

> <Gold.PLP.part.repulsive>
0.0648

> <Gold.PLP.ligand.clash>
0.0000

> <Gold.PLP.ligand.torsion>
1.1291

> <Gold.PLP.Chemscore.Hbond>
1.7605

> <Gold.PLP.Chemscore.CHOScore>
0.0000

> <Gold.PLP.Chemscore.Metal>
0.0000

> <Gold.Chemscore.Hbonds>
donor molecule, donor type, donor heavy atom, donor atom, acceptor molecule, acceptor atom, score
      P1  H  6896  6909       L1     5  0.50
      P1  H  7997  8009       L1     9  0.71

> <Gold.PLP.Chemscore.Internal.Correction>
0.0620

> <Gold.Rescore>
     Score         DG    S(hbond)    S(metal)    S(lipo)     H(rot)  DE(clash)    DE(int)     intcor
     17.15     -18.36       0.98        0.00     111.47       1.34       0.07       1.14       ----

> <Gold.Chemscore.Fitness>
17.1507

> <Gold.Chemscore.DG>
-18.3595

> <Gold.Chemscore.ZeroCoef>
-5.4800

> <Gold.Chemscore.Hbond>
0.9793

> <Gold.Chemscore.Metal>
0.0000

> <Gold.Chemscore.Lipo>
111.4661

> <Gold.Chemscore.Internal_Hbond>
0.0000

> <Gold.Chemscore.DEClash>
0.0672

> <Gold.Chemscore.DEInternal>
1.1416

> <Gold.Chemscore.Rot>
1.3410

> <Gold.Chemscore.Internal.Correction>
   9.000000E+99

> <Gold.Chemscore.Hbonds>
donor molecule, donor type, donor heavy atom, donor atom, acceptor molecule, acceptor atom, score
      P1  H  6896  6909       L1     5  0.02
      P1  H  7997  8009       L1     9  0.69

> <Gold.Chemscore.Hbond.Weighted>
-3.2709

> <Gold.Chemscore.Metal.Weighted>
-0.0000

> <Gold.Chemscore.Lipo.Weighted>
-13.0415

> <Gold.Chemscore.Internal_Hbond.Weighted>
0.0000

> <Gold.Chemscore.DEClash.Weighted>
0.0672

> <Gold.Chemscore.DEInternal.Weighted>
1.1416

> <Gold.Chemscore.Rot.Weighted>
3.4329

> <Gold.Chemscore.Internal.Correction.Weighted>
   9.000000E+99

> <Gold.Protein.RotatedTorsions>
[ 6907 6896 6895 6894 ] final  166.04 input  -60.11 | X-H torsion
[ 7974 7965 7964 7962 ] final   72.45 input  175.53 | X-H torsion
[ 8008 7997 7996 7995 ] final  101.61 input   59.86 | X-H torsion
[ 10167 10162 10161 10158 ] final  142.35 input  -65.29 | X-H torsion
[ 10718 10713 10712 10709 ] final   83.76 input   66.30 | X-H torsion
[ 10763 10752 10751 10750 ] final   98.18 input  -60.55 | X-H torsion
[ 11005 11000 10999 10996 ] final   81.05 input  -57.11 | X-H torsion

> <Gold.Protein.ActiveResidues>
 VAL166  LYS551  ARG553  GLY616  TRP617  ASP618  TYR619  PRO620  LYS621  CYS622 
 ASP623  PHE694  ASN695  SER759  ASP760  ASP761  ALA762  ILE779  LEU786  VAL792 
 PHE793  MET794  SER795  GLU796  ALA797  LYS798  CYS799  TRP800  GLU811  SER814 

> <Gold.Protein.RotatedAtoms>
  151.8850  133.3503  159.3778 H   0  0  0  0  0  0  0  0  0  0  0  0  # atno 6907 bound_to 6896
  150.7117  134.4980  159.5557 H   0  0  0  0  0  0  0  0  0  0  0  0  # atno 6908 bound_to 6896
  152.2539  134.8104  160.0492 H   0  0  0  0  0  0  0  0  0  0  0  0  # atno 6909 bound_to 6896
  145.7532  139.2769  143.1419 H   0  0  0  0  0  0  0  0  0  0  0  0  # atno 7974 bound_to 7965
  156.1315  140.3194  155.8357 H   0  0  0  0  0  0  0  0  0  0  0  0  # atno 8008 bound_to 7997
  155.4322  140.0519  157.3034 H   0  0  0  0  0  0  0  0  0  0  0  0  # atno 8009 bound_to 7997
  154.4903  140.2089  155.9575 H   0  0  0  0  0  0  0  0  0  0  0  0  # atno 8010 bound_to 7997
  139.4996  144.6112  151.6266 H   0  0  0  0  0  0  0  0  0  0  0  0  # atno 10167 bound_to 10162
  157.6885  131.0104  150.2571 H   0  0  0  0  0  0  0  0  0  0  0  0  # atno 10718 bound_to 10713
  153.2859  135.4157  155.1121 H   0  0  0  0  0  0  0  0  0  0  0  0  # atno 10763 bound_to 10752
  154.8504  135.3506  154.6048 H   0  0  0  0  0  0  0  0  0  0  0  0  # atno 10764 bound_to 10752
  153.6470  135.7054  153.5280 H   0  0  0  0  0  0  0  0  0  0  0  0  # atno 10765 bound_to 10752
  139.9112  134.7967  156.1990 H   0  0  0  0  0  0  0  0  0  0  0  0  # atno 11005 bound_to 11000
  146.0336  140.8234  142.9864 LP  0  0  0  0  0  0  0  0  0  0  0  0  # atno 17320 bound_to 7965
  144.6845  140.2805  143.7293 LP  0  0  0  0  0  0  0  0  0  0  0  0  # atno 17321 bound_to 7965
  140.5788  143.9982  150.6256 LP  0  0  0  0  0  0  0  0  0  0  0  0  # atno 17342 bound_to 10162
  140.3124  143.3189  152.0865 LP  0  0  0  0  0  0  0  0  0  0  0  0  # atno 17343 bound_to 10162
  156.3157  130.3778  149.7621 LP  0  0  0  0  0  0  0  0  0  0  0  0  # atno 17370 bound_to 10713
  156.5207  130.8213  151.3202 LP  0  0  0  0  0  0  0  0  0  0  0  0  # atno 17371 bound_to 10713
  141.0536  133.6876  156.1819 LP  0  0  0  0  0  0  0  0  0  0  0  0  # atno 17394 bound_to 11000
  140.6771  134.4806  157.5588 LP  0  0  0  0  0  0  0  0  0  0  0  0  # atno 17395 bound_to 11000

$$$$
