#       Name:                AV-unprocessed.smi:2510
#       Creating user name   scv26
#       Creation time:       Fri Mar 27 13:51:09 2020


#       File generated by GOLD software.
#

@<TRIPOS>MOLECULE
AV-unprocessed.smi:2510
    53    54     1
SMALL
NO_CHARGES


@<TRIPOS>ATOM
      1 ****        -3.4771   1.7750  -0.3193 C.3            1 S1                 0.0000
      2 ****        -3.1293   0.2836  -0.4610 C.3            1 S1                 0.0000
      3 ****        -1.6764  -0.0940  -0.0825 C.3            1 S1                 0.0000
      4 ****        -0.7093   0.6544  -1.0386 C.3            1 S1                 0.0000
      5 ****        -0.8588   0.3043  -2.5276 C.3            1 S1                 0.0000
      6 ****        -1.3937  -0.0294   1.4501 C.3            1 S1                 0.0000
      7 ****         0.0046   0.2384   1.7818 N.am           1 S1                 0.0000
      8 ****         0.5100   1.4445   2.0793 C.2            1 S1                 0.0000
      9 ****        -0.1785   2.4562   2.2103 O.2            1 S1                 0.0000
     10 ****         2.0311   1.5231   2.2190 C.3            1 S1                 0.0000
     11 ****         2.6788   1.1913   0.9000 C.2            1 S1                 0.0000
     12 ****         2.8362   2.0380  -0.2372 C.2            1 S1                 0.0000
     13 ****         3.4345   1.2413  -1.1719 C.2            1 S1                 0.0000
     14 ****         3.8499   1.5147  -2.5775 C.3            1 S1                 0.0000
     15 ****         3.6102   0.0140  -0.5755 N.pl3          1 S1                 0.0000
     16 ****         3.1579  -0.0279   0.6911 N.2            1 S1                 0.0000
     17 ****        -1.7275  -1.5277   1.5552 C.3            1 S1                 0.0000
     18 ****        -1.0099  -2.4318   2.5556 C.3            1 S1                 0.0000
     19 ****        -1.4448  -1.6246   0.0448 C.3            1 S1                 0.0000
     20 ****        -0.0951  -1.9828  -0.2340 O.3            1 S1                 0.0000
     21 ****         0.0691  -3.3591  -0.5276 C.3            1 S1                 0.0000
     22 ****         4.0306  -0.7925  -1.0149 H              1 S1                 0.0000
     23 ****        -4.5435   1.9337  -0.4799 H              1 S1                 0.0000
     24 ****        -2.9504   2.3868  -1.0510 H              1 S1                 0.0000
     25 ****        -3.2354   2.1536   0.6735 H              1 S1                 0.0000
     26 ****        -3.8282  -0.2677   0.1676 H              1 S1                 0.0000
     27 ****        -3.3653  -0.0460  -1.4721 H              1 S1                 0.0000
     28 ****        -0.7883   1.7332  -0.9077 H              1 S1                 0.0000
     29 ****         0.3245   0.4294  -0.7803 H              1 S1                 0.0000
     30 ****        -0.0571   0.7623  -3.1074 H              1 S1                 0.0000
     31 ****        -1.7998   0.6668  -2.9400 H              1 S1                 0.0000
     32 ****        -0.8075  -0.7724  -2.6901 H              1 S1                 0.0000
     33 ****        -2.0995   0.5859   2.0099 H              1 S1                 0.0000
     34 ****         0.6487  -0.5344   1.6903 H              1 S1                 0.0000
     35 ****         2.3175   2.5251   2.5403 H              1 S1                 0.0000
     36 ****         2.3566   0.8374   3.0028 H              1 S1                 0.0000
     37 ****         2.5361   3.0689  -0.3531 H              1 S1                 0.0000
     38 ****         4.1222   2.5626  -2.7045 H              1 S1                 0.0000
     39 ****         3.0369   1.2912  -3.2687 H              1 S1                 0.0000
     40 ****         4.7108   0.9074  -2.8585 H              1 S1                 0.0000
     41 ****        -2.8042  -1.6208   1.7047 H              1 S1                 0.0000
     42 ****         0.0693  -2.4391   2.4022 H              1 S1                 0.0000
     43 ****        -1.3581  -3.4612   2.4737 H              1 S1                 0.0000
     44 ****        -1.1932  -2.1058   3.5794 H              1 S1                 0.0000
     45 ****        -2.1746  -2.2132  -0.5143 H              1 S1                 0.0000
     46 ****         1.1252  -3.5737  -0.6903 H              1 S1                 0.0000
     47 ****        -0.4725  -3.6305  -1.4344 H              1 S1                 0.0000
     48 ****        -0.2816  -3.9900   0.2890 H              1 S1                 0.0000
     49 ****        -1.1704   2.4045   2.0941 LP             1 S1                 0.0000
     50 ****         0.2539   3.3300   2.4329 LP             1 S1                 0.0000
     51 ****         3.1782  -0.7991   1.3273 LP             1 S1                 0.0000
     52 ****         0.4642  -1.7594   0.5643 LP             1 S1                 0.0000
     53 ****         0.2188  -1.4506  -1.0203 LP             1 S1                 0.0000
@<TRIPOS>BOND
    1    1    2 1     
    2    1   23 1     
    3    1   24 1     
    4    1   25 1     
    5    2    3 1     
    6    2   26 1     
    7    2   27 1     
    8    3   19 1     
    9    3    4 1     
   10    3    6 1     
   11    4    5 1     
   12    4   28 1     
   13    4   29 1     
   14    5   30 1     
   15    5   31 1     
   16    5   32 1     
   17    6    7 1     
   18    6   17 1     
   19    6   33 1     
   20    7    8 am    
   21    7   34 1     
   22    8    9 2     
   23    8   10 1     
   24   10   11 1     
   25   10   35 1     
   26   10   36 1     
   27   11   16 2     
   28   11   12 1     
   29   12   13 2     
   30   12   37 1     
   31   13   14 1     
   32   13   15 1     
   33   14   38 1     
   34   14   39 1     
   35   14   40 1     
   36   15   22 1     
   37   15   16 1     
   38   17   18 1     
   39   17   19 1     
   40   17   41 1     
   41   18   42 1     
   42   18   43 1     
   43   18   44 1     
   44   19   20 1     
   45   19   45 1     
   46   20   21 1     
   47   21   46 1     
   48   21   47 1     
   49   21   48 1     
   50    9   49 1     
   51    9   50 1     
   52   16   51 1     
   53   20   52 1     
   54   20   53 1     
@<TRIPOS>SUBSTRUCTURE
      1 S1             1
@<TRIPOS>SET
LONE_PAIRS      STATIC     ATOMS    <user>   **** ""
5 49 50 51 52 53
DONOR_HYDROGENS      STATIC     ATOMS    <user>   **** ""
2 34 22
ATOM$BLUE        STATIC     ATOMS    COLORGROUP SYSTEM
5 49 50 51 52 53
ATOM$RED        STATIC     ATOMS    COLORGROUP SYSTEM
2 34 22
