AV-unprocessed.smi:415|AV-procd|sdf|2523|dock3
  -GOLD-   2262022473D 1   1.00000     0.00000
 Structure written by MMmdl.
 53 54  0  0  0  0  0  0  0  0  1 V2000
  147.4883  133.3096  159.5918 C   0  0  0  0  0  0  0  0  0  0  0  0
  147.3275  134.1518  158.4645 O   0  0  0  0  0  0  0  0  0  0  0  0
  148.5646  134.4920  157.8608 C   0  0  0  0  0  0  0  0  0  0  0  0
  148.4069  135.8013  157.0700 C   0  0  0  0  0  0  0  0  0  0  0  0
  149.6745  136.4277  156.7432 N   0  0  0  0  0  0  0  0  0  0  0  0
  150.1043  136.6603  155.4392 C   0  0  0  0  0  0  0  0  0  0  0  0
  149.3135  136.2653  154.3755 N   0  0  0  0  0  0  0  0  0  0  0  0
  151.2906  137.2560  155.1849 C   0  0  0  0  0  0  0  0  0  0  0  0
  152.1849  137.6794  156.2535 C   0  0  0  0  0  0  0  0  0  0  0  0
  153.2591  138.2426  156.0416 O   0  0  0  0  0  0  0  0  0  0  0  0
  151.7416  137.4076  157.5681 N   0  0  0  0  0  0  0  0  0  0  0  0
  152.5881  137.8176  158.7102 C   0  0  0  0  0  0  0  0  0  0  0  0
  152.7612  139.3402  158.8066 C   0  0  0  0  0  0  0  0  0  0  0  0
  153.8684  139.8586  158.6566 O   0  0  0  0  0  0  0  0  0  0  0  0
  151.6491  140.0433  159.0689 N   0  0  0  0  0  0  0  0  0  0  0  0
  151.5753  141.4983  159.1905 C   0  0  1  0  0  0  0  0  0  0  0  0
  152.6695  141.9842  160.1618 C   0  0  0  0  0  0  0  0  0  0  0  0
  152.6605  143.5095  160.2941 C   0  0  0  0  0  0  0  0  0  0  0  0
  152.8268  144.1702  158.9218 C   0  0  0  0  0  0  0  0  0  0  0  0
  151.7327  143.7221  157.9322 C   0  0  1  0  0  0  0  0  0  0  0  0
  151.9301  144.4454  156.5872 C   0  0  0  0  0  0  0  0  0  0  0  0
  151.7009  142.1725  157.7968 C   0  0  2  0  0  0  0  0  0  0  0  0
  150.5792  141.6969  156.8475 C   0  0  0  0  0  0  0  0  0  0  0  0
  150.5016  136.7853  157.8384 C   0  0  0  0  0  0  0  0  0  0  0  0
  150.1562  136.5664  159.0034 O   0  0  0  0  0  0  0  0  0  0  0  0
  146.5131  133.0860  160.0240 H   0  0  0  0  0  0  0  0  0  0  0  0
  148.0958  133.7891  160.3602 H   0  0  0  0  0  0  0  0  0  0  0  0
  147.9572  132.3652  159.3131 H   0  0  0  0  0  0  0  0  0  0  0  0
  149.3211  134.6251  158.6353 H   0  0  0  0  0  0  0  0  0  0  0  0
  148.9074  133.6855  157.2108 H   0  0  0  0  0  0  0  0  0  0  0  0
  147.8675  135.6405  156.1374 H   0  0  0  0  0  0  0  0  0  0  0  0
  147.8107  136.5344  157.6163 H   0  0  0  0  0  0  0  0  0  0  0  0
  148.4241  135.8083  154.5175 H   0  0  0  0  0  0  0  0  0  0  0  0
  149.5152  136.5613  153.4310 H   0  0  0  0  0  0  0  0  0  0  0  0
  151.5941  137.4268  154.1617 H   0  0  0  0  0  0  0  0  0  0  0  0
  152.1719  137.4379  159.6453 H   0  0  0  0  0  0  0  0  0  0  0  0
  153.5805  137.3676  158.6622 H   0  0  0  0  0  0  0  0  0  0  0  0
  150.7847  139.5342  159.1823 H   0  0  0  0  0  0  0  0  0  0  0  0
  150.6016  141.7673  159.6051 H   0  0  0  0  0  0  0  0  0  0  0  0
  152.5283  141.5358  161.1461 H   0  0  0  0  0  0  0  0  0  0  0  0
  153.6492  141.6558  159.8117 H   0  0  0  0  0  0  0  0  0  0  0  0
  151.7256  143.8357  160.7517 H   0  0  0  0  0  0  0  0  0  0  0  0
  153.4617  143.8294  160.9608 H   0  0  0  0  0  0  0  0  0  0  0  0
  152.8019  145.2539  159.0408 H   0  0  0  0  0  0  0  0  0  0  0  0
  153.8114  143.9280  158.5188 H   0  0  0  0  0  0  0  0  0  0  0  0
  150.7722  144.0443  158.3375 H   0  0  0  0  0  0  0  0  0  0  0  0
  152.8311  144.1003  156.0793 H   0  0  0  0  0  0  0  0  0  0  0  0
  152.0251  145.5218  156.7330 H   0  0  0  0  0  0  0  0  0  0  0  0
  151.0854  144.2957  155.9157 H   0  0  0  0  0  0  0  0  0  0  0  0
  152.6514  141.8590  157.3616 H   0  0  0  0  0  0  0  0  0  0  0  0
  149.5996  142.0158  157.2042 H   0  0  0  0  0  0  0  0  0  0  0  0
  150.5579  140.6113  156.7541 H   0  0  0  0  0  0  0  0  0  0  0  0
  150.7104  142.0835  155.8378 H   0  0  0  0  0  0  0  0  0  0  0  0
  1  2  1  0  0  0  0
  1 26  1  0  0  0  0
  1 27  1  0  0  0  0
  1 28  1  0  0  0  0
  2  3  1  0  0  0  0
  3  4  1  0  0  0  0
  3 29  1  0  0  0  0
  3 30  1  0  0  0  0
  4  5  1  0  0  0  0
  4 31  1  0  0  0  0
  4 32  1  0  0  0  0
  5 24  1  0  0  0  0
  5  6  1  0  0  0  0
  6  7  1  0  0  0  0
  6  8  2  0  0  0  0
  7 33  1  0  0  0  0
  7 34  1  0  0  0  0
  8  9  1  0  0  0  0
  8 35  1  0  0  0  0
  9 10  2  0  0  0  0
  9 11  1  0  0  0  0
 11 12  1  0  0  0  0
 11 24  1  0  0  0  0
 12 13  1  0  0  0  0
 12 36  1  0  0  0  0
 12 37  1  0  0  0  0
 13 14  2  0  0  0  0
 13 15  1  0  0  0  0
 15 16  1  0  0  0  0
 15 38  1  0  0  0  0
 16 22  1  0  0  0  0
 16 17  1  0  0  0  0
 16 39  1  0  0  0  0
 17 18  1  0  0  0  0
 17 40  1  0  0  0  0
 17 41  1  0  0  0  0
 18 19  1  0  0  0  0
 18 42  1  0  0  0  0
 18 43  1  0  0  0  0
 19 20  1  0  0  0  0
 19 44  1  0  0  0  0
 19 45  1  0  0  0  0
 20 21  1  0  0  0  0
 20 22  1  0  0  0  0
 20 46  1  0  0  0  0
 21 47  1  0  0  0  0
 21 48  1  0  0  0  0
 21 49  1  0  0  0  0
 22 23  1  0  0  0  0
 22 50  1  0  0  0  0
 23 51  1  0  0  0  0
 23 52  1  0  0  0  0
 23 53  1  0  0  0  0
 24 25  2  0  0  0  0
M  END
> <s_m_source_file>
AV-unprocessed.smi

> <i_m_source_file_index>
415

> <i_lp_mmshare_version>
43012

> <i_f3d_flags>
0

> <s_epik_input>
W0NIM11PW0NIMl1bQ0gyXW4xYyhbTkgyXSlbY0hdYyg9TyluKGMxPU8pW0NIMl1DKD1PKVtOSF1bQ0BASF0yW0NIMl1bQ0gyXVtDSDJdW0NAQEhdKFtDSDNdKVtDQEhdMltDSDNd

> <s_epik_cmdline>
J2VwaWtfcHl0aG9uJywgJy1waCcsICc3LjAnLCAnLXRuJywgJzgnLCAnLW1hJywgJzIwMCcsICctbWV0YWxfYmluZGluZycsICctaW1hZScsICc8aW5maWxlLm1hZT4nLCAnLW9tYWUnLCAnPG91dGZpbGUubWFlPic=

> <r_lp_tautomer_probability>
1

> <r_epik_Ionization_Penalty>
8.6647e-06

> <r_epik_Ionization_Penalty_Charging>
1.81162e-08

> <r_epik_Ionization_Penalty_Neutral>
8.64658e-06

> <r_epik_State_Penalty>
-0

> <r_epik_Charging_Adjusted_Penalty>
1.81162e-08

> <i_epik_Tot_Q>
0

> <i_epik_Tot_abs_Q>
0

> <r_epik_Metal_State_Penalty>
-0

> <b_epik_Metal_Only>
0

> <s_lp_Force_Field>
OPLS_2005

> <r_lp_Energy>
22.0049

> <b_lp_Chiralities_Consistent>
1

> <s_lp_Variant>
AV-unprocessed.smi:415-6

> <Gold.Version>
5.8.1

> <Gold.Id.Protein>
6NUR|6NUR_protein|mol2

> <Gold.PLP.Fitness>
43.3826

> <Gold.PLP.PLP>
-34.9930

> <Gold.PLP.part.hbond>
-3.5744

> <Gold.PLP.part.metal>
0.0000

> <Gold.PLP.part.buried>
-3.8727

> <Gold.PLP.part.nonpolar>
-27.7456

> <Gold.PLP.part.repulsive>
0.1754

> <Gold.PLP.ligand.clash>
0.0000

> <Gold.PLP.ligand.torsion>
0.3557

> <Gold.PLP.Chemscore.Hbond>
3.0000

> <Gold.PLP.Chemscore.CHOScore>
0.0000

> <Gold.PLP.Chemscore.Metal>
0.0000

> <Gold.Chemscore.Hbonds>
donor molecule, donor type, donor heavy atom, donor atom, acceptor molecule, acceptor atom, score
      L1  H     7    34       P1  7948  0.78
      P1  H  6896  6909       L1    25  1.00
      P1  H  7997  8009       L1    14  1.00

> <Gold.PLP.Chemscore.Internal.Correction>
0.1009

> <Gold.Rescore>
     Score         DG    S(hbond)    S(metal)    S(lipo)     H(rot)  DE(clash)    DE(int)     intcor
     17.45     -20.74       2.79        0.00     100.25       2.26       0.34       2.94       ----

> <Gold.Chemscore.Fitness>
17.4547

> <Gold.Chemscore.DG>
-20.7365

> <Gold.Chemscore.ZeroCoef>
-5.4800

> <Gold.Chemscore.Hbond>
2.7917

> <Gold.Chemscore.Metal>
0.0000

> <Gold.Chemscore.Lipo>
100.2514

> <Gold.Chemscore.Internal_Hbond>
0.0000

> <Gold.Chemscore.DEClash>
0.3388

> <Gold.Chemscore.DEInternal>
2.9429

> <Gold.Chemscore.Rot>
2.2645

> <Gold.Chemscore.Internal.Correction>
   9.000000E+99

> <Gold.Chemscore.Hbonds>
donor molecule, donor type, donor heavy atom, donor atom, acceptor molecule, acceptor atom, score
      L1  H     7    34       P1  7948  0.54
      P1  H  6896  6909       L1    25  0.83
      P1  H  7997  8009       L1    14  0.99

> <Gold.Chemscore.Hbond.Weighted>
-9.3242

> <Gold.Chemscore.Metal.Weighted>
-0.0000

> <Gold.Chemscore.Lipo.Weighted>
-11.7294

> <Gold.Chemscore.Internal_Hbond.Weighted>
0.0000

> <Gold.Chemscore.DEClash.Weighted>
0.3388

> <Gold.Chemscore.DEInternal.Weighted>
2.9429

> <Gold.Chemscore.Rot.Weighted>
5.7972

> <Gold.Chemscore.Internal.Correction.Weighted>
   9.000000E+99

> <Gold.Protein.RotatedTorsions>
[ 6907 6896 6895 6894 ] final   68.17 input  -60.11 | X-H torsion
[ 7974 7965 7964 7962 ] final  -60.25 input  175.53 | X-H torsion
[ 8008 7997 7996 7995 ] final  134.60 input   59.86 | X-H torsion
[ 10167 10162 10161 10158 ] final -162.75 input  -65.29 | X-H torsion
[ 10718 10713 10712 10709 ] final -122.28 input   66.30 | X-H torsion
[ 10763 10752 10751 10750 ] final  117.84 input  -60.55 | X-H torsion
[ 11005 11000 10999 10996 ] final  -81.66 input  -57.11 | X-H torsion

> <Gold.Protein.ActiveResidues>
 VAL166  LYS551  ARG553  GLY616  TRP617  ASP618  TYR619  PRO620  LYS621  CYS622 
 ASP623  PHE694  ASN695  SER759  ASP760  ASP761  ALA762  ILE779  LEU786  VAL792 
 PHE793  MET794  SER795  GLU796  ALA797  LYS798  CYS799  TRP800  GLU811  SER814 

> <Gold.Protein.RotatedAtoms>
  152.4602  134.5201  159.9779 H   0  0  0  0  0  0  0  0  0  0  0  0  # atno 6907 bound_to 6896
  151.5251  133.3453  159.2916 H   0  0  0  0  0  0  0  0  0  0  0  0  # atno 6908 bound_to 6896
  150.8562  134.7931  159.7110 H   0  0  0  0  0  0  0  0  0  0  0  0  # atno 6909 bound_to 6896
  145.8177  140.8559  143.0149 H   0  0  0  0  0  0  0  0  0  0  0  0  # atno 7974 bound_to 7965
  156.3000  140.2492  156.3443 H   0  0  0  0  0  0  0  0  0  0  0  0  # atno 8008 bound_to 7997
  154.9025  140.0406  157.1920 H   0  0  0  0  0  0  0  0  0  0  0  0  # atno 8009 bound_to 7997
  154.8486  140.2902  155.5617 H   0  0  0  0  0  0  0  0  0  0  0  0  # atno 8010 bound_to 7997
  139.6370  144.0332  152.2062 H   0  0  0  0  0  0  0  0  0  0  0  0  # atno 10167 bound_to 10162
  156.1405  130.6462  150.9764 H   0  0  0  0  0  0  0  0  0  0  0  0  # atno 10718 bound_to 10713
  153.5585  135.3525  155.2789 H   0  0  0  0  0  0  0  0  0  0  0  0  # atno 10763 bound_to 10752
  154.8698  135.4131  154.2857 H   0  0  0  0  0  0  0  0  0  0  0  0  # atno 10764 bound_to 10752
  153.3598  135.7059  153.6790 H   0  0  0  0  0  0  0  0  0  0  0  0  # atno 10765 bound_to 10752
  141.1666  133.7207  156.8455 H   0  0  0  0  0  0  0  0  0  0  0  0  # atno 11005 bound_to 11000
  144.6751  140.0488  143.7479 LP  0  0  0  0  0  0  0  0  0  0  0  0  # atno 17320 bound_to 7965
  145.9708  139.2869  143.1100 LP  0  0  0  0  0  0  0  0  0  0  0  0  # atno 17321 bound_to 7965
  140.0012  144.6292  150.7728 LP  0  0  0  0  0  0  0  0  0  0  0  0  # atno 17342 bound_to 10162
  140.7470  143.2900  151.3357 LP  0  0  0  0  0  0  0  0  0  0  0  0  # atno 17343 bound_to 10162
  157.6571  131.0887  150.7922 LP  0  0  0  0  0  0  0  0  0  0  0  0  # atno 17370 bound_to 10713
  156.7998  130.4917  149.5371 LP  0  0  0  0  0  0  0  0  0  0  0  0  # atno 17371 bound_to 10713
  140.1953  134.8936  157.3107 LP  0  0  0  0  0  0  0  0  0  0  0  0  # atno 17394 bound_to 11000
  140.2246  134.3982  155.7549 LP  0  0  0  0  0  0  0  0  0  0  0  0  # atno 17395 bound_to 11000

$$$$
