AV-unprocessed.smi:290|AV-procd|sdf|2239|dock6
  -GOLD-   2262022113D 1   1.00000     0.00000
 Structure written by MMmdl.
 59 62  0  0  0  0  0  0  0  0  2 V2000
  152.6546  144.8682  157.9593 C   0  0  0  0  0  0  0  0  0  0  0  0
  152.2422  143.7470  158.9202 C   0  0  2  0  0  0  0  0  0  0  0  0
  153.4207  143.1520  159.4487 O   0  0  0  0  0  0  0  0  0  0  0  0
  153.0638  141.8858  159.9672 C   0  0  0  0  0  0  0  0  0  0  0  0
  152.1692  141.3383  158.8660 C   0  0  0  0  0  0  0  0  0  0  0  0
  151.3935  142.5612  158.3668 C   0  0  1  0  0  0  0  0  0  0  0  0
  150.1496  142.5736  159.0442 O   0  0  0  0  0  0  0  0  0  0  0  0
  151.1630  142.4570  156.8291 C   0  0  0  0  0  0  0  0  0  0  0  0
  150.0915  141.5663  156.3978 N   0  0  0  0  0  0  0  0  0  0  0  0
  148.7380  141.7836  156.5148 C   0  0  0  0  0  0  0  0  0  0  0  0
  147.9779  140.8379  156.0371 N   0  0  0  0  0  0  0  0  0  0  0  0
  148.8670  139.9136  155.4999 C   0  0  0  0  0  0  0  0  0  0  0  0
  148.7314  138.6663  154.8169 C   0  0  0  0  0  0  0  0  0  0  0  0
  147.5545  138.0552  154.5140 N   0  0  0  0  0  0  0  0  0  0  0  0
  147.3002  136.6787  154.9015 C   0  0  0  0  0  0  0  0  0  0  0  0
  145.8038  136.6293  155.1777 C   0  0  0  0  0  0  0  0  0  0  0  0
  145.2057  137.6717  154.2186 C   0  0  1  0  0  0  0  0  0  0  0  0
  143.8720  138.1660  154.6874 N   0  3  2  0  0  0  0  0  0  0  0  0
  143.9945  138.9637  155.9359 C   0  0  0  0  0  0  0  0  0  0  0  0
  142.8196  137.1139  154.7913 C   0  0  0  0  0  0  0  0  0  0  0  0
  141.7607  137.1703  153.6737 C   0  0  0  0  0  0  0  0  0  0  0  0
  141.3542  138.5048  153.4541 O   0  0  0  0  0  0  0  0  0  0  0  0
  146.3268  138.7421  154.1230 C   0  0  2  0  0  0  0  0  0  0  0  0
  146.4754  139.3234  152.6992 C   0  0  0  0  0  0  0  0  0  0  0  0
  149.8764  138.0432  154.4330 N   0  0  0  0  0  0  0  0  0  0  0  0
  151.0678  138.5920  154.6824 C   0  0  0  0  0  0  0  0  0  0  0  0
  151.3420  139.7394  155.3024 N   0  0  0  0  0  0  0  0  0  0  0  0
  150.2024  140.3683  155.7092 C   0  0  0  0  0  0  0  0  0  0  0  0
  145.0839  137.2039  153.2397 H   0  0  0  0  0  0  0  0  0  0  0  0
  146.1326  139.5277  154.8520 H   0  0  0  0  0  0  0  0  0  0  0  0
  151.7886  145.4405  157.6319 H   0  0  0  0  0  0  0  0  0  0  0  0
  153.1802  144.4852  157.0852 H   0  0  0  0  0  0  0  0  0  0  0  0
  153.3240  145.5690  158.4585 H   0  0  0  0  0  0  0  0  0  0  0  0
  151.7288  144.2075  159.7671 H   0  0  0  0  0  0  0  0  0  0  0  0
  153.9391  141.2627  160.1505 H   0  0  0  0  0  0  0  0  0  0  0  0
  152.5153  142.0038  160.9032 H   0  0  0  0  0  0  0  0  0  0  0  0
  152.8067  140.9471  158.0715 H   0  0  0  0  0  0  0  0  0  0  0  0
  151.5340  140.5183  159.2042 H   0  0  0  0  0  0  0  0  0  0  0  0
  150.2835  142.9171  159.9145 H   0  0  0  0  0  0  0  0  0  0  0  0
  150.9948  143.4446  156.3988 H   0  0  0  0  0  0  0  0  0  0  0  0
  152.0771  142.0906  156.3593 H   0  0  0  0  0  0  0  0  0  0  0  0
  148.3241  142.6697  156.9732 H   0  0  0  0  0  0  0  0  0  0  0  0
  147.5669  136.0218  154.0729 H   0  0  0  0  0  0  0  0  0  0  0  0
  147.8701  136.3743  155.7803 H   0  0  0  0  0  0  0  0  0  0  0  0
  145.4010  135.6262  155.0358 H   0  0  0  0  0  0  0  0  0  0  0  0
  145.6203  136.9237  156.2122 H   0  0  0  0  0  0  0  0  0  0  0  0
  144.2635  138.3269  156.7796 H   0  0  0  0  0  0  0  0  0  0  0  0
  143.0679  139.4811  156.1782 H   0  0  0  0  0  0  0  0  0  0  0  0
  144.7506  139.7427  155.8497 H   0  0  0  0  0  0  0  0  0  0  0  0
  143.2679  136.1245  154.7305 H   0  0  0  0  0  0  0  0  0  0  0  0
  142.3356  137.1835  155.7665 H   0  0  0  0  0  0  0  0  0  0  0  0
  142.1931  136.7928  152.7467 H   0  0  0  0  0  0  0  0  0  0  0  0
  140.8953  136.5423  153.8808 H   0  0  0  0  0  0  0  0  0  0  0  0
  142.0960  138.9985  153.1373 H   0  0  0  0  0  0  0  0  0  0  0  0
  145.5695  139.8151  152.3507 H   0  0  0  0  0  0  0  0  0  0  0  0
  146.7113  138.5375  151.9810 H   0  0  0  0  0  0  0  0  0  0  0  0
  147.2776  140.0584  152.6433 H   0  0  0  0  0  0  0  0  0  0  0  0
  151.9234  138.0315  154.3352 H   0  0  0  0  0  0  0  0  0  0  0  0
  143.5478  138.8005  153.9712 H   0  0  0  0  0  0  0  0  0  0  0  0
  1  2  1  0  0  0  0
  1 31  1  0  0  0  0
  1 32  1  0  0  0  0
  1 33  1  0  0  0  0
  2  6  1  0  0  0  0
  2  3  1  0  0  0  0
  2 34  1  0  0  0  0
  3  4  1  0  0  0  0
  4  5  1  0  0  0  0
  4 35  1  0  0  0  0
  4 36  1  0  0  0  0
  5  6  1  0  0  0  0
  5 37  1  0  0  0  0
  5 38  1  0  0  0  0
  6  7  1  0  0  0  0
  6  8  1  0  0  0  0
  7 39  1  0  0  0  0
  8  9  1  0  0  0  0
  8 40  1  0  0  0  0
  8 41  1  0  0  0  0
  9 28  1  0  0  0  0
  9 10  1  0  0  0  0
 10 11  2  0  0  0  0
 10 42  1  0  0  0  0
 11 12  1  0  0  0  0
 12 28  2  0  0  0  0
 12 13  1  0  0  0  0
 13 14  1  0  0  0  0
 13 25  2  0  0  0  0
 14 23  1  0  0  0  0
 14 15  1  0  0  0  0
 15 16  1  0  0  0  0
 15 43  1  0  0  0  0
 15 44  1  0  0  0  0
 16 17  1  0  0  0  0
 16 45  1  0  0  0  0
 16 46  1  0  0  0  0
 17 29  1  0  0  0  0
 17 18  1  0  0  0  0
 17 23  1  0  0  0  0
 18 19  1  0  0  0  0
 18 20  1  0  0  0  0
 18 59  1  0  0  0  0
 19 47  1  0  0  0  0
 19 48  1  0  0  0  0
 19 49  1  0  0  0  0
 20 21  1  0  0  0  0
 20 50  1  0  0  0  0
 20 51  1  0  0  0  0
 21 22  1  0  0  0  0
 21 52  1  0  0  0  0
 21 53  1  0  0  0  0
 22 54  1  0  0  0  0
 23 30  1  0  0  0  0
 23 24  1  0  0  0  0
 24 55  1  0  0  0  0
 24 56  1  0  0  0  0
 24 57  1  0  0  0  0
 25 26  1  0  0  0  0
 26 27  2  0  0  0  0
 26 58  1  0  0  0  0
 27 28  1  0  0  0  0
M  CHG  1  18   1
M  END
> <s_m_source_file>
AV-unprocessed.smi

> <i_m_source_file_index>
290

> <i_lp_mmshare_version>
43012

> <i_f3d_flags>
0

> <s_epik_input>
W0NIMl0xW0NIMl1PW0NAQEhdKFtDSDNdKVtDQEBdMShbT0hdKVtDSDJdbihbY0hdbjIpYyhjMjMpbltjSF1uYzNONFtDSDJdW0NIMl1bQ0BIXShbQ0BIXTRbQ0gzXSlOKFtDSDNdKVtDSDJdW0NIMl1bT0hd

> <s_epik_cmdline>
J2VwaWtfcHl0aG9uJywgJy1waCcsICc3LjAnLCAnLXRuJywgJzgnLCAnLW1hJywgJzIwMCcsICctbWV0YWxfYmluZGluZycsICctaW1hZScsICc8aW5maWxlLm1hZT4nLCAnLW9tYWUnLCAnPG91dGZpbGUubWFlPic=

> <r_lp_tautomer_probability>
1

> <r_epik_Ionization_Penalty>
0.0036983

> <r_epik_Ionization_Penalty_Charging>
0.0032725

> <r_epik_Ionization_Penalty_Neutral>
0.000425798

> <r_epik_State_Penalty>
-0

> <r_epik_Charging_Adjusted_Penalty>
0.0032725

> <i_epik_Tot_Q>
1

> <i_epik_Tot_abs_Q>
1

> <r_epik_Metal_State_Penalty>
-0

> <b_epik_Metal_Only>
0

> <s_lp_Force_Field>
OPLS_2005

> <r_lp_Energy>
66.2506

> <b_lp_Chiralities_Consistent>
1

> <s_lp_Variant>
AV-unprocessed.smi:290-25

> <Gold.Version>
5.8.1

> <Gold.Id.Protein>
6NUR|6NUR_protein|mol2

> <Gold.PLP.Fitness>
50.9408

> <Gold.PLP.PLP>
-42.2206

> <Gold.PLP.part.hbond>
-4.5686

> <Gold.PLP.part.metal>
0.0000

> <Gold.PLP.part.buried>
-5.6341

> <Gold.PLP.part.nonpolar>
-33.3471

> <Gold.PLP.part.repulsive>
0.3106

> <Gold.PLP.ligand.clash>
0.0000

> <Gold.PLP.ligand.torsion>
1.8820

> <Gold.PLP.Chemscore.Hbond>
3.3686

> <Gold.PLP.Chemscore.CHOScore>
0.7285

> <Gold.PLP.Chemscore.Metal>
0.0000

> <Gold.Chemscore.Hbonds>
donor molecule, donor type, donor heavy atom, donor atom, acceptor molecule, acceptor atom, score
      L1  H    18    59       P1 10175  1.07
      L1  H    22    54       P1 10175  0.62
      P1  H  7989  7998       L1    27  0.46
      L1  C    10    42       P1  8028  0.64

> <Gold.PLP.Chemscore.Internal.Correction>
0.1929

> <Gold.Rescore>
     Score         DG    S(hbond)    S(metal)    S(lipo)     H(rot)  DE(clash)    DE(int)     intcor
     11.92     -13.98       1.98        0.00      89.37       3.35       0.61       1.44       ----

> <Gold.Chemscore.Fitness>
11.9194

> <Gold.Chemscore.DG>
-13.9750

> <Gold.Chemscore.ZeroCoef>
-5.4800

> <Gold.Chemscore.Hbond>
1.9819

> <Gold.Chemscore.Metal>
0.0000

> <Gold.Chemscore.Lipo>
89.3680

> <Gold.Chemscore.Internal_Hbond>
0.0000

> <Gold.Chemscore.DEClash>
0.6144

> <Gold.Chemscore.DEInternal>
1.4412

> <Gold.Chemscore.Rot>
3.3518

> <Gold.Chemscore.Internal.Correction>
   9.000000E+99

> <Gold.Chemscore.Hbonds>
donor molecule, donor type, donor heavy atom, donor atom, acceptor molecule, acceptor atom, score
      L1  H    18    59       P1 10175  0.52
      L1  H    22    54       P1 10175  0.62
      P1  H  7989  7998       L1    27  0.01

> <Gold.Chemscore.Hbond.Weighted>
-6.6195

> <Gold.Chemscore.Metal.Weighted>
-0.0000

> <Gold.Chemscore.Lipo.Weighted>
-10.4561

> <Gold.Chemscore.Internal_Hbond.Weighted>
0.0000

> <Gold.Chemscore.DEClash.Weighted>
0.6144

> <Gold.Chemscore.DEInternal.Weighted>
1.4412

> <Gold.Chemscore.Rot.Weighted>
8.5806

> <Gold.Chemscore.Internal.Correction.Weighted>
   9.000000E+99

> <Gold.Protein.RotatedTorsions>
[ 6907 6896 6895 6894 ] final  177.24 input  -60.11 | X-H torsion
[ 7974 7965 7964 7962 ] final   21.18 input  175.53 | X-H torsion
[ 8008 7997 7996 7995 ] final  -88.03 input   59.86 | X-H torsion
[ 10167 10162 10161 10158 ] final  103.16 input  -65.29 | X-H torsion
[ 10718 10713 10712 10709 ] final   93.47 input   66.30 | X-H torsion
[ 10763 10752 10751 10750 ] final -100.69 input  -60.55 | X-H torsion
[ 11005 11000 10999 10996 ] final  164.77 input  -57.11 | X-H torsion

> <Gold.Protein.ActiveResidues>
 VAL166  LYS551  ARG553  GLY616  TRP617  ASP618  TYR619  PRO620  LYS621  CYS622 
 ASP623  PHE694  ASN695  SER759  ASP760  ASP761  ALA762  ILE779  LEU786  VAL792 
 PHE793  MET794  SER795  GLU796  ALA797  LYS798  CYS799  TRP800  GLU811  SER814 

> <Gold.Protein.RotatedAtoms>
  151.7072  133.3312  159.3281 H   0  0  0  0  0  0  0  0  0  0  0  0  # atno 6907 bound_to 6896
  150.7709  134.6563  159.6325 H   0  0  0  0  0  0  0  0  0  0  0  0  # atno 6908 bound_to 6896
  152.3733  134.6704  160.0220 H   0  0  0  0  0  0  0  0  0  0  0  0  # atno 6909 bound_to 6896
  146.2082  139.8064  142.8710 H   0  0  0  0  0  0  0  0  0  0  0  0  # atno 7974 bound_to 7965
  154.6701  140.0558  157.0156 H   0  0  0  0  0  0  0  0  0  0  0  0  # atno 8008 bound_to 7997
  155.1101  140.3237  155.4505 H   0  0  0  0  0  0  0  0  0  0  0  0  # atno 8009 bound_to 7997
  156.2654  140.2016  156.6226 H   0  0  0  0  0  0  0  0  0  0  0  0  # atno 8010 bound_to 7997
  139.7287  144.7041  151.0757 H   0  0  0  0  0  0  0  0  0  0  0  0  # atno 10167 bound_to 10162
  157.6954  131.0479  150.4038 H   0  0  0  0  0  0  0  0  0  0  0  0  # atno 10718 bound_to 10713
  154.7599  135.4926  153.9444 H   0  0  0  0  0  0  0  0  0  0  0  0  # atno 10763 bound_to 10752
  153.1239  135.6738  153.9298 H   0  0  0  0  0  0  0  0  0  0  0  0  # atno 10764 bound_to 10752
  153.9021  135.3108  155.3427 H   0  0  0  0  0  0  0  0  0  0  0  0  # atno 10765 bound_to 10752
  140.2493  134.7990  157.3486 H   0  0  0  0  0  0  0  0  0  0  0  0  # atno 11005 bound_to 11000
  145.3242  141.0251  143.3483 LP  0  0  0  0  0  0  0  0  0  0  0  0  # atno 17320 bound_to 7965
  144.8845  139.4859  143.6707 LP  0  0  0  0  0  0  0  0  0  0  0  0  # atno 17321 bound_to 7965
  140.7767  143.5072  150.9698 LP  0  0  0  0  0  0  0  0  0  0  0  0  # atno 17342 bound_to 10162
  139.8759  143.7133  152.3162 LP  0  0  0  0  0  0  0  0  0  0  0  0  # atno 17343 bound_to 10162
  156.4429  130.3995  149.6685 LP  0  0  0  0  0  0  0  0  0  0  0  0  # atno 17370 bound_to 10713
  156.3862  130.7604  151.2601 LP  0  0  0  0  0  0  0  0  0  0  0  0  # atno 17371 bound_to 10713
  140.1574  134.4772  155.7918 LP  0  0  0  0  0  0  0  0  0  0  0  0  # atno 17394 bound_to 11000
  141.2203  133.6887  156.7485 LP  0  0  0  0  0  0  0  0  0  0  0  0  # atno 17395 bound_to 11000

$$$$
