AV-unprocessed.smi:3030|AV-procd|sdf|11535|dock1
  -GOLD-   2272016483D 1   1.00000     0.00000
 Structure written by MMmdl.
 52 53  0  0  0  0  0  0  0  0  1 V2000
  143.2890  136.4575  152.5426 C   0  0  0  0  0  0  0  0  0  0  0  0
  142.2923  136.2311  153.6847 C   0  0  0  0  0  0  0  0  0  0  0  0
  141.2110  137.2052  153.6572 N   0  0  0  0  0  0  0  0  0  0  0  0
  139.8786  136.8059  153.6315 C   0  0  0  0  0  0  0  0  0  0  0  0
  138.8349  137.6576  153.6402 C   0  0  0  0  0  0  0  0  0  0  0  0
  139.0884  139.1122  153.6843 C   0  0  0  0  0  0  0  0  0  0  0  0
  138.1594  139.9199  153.6801 O   0  0  0  0  0  0  0  0  0  0  0  0
  140.5119  139.5376  153.7336 C   0  0  0  0  0  0  0  0  0  0  0  0
  140.7519  140.9201  153.7666 N   0  0  0  0  0  0  0  0  0  0  0  0
  140.1984  141.8540  154.5608 C   0  0  0  0  0  0  0  0  0  0  0  0
  139.3075  141.6575  155.3870 O   0  0  0  0  0  0  0  0  0  0  0  0
  140.7433  143.0572  154.3289 N   0  0  0  0  0  0  0  0  0  0  0  0
  140.3774  144.3139  154.9827 C   0  0  2  0  0  0  0  0  0  0  0  0
  138.9181  144.6379  154.6032 C   0  0  0  0  0  0  0  0  0  0  0  0
  138.4448  145.9812  155.1842 C   0  0  2  0  0  0  0  0  0  0  0  0
  136.9910  146.2826  154.7934 C   0  0  0  0  0  0  0  0  0  0  0  0
  139.3904  147.1077  154.7391 C   0  0  0  0  0  0  0  0  0  0  0  0
  140.8401  146.8103  155.1472 C   0  0  0  0  0  0  0  0  0  0  0  0
  141.3419  145.4637  154.5724 C   0  0  1  0  0  0  0  0  0  0  0  0
  142.8405  145.1844  154.8969 C   0  0  0  0  0  0  0  0  0  0  0  0
  143.0916  144.6915  156.3344 C   0  0  0  0  0  0  0  0  0  0  0  0
  143.7449  146.3852  154.5706 C   0  0  0  0  0  0  0  0  0  0  0  0
  141.4670  138.5737  153.7125 C   0  0  0  0  0  0  0  0  0  0  0  0
  144.0929  135.7222  152.5786 H   0  0  0  0  0  0  0  0  0  0  0  0
  143.7401  137.4484  152.6040 H   0  0  0  0  0  0  0  0  0  0  0  0
  142.8015  136.3702  151.5711 H   0  0  0  0  0  0  0  0  0  0  0  0
  141.8773  135.2247  153.6194 H   0  0  0  0  0  0  0  0  0  0  0  0
  142.8083  136.2871  154.6439 H   0  0  0  0  0  0  0  0  0  0  0  0
  139.7350  135.7356  153.5966 H   0  0  0  0  0  0  0  0  0  0  0  0
  137.8156  137.3012  153.6158 H   0  0  0  0  0  0  0  0  0  0  0  0
  141.4169  141.2472  153.0810 H   0  0  0  0  0  0  0  0  0  0  0  0
  141.4705  143.1132  153.6309 H   0  0  0  0  0  0  0  0  0  0  0  0
  140.4099  144.1977  156.0668 H   0  0  0  0  0  0  0  0  0  0  0  0
  138.8186  144.6600  153.5166 H   0  0  0  0  0  0  0  0  0  0  0  0
  138.2640  143.8383  154.9540 H   0  0  0  0  0  0  0  0  0  0  0  0
  138.4863  145.9135  156.2724 H   0  0  0  0  0  0  0  0  0  0  0  0
  136.8783  146.3555  153.7113 H   0  0  0  0  0  0  0  0  0  0  0  0
  136.6545  147.2248  155.2272 H   0  0  0  0  0  0  0  0  0  0  0  0
  136.3189  145.5001  155.1463 H   0  0  0  0  0  0  0  0  0  0  0  0
  139.3332  147.2364  153.6573 H   0  0  0  0  0  0  0  0  0  0  0  0
  139.0753  148.0543  155.1792 H   0  0  0  0  0  0  0  0  0  0  0  0
  141.4711  147.6314  154.8090 H   0  0  0  0  0  0  0  0  0  0  0  0
  140.9022  146.8016  156.2355 H   0  0  0  0  0  0  0  0  0  0  0  0
  141.2741  145.5452  153.4859 H   0  0  0  0  0  0  0  0  0  0  0  0
  143.1794  144.3900  154.2327 H   0  0  0  0  0  0  0  0  0  0  0  0
  142.8461  145.4537  157.0736 H   0  0  0  0  0  0  0  0  0  0  0  0
  144.1410  144.4315  156.4756 H   0  0  0  0  0  0  0  0  0  0  0  0
  142.5093  143.8008  156.5661 H   0  0  0  0  0  0  0  0  0  0  0  0
  143.5628  147.2268  155.2386 H   0  0  0  0  0  0  0  0  0  0  0  0
  143.5922  146.7285  153.5471 H   0  0  0  0  0  0  0  0  0  0  0  0
  144.7970  146.1160  154.6691 H   0  0  0  0  0  0  0  0  0  0  0  0
  142.5225  138.7974  153.7118 H   0  0  0  0  0  0  0  0  0  0  0  0
  1  2  1  0  0  0  0
  1 24  1  0  0  0  0
  1 25  1  0  0  0  0
  1 26  1  0  0  0  0
  2  3  1  0  0  0  0
  2 27  1  0  0  0  0
  2 28  1  0  0  0  0
  3 23  1  0  0  0  0
  3  4  1  0  0  0  0
  4  5  2  0  0  0  0
  4 29  1  0  0  0  0
  5  6  1  0  0  0  0
  5 30  1  0  0  0  0
  6  7  2  0  0  0  0
  6  8  1  0  0  0  0
  8  9  1  0  0  0  0
  8 23  2  0  0  0  0
  9 10  1  0  0  0  0
  9 31  1  0  0  0  0
 10 11  2  0  0  0  0
 10 12  1  0  0  0  0
 12 13  1  0  0  0  0
 12 32  1  0  0  0  0
 13 19  1  0  0  0  0
 13 14  1  0  0  0  0
 13 33  1  0  0  0  0
 14 15  1  0  0  0  0
 14 34  1  0  0  0  0
 14 35  1  0  0  0  0
 15 16  1  0  0  0  0
 15 17  1  0  0  0  0
 15 36  1  0  0  0  0
 16 37  1  0  0  0  0
 16 38  1  0  0  0  0
 16 39  1  0  0  0  0
 17 18  1  0  0  0  0
 17 40  1  0  0  0  0
 17 41  1  0  0  0  0
 18 19  1  0  0  0  0
 18 42  1  0  0  0  0
 18 43  1  0  0  0  0
 19 20  1  0  0  0  0
 19 44  1  0  0  0  0
 20 21  1  0  0  0  0
 20 22  1  0  0  0  0
 20 45  1  0  0  0  0
 21 46  1  0  0  0  0
 21 47  1  0  0  0  0
 21 48  1  0  0  0  0
 22 49  1  0  0  0  0
 22 50  1  0  0  0  0
 22 51  1  0  0  0  0
 23 52  1  0  0  0  0
M  END
> <s_m_source_file>
AV-unprocessed.smi

> <i_m_source_file_index>
3030

> <i_lp_mmshare_version>
43012

> <i_f3d_flags>
0

> <s_epik_input>
W0NIM11bQ0gyXW4xW2NIXVtjSF1jKD1PKWMoW2NIXTEpW05IXUMoPU8pW05IXVtDQEBIXTJbQ0gyXVtDQEBIXShbQ0gzXSlbQ0gyXVtDSDJdW0NASF0yW0NIXShbQ0gzXSlbQ0gzXQ==

> <s_epik_cmdline>
J2VwaWtfcHl0aG9uJywgJy1waCcsICc3LjAnLCAnLXRuJywgJzgnLCAnLW1hJywgJzIwMCcsICctbWV0YWxfYmluZGluZycsICctaW1hZScsICc8aW5maWxlLm1hZT4nLCAnLW9tYWUnLCAnPG91dGZpbGUubWFlPic=

> <r_lp_tautomer_probability>
1

> <r_epik_Ionization_Penalty>
0.00147933

> <r_epik_Ionization_Penalty_Charging>
0.00145753

> <r_epik_Ionization_Penalty_Neutral>
2.17987e-05

> <r_epik_State_Penalty>
0.00097457

> <r_epik_Charging_Adjusted_Penalty>
0.0024321

> <i_epik_Tot_Q>
0

> <i_epik_Tot_abs_Q>
0

> <r_epik_Metal_State_Penalty>
-0

> <b_epik_Metal_Only>
0

> <s_lp_Force_Field>
OPLS_2005

> <r_lp_Energy>
10.2365

> <b_lp_Chiralities_Consistent>
1

> <s_lp_Variant>
AV-unprocessed.smi:3030-3

> <Gold.Version>
5.8.1

> <Gold.Id.Protein>
6NUR|6NUR_protein|mol2

> <Gold.PLP.Fitness>
42.9046

> <Gold.PLP.PLP>
-35.7619

> <Gold.PLP.part.hbond>
-4.0547

> <Gold.PLP.part.metal>
0.0000

> <Gold.PLP.part.buried>
-2.8117

> <Gold.PLP.part.nonpolar>
-28.1200

> <Gold.PLP.part.repulsive>
0.1227

> <Gold.PLP.ligand.clash>
0.0000

> <Gold.PLP.ligand.torsion>
0.6103

> <Gold.PLP.Chemscore.Hbond>
1.4913

> <Gold.PLP.Chemscore.CHOScore>
1.2363

> <Gold.PLP.Chemscore.Metal>
0.0000

> <Gold.Chemscore.Hbonds>
donor molecule, donor type, donor heavy atom, donor atom, acceptor molecule, acceptor atom, score
      L1  H     9    31       P1 10174  0.50
      L1  H    12    32       P1 10174  1.00
      L1  C    23    52       P1 10175  0.94

> <Gold.PLP.Chemscore.Internal.Correction>
0.1806

> <Gold.Rescore>
     Score         DG    S(hbond)    S(metal)    S(lipo)     H(rot)  DE(clash)    DE(int)     intcor
     12.08     -17.35       1.23        0.00      94.17       1.27       0.98       4.29       ----

> <Gold.Chemscore.Fitness>
12.0833

> <Gold.Chemscore.DG>
-17.3540

> <Gold.Chemscore.ZeroCoef>
-5.4800

> <Gold.Chemscore.Hbond>
1.2287

> <Gold.Chemscore.Metal>
0.0000

> <Gold.Chemscore.Lipo>
94.1669

> <Gold.Chemscore.Internal_Hbond>
0.0000

> <Gold.Chemscore.DEClash>
0.9842

> <Gold.Chemscore.DEInternal>
4.2865

> <Gold.Chemscore.Rot>
1.2685

> <Gold.Chemscore.Internal.Correction>
   9.000000E+99

> <Gold.Chemscore.Hbonds>
donor molecule, donor type, donor heavy atom, donor atom, acceptor molecule, acceptor atom, score
      L1  H     9    31       P1 10174  0.02
      L1  H    12    32       P1 10174  0.96

> <Gold.Chemscore.Hbond.Weighted>
-4.1040

> <Gold.Chemscore.Metal.Weighted>
-0.0000

> <Gold.Chemscore.Lipo.Weighted>
-11.0175

> <Gold.Chemscore.Internal_Hbond.Weighted>
0.0000

> <Gold.Chemscore.DEClash.Weighted>
0.9842

> <Gold.Chemscore.DEInternal.Weighted>
4.2865

> <Gold.Chemscore.Rot.Weighted>
3.2474

> <Gold.Chemscore.Internal.Correction.Weighted>
   9.000000E+99

> <Gold.Protein.RotatedTorsions>
[ 6907 6896 6895 6894 ] final   85.26 input  -60.11 | X-H torsion
[ 7974 7965 7964 7962 ] final  -10.17 input  175.53 | X-H torsion
[ 8008 7997 7996 7995 ] final  -58.94 input   59.86 | X-H torsion
[ 10167 10162 10161 10158 ] final  -41.97 input  -65.29 | X-H torsion
[ 10718 10713 10712 10709 ] final   85.46 input   66.30 | X-H torsion
[ 10763 10752 10751 10750 ] final   40.52 input  -60.55 | X-H torsion
[ 11005 11000 10999 10996 ] final   42.50 input  -57.11 | X-H torsion

> <Gold.Protein.ActiveResidues>
 VAL166  LYS551  ARG553  GLY616  TRP617  ASP618  TYR619  PRO620  LYS621  CYS622 
 ASP623  PHE694  ASN695  SER759  ASP760  ASP761  ALA762  ILE779  LEU786  VAL792 
 PHE793  MET794  SER795  GLU796  ALA797  LYS798  CYS799  TRP800  GLU811  SER814 

> <Gold.Protein.RotatedAtoms>
  152.5371  134.2614  159.8936 H   0  0  0  0  0  0  0  0  0  0  0  0  # atno 6907 bound_to 6896
  151.2574  133.4312  159.2622 H   0  0  0  0  0  0  0  0  0  0  0  0  # atno 6908 bound_to 6896
  151.0484  134.9670  159.8255 H   0  0  0  0  0  0  0  0  0  0  0  0  # atno 6909 bound_to 6896
  146.2229  140.2724  142.8357 H   0  0  0  0  0  0  0  0  0  0  0  0  # atno 7974 bound_to 7965
  154.4330  140.1073  156.6036 H   0  0  0  0  0  0  0  0  0  0  0  0  # atno 8008 bound_to 7997
  155.5884  140.3492  155.4541 H   0  0  0  0  0  0  0  0  0  0  0  0  # atno 8009 bound_to 7997
  156.0265  140.1251  157.0292 H   0  0  0  0  0  0  0  0  0  0  0  0  # atno 8010 bound_to 7997
  140.6985  143.3064  151.3142 H   0  0  0  0  0  0  0  0  0  0  0  0  # atno 10167 bound_to 10162
  157.6915  131.0176  150.2826 H   0  0  0  0  0  0  0  0  0  0  0  0  # atno 10718 bound_to 10713
  152.9934  135.6189  154.2639 H   0  0  0  0  0  0  0  0  0  0  0  0  # atno 10763 bound_to 10752
  154.2374  135.2790  155.2869 H   0  0  0  0  0  0  0  0  0  0  0  0  # atno 10764 bound_to 10752
  154.5398  135.5764  153.6887 H   0  0  0  0  0  0  0  0  0  0  0  0  # atno 10765 bound_to 10752
  140.1733  134.4195  155.8244 H   0  0  0  0  0  0  0  0  0  0  0  0  # atno 11005 bound_to 11000
  144.9258  140.7919  143.5720 LP  0  0  0  0  0  0  0  0  0  0  0  0  # atno 17320 bound_to 7965
  145.2664  139.1972  143.4865 LP  0  0  0  0  0  0  0  0  0  0  0  0  # atno 17321 bound_to 7965
  139.6471  144.0430  152.2599 LP  0  0  0  0  0  0  0  0  0  0  0  0  # atno 17342 bound_to 10162
  139.9955  144.6331  150.7776 LP  0  0  0  0  0  0  0  0  0  0  0  0  # atno 17343 bound_to 10162
  156.3370  130.3809  149.7441 LP  0  0  0  0  0  0  0  0  0  0  0  0  # atno 17370 bound_to 10713
  156.4963  130.8108  151.3114 LP  0  0  0  0  0  0  0  0  0  0  0  0  # atno 17371 bound_to 10713
  141.2219  133.6966  156.7802 LP  0  0  0  0  0  0  0  0  0  0  0  0  # atno 17394 bound_to 11000
  140.2352  134.8656  157.3517 LP  0  0  0  0  0  0  0  0  0  0  0  0  # atno 17395 bound_to 11000

$$$$
