AV-unprocessed.smi:3255|AV-procd|sdf|12460|dock6
  -GOLD-   2272018353D 1   1.00000     0.00000
 Structure written by MMmdl.
 39 40  0  0  0  0  0  0  0  0  2 V2000
  142.4819  137.3025  156.0469 C   0  0  0  0  0  0  0  0  0  0  0  0
  141.9864  138.0805  154.8151 C   0  0  1  0  0  0  0  0  0  0  0  0
  143.0312  138.1049  153.7948 N   0  0  0  0  0  0  0  0  0  0  0  0
  143.5497  137.0268  153.1916 C   0  0  0  0  0  0  0  0  0  0  0  0
  143.1859  135.8704  153.4074 O   0  0  0  0  0  0  0  0  0  0  0  0
  144.5172  137.3578  152.3252 N   0  0  0  0  0  0  0  0  0  0  0  0
  145.2691  136.4053  151.5178 C   0  0  0  0  0  0  0  0  0  0  0  0
  144.3385  135.4072  150.8084 C   0  0  0  0  0  0  0  0  0  0  0  0
  145.0088  134.1328  150.5496 N   0  0  0  0  0  0  0  0  0  0  0  0
  144.4661  133.0128  149.9746 C   0  0  0  0  0  0  0  0  0  0  0  0
  145.4642  132.0736  149.9321 C   0  0  0  0  0  0  0  0  0  0  0  0
  146.5729  132.6607  150.4814 N   0  3  0  0  0  0  0  0  0  0  0  0
  146.2934  133.9134  150.8567 C   0  0  0  0  0  0  0  0  0  0  0  0
  140.7098  137.4650  154.2118 C   0  0  1  0  0  0  0  0  0  0  0  0
  139.5125  137.4087  155.1628 C   0  0  0  0  0  0  0  0  0  0  0  0
  138.3076  137.4401  154.2343 C   0  0  0  0  0  0  0  0  0  0  0  0
  138.8907  137.8393  152.8767 C   0  0  0  0  0  0  0  0  0  0  0  0
  140.2108  138.2783  153.1605 O   0  0  0  0  0  0  0  0  0  0  0  0
  141.7335  137.2949  156.8393 H   0  0  0  0  0  0  0  0  0  0  0  0
  143.3846  137.7523  156.4615 H   0  0  0  0  0  0  0  0  0  0  0  0
  142.7115  136.2665  155.7957 H   0  0  0  0  0  0  0  0  0  0  0  0
  141.7610  139.1052  155.1169 H   0  0  0  0  0  0  0  0  0  0  0  0
  143.4015  139.0116  153.5501 H   0  0  0  0  0  0  0  0  0  0  0  0
  144.7473  138.3350  152.2167 H   0  0  0  0  0  0  0  0  0  0  0  0
  145.8831  136.9401  150.7908 H   0  0  0  0  0  0  0  0  0  0  0  0
  145.9579  135.8724  152.1739 H   0  0  0  0  0  0  0  0  0  0  0  0
  143.4470  135.2120  151.4063 H   0  0  0  0  0  0  0  0  0  0  0  0
  144.0011  135.8015  149.8489 H   0  0  0  0  0  0  0  0  0  0  0  0
  143.4372  132.9696  149.6469 H   0  0  0  0  0  0  0  0  0  0  0  0
  145.4683  131.0590  149.5612 H   0  0  0  0  0  0  0  0  0  0  0  0
  146.9725  134.6101  151.3155 H   0  0  0  0  0  0  0  0  0  0  0  0
  140.9163  136.4681  153.8162 H   0  0  0  0  0  0  0  0  0  0  0  0
  139.5276  136.5274  155.8047 H   0  0  0  0  0  0  0  0  0  0  0  0
  139.4979  138.2907  155.8048 H   0  0  0  0  0  0  0  0  0  0  0  0
  137.8190  136.4670  154.1740 H   0  0  0  0  0  0  0  0  0  0  0  0
  137.5713  138.1650  154.5831 H   0  0  0  0  0  0  0  0  0  0  0  0
  138.9360  136.9769  152.2102 H   0  0  0  0  0  0  0  0  0  0  0  0
  138.3118  138.6206  152.3835 H   0  0  0  0  0  0  0  0  0  0  0  0
  147.4751  132.2143  150.5884 H   0  0  0  0  0  0  0  0  0  0  0  0
  1  2  1  0  0  0  0
  1 19  1  0  0  0  0
  1 20  1  0  0  0  0
  1 21  1  0  0  0  0
  2  3  1  0  0  0  0
  2 14  1  0  0  0  0
  2 22  1  0  0  0  0
  3  4  1  0  0  0  0
  3 23  1  0  0  0  0
  4  5  2  0  0  0  0
  4  6  1  0  0  0  0
  6  7  1  0  0  0  0
  6 24  1  0  0  0  0
  7  8  1  0  0  0  0
  7 25  1  0  0  0  0
  7 26  1  0  0  0  0
  8  9  1  0  0  0  0
  8 27  1  0  0  0  0
  8 28  1  0  0  0  0
  9 13  1  0  0  0  0
  9 10  1  0  0  0  0
 10 11  2  0  0  0  0
 10 29  1  0  0  0  0
 11 12  1  0  0  0  0
 11 30  1  0  0  0  0
 12 13  2  0  0  0  0
 12 39  1  0  0  0  0
 13 31  1  0  0  0  0
 14 18  1  0  0  0  0
 14 15  1  0  0  0  0
 14 32  1  0  0  0  0
 15 16  1  0  0  0  0
 15 33  1  0  0  0  0
 15 34  1  0  0  0  0
 16 17  1  0  0  0  0
 16 35  1  0  0  0  0
 16 36  1  0  0  0  0
 17 18  1  0  0  0  0
 17 37  1  0  0  0  0
 17 38  1  0  0  0  0
M  CHG  1  12   1
M  END
> <s_m_source_file>
AV-unprocessed.smi

> <i_m_source_file_index>
3255

> <i_lp_mmshare_version>
43012

> <i_f3d_flags>
0

> <s_epik_input>
TzFbQ0gyXVtDSDJdW0NIMl1bQ0BIXTFbQ0BIXShbQ0gzXSlbTkhdQyg9TylbTkhdW0NIMl1bQ0gyXW4yW2NIXVtjSF1uW2NIXTI=

> <s_epik_cmdline>
J2VwaWtfcHl0aG9uJywgJy1waCcsICc3LjAnLCAnLXRuJywgJzgnLCAnLW1hJywgJzIwMCcsICctbWV0YWxfYmluZGluZycsICctaW1hZScsICc8aW5maWxlLm1hZT4nLCAnLW9tYWUnLCAnPG91dGZpbGUubWFlPic=

> <r_lp_tautomer_probability>
1

> <r_epik_Ionization_Penalty>
0.256241

> <r_epik_Ionization_Penalty_Charging>
0

> <r_epik_Ionization_Penalty_Neutral>
0.256241

> <r_epik_State_Penalty>
0.247735

> <r_epik_Charging_Adjusted_Penalty>
0.247735

> <i_epik_Tot_Q>
1

> <i_epik_Tot_abs_Q>
1

> <r_epik_Metal_State_Penalty>
0.537184

> <b_epik_Metal_Only>
0

> <s_lp_Force_Field>
OPLS_2005

> <r_lp_Energy>
17.8763

> <b_lp_Chiralities_Consistent>
1

> <s_lp_Variant>
AV-unprocessed.smi:3255-4

> <Gold.Version>
5.8.1

> <Gold.Id.Protein>
6NUR|6NUR_protein|mol2

> <Gold.PLP.Fitness>
41.5870

> <Gold.PLP.PLP>
-32.1027

> <Gold.PLP.part.hbond>
-3.4209

> <Gold.PLP.part.metal>
0.0000

> <Gold.PLP.part.buried>
-5.0839

> <Gold.PLP.part.nonpolar>
-23.1128

> <Gold.PLP.part.repulsive>
0.3989

> <Gold.PLP.ligand.clash>
0.0000

> <Gold.PLP.ligand.torsion>
0.2437

> <Gold.PLP.Chemscore.Hbond>
2.0911

> <Gold.PLP.Chemscore.CHOScore>
1.2093

> <Gold.PLP.Chemscore.Metal>
0.0000

> <Gold.Chemscore.Hbonds>
donor molecule, donor type, donor heavy atom, donor atom, acceptor molecule, acceptor atom, score
      L1  H     3    23       P1 10175  1.00
      L1  H     6    24       P1 10175  0.10
      L1  H    12    39       P1 10747  0.98
      L1  C    10    29       P1 10186  0.25
      L1  C    13    31       P1  7948  0.92

> <Gold.PLP.Chemscore.Internal.Correction>
0.0704

> <Gold.Rescore>
     Score         DG    S(hbond)    S(metal)    S(lipo)     H(rot)  DE(clash)    DE(int)     intcor
     11.92     -14.46       2.15        0.00      65.01       2.26       0.13       2.40       ----

> <Gold.Chemscore.Fitness>
11.9230

> <Gold.Chemscore.DG>
-14.4551

> <Gold.Chemscore.ZeroCoef>
-5.4800

> <Gold.Chemscore.Hbond>
2.1451

> <Gold.Chemscore.Metal>
0.0000

> <Gold.Chemscore.Lipo>
65.0114

> <Gold.Chemscore.Internal_Hbond>
0.0000

> <Gold.Chemscore.DEClash>
0.1276

> <Gold.Chemscore.DEInternal>
2.4044

> <Gold.Chemscore.Rot>
2.2640

> <Gold.Chemscore.Internal.Correction>
   9.000000E+99

> <Gold.Chemscore.Hbonds>
donor molecule, donor type, donor heavy atom, donor atom, acceptor molecule, acceptor atom, score
      L1  H     3    23       P1 10175  0.98
      L1  H     6    24       P1 10175  0.11
      L1  H    12    39       P1 10747  0.90

> <Gold.Chemscore.Hbond.Weighted>
-7.1645

> <Gold.Chemscore.Metal.Weighted>
-0.0000

> <Gold.Chemscore.Lipo.Weighted>
-7.6063

> <Gold.Chemscore.Internal_Hbond.Weighted>
0.0000

> <Gold.Chemscore.DEClash.Weighted>
0.1276

> <Gold.Chemscore.DEInternal.Weighted>
2.4044

> <Gold.Chemscore.Rot.Weighted>
5.7958

> <Gold.Chemscore.Internal.Correction.Weighted>
   9.000000E+99

> <Gold.Protein.RotatedTorsions>
[ 6907 6896 6895 6894 ] final  -85.37 input  -60.11 | X-H torsion
[ 7974 7965 7964 7962 ] final   85.64 input  175.53 | X-H torsion
[ 8008 7997 7996 7995 ] final  133.84 input   59.86 | X-H torsion
[ 10167 10162 10161 10158 ] final  -59.22 input  -65.29 | X-H torsion
[ 10718 10713 10712 10709 ] final  -47.96 input   66.30 | X-H torsion
[ 10763 10752 10751 10750 ] final   98.11 input  -60.55 | X-H torsion
[ 11005 11000 10999 10996 ] final  -52.78 input  -57.11 | X-H torsion

> <Gold.Protein.ActiveResidues>
 VAL166  LYS551  ARG553  GLY616  TRP617  ASP618  TYR619  PRO620  LYS621  CYS622 
 ASP623  PHE694  ASN695  SER759  ASP760  ASP761  ALA762  ILE779  LEU786  VAL792 
 PHE793  MET794  SER795  GLU796  ALA797  LYS798  CYS799  TRP800  GLU811  SER814 

> <Gold.Protein.RotatedAtoms>
  150.6871  134.3216  159.4788 H   0  0  0  0  0  0  0  0  0  0  0  0  # atno 6907 bound_to 6896
  152.1090  134.9285  160.0576 H   0  0  0  0  0  0  0  0  0  0  0  0  # atno 6908 bound_to 6896
  152.0535  133.3995  159.4424 H   0  0  0  0  0  0  0  0  0  0  0  0  # atno 6909 bound_to 6896
  145.5828  139.2327  143.2343 H   0  0  0  0  0  0  0  0  0  0  0  0  # atno 7974 bound_to 7965
  156.2995  140.2511  156.3320 H   0  0  0  0  0  0  0  0  0  0  0  0  # atno 8008 bound_to 7997
  154.9136  140.0402  157.1979 H   0  0  0  0  0  0  0  0  0  0  0  0  # atno 8009 bound_to 7997
  154.8381  140.2886  155.5682 H   0  0  0  0  0  0  0  0  0  0  0  0  # atno 8010 bound_to 7997
  140.6149  143.2399  151.5622 H   0  0  0  0  0  0  0  0  0  0  0  0  # atno 10167 bound_to 10162
  156.2034  130.4157  149.9210 H   0  0  0  0  0  0  0  0  0  0  0  0  # atno 10718 bound_to 10713
  153.2850  135.4160  155.1114 H   0  0  0  0  0  0  0  0  0  0  0  0  # atno 10763 bound_to 10752
  154.8502  135.3504  154.6059 H   0  0  0  0  0  0  0  0  0  0  0  0  # atno 10764 bound_to 10752
  153.6481  135.7054  153.5276 H   0  0  0  0  0  0  0  0  0  0  0  0  # atno 10765 bound_to 10752
  141.0942  133.6627  156.4074 H   0  0  0  0  0  0  0  0  0  0  0  0  # atno 11005 bound_to 11000
  146.1704  140.6655  142.9236 LP  0  0  0  0  0  0  0  0  0  0  0  0  # atno 17320 bound_to 7965
  144.7386  140.4879  143.6885 LP  0  0  0  0  0  0  0  0  0  0  0  0  # atno 17321 bound_to 7965
  139.5390  144.2700  152.1312 LP  0  0  0  0  0  0  0  0  0  0  0  0  # atno 17342 bound_to 10162
  140.1907  144.4755  150.6480 LP  0  0  0  0  0  0  0  0  0  0  0  0  # atno 17343 bound_to 10162
  156.6912  130.8896  151.3588 LP  0  0  0  0  0  0  0  0  0  0  0  0  # atno 17370 bound_to 10713
  157.6998  130.9321  150.0753 LP  0  0  0  0  0  0  0  0  0  0  0  0  # atno 17371 bound_to 10713
  140.5180  134.6331  157.5308 LP  0  0  0  0  0  0  0  0  0  0  0  0  # atno 17394 bound_to 11000
  139.9774  134.7192  155.9923 LP  0  0  0  0  0  0  0  0  0  0  0  0  # atno 17395 bound_to 11000

$$$$
