AV-unprocessed.smi:1851|AV-procd|sdf|7523|dock9
  -GOLD-   22720 9233D 1   1.00000     0.00000
 Structure written by MMmdl.
 39 41  0  0  0  0  0  0  0  0  1 V2000
  154.2694  139.0931  154.3702 O   0  0  0  0  0  0  0  0  0  0  0  0
  153.3446  138.3846  154.7643 C   0  0  0  0  0  0  0  0  0  0  0  0
  152.3016  138.8258  155.4821 N   0  0  0  0  0  0  0  0  0  0  0  0
  152.1038  140.2060  155.9129 C   0  0  0  0  0  0  0  0  0  0  0  0
  150.6969  140.6238  155.5981 C   0  0  0  0  0  0  0  0  0  0  0  0
  150.0698  140.2175  154.4934 N   0  0  0  0  0  0  0  0  0  0  0  0
  148.8303  140.8158  154.6088 C   0  0  0  0  0  0  0  0  0  0  0  0
  147.7055  140.7715  153.7542 C   0  0  0  0  0  0  0  0  0  0  0  0
  146.5264  141.4692  154.0898 C   0  0  0  0  0  0  0  0  0  0  0  0
  146.4555  142.2199  155.2812 C   0  0  0  0  0  0  0  0  0  0  0  0
  147.5657  142.2790  156.1454 C   0  0  0  0  0  0  0  0  0  0  0  0
  148.7402  141.5815  155.8055 C   0  0  0  0  0  0  0  0  0  0  0  0
  149.9794  141.4318  156.4192 N   0  0  0  0  0  0  0  0  0  0  0  0
  150.3855  142.0213  157.6849 C   0  0  0  0  0  0  0  0  0  0  0  0
  151.4683  143.0883  157.4854 C   0  0  0  0  0  0  0  0  0  0  0  0
  151.4611  143.9583  158.6083 O   0  0  0  0  0  0  0  0  0  0  0  0
  152.0623  143.5264  159.7713 C   0  0  0  0  0  0  0  0  0  0  0  0
  152.9641  142.4473  159.6631 C   0  0  0  0  0  0  0  0  0  0  0  0
  153.6224  141.9404  160.8000 C   0  0  0  0  0  0  0  0  0  0  0  0
  153.3840  142.5116  162.0639 C   0  0  0  0  0  0  0  0  0  0  0  0
  154.1885  141.8920  163.4589 Cl  0  0  0  0  0  0  0  0  0  0  0  0
  152.4877  143.5896  162.1866 C   0  0  0  0  0  0  0  0  0  0  0  0
  151.8292  144.0962  161.0490 C   0  0  0  0  0  0  0  0  0  0  0  0
  153.2606  137.3035  154.5750 H   0  0  0  0  0  0  0  0  0  0  0  0
  151.5968  138.1564  155.7554 H   0  0  0  0  0  0  0  0  0  0  0  0
  152.2938  140.3159  156.9822 H   0  0  0  0  0  0  0  0  0  0  0  0
  152.8128  140.8556  155.4003 H   0  0  0  0  0  0  0  0  0  0  0  0
  147.7495  140.1986  152.8398 H   0  0  0  0  0  0  0  0  0  0  0  0
  145.6718  141.4273  153.4304 H   0  0  0  0  0  0  0  0  0  0  0  0
  145.5485  142.7503  155.5314 H   0  0  0  0  0  0  0  0  0  0  0  0
  147.5147  142.8527  157.0587 H   0  0  0  0  0  0  0  0  0  0  0  0
  149.5154  142.4455  158.1856 H   0  0  0  0  0  0  0  0  0  0  0  0
  150.7558  141.2282  158.3353 H   0  0  0  0  0  0  0  0  0  0  0  0
  152.4434  142.6086  157.3856 H   0  0  0  0  0  0  0  0  0  0  0  0
  151.2696  143.6511  156.5719 H   0  0  0  0  0  0  0  0  0  0  0  0
  153.1529  142.0022  158.6972 H   0  0  0  0  0  0  0  0  0  0  0  0
  154.3099  141.1131  160.7006 H   0  0  0  0  0  0  0  0  0  0  0  0
  152.3026  144.0311  163.1549 H   0  0  0  0  0  0  0  0  0  0  0  0
  151.1495  144.9236  161.1841 H   0  0  0  0  0  0  0  0  0  0  0  0
  1  2  2  0  0  0  0
  2  3  1  0  0  0  0
  2 24  1  0  0  0  0
  3  4  1  0  0  0  0
  3 25  1  0  0  0  0
  4  5  1  0  0  0  0
  4 26  1  0  0  0  0
  4 27  1  0  0  0  0
  5 13  1  0  0  0  0
  5  6  2  0  0  0  0
  6  7  1  0  0  0  0
  7 12  2  0  0  0  0
  7  8  1  0  0  0  0
  8  9  2  0  0  0  0
  8 28  1  0  0  0  0
  9 10  1  0  0  0  0
  9 29  1  0  0  0  0
 10 11  2  0  0  0  0
 10 30  1  0  0  0  0
 11 12  1  0  0  0  0
 11 31  1  0  0  0  0
 12 13  1  0  0  0  0
 13 14  1  0  0  0  0
 14 15  1  0  0  0  0
 14 32  1  0  0  0  0
 14 33  1  0  0  0  0
 15 16  1  0  0  0  0
 15 34  1  0  0  0  0
 15 35  1  0  0  0  0
 16 17  1  0  0  0  0
 17 23  1  0  0  0  0
 17 18  2  0  0  0  0
 18 19  1  0  0  0  0
 18 36  1  0  0  0  0
 19 20  2  0  0  0  0
 19 37  1  0  0  0  0
 20 21  1  0  0  0  0
 20 22  1  0  0  0  0
 22 23  2  0  0  0  0
 22 38  1  0  0  0  0
 23 39  1  0  0  0  0
M  END
> <s_m_source_file>
AV-unprocessed.smi

> <i_m_source_file_index>
1851

> <i_lp_mmshare_version>
43012

> <i_f3d_flags>
0

> <s_epik_input>
Tz1bQ0hdW05IXVtDSDJdYyhuMSluKGMoYzEyKVtjSF1bY0hdW2NIXVtjSF0yKVtDSDJdW0NIMl1PYzNbY0hdW2NIXWMoQ2wpW2NIXVtjSF0z

> <s_epik_cmdline>
J2VwaWtfcHl0aG9uJywgJy1waCcsICc3LjAnLCAnLXRuJywgJzgnLCAnLW1hJywgJzIwMCcsICctbWV0YWxfYmluZGluZycsICctaW1hZScsICc8aW5maWxlLm1hZT4nLCAnLW9tYWUnLCAnPG91dGZpbGUubWFlPic=

> <r_lp_tautomer_probability>
1

> <r_epik_Ionization_Penalty>
0.0670201

> <r_epik_Ionization_Penalty_Charging>
0

> <r_epik_Ionization_Penalty_Neutral>
0.0670201

> <r_epik_State_Penalty>
0.0585513

> <r_epik_Charging_Adjusted_Penalty>
0.0585513

> <i_epik_Tot_Q>
0

> <i_epik_Tot_abs_Q>
0

> <r_epik_Metal_State_Penalty>
0.0525581

> <b_epik_Metal_Only>
0

> <s_lp_Force_Field>
OPLS_2005

> <r_lp_Energy>
12.626

> <b_lp_Chiralities_Consistent>
1

> <s_lp_Variant>
AV-unprocessed.smi:1851-1

> <Gold.Version>
5.8.1

> <Gold.Id.Protein>
6NUR|6NUR_protein|mol2

> <Gold.PLP.Fitness>
51.6734

> <Gold.PLP.PLP>
-50.3371

> <Gold.PLP.part.hbond>
-2.0000

> <Gold.PLP.part.metal>
0.0000

> <Gold.PLP.part.buried>
-0.1118

> <Gold.PLP.part.nonpolar>
-47.4661

> <Gold.PLP.part.repulsive>
0.3972

> <Gold.PLP.ligand.clash>
1.1367

> <Gold.PLP.ligand.torsion>
0.8976

> <Gold.PLP.Chemscore.Hbond>
1.4000

> <Gold.PLP.Chemscore.CHOScore>
0.0000

> <Gold.PLP.Chemscore.Metal>
0.0000

> <Gold.Chemscore.Hbonds>
donor molecule, donor type, donor heavy atom, donor atom, acceptor molecule, acceptor atom, score
      P1  H  7989  7998       L1     6  0.35
      P1  H  7997  8010       L1     1  1.00

> <Gold.PLP.Chemscore.Internal.Correction>
0.0683

> <Gold.Rescore>
     Score         DG    S(hbond)    S(metal)    S(lipo)     H(rot)  DE(clash)    DE(int)     intcor
     16.31     -17.86       0.84        0.00     134.75       2.42       0.71       0.85       ----

> <Gold.Chemscore.Fitness>
16.3083

> <Gold.Chemscore.DG>
-17.8627

> <Gold.Chemscore.ZeroCoef>
-5.4800

> <Gold.Chemscore.Hbond>
0.8425

> <Gold.Chemscore.Metal>
0.0000

> <Gold.Chemscore.Lipo>
134.7468

> <Gold.Chemscore.Internal_Hbond>
0.0000

> <Gold.Chemscore.DEClash>
0.7077

> <Gold.Chemscore.DEInternal>
0.8467

> <Gold.Chemscore.Rot>
2.4205

> <Gold.Chemscore.Internal.Correction>
   9.000000E+99

> <Gold.Chemscore.Hbonds>
donor molecule, donor type, donor heavy atom, donor atom, acceptor molecule, acceptor atom, score
      P1  H  7989  7998       L1     6  0.01
      P1  H  7997  8010       L1     1  0.88

> <Gold.Chemscore.Hbond.Weighted>
-2.8139

> <Gold.Chemscore.Metal.Weighted>
-0.0000

> <Gold.Chemscore.Lipo.Weighted>
-15.7654

> <Gold.Chemscore.Internal_Hbond.Weighted>
0.0000

> <Gold.Chemscore.DEClash.Weighted>
0.7077

> <Gold.Chemscore.DEInternal.Weighted>
0.8467

> <Gold.Chemscore.Rot.Weighted>
6.1965

> <Gold.Chemscore.Internal.Correction.Weighted>
   9.000000E+99

> <Gold.Protein.RotatedTorsions>
[ 6907 6896 6895 6894 ] final -101.40 input  -60.11 | X-H torsion
[ 7974 7965 7964 7962 ] final   76.01 input  175.53 | X-H torsion
[ 8008 7997 7996 7995 ] final  137.83 input   59.86 | X-H torsion
[ 10167 10162 10161 10158 ] final   67.49 input  -65.29 | X-H torsion
[ 10718 10713 10712 10709 ] final   80.55 input   66.30 | X-H torsion
[ 10763 10752 10751 10750 ] final  -48.81 input  -60.55 | X-H torsion
[ 11005 11000 10999 10996 ] final  156.37 input  -57.11 | X-H torsion

> <Gold.Protein.ActiveResidues>
 VAL166  LYS551  ARG553  GLY616  TRP617  ASP618  TYR619  PRO620  LYS621  CYS622 
 ASP623  PHE694  ASN695  SER759  ASP760  ASP761  ALA762  ILE779  LEU786  VAL792 
 PHE793  MET794  SER795  GLU796  ALA797  LYS798  CYS799  TRP800  GLU811  SER814 

> <Gold.Protein.RotatedAtoms>
  150.7153  134.0739  159.3873 H   0  0  0  0  0  0  0  0  0  0  0  0  # atno 6907 bound_to 6896
  151.8722  135.0483  160.0490 H   0  0  0  0  0  0  0  0  0  0  0  0  # atno 6908 bound_to 6896
  152.2634  133.5282  159.5432 H   0  0  0  0  0  0  0  0  0  0  0  0  # atno 6909 bound_to 6896
  145.7083  139.2606  143.1665 H   0  0  0  0  0  0  0  0  0  0  0  0  # atno 7974 bound_to 7965
  156.3000  140.2409  156.3973 H   0  0  0  0  0  0  0  0  0  0  0  0  # atno 8008 bound_to 7997
  154.8559  140.0422  157.1654 H   0  0  0  0  0  0  0  0  0  0  0  0  # atno 8009 bound_to 7997
  154.8949  140.2968  155.5354 H   0  0  0  0  0  0  0  0  0  0  0  0  # atno 8010 bound_to 7997
  140.0890  144.5005  150.7111 H   0  0  0  0  0  0  0  0  0  0  0  0  # atno 10167 bound_to 10162
  157.6809  130.9964  150.2096 H   0  0  0  0  0  0  0  0  0  0  0  0  # atno 10718 bound_to 10713
  154.0838  135.6587  153.4842 H   0  0  0  0  0  0  0  0  0  0  0  0  # atno 10763 bound_to 10752
  153.0346  135.5186  154.7448 H   0  0  0  0  0  0  0  0  0  0  0  0  # atno 10764 bound_to 10752
  154.6551  135.3007  154.9906 H   0  0  0  0  0  0  0  0  0  0  0  0  # atno 10765 bound_to 10752
  140.1668  134.8571  157.2642 H   0  0  0  0  0  0  0  0  0  0  0  0  # atno 11005 bound_to 11000
  146.0736  140.7842  142.9676 LP  0  0  0  0  0  0  0  0  0  0  0  0  # atno 17320 bound_to 7965
  144.6949  140.3380  143.7204 LP  0  0  0  0  0  0  0  0  0  0  0  0  # atno 17321 bound_to 7965
  140.7038  143.2453  151.4786 LP  0  0  0  0  0  0  0  0  0  0  0  0  # atno 17342 bound_to 10162
  139.5735  144.1872  152.1871 LP  0  0  0  0  0  0  0  0  0  0  0  0  # atno 17343 bound_to 10162
  156.2770  130.3728  149.7974 LP  0  0  0  0  0  0  0  0  0  0  0  0  # atno 17370 bound_to 10713
  156.5674  130.8410  151.3346 LP  0  0  0  0  0  0  0  0  0  0  0  0  # atno 17371 bound_to 10713
  140.2424  134.3780  155.7475 LP  0  0  0  0  0  0  0  0  0  0  0  0  # atno 17394 bound_to 11000
  141.2214  133.7272  156.8809 LP  0  0  0  0  0  0  0  0  0  0  0  0  # atno 17395 bound_to 11000

$$$$
