#       Name:                AV-unprocessed.smi:1930
#       Creating user name   scv26
#       Creation time:       Fri Mar 27 09:55:14 2020


#       File generated by GOLD software.
#

@<TRIPOS>MOLECULE
AV-unprocessed.smi:1930
    44    45     1
SMALL
NO_CHARGES


@<TRIPOS>ATOM
      1 ****        -4.9774   2.3962   1.2796 C.3            1 S1                 0.0000
      2 ****        -5.3247   1.1067   0.0149 S.o2           1 S1                 0.0000
      3 ****        -5.8820  -0.0708   0.6981 O.2            1 S1                 0.0000
      4 ****        -6.0716   1.7316  -1.0875 O.2            1 S1                 0.0000
      5 ****        -3.7481   0.6806  -0.5830 N.pl3          1 S1                 0.0000
      6 ****        -2.8643  -0.1697   0.2473 C.3            1 S1                 0.0000
      7 ****        -1.7358   0.6523   0.8994 C.3            1 S1                 0.0000
      8 ****        -1.0162   1.3836  -0.1518 N.am           1 S1                 0.0000
      9 ****         0.2032   1.0790  -0.6618 C.2            1 S1                 0.0000
     10 ****         0.6669   1.6162  -1.6685 O.2            1 S1                 0.0000
     11 ****         0.8893   0.1586   0.0346 N.am           1 S1                 0.0000
     12 ****         2.2141  -0.3297  -0.3202 C.3            1 S1                 0.0000
     13 ****         2.6791  -1.3968   0.6792 C.3            1 S1                 0.0000
     14 ****         4.0474  -1.9487   0.3311 C.ar           1 S1                 0.0000
     15 ****         4.1836  -3.0343  -0.5583 C.ar           1 S1                 0.0000
     16 ****         5.4751  -3.5116  -0.8535 C.ar           1 S1                 0.0000
     17 ****         6.5784  -2.8805  -0.2454 C.ar           1 S1                 0.0000
     18 ****         6.4603  -1.8394   0.6066 N.ar           1 S1                 0.0000
     19 ****         5.2182  -1.3877   0.8843 C.ar           1 S1                 0.0000
     20 ****        -1.9077   2.3615  -0.7787 C.3            1 S1                 0.0000
     21 ****        -3.0458   1.6104  -1.4973 C.3            1 S1                 0.0000
     22 ****        -5.9183   2.7310   1.7156 H              1 S1                 0.0000
     23 ****        -4.4796   3.2452   0.8138 H              1 S1                 0.0000
     24 ****        -4.3487   1.9822   2.0664 H              1 S1                 0.0000
     25 ****        -3.4426  -0.6897   1.0106 H              1 S1                 0.0000
     26 ****        -2.4322  -0.9417  -0.3904 H              1 S1                 0.0000
     27 ****        -2.1485   1.3652   1.6132 H              1 S1                 0.0000
     28 ****        -1.0999  -0.0048   1.4922 H              1 S1                 0.0000
     29 ****         0.4591  -0.2348   0.8587 H              1 S1                 0.0000
     30 ****         2.1858  -0.7471  -1.3282 H              1 S1                 0.0000
     31 ****         2.9172   0.5049  -0.3344 H              1 S1                 0.0000
     32 ****         2.7093  -0.9790   1.6867 H              1 S1                 0.0000
     33 ****         1.9641  -2.2205   0.7083 H              1 S1                 0.0000
     34 ****         3.3152  -3.4932  -1.0077 H              1 S1                 0.0000
     35 ****         5.6168  -4.3414  -1.5300 H              1 S1                 0.0000
     36 ****         7.5828  -3.2211  -0.4491 H              1 S1                 0.0000
     37 ****         5.1580  -0.5535   1.5677 H              1 S1                 0.0000
     38 ****        -2.3091   3.0291  -0.0162 H              1 S1                 0.0000
     39 ****        -1.3872   3.0091  -1.4856 H              1 S1                 0.0000
     40 ****        -2.6353   1.0323  -2.3261 H              1 S1                 0.0000
     41 ****        -3.7485   2.3188  -1.9350 H              1 S1                 0.0000
     42 ****         0.1380   2.3141  -2.1514 LP             1 S1                 0.0000
     43 ****         1.5723   1.3545  -2.0029 LP             1 S1                 0.0000
     44 ****         7.2671  -1.4162   1.0189 LP             1 S1                 0.0000
@<TRIPOS>BOND
    1    1    2 1     
    2    1   22 1     
    3    1   23 1     
    4    1   24 1     
    5    2    3 2     
    6    2    4 2     
    7    2    5 1     
    8    5   21 1     
    9    5    6 1     
   10    6    7 1     
   11    6   25 1     
   12    6   26 1     
   13    7    8 1     
   14    7   27 1     
   15    7   28 1     
   16    8    9 am    
   17    8   20 1     
   18    9   10 2     
   19    9   11 am    
   20   11   12 1     
   21   11   29 1     
   22   12   13 1     
   23   12   30 1     
   24   12   31 1     
   25   13   14 1     
   26   13   32 1     
   27   13   33 1     
   28   14   19 ar    
   29   14   15 ar    
   30   15   16 ar    
   31   15   34 1     
   32   16   17 ar    
   33   16   35 1     
   34   17   18 ar    
   35   17   36 1     
   36   18   19 ar    
   37   19   37 1     
   38   20   21 1     
   39   20   38 1     
   40   20   39 1     
   41   21   40 1     
   42   21   41 1     
   43   10   42 1     
   44   10   43 1     
   45   18   44 1     
@<TRIPOS>SUBSTRUCTURE
      1 S1             1
@<TRIPOS>SET
LONE_PAIRS      STATIC     ATOMS    <user>   **** ""
5 3 4 42 43 44
DONOR_HYDROGENS      STATIC     ATOMS    <user>   **** ""
1 29
ATOM$BLUE        STATIC     ATOMS    COLORGROUP SYSTEM
5 3 4 42 43 44
ATOM$RED        STATIC     ATOMS    COLORGROUP SYSTEM
1 29
