AV-unprocessed.smi:2631|AV-procd|sdf|10249|dock9
  -GOLD-   2272014263D 1   1.00000     0.00000
 Structure written by MMmdl.
 34 35  0  0  0  0  0  0  0  0  2 V2000
  145.9803  137.0441  160.9973 C   0  0  0  0  0  0  0  0  0  0  0  0
  146.6044  137.7929  159.9703 O   0  0  0  0  0  0  0  0  0  0  0  0
  147.6781  137.0951  159.3616 C   0  0  0  0  0  0  0  0  0  0  0  0
  148.0246  137.7427  158.0100 C   0  0  0  0  0  0  0  0  0  0  0  0
  149.4243  138.2183  157.9711 N   0  0  0  0  0  0  0  0  0  0  0  0
  149.6816  139.5621  157.5903 C   0  0  0  0  0  0  0  0  0  0  0  0
  148.6320  140.4025  157.2562 N   0  0  0  0  0  0  0  0  0  0  0  0
  150.9566  140.0110  157.5647 C   0  0  0  0  0  0  0  0  0  0  0  0
  151.4721  141.6606  157.1432 S   0  0  0  0  0  0  0  0  0  0  0  0
  151.8574  142.3033  158.7386 C   0  0  0  0  0  0  0  0  0  0  0  0
  152.8677  141.7006  159.5140 C   0  0  0  0  0  0  0  0  0  0  0  0
  153.1819  142.2213  160.7845 C   0  0  0  0  0  0  0  0  0  0  0  0
  152.4859  143.3424  161.2789 C   0  0  0  0  0  0  0  0  0  0  0  0
  152.8736  143.9809  162.8341 Cl  0  0  0  0  0  0  0  0  0  0  0  0
  151.4736  143.9420  160.5034 C   0  0  0  0  0  0  0  0  0  0  0  0
  151.1579  143.4221  159.2331 C   0  0  0  0  0  0  0  0  0  0  0  0
  152.0652  139.1224  157.9184 C   0  0  0  0  0  0  0  0  0  0  0  0
  153.2331  139.5130  157.8878 O   0  0  0  0  0  0  0  0  0  0  0  0
  151.7361  137.8529  158.2815 N   0  5  0  0  0  0  0  0  0  0  0  0
  150.4533  137.3836  158.3229 C   0  0  0  0  0  0  0  0  0  0  0  0
  150.2015  136.2288  158.6693 O   0  0  0  0  0  0  0  0  0  0  0  0
  145.1650  137.6246  161.4292 H   0  0  0  0  0  0  0  0  0  0  0  0
  146.6845  136.8058  161.7955 H   0  0  0  0  0  0  0  0  0  0  0  0
  145.5622  136.1149  160.6082 H   0  0  0  0  0  0  0  0  0  0  0  0
  148.5496  137.1342  160.0164 H   0  0  0  0  0  0  0  0  0  0  0  0
  147.4215  136.0430  159.2287 H   0  0  0  0  0  0  0  0  0  0  0  0
  147.8050  137.0412  157.2040 H   0  0  0  0  0  0  0  0  0  0  0  0
  147.3444  138.5726  157.8180 H   0  0  0  0  0  0  0  0  0  0  0  0
  147.6741  140.0837  157.2755 H   0  0  0  0  0  0  0  0  0  0  0  0
  148.7723  141.3919  157.1124 H   0  0  0  0  0  0  0  0  0  0  0  0
  153.4044  140.8431  159.1359 H   0  0  0  0  0  0  0  0  0  0  0  0
  153.9580  141.7605  161.3777 H   0  0  0  0  0  0  0  0  0  0  0  0
  150.9391  144.8017  160.8802 H   0  0  0  0  0  0  0  0  0  0  0  0
  150.3839  143.8859  158.6391 H   0  0  0  0  0  0  0  0  0  0  0  0
  1  2  1  0  0  0  0
  1 22  1  0  0  0  0
  1 23  1  0  0  0  0
  1 24  1  0  0  0  0
  2  3  1  0  0  0  0
  3  4  1  0  0  0  0
  3 25  1  0  0  0  0
  3 26  1  0  0  0  0
  4  5  1  0  0  0  0
  4 27  1  0  0  0  0
  4 28  1  0  0  0  0
  5 20  1  0  0  0  0
  5  6  1  0  0  0  0
  6  7  1  0  0  0  0
  6  8  2  0  0  0  0
  7 29  1  0  0  0  0
  7 30  1  0  0  0  0
  8  9  1  0  0  0  0
  8 17  1  0  0  0  0
  9 10  1  0  0  0  0
 10 16  1  0  0  0  0
 10 11  2  0  0  0  0
 11 12  1  0  0  0  0
 11 31  1  0  0  0  0
 12 13  2  0  0  0  0
 12 32  1  0  0  0  0
 13 14  1  0  0  0  0
 13 15  1  0  0  0  0
 15 16  2  0  0  0  0
 15 33  1  0  0  0  0
 16 34  1  0  0  0  0
 17 18  2  0  0  0  0
 17 19  1  0  0  0  0
 19 20  1  0  0  0  0
 20 21  2  0  0  0  0
M  CHG  1  19  -1
M  END
> <s_m_source_file>
AV-unprocessed.smi

> <i_m_source_file_index>
2631

> <i_lp_mmshare_version>
43012

> <i_f3d_flags>
0

> <s_epik_input>
W0NIM11PW0NIMl1bQ0gyXW4xYyhbTkgyXSljKGMoPU8pW25IXWMxPU8pU2MyW2NIXVtjSF1jKENsKVtjSF1bY0hdMg==

> <s_epik_cmdline>
J2VwaWtfcHl0aG9uJywgJy1waCcsICc3LjAnLCAnLXRuJywgJzgnLCAnLW1hJywgJzIwMCcsICctbWV0YWxfYmluZGluZycsICctaW1hZScsICc8aW5maWxlLm1hZT4nLCAnLW9tYWUnLCAnPG91dGZpbGUubWFlPic=

> <r_lp_tautomer_probability>
1

> <r_epik_Ionization_Penalty>
5.35309

> <r_epik_Ionization_Penalty_Charging>
0.0281434

> <r_epik_Ionization_Penalty_Neutral>
5.32495

> <r_epik_State_Penalty>
5.32488

> <r_epik_Charging_Adjusted_Penalty>
5.35302

> <i_epik_Tot_Q>
-1

> <i_epik_Tot_abs_Q>
1

> <r_epik_Metal_State_Penalty>
1.30191

> <b_epik_Metal_Only>
1

> <s_epik_Chemistry_Notes>
This compound has an imine and may undergo hydrolysis.

> <s_lp_Force_Field>
OPLS_2005

> <r_lp_Energy>
29.1443

> <b_lp_Chiralities_Consistent>
1

> <s_lp_Variant>
AV-unprocessed.smi:2631-2

> <Gold.Version>
5.8.1

> <Gold.Id.Protein>
6NUR|6NUR_protein|mol2

> <Gold.PLP.Fitness>
41.8878

> <Gold.PLP.PLP>
-34.2453

> <Gold.PLP.part.hbond>
-3.0000

> <Gold.PLP.part.metal>
0.0000

> <Gold.PLP.part.buried>
-5.6671

> <Gold.PLP.part.nonpolar>
-25.4445

> <Gold.PLP.part.repulsive>
0.0900

> <Gold.PLP.ligand.clash>
0.0000

> <Gold.PLP.ligand.torsion>
0.7010

> <Gold.PLP.Chemscore.Hbond>
3.0000

> <Gold.PLP.Chemscore.CHOScore>
0.0000

> <Gold.PLP.Chemscore.Metal>
0.0000

> <Gold.Chemscore.Hbonds>
donor molecule, donor type, donor heavy atom, donor atom, acceptor molecule, acceptor atom, score
      P1  H  6896  6907       L1    21  1.00
      P1  H  6934  6947       L1     2  0.90
      P1  H  7997  8009       L1    18  1.00

> <Gold.PLP.Chemscore.Internal.Correction>
0.0445

> <Gold.Rescore>
     Score         DG    S(hbond)    S(metal)    S(lipo)     H(rot)  DE(clash)    DE(int)     intcor
     16.49     -20.64       2.89        0.00      91.30       2.02       0.05       4.10       ----

> <Gold.Chemscore.Fitness>
16.4879

> <Gold.Chemscore.DG>
-20.6401

> <Gold.Chemscore.ZeroCoef>
-5.4800

> <Gold.Chemscore.Hbond>
2.8916

> <Gold.Chemscore.Metal>
0.0000

> <Gold.Chemscore.Lipo>
91.2974

> <Gold.Chemscore.Internal_Hbond>
0.0000

> <Gold.Chemscore.DEClash>
0.0491

> <Gold.Chemscore.DEInternal>
4.1031

> <Gold.Chemscore.Rot>
2.0234

> <Gold.Chemscore.Internal.Correction>
   9.000000E+99

> <Gold.Chemscore.Hbonds>
donor molecule, donor type, donor heavy atom, donor atom, acceptor molecule, acceptor atom, score
      P1  H  6896  6907       L1    21  0.98
      P1  H  6934  6947       L1     2  0.14
      P1  H  7997  8009       L1    18  1.00

> <Gold.Chemscore.Hbond.Weighted>
-9.6581

> <Gold.Chemscore.Metal.Weighted>
-0.0000

> <Gold.Chemscore.Lipo.Weighted>
-10.6818

> <Gold.Chemscore.Internal_Hbond.Weighted>
0.0000

> <Gold.Chemscore.DEClash.Weighted>
0.0491

> <Gold.Chemscore.DEInternal.Weighted>
4.1031

> <Gold.Chemscore.Rot.Weighted>
5.1798

> <Gold.Chemscore.Internal.Correction.Weighted>
   9.000000E+99

> <Gold.Protein.RotatedTorsions>
[ 6907 6896 6895 6894 ] final  -49.62 input  -60.11 | X-H torsion
[ 7974 7965 7964 7962 ] final   71.34 input  175.53 | X-H torsion
[ 8008 7997 7996 7995 ] final  156.76 input   59.86 | X-H torsion
[ 10167 10162 10161 10158 ] final -121.18 input  -65.29 | X-H torsion
[ 10718 10713 10712 10709 ] final -131.74 input   66.30 | X-H torsion
[ 10763 10752 10751 10750 ] final -102.33 input  -60.55 | X-H torsion
[ 11005 11000 10999 10996 ] final   41.53 input  -57.11 | X-H torsion

> <Gold.Protein.ActiveResidues>
 VAL166  LYS551  ARG553  GLY616  TRP617  ASP618  TYR619  PRO620  LYS621  CYS622 
 ASP623  PHE694  ASN695  SER759  ASP760  ASP761  ALA762  ILE779  LEU786  VAL792 
 PHE793  MET794  SER795  GLU796  ALA797  LYS798  CYS799  TRP800  GLU811  SER814 

> <Gold.Protein.RotatedAtoms>
  150.8787  134.8174  159.7208 H   0  0  0  0  0  0  0  0  0  0  0  0  # atno 6907 bound_to 6896
  152.4763  134.4830  159.9681 H   0  0  0  0  0  0  0  0  0  0  0  0  # atno 6908 bound_to 6896
  151.4908  133.3486  159.2888 H   0  0  0  0  0  0  0  0  0  0  0  0  # atno 6909 bound_to 6896
  145.7671  139.2826  143.1343 H   0  0  0  0  0  0  0  0  0  0  0  0  # atno 7974 bound_to 7965
  156.2404  140.1904  156.7004 H   0  0  0  0  0  0  0  0  0  0  0  0  # atno 8008 bound_to 7997
  154.6186  140.0612  156.9612 H   0  0  0  0  0  0  0  0  0  0  0  0  # atno 8009 bound_to 7997
  155.1899  140.3283  155.4363 H   0  0  0  0  0  0  0  0  0  0  0  0  # atno 8010 bound_to 7997
  140.0278  143.5279  152.2191 H   0  0  0  0  0  0  0  0  0  0  0  0  # atno 10167 bound_to 10162
  156.2275  130.7017  151.0823 H   0  0  0  0  0  0  0  0  0  0  0  0  # atno 10718 bound_to 10713
  154.7725  135.4865  153.9678 H   0  0  0  0  0  0  0  0  0  0  0  0  # atno 10763 bound_to 10752
  153.1386  135.6768  153.9070 H   0  0  0  0  0  0  0  0  0  0  0  0  # atno 10764 bound_to 10752
  153.8751  135.3139  155.3422 H   0  0  0  0  0  0  0  0  0  0  0  0  # atno 10765 bound_to 10752
  140.1826  134.4085  155.8191 H   0  0  0  0  0  0  0  0  0  0  0  0  # atno 11005 bound_to 11000
  146.0207  140.8351  142.9925 LP  0  0  0  0  0  0  0  0  0  0  0  0  # atno 17320 bound_to 7965
  144.6819  140.2624  143.7317 LP  0  0  0  0  0  0  0  0  0  0  0  0  # atno 17321 bound_to 7965
  139.6096  144.7605  151.2982 LP  0  0  0  0  0  0  0  0  0  0  0  0  # atno 17342 bound_to 10162
  140.7315  143.6850  150.7969 LP  0  0  0  0  0  0  0  0  0  0  0  0  # atno 17343 bound_to 10162
  157.7117  131.0730  150.6475 LP  0  0  0  0  0  0  0  0  0  0  0  0  # atno 17370 bound_to 10713
  156.6541  130.4493  149.5709 LP  0  0  0  0  0  0  0  0  0  0  0  0  # atno 17371 bound_to 10713
  141.2223  133.7007  156.7957 LP  0  0  0  0  0  0  0  0  0  0  0  0  # atno 17394 bound_to 11000
  140.2250  134.8728  157.3417 LP  0  0  0  0  0  0  0  0  0  0  0  0  # atno 17395 bound_to 11000

$$$$
