AV-unprocessed.smi:1593|AV-procd|sdf|6411|dock7
  -GOLD-   22720 7 43D 1   1.00000     0.00000
 Structure written by MMmdl.
 35 36  0  0  0  0  0  0  0  0  2 V2000
  148.4707  138.4272  155.2931 C   0  0  0  0  0  0  0  0  0  0  0  0
  149.8246  138.8526  155.7488 C   0  0  0  0  0  0  0  0  0  0  0  0
  150.5222  138.6441  156.9046 C   0  0  0  0  0  0  0  0  0  0  0  0
  151.7435  139.3353  156.6764 C   0  0  0  0  0  0  0  0  0  0  0  0
  152.7785  139.4147  157.5267 N   0  5  0  0  0  0  0  0  0  0  0  0
  152.5626  139.4696  158.8615 C   0  0  0  0  0  0  0  0  0  0  0  0
  151.5183  139.1733  159.4470 O   0  0  0  0  0  0  0  0  0  0  0  0
  153.6213  139.8953  159.5627 N   0  0  0  0  0  0  0  0  0  0  0  0
  153.6581  140.0699  161.0095 C   0  0  0  0  0  0  0  0  0  0  0  0
  153.7465  141.5603  161.3833 C   0  0  0  0  0  0  0  0  0  0  0  0
  152.6939  142.4123  160.8278 N   0  0  0  0  0  0  0  0  0  0  0  0
  152.4284  143.5911  161.6493 C   0  0  0  0  0  0  0  0  0  0  0  0
  151.3342  144.4823  161.0359 C   0  0  0  0  0  0  0  0  0  0  0  0
  151.7035  144.8541  159.7116 O   0  0  0  0  0  0  0  0  0  0  0  0
  151.9227  143.7280  158.8682 C   0  0  0  0  0  0  0  0  0  0  0  0
  153.0235  142.8399  159.4730 C   0  0  0  0  0  0  0  0  0  0  0  0
  151.7896  139.8984  155.4805 N   0  0  0  0  0  0  0  0  0  0  0  0
  150.5600  139.5992  154.8817 O   0  0  0  0  0  0  0  0  0  0  0  0
  148.3617  137.3451  155.3665 H   0  0  0  0  0  0  0  0  0  0  0  0
  148.2962  138.7143  154.2559 H   0  0  0  0  0  0  0  0  0  0  0  0
  147.6964  138.8883  155.9062 H   0  0  0  0  0  0  0  0  0  0  0  0
  150.2086  138.0900  157.7765 H   0  0  0  0  0  0  0  0  0  0  0  0
  154.4571  140.1365  159.0504 H   0  0  0  0  0  0  0  0  0  0  0  0
  152.7839  139.6049  161.4663 H   0  0  0  0  0  0  0  0  0  0  0  0
  154.5290  139.5448  161.4038 H   0  0  0  0  0  0  0  0  0  0  0  0
  153.7591  141.6563  162.4699 H   0  0  0  0  0  0  0  0  0  0  0  0
  154.7147  141.9287  161.0418 H   0  0  0  0  0  0  0  0  0  0  0  0
  152.1120  143.2928  162.6485 H   0  0  0  0  0  0  0  0  0  0  0  0
  153.3438  144.1725  161.7697 H   0  0  0  0  0  0  0  0  0  0  0  0
  150.3761  143.9606  161.0208 H   0  0  0  0  0  0  0  0  0  0  0  0
  151.1988  145.3829  161.6349 H   0  0  0  0  0  0  0  0  0  0  0  0
  150.9947  143.1663  158.7497 H   0  0  0  0  0  0  0  0  0  0  0  0
  152.2162  144.0757  157.8777 H   0  0  0  0  0  0  0  0  0  0  0  0
  153.9668  143.3883  159.4778 H   0  0  0  0  0  0  0  0  0  0  0  0
  153.1723  141.9676  158.8355 H   0  0  0  0  0  0  0  0  0  0  0  0
  1  2  1  0  0  0  0
  1 19  1  0  0  0  0
  1 20  1  0  0  0  0
  1 21  1  0  0  0  0
  2 18  1  0  0  0  0
  2  3  2  0  0  0  0
  3  4  1  0  0  0  0
  3 22  1  0  0  0  0
  4  5  1  0  0  0  0
  4 17  2  0  0  0  0
  5  6  1  0  0  0  0
  6  7  2  0  0  0  0
  6  8  1  0  0  0  0
  8  9  1  0  0  0  0
  8 23  1  0  0  0  0
  9 10  1  0  0  0  0
  9 24  1  0  0  0  0
  9 25  1  0  0  0  0
 10 11  1  0  0  0  0
 10 26  1  0  0  0  0
 10 27  1  0  0  0  0
 11 16  1  0  0  0  0
 11 12  1  0  0  0  0
 12 13  1  0  0  0  0
 12 28  1  0  0  0  0
 12 29  1  0  0  0  0
 13 14  1  0  0  0  0
 13 30  1  0  0  0  0
 13 31  1  0  0  0  0
 14 15  1  0  0  0  0
 15 16  1  0  0  0  0
 15 32  1  0  0  0  0
 15 33  1  0  0  0  0
 16 34  1  0  0  0  0
 16 35  1  0  0  0  0
 17 18  1  0  0  0  0
M  CHG  1   5  -1
M  END
> <s_m_source_file>
AV-unprocessed.smi

> <i_m_source_file_index>
1593

> <i_lp_mmshare_version>
43012

> <i_f3d_flags>
0

> <s_epik_input>
W0NIM11jMVtjSF1jKG5vMSlbTkhdQyg9TylbTkhdW0NIMl1bQ0gyXU4yW0NIMl1bQ0gyXU9bQ0gyXVtDSDJdMg==

> <s_epik_cmdline>
J2VwaWtfcHl0aG9uJywgJy1waCcsICc3LjAnLCAnLXRuJywgJzgnLCAnLW1hJywgJzIwMCcsICctbWV0YWxfYmluZGluZycsICctaW1hZScsICc8aW5maWxlLm1hZT4nLCAnLW9tYWUnLCAnPG91dGZpbGUubWFlPic=

> <r_epik_Ionization_Penalty>
6.88366

> <r_epik_Ionization_Penalty_Charging>
6.57198

> <r_epik_Ionization_Penalty_Neutral>
0.311678

> <r_epik_State_Penalty>
6.77619

> <r_epik_Charging_Adjusted_Penalty>
13.3482

> <i_epik_Tot_Q>
-1

> <i_epik_Tot_abs_Q>
1

> <r_epik_Metal_State_Penalty>
2.70533

> <b_epik_Metal_Only>
1

> <s_lp_Force_Field>
OPLS_2005

> <r_lp_Energy>
18.6523

> <b_lp_Chiralities_Consistent>
1

> <s_lp_Variant>
AV-unprocessed.smi:1593-3

> <Gold.Version>
5.8.1

> <Gold.Id.Protein>
6NUR|6NUR_protein|mol2

> <Gold.PLP.Fitness>
39.9208

> <Gold.PLP.PLP>
-31.8442

> <Gold.PLP.part.hbond>
-3.7617

> <Gold.PLP.part.metal>
0.0000

> <Gold.PLP.part.buried>
-2.9521

> <Gold.PLP.part.nonpolar>
-25.2813

> <Gold.PLP.part.repulsive>
0.2323

> <Gold.PLP.ligand.clash>
0.0000

> <Gold.PLP.ligand.torsion>
0.6319

> <Gold.PLP.Chemscore.Hbond>
3.1037

> <Gold.PLP.Chemscore.CHOScore>
0.0000

> <Gold.PLP.Chemscore.Metal>
0.0000

> <Gold.Chemscore.Hbonds>
donor molecule, donor type, donor heavy atom, donor atom, acceptor molecule, acceptor atom, score
      P1  H  7997  8008       L1     5  1.78

> <Gold.PLP.Chemscore.Internal.Correction>
0.0292

> <Gold.Rescore>
     Score         DG    S(hbond)    S(metal)    S(lipo)     H(rot)  DE(clash)    DE(int)     intcor
     12.04     -14.83       1.11        0.00      82.76       1.57       0.18       2.61       ----

> <Gold.Chemscore.Fitness>
12.0388

> <Gold.Chemscore.DG>
-14.8296

> <Gold.Chemscore.ZeroCoef>
-5.4800

> <Gold.Chemscore.Hbond>
1.1059

> <Gold.Chemscore.Metal>
0.0000

> <Gold.Chemscore.Lipo>
82.7589

> <Gold.Chemscore.Internal_Hbond>
0.0000

> <Gold.Chemscore.DEClash>
0.1820

> <Gold.Chemscore.DEInternal>
2.6088

> <Gold.Chemscore.Rot>
1.5731

> <Gold.Chemscore.Internal.Correction>
   9.000000E+99

> <Gold.Chemscore.Hbonds>
donor molecule, donor type, donor heavy atom, donor atom, acceptor molecule, acceptor atom, score
      P1  H  7997  8008       L1     5  0.61

> <Gold.Chemscore.Hbond.Weighted>
-3.6938

> <Gold.Chemscore.Metal.Weighted>
-0.0000

> <Gold.Chemscore.Lipo.Weighted>
-9.6828

> <Gold.Chemscore.Internal_Hbond.Weighted>
0.0000

> <Gold.Chemscore.DEClash.Weighted>
0.1820

> <Gold.Chemscore.DEInternal.Weighted>
2.6088

> <Gold.Chemscore.Rot.Weighted>
4.0271

> <Gold.Chemscore.Internal.Correction.Weighted>
   9.000000E+99

> <Gold.Protein.RotatedTorsions>
[ 6907 6896 6895 6894 ] final  130.25 input  -60.11 | X-H torsion
[ 7974 7965 7964 7962 ] final   86.38 input  175.53 | X-H torsion
[ 8008 7997 7996 7995 ] final  -93.95 input   59.86 | X-H torsion
[ 10167 10162 10161 10158 ] final  174.39 input  -65.29 | X-H torsion
[ 10718 10713 10712 10709 ] final -121.78 input   66.30 | X-H torsion
[ 10763 10752 10751 10750 ] final   23.06 input  -60.55 | X-H torsion
[ 11005 11000 10999 10996 ] final -131.69 input  -57.11 | X-H torsion

> <Gold.Protein.ActiveResidues>
 VAL166  LYS551  ARG553  GLY616  TRP617  ASP618  TYR619  PRO620  LYS621  CYS622 
 ASP623  PHE694  ASN695  SER759  ASP760  ASP761  ALA762  ILE779  LEU786  VAL792 
 PHE793  MET794  SER795  GLU796  ALA797  LYS798  CYS799  TRP800  GLU811  SER814 

> <Gold.Protein.RotatedAtoms>
  152.3544  133.6219  159.5968 H   0  0  0  0  0  0  0  0  0  0  0  0  # atno 6907 bound_to 6896
  150.7559  133.9523  159.3498 H   0  0  0  0  0  0  0  0  0  0  0  0  # atno 6908 bound_to 6896
  151.7370  135.0863  160.0360 H   0  0  0  0  0  0  0  0  0  0  0  0  # atno 6909 bound_to 6896
  145.5731  139.2316  143.2395 H   0  0  0  0  0  0  0  0  0  0  0  0  # atno 7974 bound_to 7965
  154.7422  140.0494  157.0821 H   0  0  0  0  0  0  0  0  0  0  0  0  # atno 8008 bound_to 7997
  155.0163  140.3142  155.4791 H   0  0  0  0  0  0  0  0  0  0  0  0  # atno 8009 bound_to 7997
  156.2867  140.2175  156.5280 H   0  0  0  0  0  0  0  0  0  0  0  0  # atno 8010 bound_to 7997
  139.5140  144.3151  152.0255 H   0  0  0  0  0  0  0  0  0  0  0  0  # atno 10167 bound_to 10162
  156.1365  130.6434  150.9704 H   0  0  0  0  0  0  0  0  0  0  0  0  # atno 10718 bound_to 10713
  153.0867  135.6635  153.9934 H   0  0  0  0  0  0  0  0  0  0  0  0  # atno 10763 bound_to 10752
  153.9542  135.2981  155.3438 H   0  0  0  0  0  0  0  0  0  0  0  0  # atno 10764 bound_to 10752
  154.7276  135.5137  153.8985 H   0  0  0  0  0  0  0  0  0  0  0  0  # atno 10765 bound_to 10752
  140.9237  134.1411  157.4293 H   0  0  0  0  0  0  0  0  0  0  0  0  # atno 11005 bound_to 11000
  146.1770  140.6557  142.9206 LP  0  0  0  0  0  0  0  0  0  0  0  0  # atno 17320 bound_to 7965
  144.7429  140.4989  143.6856 LP  0  0  0  0  0  0  0  0  0  0  0  0  # atno 17321 bound_to 7965
  140.2595  144.4083  150.6191 LP  0  0  0  0  0  0  0  0  0  0  0  0  # atno 17342 bound_to 10162
  140.6167  143.2173  151.6776 LP  0  0  0  0  0  0  0  0  0  0  0  0  # atno 17343 bound_to 10162
  157.6536  131.0893  150.7996 LP  0  0  0  0  0  0  0  0  0  0  0  0  # atno 17370 bound_to 10713
  156.8075  130.4941  149.5360 LP  0  0  0  0  0  0  0  0  0  0  0  0  # atno 17371 bound_to 10713
  139.8781  134.9980  156.5879 LP  0  0  0  0  0  0  0  0  0  0  0  0  # atno 17394 bound_to 11000
  140.7955  133.8548  155.8682 LP  0  0  0  0  0  0  0  0  0  0  0  0  # atno 17395 bound_to 11000

$$$$
