AV-unprocessed.smi:753|AV-procd|sdf|3599|dock3
  -GOLD-   22720 0593D 1   1.00000     0.00000
 Structure written by MMmdl.
 43 45  0  0  0  0  0  0  0  0  1 V2000
  145.5409  151.1271  158.0648 C   0  0  0  0  0  0  0  0  0  0  0  0
  145.2459  149.6565  158.2747 C   0  0  0  0  0  0  0  0  0  0  0  0
  145.0147  148.8007  157.1771 C   0  0  0  0  0  0  0  0  0  0  0  0
  144.7397  147.4433  157.4312 C   0  0  0  0  0  0  0  0  0  0  0  0
  144.7077  146.9950  158.7675 C   0  0  0  0  0  0  0  0  0  0  0  0
  144.4072  145.5456  159.0940 C   0  0  0  0  0  0  0  0  0  0  0  0
  145.4357  144.9504  160.0687 C   0  0  0  0  0  0  0  0  0  0  0  0
  146.7877  145.0275  159.5306 N   0  0  0  0  0  0  0  0  0  0  0  0
  147.8726  144.4586  160.0825 C   0  0  0  0  0  0  0  0  0  0  0  0
  147.8406  143.8070  161.1248 O   0  0  0  0  0  0  0  0  0  0  0  0
  149.0155  144.6518  159.4010 N   0  0  0  0  0  0  0  0  0  0  0  0
  150.3557  144.1661  159.7369 C   0  0  2  0  0  0  0  0  0  0  0  0
  151.3941  145.3039  159.8817 C   0  0  0  0  0  0  0  0  0  0  0  0
  152.4654  144.9250  158.8425 C   0  0  1  0  0  0  0  0  0  0  0  0
  153.2116  143.6600  159.3091 C   0  0  0  0  0  0  0  0  0  0  0  0
  152.1634  142.5484  159.1031 C   0  0  0  0  0  0  0  0  0  0  0  0
  150.9443  143.3302  158.5793 C   0  0  2  0  0  0  0  0  0  0  0  0
  151.6130  144.3850  157.7023 C   0  0  0  0  0  0  0  0  0  0  0  0
  144.9535  147.9323  159.7930 C   0  0  0  0  0  0  0  0  0  0  0  0
  145.2169  149.2359  159.5589 N   0  0  0  0  0  0  0  0  0  0  0  0
  145.5966  151.3722  157.0038 H   0  0  0  0  0  0  0  0  0  0  0  0
  146.4926  151.3938  158.5251 H   0  0  0  0  0  0  0  0  0  0  0  0
  144.7578  151.7382  158.5145 H   0  0  0  0  0  0  0  0  0  0  0  0
  145.0442  149.1723  156.1633 H   0  0  0  0  0  0  0  0  0  0  0  0
  144.5546  146.7616  156.6140 H   0  0  0  0  0  0  0  0  0  0  0  0
  143.4032  145.4781  159.5156 H   0  0  0  0  0  0  0  0  0  0  0  0
  144.3908  144.9701  158.1675 H   0  0  0  0  0  0  0  0  0  0  0  0
  145.4165  145.4989  161.0109 H   0  0  0  0  0  0  0  0  0  0  0  0
  145.1844  143.9152  160.3064 H   0  0  0  0  0  0  0  0  0  0  0  0
  146.9090  145.5445  158.6720 H   0  0  0  0  0  0  0  0  0  0  0  0
  148.9479  145.1999  158.5557 H   0  0  0  0  0  0  0  0  0  0  0  0
  150.3005  143.5607  160.6437 H   0  0  0  0  0  0  0  0  0  0  0  0
  150.9616  146.2766  159.6413 H   0  0  0  0  0  0  0  0  0  0  0  0
  151.8011  145.3654  160.8917 H   0  0  0  0  0  0  0  0  0  0  0  0
  153.1257  145.7502  158.5744 H   0  0  0  0  0  0  0  0  0  0  0  0
  154.0914  143.4763  158.6909 H   0  0  0  0  0  0  0  0  0  0  0  0
  153.5409  143.7350  160.3461 H   0  0  0  0  0  0  0  0  0  0  0  0
  152.5103  141.8289  158.3603 H   0  0  0  0  0  0  0  0  0  0  0  0
  151.9478  142.0013  160.0216 H   0  0  0  0  0  0  0  0  0  0  0  0
  150.2154  142.6986  158.0695 H   0  0  0  0  0  0  0  0  0  0  0  0
  150.9157  145.1202  157.2969 H   0  0  0  0  0  0  0  0  0  0  0  0
  152.2002  143.9607  156.8857 H   0  0  0  0  0  0  0  0  0  0  0  0
  144.9334  147.6293  160.8297 H   0  0  0  0  0  0  0  0  0  0  0  0
  1  2  1  0  0  0  0
  1 21  1  0  0  0  0
  1 22  1  0  0  0  0
  1 23  1  0  0  0  0
  2 20  1  0  0  0  0
  2  3  2  0  0  0  0
  3  4  1  0  0  0  0
  3 24  1  0  0  0  0
  4  5  2  0  0  0  0
  4 25  1  0  0  0  0
  5  6  1  0  0  0  0
  5 19  1  0  0  0  0
  6  7  1  0  0  0  0
  6 26  1  0  0  0  0
  6 27  1  0  0  0  0
  7  8  1  0  0  0  0
  7 28  1  0  0  0  0
  7 29  1  0  0  0  0
  8  9  1  0  0  0  0
  8 30  1  0  0  0  0
  9 10  2  0  0  0  0
  9 11  1  0  0  0  0
 11 12  1  0  0  0  0
 11 31  1  0  0  0  0
 12 17  1  0  0  0  0
 12 13  1  0  0  0  0
 12 32  1  0  0  0  0
 13 14  1  0  0  0  0
 13 33  1  0  0  0  0
 13 34  1  0  0  0  0
 14 18  1  0  0  0  0
 14 15  1  0  0  0  0
 14 35  1  0  0  0  0
 15 16  1  0  0  0  0
 15 36  1  0  0  0  0
 15 37  1  0  0  0  0
 16 17  1  0  0  0  0
 16 38  1  0  0  0  0
 16 39  1  0  0  0  0
 17 18  1  0  0  0  0
 17 40  1  0  0  0  0
 18 41  1  0  0  0  0
 18 42  1  0  0  0  0
 19 20  2  0  0  0  0
 19 43  1  0  0  0  0
M  END
> <s_m_source_file>
AV-unprocessed.smi

> <i_m_source_file_index>
753

> <i_lp_mmshare_version>
43012

> <i_f3d_flags>
0

> <s_epik_input>
W0NIM11jMVtjSF1bY0hdYyhbY0hdbjEpW0NIMl1bQ0gyXVtOSF1DKD1PKVtOSF1bQ0BIXShbQ0gyXVtDQEBIXTIzKVtDQEBIXShbQ0gyXTMpW0NIMl1bQ0gyXTI=

> <s_epik_cmdline>
J2VwaWtfcHl0aG9uJywgJy1waCcsICc3LjAnLCAnLXRuJywgJzgnLCAnLW1hJywgJzIwMCcsICctbWV0YWxfYmluZGluZycsICctaW1hZScsICc8aW5maWxlLm1hZT4nLCAnLW9tYWUnLCAnPG91dGZpbGUubWFlPic=

> <r_epik_Ionization_Penalty>
0.0569047

> <r_epik_Ionization_Penalty_Charging>
0

> <r_epik_Ionization_Penalty_Neutral>
0.0569047

> <r_epik_State_Penalty>
0.0490541

> <r_epik_Charging_Adjusted_Penalty>
0.0490541

> <i_epik_Tot_Q>
0

> <i_epik_Tot_abs_Q>
0

> <r_epik_Metal_State_Penalty>
0.0447357

> <b_epik_Metal_Only>
0

> <s_lp_Force_Field>
OPLS_2005

> <r_lp_Energy>
50.812

> <b_lp_Chiralities_Consistent>
1

> <s_lp_Variant>
AV-unprocessed.smi:753-1

> <Gold.Version>
5.8.1

> <Gold.Id.Protein>
6NUR|6NUR_protein|mol2

> <Gold.PLP.Fitness>
58.5853

> <Gold.PLP.PLP>
-49.8468

> <Gold.PLP.part.hbond>
-3.1176

> <Gold.PLP.part.metal>
0.0000

> <Gold.PLP.part.buried>
-8.3130

> <Gold.PLP.part.nonpolar>
-40.4071

> <Gold.PLP.part.repulsive>
0.4295

> <Gold.PLP.ligand.clash>
0.0000

> <Gold.PLP.ligand.torsion>
0.1392

> <Gold.PLP.Chemscore.Hbond>
2.9920

> <Gold.PLP.Chemscore.CHOScore>
0.0000

> <Gold.PLP.Chemscore.Metal>
0.0000

> <Gold.Chemscore.Hbonds>
donor molecule, donor type, donor heavy atom, donor atom, acceptor molecule, acceptor atom, score
      L1  H     8    30       P1  8029  1.00
      L1  H    11    31       P1  8029  0.98
      P1  H  6933  6944       L1    10  1.00

> <Gold.PLP.Chemscore.Internal.Correction>
0.0409

> <Gold.Rescore>
     Score         DG    S(hbond)    S(metal)    S(lipo)     H(rot)  DE(clash)    DE(int)     intcor
     27.14     -27.30       2.89        0.00     135.40       1.43       0.00       0.16       ----

> <Gold.Chemscore.Fitness>
27.1378

> <Gold.Chemscore.DG>
-27.3013

> <Gold.Chemscore.ZeroCoef>
-5.4800

> <Gold.Chemscore.Hbond>
2.8856

> <Gold.Chemscore.Metal>
0.0000

> <Gold.Chemscore.Lipo>
135.4018

> <Gold.Chemscore.Internal_Hbond>
0.0000

> <Gold.Chemscore.DEClash>
0.0000

> <Gold.Chemscore.DEInternal>
0.1635

> <Gold.Chemscore.Rot>
1.4291

> <Gold.Chemscore.Internal.Correction>
   9.000000E+99

> <Gold.Chemscore.Hbonds>
donor molecule, donor type, donor heavy atom, donor atom, acceptor molecule, acceptor atom, score
      L1  H     8    30       P1  8029  0.95
      L1  H    11    31       P1  8029  0.90
      P1  H  6933  6944       L1    10  0.99

> <Gold.Chemscore.Hbond.Weighted>
-9.6378

> <Gold.Chemscore.Metal.Weighted>
-0.0000

> <Gold.Chemscore.Lipo.Weighted>
-15.8420

> <Gold.Chemscore.Internal_Hbond.Weighted>
0.0000

> <Gold.Chemscore.DEClash.Weighted>
0.0000

> <Gold.Chemscore.DEInternal.Weighted>
0.1635

> <Gold.Chemscore.Rot.Weighted>
3.6585

> <Gold.Chemscore.Internal.Correction.Weighted>
   9.000000E+99

> <Gold.Protein.RotatedTorsions>
[ 6907 6896 6895 6894 ] final  -99.61 input  -60.11 | X-H torsion
[ 7974 7965 7964 7962 ] final  178.14 input  175.53 | X-H torsion
[ 8008 7997 7996 7995 ] final   20.07 input   59.86 | X-H torsion
[ 10167 10162 10161 10158 ] final -128.75 input  -65.29 | X-H torsion
[ 10718 10713 10712 10709 ] final -142.10 input   66.30 | X-H torsion
[ 10763 10752 10751 10750 ] final   11.54 input  -60.55 | X-H torsion
[ 11005 11000 10999 10996 ] final -139.36 input  -57.11 | X-H torsion

> <Gold.Protein.ActiveResidues>
 VAL166  LYS551  ARG553  GLY616  TRP617  ASP618  TYR619  PRO620  LYS621  CYS622 
 ASP623  PHE694  ASN695  SER759  ASP760  ASP761  ALA762  ILE779  LEU786  VAL792 
 PHE793  MET794  SER795  GLU796  ALA797  LYS798  CYS799  TRP800  GLU811  SER814 

> <Gold.Protein.RotatedAtoms>
  150.7086  134.1014  159.3966 H   0  0  0  0  0  0  0  0  0  0  0  0  # atno 6907 bound_to 6896
  151.9000  135.0379  160.0515 H   0  0  0  0  0  0  0  0  0  0  0  0  # atno 6908 bound_to 6896
  152.2421  133.5109  159.5313 H   0  0  0  0  0  0  0  0  0  0  0  0  # atno 6909 bound_to 6896
  144.7160  140.0353  143.6438 H   0  0  0  0  0  0  0  0  0  0  0  0  # atno 7974 bound_to 7965
  154.9301  140.3039  155.5172 H   0  0  0  0  0  0  0  0  0  0  0  0  # atno 8008 bound_to 7997
  156.3004  140.2355  156.4297 H   0  0  0  0  0  0  0  0  0  0  0  0  # atno 8009 bound_to 7997
  154.8246  140.0421  157.1423 H   0  0  0  0  0  0  0  0  0  0  0  0  # atno 8010 bound_to 7997
  139.9470  143.6099  152.2487 H   0  0  0  0  0  0  0  0  0  0  0  0  # atno 10167 bound_to 10162
  156.3419  130.7642  151.1780 H   0  0  0  0  0  0  0  0  0  0  0  0  # atno 10718 bound_to 10713
  153.1916  135.6843  153.8345 H   0  0  0  0  0  0  0  0  0  0  0  0  # atno 10763 bound_to 10752
  153.7643  135.3205  155.3343 H   0  0  0  0  0  0  0  0  0  0  0  0  # atno 10764 bound_to 10752
  154.8120  135.4711  154.0641 H   0  0  0  0  0  0  0  0  0  0  0  0  # atno 10765 bound_to 10752
  140.8527  134.2266  157.4751 H   0  0  0  0  0  0  0  0  0  0  0  0  # atno 11005 bound_to 11000
  146.0068  139.3136  143.0894 LP  0  0  0  0  0  0  0  0  0  0  0  0  # atno 17320 bound_to 7965
  145.8728  140.9409  143.0641 LP  0  0  0  0  0  0  0  0  0  0  0  0  # atno 17321 bound_to 7965
  139.6659  144.7662  151.1875 LP  0  0  0  0  0  0  0  0  0  0  0  0  # atno 17342 bound_to 10162
  140.7594  143.5939  150.8768 LP  0  0  0  0  0  0  0  0  0  0  0  0  # atno 17343 bound_to 10162
  157.7448  131.0452  150.4831 LP  0  0  0  0  0  0  0  0  0  0  0  0  # atno 17370 bound_to 10713
  156.5012  130.4117  149.6352 LP  0  0  0  0  0  0  0  0  0  0  0  0  # atno 17371 bound_to 10713
  139.8704  134.9691  156.4655 LP  0  0  0  0  0  0  0  0  0  0  0  0  # atno 17394 bound_to 11000
  140.8772  133.7945  155.9427 LP  0  0  0  0  0  0  0  0  0  0  0  0  # atno 17395 bound_to 11000

$$$$
