AV-unprocessed.smi:3055|AV-procd|sdf|11641|dock6
  -GOLD-   2272017 33D 1   1.00000     0.00000
 Structure written by MMmdl.
 48 50  0  0  0  0  0  0  0  0  3 V2000
  146.6794  137.7948  150.7285 O   0  0  0  0  0  0  0  0  0  0  0  0
  146.1695  137.3640  151.7626 C   0  0  0  0  0  0  0  0  0  0  0  0
  146.3057  137.9978  152.9383 N   0  0  0  0  0  0  0  0  0  0  0  0
  147.0572  139.2314  153.1337 C   0  0  0  0  0  0  0  0  0  0  0  0
  148.4221  138.9550  153.7835 C   0  0  0  0  0  0  0  0  0  0  0  0
  148.9854  140.1444  154.4304 N   0  0  0  0  0  0  0  0  0  0  0  0
  150.1611  140.2282  155.1316 C   0  0  0  0  0  0  0  0  0  0  0  0
  150.2779  141.5303  155.5449 C   0  0  0  0  0  0  0  0  0  0  0  0
  149.1722  142.1870  155.0747 N   0  3  0  0  0  0  0  0  0  0  0  0
  148.3886  141.3433  154.3951 C   0  0  0  0  0  0  0  0  0  0  0  0
  145.4095  136.2402  151.8050 N   0  0  0  0  0  0  0  0  0  0  0  0
  144.8140  135.5441  150.6509 C   0  0  0  0  0  0  0  0  0  0  0  0
  145.4617  134.1561  150.5151 C   0  0  0  0  0  0  0  0  0  0  0  0
  145.3182  133.3525  151.8219 C   0  0  0  0  0  0  0  0  0  0  0  0
  145.8160  134.1430  153.0608 C   0  0  1  0  0  0  0  0  0  0  0  0
  147.3047  134.2526  153.0990 N   0  3  0  0  0  0  0  0  0  0  0  0
  147.8776  134.6149  154.4132 C   0  0  0  0  0  0  0  0  0  0  0  0
  149.3500  134.2355  154.3160 C   0  0  0  0  0  0  0  0  0  0  0  0
  149.3293  132.9586  153.4826 C   0  0  0  0  0  0  0  0  0  0  0  0
  148.0463  133.0498  152.6438 C   0  0  0  0  0  0  0  0  0  0  0  0
  145.1228  135.5306  153.0622 C   0  0  0  0  0  0  0  0  0  0  0  0
  145.8521  137.6000  153.7476 H   0  0  0  0  0  0  0  0  0  0  0  0
  147.1904  139.7450  152.1800 H   0  0  0  0  0  0  0  0  0  0  0  0
  146.4759  139.8972  153.7732 H   0  0  0  0  0  0  0  0  0  0  0  0
  148.3231  138.1857  154.5502 H   0  0  0  0  0  0  0  0  0  0  0  0
  149.1356  138.5797  153.0479 H   0  0  0  0  0  0  0  0  0  0  0  0
  150.8093  139.3767  155.2820 H   0  0  0  0  0  0  0  0  0  0  0  0
  151.0459  142.0258  156.1211 H   0  0  0  0  0  0  0  0  0  0  0  0
  147.4576  141.5853  153.9141 H   0  0  0  0  0  0  0  0  0  0  0  0
  143.7409  135.4372  150.8176 H   0  0  0  0  0  0  0  0  0  0  0  0
  144.9028  136.0829  149.7077 H   0  0  0  0  0  0  0  0  0  0  0  0
  145.0015  133.6091  149.6919 H   0  0  0  0  0  0  0  0  0  0  0  0
  146.5169  134.2658  150.2618 H   0  0  0  0  0  0  0  0  0  0  0  0
  144.2614  133.1227  151.9648 H   0  0  0  0  0  0  0  0  0  0  0  0
  145.8084  132.3844  151.7250 H   0  0  0  0  0  0  0  0  0  0  0  0
  145.5079  133.6004  153.9560 H   0  0  0  0  0  0  0  0  0  0  0  0
  147.7498  135.6698  154.6495 H   0  0  0  0  0  0  0  0  0  0  0  0
  147.3967  134.0308  155.1996 H   0  0  0  0  0  0  0  0  0  0  0  0
  149.8976  135.0151  153.7848 H   0  0  0  0  0  0  0  0  0  0  0  0
  149.8188  134.1001  155.2913 H   0  0  0  0  0  0  0  0  0  0  0  0
  150.2236  132.8567  152.8668 H   0  0  0  0  0  0  0  0  0  0  0  0
  149.2796  132.0882  154.1386 H   0  0  0  0  0  0  0  0  0  0  0  0
  147.4567  132.1435  152.7901 H   0  0  0  0  0  0  0  0  0  0  0  0
  148.2686  133.1364  151.5796 H   0  0  0  0  0  0  0  0  0  0  0  0
  145.3985  136.1048  153.9471 H   0  0  0  0  0  0  0  0  0  0  0  0
  144.0432  135.3975  153.1481 H   0  0  0  0  0  0  0  0  0  0  0  0
  147.5658  134.9958  152.4672 H   0  0  0  0  0  0  0  0  0  0  0  0
  148.9763  143.1704  155.2152 H   0  0  0  0  0  0  0  0  0  0  0  0
  1  2  2  0  0  0  0
  2  3  1  0  0  0  0
  2 11  1  0  0  0  0
  3  4  1  0  0  0  0
  3 22  1  0  0  0  0
  4  5  1  0  0  0  0
  4 23  1  0  0  0  0
  4 24  1  0  0  0  0
  5  6  1  0  0  0  0
  5 25  1  0  0  0  0
  5 26  1  0  0  0  0
  6 10  1  0  0  0  0
  6  7  1  0  0  0  0
  7  8  2  0  0  0  0
  7 27  1  0  0  0  0
  8  9  1  0  0  0  0
  8 28  1  0  0  0  0
  9 10  2  0  0  0  0
  9 48  1  0  0  0  0
 10 29  1  0  0  0  0
 11 21  1  0  0  0  0
 11 12  1  0  0  0  0
 12 13  1  0  0  0  0
 12 30  1  0  0  0  0
 12 31  1  0  0  0  0
 13 14  1  0  0  0  0
 13 32  1  0  0  0  0
 13 33  1  0  0  0  0
 14 15  1  0  0  0  0
 14 34  1  0  0  0  0
 14 35  1  0  0  0  0
 15 16  1  0  0  0  0
 15 21  1  0  0  0  0
 15 36  1  0  0  0  0
 16 20  1  0  0  0  0
 16 17  1  0  0  0  0
 16 47  1  0  0  0  0
 17 18  1  0  0  0  0
 17 37  1  0  0  0  0
 17 38  1  0  0  0  0
 18 19  1  0  0  0  0
 18 39  1  0  0  0  0
 18 40  1  0  0  0  0
 19 20  1  0  0  0  0
 19 41  1  0  0  0  0
 19 42  1  0  0  0  0
 20 43  1  0  0  0  0
 20 44  1  0  0  0  0
 21 45  1  0  0  0  0
 21 46  1  0  0  0  0
M  CHG  1   9   1
M  CHG  1  16   1
M  END
> <s_m_source_file>
AV-unprocessed.smi

> <i_m_source_file_index>
3055

> <i_lp_mmshare_version>
43012

> <i_f3d_flags>
0

> <s_epik_input>
W2NIXTFuW2NIXVtjSF1uMVtDSDJdW0NIMl1bTkhdQyg9TylOMltDSDJdW0NIMl1bQ0gyXVtDQEhdKFtDSDJdMilOM1tDSDJdW0NIMl1bQ0gyXVtDSDJdMw==

> <s_epik_cmdline>
J2VwaWtfcHl0aG9uJywgJy1waCcsICc3LjAnLCAnLXRuJywgJzgnLCAnLW1hJywgJzIwMCcsICctbWV0YWxfYmluZGluZycsICctaW1hZScsICc8aW5maWxlLm1hZT4nLCAnLW9tYWUnLCAnPG91dGZpbGUubWFlPic=

> <r_lp_tautomer_probability>
1

> <r_epik_Ionization_Penalty>
0.259176

> <r_epik_Ionization_Penalty_Charging>
0.00125522

> <r_epik_Ionization_Penalty_Neutral>
0.257921

> <r_epik_State_Penalty>
0.249312

> <r_epik_Charging_Adjusted_Penalty>
0.250567

> <i_epik_Tot_Q>
2

> <i_epik_Tot_abs_Q>
2

> <r_epik_Metal_State_Penalty>
0.53666

> <b_epik_Metal_Only>
0

> <s_lp_Force_Field>
OPLS_2005

> <r_lp_Energy>
71.9504

> <b_lp_Chiralities_Consistent>
1

> <s_lp_Variant>
AV-unprocessed.smi:3055-1

> <Gold.Version>
5.8.1

> <Gold.Id.Protein>
6NUR|6NUR_protein|mol2

> <Gold.PLP.Fitness>
50.0173

> <Gold.PLP.PLP>
-36.7677

> <Gold.PLP.part.hbond>
-3.0000

> <Gold.PLP.part.metal>
0.0000

> <Gold.PLP.part.buried>
-0.8017

> <Gold.PLP.part.nonpolar>
-35.2925

> <Gold.PLP.part.repulsive>
2.2655

> <Gold.PLP.ligand.clash>
0.4027

> <Gold.PLP.ligand.torsion>
0.6892

> <Gold.PLP.Chemscore.Hbond>
5.0000

> <Gold.PLP.Chemscore.CHOScore>
0.0000

> <Gold.PLP.Chemscore.Metal>
0.0000

> <Gold.Chemscore.Hbonds>
donor molecule, donor type, donor heavy atom, donor atom, acceptor molecule, acceptor atom, score
      L1  H     9    48       P1  8028  2.00
      L1  H    16    47       P1  7948  1.89
      P1  H  7954  7966       L1     1  1.00

> <Gold.PLP.Chemscore.Internal.Correction>
0.0308

> <Gold.Rescore>
     Score         DG    S(hbond)    S(metal)    S(lipo)     H(rot)  DE(clash)    DE(int)     intcor
     16.46     -18.44       2.86        0.00      70.06       1.87       1.50       0.47       ----

> <Gold.Chemscore.Fitness>
16.4573

> <Gold.Chemscore.DG>
-18.4359

> <Gold.Chemscore.ZeroCoef>
-5.4800

> <Gold.Chemscore.Hbond>
2.8606

> <Gold.Chemscore.Metal>
0.0000

> <Gold.Chemscore.Lipo>
70.0589

> <Gold.Chemscore.Internal_Hbond>
0.0000

> <Gold.Chemscore.DEClash>
1.5039

> <Gold.Chemscore.DEInternal>
0.4748

> <Gold.Chemscore.Rot>
1.8732

> <Gold.Chemscore.Internal.Correction>
   9.000000E+99

> <Gold.Chemscore.Hbonds>
donor molecule, donor type, donor heavy atom, donor atom, acceptor molecule, acceptor atom, score
      L1  H     9    48       P1  8028  0.99
      L1  H    16    47       P1  7948  0.88
      P1  H  7954  7966       L1     1  0.98

> <Gold.Chemscore.Hbond.Weighted>
-9.5545

> <Gold.Chemscore.Metal.Weighted>
-0.0000

> <Gold.Chemscore.Lipo.Weighted>
-8.1969

> <Gold.Chemscore.Internal_Hbond.Weighted>
0.0000

> <Gold.Chemscore.DEClash.Weighted>
1.5039

> <Gold.Chemscore.DEInternal.Weighted>
0.4748

> <Gold.Chemscore.Rot.Weighted>
4.7954

> <Gold.Chemscore.Internal.Correction.Weighted>
   9.000000E+99

> <Gold.Protein.RotatedTorsions>
[ 6907 6896 6895 6894 ] final    1.23 input  -60.11 | X-H torsion
[ 7974 7965 7964 7962 ] final  -33.38 input  175.53 | X-H torsion
[ 8008 7997 7996 7995 ] final  177.70 input   59.86 | X-H torsion
[ 10167 10162 10161 10158 ] final -112.35 input  -65.29 | X-H torsion
[ 10718 10713 10712 10709 ] final -117.25 input   66.30 | X-H torsion
[ 10763 10752 10751 10750 ] final -118.00 input  -60.55 | X-H torsion
[ 11005 11000 10999 10996 ] final  -43.15 input  -57.11 | X-H torsion

> <Gold.Protein.ActiveResidues>
 VAL166  LYS551  ARG553  GLY616  TRP617  ASP618  TYR619  PRO620  LYS621  CYS622 
 ASP623  PHE694  ASN695  SER759  ASP760  ASP761  ALA762  ILE779  LEU786  VAL792 
 PHE793  MET794  SER795  GLU796  ALA797  LYS798  CYS799  TRP800  GLU811  SER814 

> <Gold.Protein.RotatedAtoms>
  151.5893  135.1054  160.0035 H   0  0  0  0  0  0  0  0  0  0  0  0  # atno 6907 bound_to 6896
  152.4314  133.7280  159.6582 H   0  0  0  0  0  0  0  0  0  0  0  0  # atno 6908 bound_to 6896
  150.8207  133.8187  159.3163 H   0  0  0  0  0  0  0  0  0  0  0  0  # atno 6909 bound_to 6896
  146.0915  140.5909  142.8862 H   0  0  0  0  0  0  0  0  0  0  0  0  # atno 7974 bound_to 7965
  156.0628  140.1352  156.9921 H   0  0  0  0  0  0  0  0  0  0  0  0  # atno 8008 bound_to 7997
  154.4490  140.0988  156.6613 H   0  0  0  0  0  0  0  0  0  0  0  0  # atno 8009 bound_to 7997
  155.5351  140.3459  155.4437 H   0  0  0  0  0  0  0  0  0  0  0  0  # atno 8010 bound_to 7997
  140.1237  143.4421  152.1674 H   0  0  0  0  0  0  0  0  0  0  0  0  # atno 10167 bound_to 10162
  156.1021  130.6180  150.9140 H   0  0  0  0  0  0  0  0  0  0  0  0  # atno 10718 bound_to 10713
  154.8573  135.4289  154.2069 H   0  0  0  0  0  0  0  0  0  0  0  0  # atno 10763 bound_to 10752
  153.3104  135.6975  153.7127 H   0  0  0  0  0  0  0  0  0  0  0  0  # atno 10764 bound_to 10752
  153.6222  135.3500  155.2988 H   0  0  0  0  0  0  0  0  0  0  0  0  # atno 10765 bound_to 10752
  141.0364  133.6798  156.2693 H   0  0  0  0  0  0  0  0  0  0  0  0  # atno 11005 bound_to 11000
  144.7364  140.4819  143.6901 LP  0  0  0  0  0  0  0  0  0  0  0  0  # atno 17320 bound_to 7965
  145.6029  139.1505  143.3119 LP  0  0  0  0  0  0  0  0  0  0  0  0  # atno 17321 bound_to 7965
  139.5555  144.7370  151.4306 LP  0  0  0  0  0  0  0  0  0  0  0  0  # atno 17342 bound_to 10162
  140.6857  143.7979  150.7183 LP  0  0  0  0  0  0  0  0  0  0  0  0  # atno 17343 bound_to 10162
  157.6192  131.0931  150.8653 LP  0  0  0  0  0  0  0  0  0  0  0  0  # atno 17370 bound_to 10713
  156.8779  130.5169  149.5292 LP  0  0  0  0  0  0  0  0  0  0  0  0  # atno 17371 bound_to 10713
  140.6314  134.5260  157.5560 LP  0  0  0  0  0  0  0  0  0  0  0  0  # atno 17394 bound_to 11000
  139.9244  134.8085  156.1114 LP  0  0  0  0  0  0  0  0  0  0  0  0  # atno 17395 bound_to 11000

$$$$
