AV-unprocessed.smi:1673|AV-procd|sdf|6709|dock2
  -GOLD-   22720 7453D 1   1.00000     0.00000
 Structure written by MMmdl.
 39 40  0  0  0  0  0  0  0  0  1 V2000
  153.5460  137.6251  155.2610 C   0  0  0  0  0  0  0  0  0  0  0  0
  152.3794  138.5558  155.0775 C   0  0  0  0  0  0  0  0  0  0  0  0
  152.5251  139.8376  155.3797 N   0  0  0  0  0  0  0  0  0  0  0  0
  151.2744  140.4433  155.1833 O   0  0  0  0  0  0  0  0  0  0  0  0
  150.3916  139.5016  154.7601 C   0  0  0  0  0  0  0  0  0  0  0  0
  148.9902  139.9487  154.5137 C   0  0  0  0  0  0  0  0  0  0  0  0
  151.0422  138.3084  154.6487 C   0  0  0  0  0  0  0  0  0  0  0  0
  150.4325  137.0902  154.2577 N   0  0  0  0  0  0  0  0  0  0  0  0
  150.4959  135.9165  154.9042 C   0  0  0  0  0  0  0  0  0  0  0  0
  151.1443  135.7148  155.9306 O   0  0  0  0  0  0  0  0  0  0  0  0
  149.7737  134.9757  154.2784 N   0  0  0  0  0  0  0  0  0  0  0  0
  149.6295  133.5833  154.7019 C   0  0  2  0  0  0  0  0  0  0  0  0
  151.0024  133.0669  155.1755 C   0  0  0  0  0  0  0  0  0  0  0  0
  150.9441  131.5877  155.5836 C   0  0  0  0  0  0  0  0  0  0  0  0
  150.4019  130.7233  154.4378 C   0  0  0  0  0  0  0  0  0  0  0  0
  149.0257  131.2238  153.9744 C   0  0  0  0  0  0  0  0  0  0  0  0
  149.0641  132.7073  153.5535 C   0  0  1  0  0  0  0  0  0  0  0  0
  147.6737  133.1667  153.0785 C   0  0  0  0  0  0  0  0  0  0  0  0
  153.2147  136.6303  155.5585 H   0  0  0  0  0  0  0  0  0  0  0  0
  154.2250  137.9848  156.0348 H   0  0  0  0  0  0  0  0  0  0  0  0
  154.1183  137.5281  154.3384 H   0  0  0  0  0  0  0  0  0  0  0  0
  148.3433  139.1031  154.2799 H   0  0  0  0  0  0  0  0  0  0  0  0
  148.9495  140.6462  153.6771 H   0  0  0  0  0  0  0  0  0  0  0  0
  148.5850  140.4498  155.3929 H   0  0  0  0  0  0  0  0  0  0  0  0
  149.9732  137.0919  153.3589 H   0  0  0  0  0  0  0  0  0  0  0  0
  149.2799  135.2427  153.4396 H   0  0  0  0  0  0  0  0  0  0  0  0
  148.9444  133.5200  155.5496 H   0  0  0  0  0  0  0  0  0  0  0  0
  151.7391  133.1911  154.3803 H   0  0  0  0  0  0  0  0  0  0  0  0
  151.3549  133.6632  156.0180 H   0  0  0  0  0  0  0  0  0  0  0  0
  151.9367  131.2415  155.8731 H   0  0  0  0  0  0  0  0  0  0  0  0
  150.3077  131.4744  156.4622 H   0  0  0  0  0  0  0  0  0  0  0  0
  151.1010  130.7427  153.6007 H   0  0  0  0  0  0  0  0  0  0  0  0
  150.3314  129.6835  154.7584 H   0  0  0  0  0  0  0  0  0  0  0  0
  148.6779  130.6092  153.1436 H   0  0  0  0  0  0  0  0  0  0  0  0
  148.3019  131.0893  154.7796 H   0  0  0  0  0  0  0  0  0  0  0  0
  149.7418  132.7889  152.7021 H   0  0  0  0  0  0  0  0  0  0  0  0
  146.9524  133.1530  153.8962 H   0  0  0  0  0  0  0  0  0  0  0  0
  147.2946  132.5156  152.2904 H   0  0  0  0  0  0  0  0  0  0  0  0
  147.6988  134.1782  152.6733 H   0  0  0  0  0  0  0  0  0  0  0  0
  1  2  1  0  0  0  0
  1 19  1  0  0  0  0
  1 20  1  0  0  0  0
  1 21  1  0  0  0  0
  2  7  1  0  0  0  0
  2  3  2  0  0  0  0
  3  4  1  0  0  0  0
  4  5  1  0  0  0  0
  5  6  1  0  0  0  0
  5  7  2  0  0  0  0
  6 22  1  0  0  0  0
  6 23  1  0  0  0  0
  6 24  1  0  0  0  0
  7  8  1  0  0  0  0
  8  9  1  0  0  0  0
  8 25  1  0  0  0  0
  9 10  2  0  0  0  0
  9 11  1  0  0  0  0
 11 12  1  0  0  0  0
 11 26  1  0  0  0  0
 12 17  1  0  0  0  0
 12 13  1  0  0  0  0
 12 27  1  0  0  0  0
 13 14  1  0  0  0  0
 13 28  1  0  0  0  0
 13 29  1  0  0  0  0
 14 15  1  0  0  0  0
 14 30  1  0  0  0  0
 14 31  1  0  0  0  0
 15 16  1  0  0  0  0
 15 32  1  0  0  0  0
 15 33  1  0  0  0  0
 16 17  1  0  0  0  0
 16 34  1  0  0  0  0
 16 35  1  0  0  0  0
 17 18  1  0  0  0  0
 17 36  1  0  0  0  0
 18 37  1  0  0  0  0
 18 38  1  0  0  0  0
 18 39  1  0  0  0  0
M  END
> <s_m_source_file>
AV-unprocessed.smi

> <i_m_source_file_index>
1673

> <i_lp_mmshare_version>
43012

> <i_f3d_flags>
0

> <s_epik_input>
W0NIM11jMW5vYyhbQ0gzXSljMVtOSF1DKD1PKVtOSF1bQ0BASF0yW0NIMl1bQ0gyXVtDSDJdW0NIMl1bQ0BIXTJbQ0gzXQ==

> <s_epik_cmdline>
J2VwaWtfcHl0aG9uJywgJy1waCcsICc3LjAnLCAnLXRuJywgJzgnLCAnLW1hJywgJzIwMCcsICctbWV0YWxfYmluZGluZycsICctaW1hZScsICc8aW5maWxlLm1hZT4nLCAnLW9tYWUnLCAnPG91dGZpbGUubWFlPic=

> <r_lp_tautomer_probability>
1

> <r_epik_Ionization_Penalty>
4.01865e-05

> <r_epik_Ionization_Penalty_Charging>
0

> <r_epik_Ionization_Penalty_Neutral>
4.01865e-05

> <r_epik_State_Penalty>
-0

> <r_epik_Charging_Adjusted_Penalty>
0

> <i_epik_Tot_Q>
0

> <i_epik_Tot_abs_Q>
0

> <r_epik_Metal_State_Penalty>
-0

> <b_epik_Metal_Only>
0

> <s_lp_Force_Field>
OPLS_2005

> <r_lp_Energy>
12.0287

> <b_lp_Chiralities_Consistent>
1

> <s_lp_Variant>
AV-unprocessed.smi:1673-1

> <Gold.Version>
5.8.1

> <Gold.Id.Protein>
6NUR|6NUR_protein|mol2

> <Gold.PLP.Fitness>
40.7333

> <Gold.PLP.PLP>
-31.4546

> <Gold.PLP.part.hbond>
-5.4938

> <Gold.PLP.part.metal>
0.0000

> <Gold.PLP.part.buried>
1.2133

> <Gold.PLP.part.nonpolar>
-27.4201

> <Gold.PLP.part.repulsive>
0.1730

> <Gold.PLP.ligand.clash>
0.0000

> <Gold.PLP.ligand.torsion>
0.6643

> <Gold.PLP.Chemscore.Hbond>
3.4488

> <Gold.PLP.Chemscore.CHOScore>
0.0000

> <Gold.PLP.Chemscore.Metal>
0.0000

> <Gold.Chemscore.Hbonds>
donor molecule, donor type, donor heavy atom, donor atom, acceptor molecule, acceptor atom, score
      L1  H     8    25       P1  7948  1.00
      L1  H    11    26       P1  7948  0.90
      P1  H  7989  7998       L1     4  0.34
      P1  H  7997  8008       L1     3  1.00
      P1  H 10752 10765       L1    10  0.09

> <Gold.PLP.Chemscore.Internal.Correction>
0.2608

> <Gold.Rescore>
     Score         DG    S(hbond)    S(metal)    S(lipo)     H(rot)  DE(clash)    DE(int)     intcor
     15.18     -19.17       2.37        0.00      71.23       1.00       2.02       1.97       ----

> <Gold.Chemscore.Fitness>
15.1801

> <Gold.Chemscore.DG>
-19.1698

> <Gold.Chemscore.ZeroCoef>
-5.4800

> <Gold.Chemscore.Hbond>
2.3700

> <Gold.Chemscore.Metal>
0.0000

> <Gold.Chemscore.Lipo>
71.2312

> <Gold.Chemscore.Internal_Hbond>
0.0000

> <Gold.Chemscore.DEClash>
2.0209

> <Gold.Chemscore.DEInternal>
1.9688

> <Gold.Chemscore.Rot>
1.0000

> <Gold.Chemscore.Internal.Correction>
   9.000000E+99

> <Gold.Chemscore.Hbonds>
donor molecule, donor type, donor heavy atom, donor atom, acceptor molecule, acceptor atom, score
      L1  H     8    25       P1  7948  0.25
      L1  H    11    26       P1  7948  0.18
      P1  H  7997  8008       L1     3  0.71

> <Gold.Chemscore.Hbond.Weighted>
-7.9157

> <Gold.Chemscore.Metal.Weighted>
-0.0000

> <Gold.Chemscore.Lipo.Weighted>
-8.3341

> <Gold.Chemscore.Internal_Hbond.Weighted>
0.0000

> <Gold.Chemscore.DEClash.Weighted>
2.0209

> <Gold.Chemscore.DEInternal.Weighted>
1.9688

> <Gold.Chemscore.Rot.Weighted>
2.5600

> <Gold.Chemscore.Internal.Correction.Weighted>
   9.000000E+99

> <Gold.Protein.RotatedTorsions>
[ 6907 6896 6895 6894 ] final  -51.17 input  -60.11 | X-H torsion
[ 7974 7965 7964 7962 ] final  -54.15 input  175.53 | X-H torsion
[ 8008 7997 7996 7995 ] final  -27.66 input   59.86 | X-H torsion
[ 10167 10162 10161 10158 ] final -173.05 input  -65.29 | X-H torsion
[ 10718 10713 10712 10709 ] final   63.84 input   66.30 | X-H torsion
[ 10763 10752 10751 10750 ] final  174.26 input  -60.55 | X-H torsion
[ 11005 11000 10999 10996 ] final -168.23 input  -57.11 | X-H torsion

> <Gold.Protein.ActiveResidues>
 VAL166  LYS551  ARG553  GLY616  TRP617  ASP618  TYR619  PRO620  LYS621  CYS622 
 ASP623  PHE694  ASN695  SER759  ASP760  ASP761  ALA762  ILE779  LEU786  VAL792 
 PHE793  MET794  SER795  GLU796  ALA797  LYS798  CYS799  TRP800  GLU811  SER814 

> <Gold.Protein.RotatedAtoms>
  150.8637  134.7995  159.7101 H   0  0  0  0  0  0  0  0  0  0  0  0  # atno 6907 bound_to 6896
  152.4665  134.5058  159.9748 H   0  0  0  0  0  0  0  0  0  0  0  0  # atno 6908 bound_to 6896
  151.5158  133.3437  159.2928 H   0  0  0  0  0  0  0  0  0  0  0  0  # atno 6909 bound_to 6896
  145.8888  140.8087  142.9802 H   0  0  0  0  0  0  0  0  0  0  0  0  # atno 7974 bound_to 7965
  154.4367  140.1866  156.0967 H   0  0  0  0  0  0  0  0  0  0  0  0  # atno 8008 bound_to 7997
  156.0324  140.3329  155.7128 H   0  0  0  0  0  0  0  0  0  0  0  0  # atno 8009 bound_to 7997
  155.5820  140.0622  157.2771 H   0  0  0  0  0  0  0  0  0  0  0  0  # atno 8010 bound_to 7997
  139.5710  144.1642  152.1383 H   0  0  0  0  0  0  0  0  0  0  0  0  # atno 10167 bound_to 10162
  157.5999  130.9127  149.9768 H   0  0  0  0  0  0  0  0  0  0  0  0  # atno 10718 bound_to 10713
  154.4514  135.2765  155.1778 H   0  0  0  0  0  0  0  0  0  0  0  0  # atno 10763 bound_to 10752
  154.3603  135.6131  153.5691 H   0  0  0  0  0  0  0  0  0  0  0  0  # atno 10764 bound_to 10752
  152.9847  135.5833  154.4860 H   0  0  0  0  0  0  0  0  0  0  0  0  # atno 10765 bound_to 10752
  140.5444  134.5491  157.5107 H   0  0  0  0  0  0  0  0  0  0  0  0  # atno 11005 bound_to 11000
  144.6729  140.1497  143.7431 LP  0  0  0  0  0  0  0  0  0  0  0  0  # atno 17320 bound_to 7965
  145.8934  139.2389  143.1536 LP  0  0  0  0  0  0  0  0  0  0  0  0  # atno 17321 bound_to 7965
  140.1175  144.5403  150.6884 LP  0  0  0  0  0  0  0  0  0  0  0  0  # atno 17342 bound_to 10162
  140.6994  143.2425  151.4907 LP  0  0  0  0  0  0  0  0  0  0  0  0  # atno 17343 bound_to 10162
  156.1069  130.3652  150.0117 LP  0  0  0  0  0  0  0  0  0  0  0  0  # atno 17370 bound_to 10713
  156.8222  130.9363  151.3641 LP  0  0  0  0  0  0  0  0  0  0  0  0  # atno 17371 bound_to 10713
  139.9487  134.7655  156.0499 LP  0  0  0  0  0  0  0  0  0  0  0  0  # atno 17394 bound_to 11000
  141.1208  133.6613  156.3211 LP  0  0  0  0  0  0  0  0  0  0  0  0  # atno 17395 bound_to 11000

$$$$
