#       Name:                AV-unprocessed.smi:2478
#       Creating user name   scv26
#       Creation time:       Fri Mar 27 13:40:54 2020


#       File generated by GOLD software.
#

@<TRIPOS>MOLECULE
AV-unprocessed.smi:2478
    49    50     1
SMALL
NO_CHARGES


@<TRIPOS>ATOM
      1 ****        -2.4969  -0.7754  -1.9586 C.3            1 S1                 0.0000
      2 ****        -2.9165  -0.0373  -0.6777 C.3            1 S1                 0.0000
      3 ****        -2.3528   1.3974  -0.6352 C.3            1 S1                 0.0000
      4 ****        -2.8021   2.1429   0.6316 C.3            1 S1                 0.0000
      5 ****        -2.4169   1.3681   1.9007 C.3            1 S1                 0.0000
      6 ****        -2.9724  -0.0661   1.8696 C.3            1 S1                 0.0000
      7 ****        -2.5398  -0.8221   0.5998 C.3            1 S1                 0.0000
      8 ****        -1.1288  -0.9883   0.6482 O.3            1 S1                 0.0000
      9 ****        -0.6912  -2.3403   0.6450 C.3            1 S1                 0.0000
     10 ****         0.8374  -2.3764   0.6179 C.2            1 S1                 0.0000
     11 ****         1.4262  -3.3487   1.0899 O.2            1 S1                 0.0000
     12 ****         1.4402  -1.3155   0.0496 N.am           1 S1                 0.0000
     13 ****         2.8269  -1.0553  -0.1096 C.ar           1 S1                 0.0000
     14 ****         3.7934  -1.9423   0.2348 N.ar           1 S1                 0.0000
     15 ****         5.0876  -1.6129   0.0482 C.ar           1 S1                 0.0000
     16 ****         5.4967  -0.3827  -0.4952 C.ar           1 S1                 0.0000
     17 ****         4.5046   0.5450  -0.8571 C.ar           1 S1                 0.0000
     18 ****         3.1440   0.2130  -0.6570 C.ar           1 S1                 0.0000
     19 ****         2.1247   1.0720  -1.0046 O.3            1 S1                 0.0000
     20 ****         2.2704   2.3977  -0.7431 C.3            1 S1                 0.0000
     21 ****         2.7289   3.0490  -1.8399 F              1 S1                 0.0000
     22 ****         1.0705   2.9354  -0.4162 F              1 S1                 0.0000
     23 ****        -1.4128  -0.8713  -2.0274 H              1 S1                 0.0000
     24 ****        -2.8385  -0.2429  -2.8466 H              1 S1                 0.0000
     25 ****        -2.9234  -1.7783  -1.9917 H              1 S1                 0.0000
     26 ****        -4.0045   0.0406  -0.7004 H              1 S1                 0.0000
     27 ****        -1.2630   1.3691  -0.6741 H              1 S1                 0.0000
     28 ****        -2.6765   1.9515  -1.5168 H              1 S1                 0.0000
     29 ****        -2.3567   3.1379   0.6544 H              1 S1                 0.0000
     30 ****        -3.8828   2.2878   0.6066 H              1 S1                 0.0000
     31 ****        -1.3306   1.3407   1.9955 H              1 S1                 0.0000
     32 ****        -2.7888   1.8909   2.7822 H              1 S1                 0.0000
     33 ****        -2.6469  -0.6103   2.7568 H              1 S1                 0.0000
     34 ****        -4.0616  -0.0302   1.9141 H              1 S1                 0.0000
     35 ****        -3.0477  -1.7887   0.5851 H              1 S1                 0.0000
     36 ****        -1.0588  -2.8565   1.5332 H              1 S1                 0.0000
     37 ****        -1.0710  -2.8642  -0.2333 H              1 S1                 0.0000
     38 ****         0.8241  -0.5895  -0.2872 H              1 S1                 0.0000
     39 ****         5.8184  -2.3530   0.3387 H              1 S1                 0.0000
     40 ****         6.5438  -0.1580  -0.6334 H              1 S1                 0.0000
     41 ****         4.7910   1.4940  -1.2855 H              1 S1                 0.0000
     42 ****         2.9526   2.5715   0.0897 H              1 S1                 0.0000
     43 ****        -0.7921  -0.5536   1.4835 LP             1 S1                 0.0000
     44 ****        -0.7335  -0.5307  -0.1483 LP             1 S1                 0.0000
     45 ****         0.9052  -4.1048   1.4859 LP             1 S1                 0.0000
     46 ****         2.4255  -3.3825   1.0773 LP             1 S1                 0.0000
     47 ****         3.5489  -2.8309   0.6229 LP             1 S1                 0.0000
     48 ****         1.3041   0.7654  -0.5224 LP             1 S1                 0.0000
     49 ****         1.9857   0.9801  -1.9906 LP             1 S1                 0.0000
@<TRIPOS>BOND
    1    1    2 1     
    2    1   23 1     
    3    1   24 1     
    4    1   25 1     
    5    2    7 1     
    6    2    3 1     
    7    2   26 1     
    8    3    4 1     
    9    3   27 1     
   10    3   28 1     
   11    4    5 1     
   12    4   29 1     
   13    4   30 1     
   14    5    6 1     
   15    5   31 1     
   16    5   32 1     
   17    6    7 1     
   18    6   33 1     
   19    6   34 1     
   20    7    8 1     
   21    7   35 1     
   22    8    9 1     
   23    9   10 1     
   24    9   36 1     
   25    9   37 1     
   26   10   11 2     
   27   10   12 am    
   28   12   13 1     
   29   12   38 1     
   30   13   18 ar    
   31   13   14 ar    
   32   14   15 ar    
   33   15   16 ar    
   34   15   39 1     
   35   16   17 ar    
   36   16   40 1     
   37   17   18 ar    
   38   17   41 1     
   39   18   19 1     
   40   19   20 1     
   41   20   21 1     
   42   20   22 1     
   43   20   42 1     
   44    8   43 1     
   45    8   44 1     
   46   11   45 1     
   47   11   46 1     
   48   14   47 1     
   49   19   48 1     
   50   19   49 1     
@<TRIPOS>SUBSTRUCTURE
      1 S1             1
@<TRIPOS>SET
LONE_PAIRS      STATIC     ATOMS    <user>   **** ""
7 43 44 45 46 47 48 49
DONOR_HYDROGENS      STATIC     ATOMS    <user>   **** ""
1 38
ATOM$BLUE        STATIC     ATOMS    COLORGROUP SYSTEM
7 43 44 45 46 47 48 49
ATOM$RED        STATIC     ATOMS    COLORGROUP SYSTEM
1 38
