AV-unprocessed.smi:1464|AV-procd|sdf|5943|dock2
  -GOLD-   22720 6 23D 1   1.00000     0.00000
 Structure written by MMmdl.
 41 42  0  0  0  0  0  0  0  0  1 V2000
  145.9823  143.0705  153.7350 C   0  0  0  0  0  0  0  0  0  0  0  0
  147.1685  142.3752  154.4273 C   0  0  2  0  0  0  0  0  0  0  0  0
  147.7165  141.2537  153.5204 C   0  0  0  0  0  0  0  0  0  0  0  0
  148.9136  140.5303  154.1517 C   0  0  0  0  0  0  0  0  0  0  0  0
  148.5500  139.9701  155.5343 C   0  0  0  0  0  0  0  0  0  0  0  0
  148.0054  141.0632  156.4718 C   0  0  1  0  0  0  0  0  0  0  0  0
  149.0855  141.9796  156.8455 N   0  0  0  0  0  0  0  0  0  0  0  0
  150.2809  141.6358  157.3493 C   0  0  0  0  0  0  0  0  0  0  0  0
  150.6120  140.4719  157.5796 O   0  0  0  0  0  0  0  0  0  0  0  0
  151.2322  142.8007  157.6604 C   0  0  0  0  0  0  0  0  0  0  0  0
  151.8570  142.7067  158.9874 N   0  0  0  0  0  0  0  0  0  0  0  0
  151.4890  143.7197  159.8601 N   0  0  0  0  0  0  0  0  0  0  0  0
  151.9598  143.7385  161.0612 C   0  0  0  0  0  0  0  0  0  0  0  0
  151.5671  144.7576  161.8941 O   0  0  0  0  0  0  0  0  0  0  0  0
  152.8763  142.7186  161.5223 C   0  0  0  0  0  0  0  0  0  0  0  0
  153.2331  141.7389  160.6630 C   0  0  0  0  0  0  0  0  0  0  0  0
  152.7178  141.6877  159.2935 C   0  0  0  0  0  0  0  0  0  0  0  0
  153.0279  140.8091  158.4891 O   0  0  0  0  0  0  0  0  0  0  0  0
  146.8081  141.8166  155.8325 C   0  0  1  0  0  0  0  0  0  0  0  0
  146.2440  142.8905  156.7850 C   0  0  0  0  0  0  0  0  0  0  0  0
  151.5034  145.5224  161.3434 H   0  0  0  0  0  0  0  0  0  0  0  0
  145.1250  142.4023  153.6493 H   0  0  0  0  0  0  0  0  0  0  0  0
  146.2517  143.3935  152.7290 H   0  0  0  0  0  0  0  0  0  0  0  0
  145.6630  143.9601  154.2773 H   0  0  0  0  0  0  0  0  0  0  0  0
  147.9558  143.1210  154.5463 H   0  0  0  0  0  0  0  0  0  0  0  0
  146.9266  140.5302  153.3138 H   0  0  0  0  0  0  0  0  0  0  0  0
  148.0137  141.6656  152.5553 H   0  0  0  0  0  0  0  0  0  0  0  0
  149.2428  139.7205  153.5000 H   0  0  0  0  0  0  0  0  0  0  0  0
  149.7564  141.2173  154.2366 H   0  0  0  0  0  0  0  0  0  0  0  0
  147.7960  139.1909  155.4162 H   0  0  0  0  0  0  0  0  0  0  0  0
  149.4184  139.4855  155.9827 H   0  0  0  0  0  0  0  0  0  0  0  0
  147.6397  140.5565  157.3664 H   0  0  0  0  0  0  0  0  0  0  0  0
  148.9064  142.9627  156.7012 H   0  0  0  0  0  0  0  0  0  0  0  0
  152.0037  142.8577  156.8898 H   0  0  0  0  0  0  0  0  0  0  0  0
  150.6653  143.7295  157.5747 H   0  0  0  0  0  0  0  0  0  0  0  0
  153.2616  142.7472  162.5310 H   0  0  0  0  0  0  0  0  0  0  0  0
  153.9165  140.9704  160.9936 H   0  0  0  0  0  0  0  0  0  0  0  0
  146.0156  141.0796  155.6932 H   0  0  0  0  0  0  0  0  0  0  0  0
  146.9182  143.7424  156.8763 H   0  0  0  0  0  0  0  0  0  0  0  0
  146.0877  142.4823  157.7840 H   0  0  0  0  0  0  0  0  0  0  0  0
  145.2796  143.2653  156.4427 H   0  0  0  0  0  0  0  0  0  0  0  0
  1  2  1  0  0  0  0
  1 22  1  0  0  0  0
  1 23  1  0  0  0  0
  1 24  1  0  0  0  0
  2 19  1  0  0  0  0
  2  3  1  0  0  0  0
  2 25  1  0  0  0  0
  3  4  1  0  0  0  0
  3 26  1  0  0  0  0
  3 27  1  0  0  0  0
  4  5  1  0  0  0  0
  4 28  1  0  0  0  0
  4 29  1  0  0  0  0
  5  6  1  0  0  0  0
  5 30  1  0  0  0  0
  5 31  1  0  0  0  0
  6  7  1  0  0  0  0
  6 19  1  0  0  0  0
  6 32  1  0  0  0  0
  7  8  1  0  0  0  0
  7 33  1  0  0  0  0
  8  9  2  0  0  0  0
  8 10  1  0  0  0  0
 10 34  1  0  0  0  0
 10 35  1  0  0  0  0
 10 11  1  0  0  0  0
 11 12  1  0  0  0  0
 11 17  1  0  0  0  0
 12 13  2  0  0  0  0
 13 14  1  0  0  0  0
 13 15  1  0  0  0  0
 14 21  1  0  0  0  0
 15 36  1  0  0  0  0
 15 16  2  0  0  0  0
 16 37  1  0  0  0  0
 16 17  1  0  0  0  0
 17 18  2  0  0  0  0
 19 20  1  0  0  0  0
 19 38  1  0  0  0  0
 20 39  1  0  0  0  0
 20 40  1  0  0  0  0
 20 41  1  0  0  0  0
M  END
> <s_m_source_file>
AV-unprocessed.smi

> <i_m_source_file_index>
1464

> <i_lp_mmshare_version>
43012

> <i_f3d_flags>
0

> <s_epik_input>
W0NIM11bQ0BASF0xW0NIMl1bQ0gyXVtDSDJdW0NASF0oW0NASF0xW0NIM10pW05IXUMoPU8pW0NIMl1uMltuSF1jKD1PKVtjSF1bY0hdYzI9Tw==

> <s_epik_cmdline>
J2VwaWtfcHl0aG9uJywgJy1waCcsICc3LjAnLCAnLXRuJywgJzgnLCAnLW1hJywgJzIwMCcsICctbWV0YWxfYmluZGluZycsICctaW1hZScsICc8aW5maWxlLm1hZT4nLCAnLW9tYWUnLCAnPG91dGZpbGUubWFlPic=

> <r_lp_tautomer_probability>
0.9996

> <r_epik_Ionization_Penalty>
2.10335

> <r_epik_Ionization_Penalty_Charging>
3.98079e-08

> <r_epik_Ionization_Penalty_Neutral>
2.10335

> <r_epik_State_Penalty>
1.67957

> <r_epik_Charging_Adjusted_Penalty>
1.67957

> <i_epik_Tot_Q>
0

> <i_epik_Tot_abs_Q>
0

> <r_epik_Metal_State_Penalty>
1.67957

> <b_epik_Metal_Only>
0

> <s_lp_Force_Field>
OPLS_2005

> <r_lp_Energy>
20.9709

> <b_lp_Chiralities_Consistent>
1

> <s_lp_Variant>
AV-unprocessed.smi:1464-9

> <Gold.Version>
5.8.1

> <Gold.Id.Protein>
6NUR|6NUR_protein|mol2

> <Gold.PLP.Fitness>
44.0159

> <Gold.PLP.PLP>
-40.1909

> <Gold.PLP.part.hbond>
-3.2803

> <Gold.PLP.part.metal>
0.0000

> <Gold.PLP.part.buried>
-2.4443

> <Gold.PLP.part.nonpolar>
-32.3800

> <Gold.PLP.part.repulsive>
0.0272

> <Gold.PLP.ligand.clash>
0.0000

> <Gold.PLP.ligand.torsion>
0.2183

> <Gold.PLP.Chemscore.Hbond>
1.4149

> <Gold.PLP.Chemscore.CHOScore>
0.0000

> <Gold.PLP.Chemscore.Metal>
0.0000

> <Gold.Chemscore.Hbonds>
donor molecule, donor type, donor heavy atom, donor atom, acceptor molecule, acceptor atom, score
      L1  H     7    33       P1  8028  0.98
      P1  H  7997  8009       L1    18  0.19

> <Gold.PLP.Chemscore.Internal.Correction>
0.0169

> <Gold.Rescore>
     Score         DG    S(hbond)    S(metal)    S(lipo)     H(rot)  DE(clash)    DE(int)     intcor
      6.30     -10.51       1.04        0.00      61.88       2.22       0.58       3.62       ----

> <Gold.Chemscore.Fitness>
6.3040

> <Gold.Chemscore.DG>
-10.5078

> <Gold.Chemscore.ZeroCoef>
-5.4800

> <Gold.Chemscore.Hbond>
1.0412

> <Gold.Chemscore.Metal>
0.0000

> <Gold.Chemscore.Lipo>
61.8756

> <Gold.Chemscore.Internal_Hbond>
0.0000

> <Gold.Chemscore.DEClash>
0.5811

> <Gold.Chemscore.DEInternal>
3.6228

> <Gold.Chemscore.Rot>
2.2224

> <Gold.Chemscore.Internal.Correction>
   9.000000E+99

> <Gold.Chemscore.Hbonds>
donor molecule, donor type, donor heavy atom, donor atom, acceptor molecule, acceptor atom, score
      L1  H     7    33       P1  8028  0.87
      P1  H  7997  8009       L1    18  0.20

> <Gold.Chemscore.Hbond.Weighted>
-3.4777

> <Gold.Chemscore.Metal.Weighted>
-0.0000

> <Gold.Chemscore.Lipo.Weighted>
-7.2394

> <Gold.Chemscore.Internal_Hbond.Weighted>
0.0000

> <Gold.Chemscore.DEClash.Weighted>
0.5811

> <Gold.Chemscore.DEInternal.Weighted>
3.6228

> <Gold.Chemscore.Rot.Weighted>
5.6893

> <Gold.Chemscore.Internal.Correction.Weighted>
   9.000000E+99

> <Gold.Protein.RotatedTorsions>
[ 6907 6896 6895 6894 ] final  110.81 input  -60.11 | X-H torsion
[ 7974 7965 7964 7962 ] final  157.91 input  175.53 | X-H torsion
[ 8008 7997 7996 7995 ] final  140.75 input   59.86 | X-H torsion
[ 10167 10162 10161 10158 ] final   84.64 input  -65.29 | X-H torsion
[ 10718 10713 10712 10709 ] final  -81.50 input   66.30 | X-H torsion
[ 10763 10752 10751 10750 ] final -117.97 input  -60.55 | X-H torsion
[ 11005 11000 10999 10996 ] final  -23.44 input  -57.11 | X-H torsion

> <Gold.Protein.ActiveResidues>
 VAL166  LYS551  ARG553  GLY616  TRP617  ASP618  TYR619  PRO620  LYS621  CYS622 
 ASP623  PHE694  ASN695  SER759  ASP760  ASP761  ALA762  ILE779  LEU786  VAL792 
 PHE793  MET794  SER795  GLU796  ALA797  LYS798  CYS799  TRP800  GLU811  SER814 

> <Gold.Protein.RotatedAtoms>
  152.5001  133.8747  159.7315 H   0  0  0  0  0  0  0  0  0  0  0  0  # atno 6907 bound_to 6896
  150.9224  133.6855  159.2836 H   0  0  0  0  0  0  0  0  0  0  0  0  # atno 6908 bound_to 6896
  151.4228  135.1004  159.9671 H   0  0  0  0  0  0  0  0  0  0  0  0  # atno 6909 bound_to 6896
  144.7876  139.7405  143.6234 H   0  0  0  0  0  0  0  0  0  0  0  0  # atno 7974 bound_to 7965
  156.2975  140.2333  156.4451 H   0  0  0  0  0  0  0  0  0  0  0  0  # atno 8008 bound_to 7997
  154.8151  140.0441  157.1391 H   0  0  0  0  0  0  0  0  0  0  0  0  # atno 8009 bound_to 7997
  154.9379  140.3025  155.5139 H   0  0  0  0  0  0  0  0  0  0  0  0  # atno 8010 bound_to 7997
  139.9060  144.6301  150.8587 H   0  0  0  0  0  0  0  0  0  0  0  0  # atno 10167 bound_to 10162
  156.0049  130.4606  150.3962 H   0  0  0  0  0  0  0  0  0  0  0  0  # atno 10718 bound_to 10713
  154.8572  135.4291  154.2064 H   0  0  0  0  0  0  0  0  0  0  0  0  # atno 10763 bound_to 10752
  153.3099  135.6975  153.7131 H   0  0  0  0  0  0  0  0  0  0  0  0  # atno 10764 bound_to 10752
  153.6228  135.3499  155.2990 H   0  0  0  0  0  0  0  0  0  0  0  0  # atno 10765 bound_to 10752
  140.8752  133.7692  156.0234 H   0  0  0  0  0  0  0  0  0  0  0  0  # atno 11005 bound_to 11000
  146.2115  139.5474  142.9678 LP  0  0  0  0  0  0  0  0  0  0  0  0  # atno 17320 bound_to 7965
  145.5880  141.0373  143.2086 LP  0  0  0  0  0  0  0  0  0  0  0  0  # atno 17321 bound_to 7965
  140.7696  143.3401  151.2226 LP  0  0  0  0  0  0  0  0  0  0  0  0  # atno 17342 bound_to 10162
  139.6984  143.9574  152.2894 LP  0  0  0  0  0  0  0  0  0  0  0  0  # atno 17343 bound_to 10162
  157.2034  131.0443  151.2638 LP  0  0  0  0  0  0  0  0  0  0  0  0  # atno 17370 bound_to 10713
  157.3955  130.7305  149.6728 LP  0  0  0  0  0  0  0  0  0  0  0  0  # atno 17371 bound_to 10713
  140.8527  134.2935  157.5269 LP  0  0  0  0  0  0  0  0  0  0  0  0  # atno 17394 bound_to 11000
  139.8715  134.9476  156.3972 LP  0  0  0  0  0  0  0  0  0  0  0  0  # atno 17395 bound_to 11000

$$$$
