#       Name:                AV-unprocessed.smi:1740
#       Creating user name   scv26
#       Creation time:       Fri Mar 27 08:22:16 2020


#       File generated by GOLD software.
#

@<TRIPOS>MOLECULE
AV-unprocessed.smi:1740
    58    60     1
SMALL
NO_CHARGES


@<TRIPOS>ATOM
      1 ****        -5.6176  -3.6298   1.5580 N.am           1 S1                 0.0000
      2 ****        -6.1880  -2.4524   1.2902 C.2            1 S1                 0.0000
      3 ****        -6.9739  -1.9099   2.0638 O.2            1 S1                 0.0000
      4 ****        -5.8280  -1.7916  -0.0454 C.3            1 S1                 0.0000
      5 ****        -4.3939  -1.4550  -0.2023 N.3            1 S1                 0.0000
      6 ****        -3.9372  -0.4715   0.7912 C.3            1 S1                 0.0000
      7 ****        -2.4301  -0.2010   0.6343 C.3            1 S1                 0.0000
      8 ****        -2.0950   0.2900  -0.7834 C.3            1 S1                 0.0000
      9 ****        -0.6518   0.4158  -0.9634 N.am           1 S1                 0.0000
     10 ****         0.0801   1.4786  -0.6012 C.2            1 S1                 0.0000
     11 ****        -0.3906   2.4839  -0.0689 O.2            1 S1                 0.0000
     12 ****         1.3823   1.2907  -0.8725 N.am           1 S1                 0.0000
     13 ****         2.4597   2.1792  -0.5996 C.ar           1 S1                 0.0000
     14 ****         2.3032   3.5807  -0.7518 C.ar           1 S1                 0.0000
     15 ****         3.4023   4.4364  -0.5496 C.ar           1 S1                 0.0000
     16 ****         4.6467   3.8768  -0.2134 C.ar           1 S1                 0.0000
     17 ****         4.7660   2.5389  -0.0869 N.pl3          1 S1                 1.0000
     18 ****         3.7426   1.6640  -0.2538 C.ar           1 S1                 0.0000
     19 ****         4.0120   0.2882  -0.0724 N.3            1 S1                 0.0000
     20 ****         5.3834  -0.1792   0.0956 C.3            1 S1                 0.0000
     21 ****         5.2544  -1.6028   0.6304 C.3            1 S1                 0.0000
     22 ****         4.0125  -1.5099   1.5117 C.3            1 S1                 0.0000
     23 ****         3.1254  -0.4952   0.7830 C.3            1 S1                 0.0000
     24 ****        -2.6650  -0.7061  -1.8022 C.3            1 S1                 0.0000
     25 ****        -4.1649  -0.9476  -1.5593 C.3            1 S1                 0.0000
     26 ****        -5.8200  -4.0998   2.4284 H              1 S1                 0.0000
     27 ****        -4.9814  -4.0418   0.8908 H              1 S1                 0.0000
     28 ****        -6.1295  -2.4792  -0.8371 H              1 S1                 0.0000
     29 ****        -6.4337  -0.8920  -0.1714 H              1 S1                 0.0000
     30 ****        -4.5008   0.4575   0.6873 H              1 S1                 0.0000
     31 ****        -4.1106  -0.8318   1.8052 H              1 S1                 0.0000
     32 ****        -2.1130   0.5369   1.3722 H              1 S1                 0.0000
     33 ****        -1.8748  -1.1144   0.8533 H              1 S1                 0.0000
     34 ****        -2.5687   1.2597  -0.9490 H              1 S1                 0.0000
     35 ****        -0.1796  -0.3663  -1.3927 H              1 S1                 0.0000
     36 ****         1.6422   0.3767  -1.2133 H              1 S1                 0.0000
     37 ****         1.3573   4.0112  -1.0442 H              1 S1                 0.0000
     38 ****         3.2937   5.5052  -0.6639 H              1 S1                 0.0000
     39 ****         5.5453   4.4530  -0.0465 H              1 S1                 0.0000
     40 ****         5.9332  -0.1487  -0.8456 H              1 S1                 0.0000
     41 ****         5.9116   0.4373   0.8242 H              1 S1                 0.0000
     42 ****         5.0766  -2.2974  -0.1917 H              1 S1                 0.0000
     43 ****         6.1402  -1.9358   1.1722 H              1 S1                 0.0000
     44 ****         3.5216  -2.4721   1.6609 H              1 S1                 0.0000
     45 ****         4.2896  -1.1189   2.4918 H              1 S1                 0.0000
     46 ****         2.5762   0.1292   1.4895 H              1 S1                 0.0000
     47 ****         2.4016  -1.0159   0.1553 H              1 S1                 0.0000
     48 ****        -2.5118  -0.3328  -2.8154 H              1 S1                 0.0000
     49 ****        -2.1309  -1.6556  -1.7380 H              1 S1                 0.0000
     50 ****        -4.5256  -1.6720  -2.2908 H              1 S1                 0.0000
     51 ****        -4.7278  -0.0264  -1.7216 H              1 S1                 0.0000
     52 ****         5.6823   2.1634   0.1584 H              1 S1                 0.0000
     53 ****        -7.2071  -2.3509   2.9304 LP             1 S1                 0.0000
     54 ****        -7.3801  -1.0275   1.8266 LP             1 S1                 0.0000
     55 ****        -3.8630  -2.2887  -0.0501 LP             1 S1                 0.0000
     56 ****        -1.3718   2.5388   0.1160 LP             1 S1                 0.0000
     57 ****         0.2083   3.2456   0.1785 LP             1 S1                 0.0000
     58 ****         3.7753   0.0950  -1.0246 LP             1 S1                 0.0000
@<TRIPOS>BOND
    1    1    2 am    
    2    1   26 1     
    3    1   27 1     
    4    2    3 2     
    5    2    4 1     
    6    4    5 1     
    7    4   28 1     
    8    4   29 1     
    9    5   25 1     
   10    5    6 1     
   11    6    7 1     
   12    6   30 1     
   13    6   31 1     
   14    7    8 1     
   15    7   32 1     
   16    7   33 1     
   17    8    9 1     
   18    8   24 1     
   19    8   34 1     
   20    9   10 am    
   21    9   35 1     
   22   10   11 2     
   23   10   12 am    
   24   12   13 1     
   25   12   36 1     
   26   13   18 ar    
   27   13   14 ar    
   28   14   15 ar    
   29   14   37 1     
   30   15   16 ar    
   31   15   38 1     
   32   16   17 ar    
   33   16   39 1     
   34   17   18 ar    
   35   17   52 1     
   36   18   19 1     
   37   19   23 1     
   38   19   20 1     
   39   20   21 1     
   40   20   40 1     
   41   20   41 1     
   42   21   22 1     
   43   21   42 1     
   44   21   43 1     
   45   22   23 1     
   46   22   44 1     
   47   22   45 1     
   48   23   46 1     
   49   23   47 1     
   50   24   25 1     
   51   24   48 1     
   52   24   49 1     
   53   25   50 1     
   54   25   51 1     
   55    3   53 1     
   56    3   54 1     
   57    5   55 1     
   58   11   56 1     
   59   11   57 1     
   60   19   58 1     
@<TRIPOS>SUBSTRUCTURE
      1 S1             1
@<TRIPOS>SET
LONE_PAIRS      STATIC     ATOMS    <user>   **** ""
6 53 54 55 56 57 58
DONOR_HYDROGENS      STATIC     ATOMS    <user>   **** ""
5 26 27 35 36 52
ATOM$BLUE        STATIC     ATOMS    COLORGROUP SYSTEM
6 53 54 55 56 57 58
ATOM$RED        STATIC     ATOMS    COLORGROUP SYSTEM
5 26 27 35 36 52
