AV-unprocessed.smi:2889|AV-procd|sdf|11109|dock3
  -GOLD-   2272015573D 1   1.00000     0.00000
 Structure written by MMmdl.
 36 37  0  0  0  0  0  0  0  0  1 V2000
  153.4790  142.2961  162.3129 C   0  0  0  0  0  0  0  0  0  0  0  0
  153.1412  141.3992  160.7736 S   0  0  0  0  0  0  0  0  0  0  0  0
  152.1883  142.6372  159.8352 C   0  0  1  0  0  0  0  0  0  0  0  0
  153.0982  143.7986  159.3919 C   0  0  0  0  0  0  0  0  0  0  0  0
  152.3184  144.8699  158.6161 C   0  0  0  0  0  0  0  0  0  0  0  0
  151.6069  144.2614  157.4004 C   0  0  0  0  0  0  0  0  0  0  0  0
  150.6769  143.1098  157.8148 C   0  0  0  0  0  0  0  0  0  0  0  0
  151.4051  142.0301  158.6440 C   0  0  1  0  0  0  0  0  0  0  0  0
  152.2824  141.2151  157.7919 N   0  0  0  0  0  0  0  0  0  0  0  0
  151.5904  140.1771  156.5969 S   0  0  0  0  0  0  0  0  0  0  0  0
  150.6434  140.9723  155.7992 O   0  0  0  0  0  0  0  0  0  0  0  0
  152.7026  139.4711  155.9429 O   0  0  0  0  0  0  0  0  0  0  0  0
  150.6452  138.9704  157.6251 C   0  0  0  0  0  0  0  0  0  0  0  0
  151.5777  138.2184  158.5323 C   0  0  0  0  0  0  0  0  0  0  0  0
  152.4634  138.7413  159.5145 C   0  0  0  0  0  0  0  0  0  0  0  0
  153.0529  137.6274  160.0383 C   0  0  0  0  0  0  0  0  0  0  0  0
  152.5843  136.5105  159.4272 O   0  0  0  0  0  0  0  0  0  0  0  0
  151.6467  136.8982  158.4632 N   0  0  0  0  0  0  0  0  0  0  0  0
  154.1478  141.7110  162.9437 H   0  0  0  0  0  0  0  0  0  0  0  0
  152.5586  142.4715  162.8694 H   0  0  0  0  0  0  0  0  0  0  0  0
  153.9530  143.2549  162.1028 H   0  0  0  0  0  0  0  0  0  0  0  0
  151.4587  143.0506  160.5330 H   0  0  0  0  0  0  0  0  0  0  0  0
  153.5704  144.2524  160.2638 H   0  0  0  0  0  0  0  0  0  0  0  0
  153.9079  143.4163  158.7689 H   0  0  0  0  0  0  0  0  0  0  0  0
  151.5860  145.3397  159.2737 H   0  0  0  0  0  0  0  0  0  0  0  0
  152.9963  145.6600  158.2923 H   0  0  0  0  0  0  0  0  0  0  0  0
  151.0337  145.0307  156.8825 H   0  0  0  0  0  0  0  0  0  0  0  0
  152.3465  143.8966  156.6866 H   0  0  0  0  0  0  0  0  0  0  0  0
  149.8639  143.5200  158.4151 H   0  0  0  0  0  0  0  0  0  0  0  0
  150.2029  142.6727  156.9357 H   0  0  0  0  0  0  0  0  0  0  0  0
  150.6418  141.3702  159.0545 H   0  0  0  0  0  0  0  0  0  0  0  0
  153.0385  141.7757  157.3999 H   0  0  0  0  0  0  0  0  0  0  0  0
  149.9098  139.5286  158.2049 H   0  0  0  0  0  0  0  0  0  0  0  0
  150.1000  138.2983  156.9631 H   0  0  0  0  0  0  0  0  0  0  0  0
  152.6325  139.7699  159.7962 H   0  0  0  0  0  0  0  0  0  0  0  0
  153.7902  137.4724  160.8121 H   0  0  0  0  0  0  0  0  0  0  0  0
  1  2  1  0  0  0  0
  1 19  1  0  0  0  0
  1 20  1  0  0  0  0
  1 21  1  0  0  0  0
  2  3  1  0  0  0  0
  3  8  1  0  0  0  0
  3  4  1  0  0  0  0
  3 22  1  0  0  0  0
  4  5  1  0  0  0  0
  4 23  1  0  0  0  0
  4 24  1  0  0  0  0
  5  6  1  0  0  0  0
  5 25  1  0  0  0  0
  5 26  1  0  0  0  0
  6  7  1  0  0  0  0
  6 27  1  0  0  0  0
  6 28  1  0  0  0  0
  7  8  1  0  0  0  0
  7 29  1  0  0  0  0
  7 30  1  0  0  0  0
  8  9  1  0  0  0  0
  8 31  1  0  0  0  0
  9 10  1  0  0  0  0
  9 32  1  0  0  0  0
 10 11  2  0  0  0  0
 10 12  2  0  0  0  0
 10 13  1  0  0  0  0
 13 14  1  0  0  0  0
 13 33  1  0  0  0  0
 13 34  1  0  0  0  0
 14 18  2  0  0  0  0
 14 15  1  0  0  0  0
 15 16  2  0  0  0  0
 15 35  1  0  0  0  0
 16 17  1  0  0  0  0
 16 36  1  0  0  0  0
 17 18  1  0  0  0  0
M  END
> <s_m_source_file>
AV-unprocessed.smi

> <i_m_source_file_index>
2889

> <i_lp_mmshare_version>
43012

> <i_f3d_flags>
0

> <s_epik_input>
W0NIM11TW0NAQEhdMVtDSDJdW0NIMl1bQ0gyXVtDSDJdW0NASF0xW05IXVMoPU8pKD1PKVtDSDJdYzJbY0hdW2NIXW9uMg==

> <s_epik_cmdline>
J2VwaWtfcHl0aG9uJywgJy1waCcsICc3LjAnLCAnLXRuJywgJzgnLCAnLW1hJywgJzIwMCcsICctbWV0YWxfYmluZGluZycsICctaW1hZScsICc8aW5maWxlLm1hZT4nLCAnLW9tYWUnLCAnPG91dGZpbGUubWFlPic=

> <r_lp_tautomer_probability>
1

> <r_epik_Ionization_Penalty>
0.000229547

> <r_epik_Ionization_Penalty_Charging>
0

> <r_epik_Ionization_Penalty_Neutral>
0.000229547

> <r_epik_State_Penalty>
-0

> <r_epik_Charging_Adjusted_Penalty>
0

> <i_epik_Tot_Q>
0

> <i_epik_Tot_abs_Q>
0

> <r_epik_Metal_State_Penalty>
0.145979

> <b_epik_Metal_Only>
0

> <s_lp_Force_Field>
OPLS_2005

> <r_lp_Energy>
4.05076

> <b_lp_Chiralities_Consistent>
1

> <s_lp_Variant>
AV-unprocessed.smi:2889-2

> <Gold.Version>
5.8.1

> <Gold.Id.Protein>
6NUR|6NUR_protein|mol2

> <Gold.PLP.Fitness>
43.6629

> <Gold.PLP.PLP>
-37.9917

> <Gold.PLP.part.hbond>
-2.8321

> <Gold.PLP.part.metal>
0.0000

> <Gold.PLP.part.buried>
-2.5683

> <Gold.PLP.part.nonpolar>
-31.6409

> <Gold.PLP.part.repulsive>
0.0491

> <Gold.PLP.ligand.clash>
0.0000

> <Gold.PLP.ligand.torsion>
0.2470

> <Gold.PLP.Chemscore.Hbond>
2.0000

> <Gold.PLP.Chemscore.CHOScore>
0.0000

> <Gold.PLP.Chemscore.Metal>
0.0000

> <Gold.Chemscore.Hbonds>
donor molecule, donor type, donor heavy atom, donor atom, acceptor molecule, acceptor atom, score
      P1  H  6896  6909       L1    17  1.00
      P1  H  7997  8008       L1    12  1.00

> <Gold.PLP.Chemscore.Internal.Correction>
0.1652

> <Gold.Rescore>
     Score         DG    S(hbond)    S(metal)    S(lipo)     H(rot)  DE(clash)    DE(int)     intcor
     18.85     -20.22       2.02        0.00     107.74       1.81       0.08       1.29       ----

> <Gold.Chemscore.Fitness>
18.8537

> <Gold.Chemscore.DG>
-20.2200

> <Gold.Chemscore.ZeroCoef>
-5.4800

> <Gold.Chemscore.Hbond>
2.0233

> <Gold.Chemscore.Metal>
0.0000

> <Gold.Chemscore.Lipo>
107.7363

> <Gold.Chemscore.Internal_Hbond>
0.0000

> <Gold.Chemscore.DEClash>
0.0753

> <Gold.Chemscore.DEInternal>
1.2910

> <Gold.Chemscore.Rot>
1.8058

> <Gold.Chemscore.Internal.Correction>
   9.000000E+99

> <Gold.Chemscore.Hbonds>
donor molecule, donor type, donor heavy atom, donor atom, acceptor molecule, acceptor atom, score
      P1  H  6896  6909       L1    17  0.24
      P1  H  7997  8008       L1    12  0.96

> <Gold.Chemscore.Hbond.Weighted>
-6.7577

> <Gold.Chemscore.Metal.Weighted>
-0.0000

> <Gold.Chemscore.Lipo.Weighted>
-12.6051

> <Gold.Chemscore.Internal_Hbond.Weighted>
0.0000

> <Gold.Chemscore.DEClash.Weighted>
0.0753

> <Gold.Chemscore.DEInternal.Weighted>
1.2910

> <Gold.Chemscore.Rot.Weighted>
4.6228

> <Gold.Chemscore.Internal.Correction.Weighted>
   9.000000E+99

> <Gold.Protein.RotatedTorsions>
[ 6907 6896 6895 6894 ] final  133.90 input  -60.11 | X-H torsion
[ 7974 7965 7964 7962 ] final   18.49 input  175.53 | X-H torsion
[ 8008 7997 7996 7995 ] final  -31.20 input   59.86 | X-H torsion
[ 10167 10162 10161 10158 ] final   95.92 input  -65.29 | X-H torsion
[ 10718 10713 10712 10709 ] final  -50.31 input   66.30 | X-H torsion
[ 10763 10752 10751 10750 ] final   10.94 input  -60.55 | X-H torsion
[ 11005 11000 10999 10996 ] final  -63.16 input  -57.11 | X-H torsion

> <Gold.Protein.ActiveResidues>
 VAL166  LYS551  ARG553  GLY616  TRP617  ASP618  TYR619  PRO620  LYS621  CYS622 
 ASP623  PHE694  ASN695  SER759  ASP760  ASP761  ALA762  ILE779  LEU786  VAL792 
 PHE793  MET794  SER795  GLU796  ALA797  LYS798  CYS799  TRP800  GLU811  SER814 

> <Gold.Protein.RotatedAtoms>
  152.3170  133.5813  159.5718 H   0  0  0  0  0  0  0  0  0  0  0  0  # atno 6907 bound_to 6896
  150.7351  134.0068  159.3665 H   0  0  0  0  0  0  0  0  0  0  0  0  # atno 6908 bound_to 6896
  151.7956  135.0724  160.0444 H   0  0  0  0  0  0  0  0  0  0  0  0  # atno 6909 bound_to 6896
  146.2183  139.8450  142.8633 H   0  0  0  0  0  0  0  0  0  0  0  0  # atno 7974 bound_to 7965
  154.4222  140.1771  156.1529 H   0  0  0  0  0  0  0  0  0  0  0  0  # atno 8008 bound_to 7997
  155.9901  140.3370  155.6720 H   0  0  0  0  0  0  0  0  0  0  0  0  # atno 8009 bound_to 7997
  155.6384  140.0677  157.2617 H   0  0  0  0  0  0  0  0  0  0  0  0  # atno 8010 bound_to 7997
  139.7943  144.6840  150.9850 H   0  0  0  0  0  0  0  0  0  0  0  0  # atno 10167 bound_to 10162
  156.1812  130.4150  149.9504 H   0  0  0  0  0  0  0  0  0  0  0  0  # atno 10718 bound_to 10713
  153.1979  135.6852  153.8269 H   0  0  0  0  0  0  0  0  0  0  0  0  # atno 10763 bound_to 10752
  153.7545  135.3219  155.3328 H   0  0  0  0  0  0  0  0  0  0  0  0  # atno 10764 bound_to 10752
  154.8155  135.4689  154.0732 H   0  0  0  0  0  0  0  0  0  0  0  0  # atno 10765 bound_to 10752
  141.1384  133.6648  156.5638 H   0  0  0  0  0  0  0  0  0  0  0  0  # atno 11005 bound_to 11000
  145.2860  141.0153  143.3690 LP  0  0  0  0  0  0  0  0  0  0  0  0  # atno 17320 bound_to 7965
  144.9114  139.4524  143.6585 LP  0  0  0  0  0  0  0  0  0  0  0  0  # atno 17321 bound_to 7965
  140.7820  143.4348  151.0640 LP  0  0  0  0  0  0  0  0  0  0  0  0  # atno 17342 bound_to 10162
  139.8023  143.8066  152.3164 LP  0  0  0  0  0  0  0  0  0  0  0  0  # atno 17343 bound_to 10162
  156.7274  130.9030  151.3623 LP  0  0  0  0  0  0  0  0  0  0  0  0  # atno 17370 bound_to 10713
  157.6869  130.9194  150.0410 LP  0  0  0  0  0  0  0  0  0  0  0  0  # atno 17371 bound_to 10713
  140.3967  134.7392  157.4755 LP  0  0  0  0  0  0  0  0  0  0  0  0  # atno 17394 bound_to 11000
  140.0526  134.6109  155.8843 LP  0  0  0  0  0  0  0  0  0  0  0  0  # atno 17395 bound_to 11000

$$$$
