AV-unprocessed.smi:3110|AV-procd|sdf|11830|dock8
  -GOLD-   2272017203D 1   1.00000     0.00000
 Structure written by MMmdl.
 33 34  0  0  0  0  0  0  0  0  1 V2000
  150.5795  141.9996  156.3482 O   0  0  0  0  0  0  0  0  0  0  0  0
  151.2261  141.1307  156.9328 C   0  0  0  0  0  0  0  0  0  0  0  0
  151.6063  141.3125  158.4046 C   0  0  0  0  0  0  0  0  0  0  0  0
  152.5025  142.5470  158.6367 C   0  0  2  0  0  0  0  0  0  0  0  0
  152.7356  142.8205  160.1003 C   0  0  0  0  0  0  0  0  0  0  0  0
  152.5233  144.0937  160.4266 C   0  0  0  0  0  0  0  0  0  0  0  0
  152.1037  144.9259  159.2473 C   0  0  0  0  0  0  0  0  0  0  0  0
  151.9248  143.8908  158.1156 C   0  0  0  0  0  0  0  0  0  0  0  0
  151.6413  139.9981  156.3441 N   0  0  0  0  0  0  0  0  0  0  0  0
  151.4620  139.6669  154.9335 C   0  0  0  0  0  0  0  0  0  0  0  0
  150.2310  138.7691  154.7073 C   0  0  0  0  0  0  0  0  0  0  0  0
  149.0423  139.5255  154.3586 N   0  0  0  0  0  0  0  0  0  0  0  0
  147.8932  139.0454  153.7432 C   0  0  0  0  0  0  0  0  0  0  0  0
  147.0441  140.1199  153.6033 C   0  0  0  0  0  0  0  0  0  0  0  0
  147.6432  141.2622  154.1288 N   0  0  0  0  0  0  0  0  0  0  0  0
  148.8229  140.8324  154.5579 C   0  0  0  0  0  0  0  0  0  0  0  0
  150.6921  141.3949  158.9943 H   0  0  0  0  0  0  0  0  0  0  0  0
  152.1162  140.4148  158.7583 H   0  0  0  0  0  0  0  0  0  0  0  0
  153.4826  142.3738  158.1892 H   0  0  0  0  0  0  0  0  0  0  0  0
  153.0597  142.0507  160.7851 H   0  0  0  0  0  0  0  0  0  0  0  0
  152.6479  144.5138  161.4136 H   0  0  0  0  0  0  0  0  0  0  0  0
  151.1790  145.4639  159.4571 H   0  0  0  0  0  0  0  0  0  0  0  0
  152.8849  145.6494  159.0126 H   0  0  0  0  0  0  0  0  0  0  0  0
  152.4105  144.2090  157.1925 H   0  0  0  0  0  0  0  0  0  0  0  0
  150.8604  143.7915  157.8987 H   0  0  0  0  0  0  0  0  0  0  0  0
  152.1575  139.3359  156.9050 H   0  0  0  0  0  0  0  0  0  0  0  0
  151.3270  140.6032  154.3918 H   0  0  0  0  0  0  0  0  0  0  0  0
  152.3587  139.2042  154.5174 H   0  0  0  0  0  0  0  0  0  0  0  0
  150.4284  138.0399  153.9205 H   0  0  0  0  0  0  0  0  0  0  0  0
  150.0165  138.2009  155.6130 H   0  0  0  0  0  0  0  0  0  0  0  0
  147.7813  138.0105  153.4557 H   0  0  0  0  0  0  0  0  0  0  0  0
  146.0566  140.1580  153.1679 H   0  0  0  0  0  0  0  0  0  0  0  0
  149.5473  141.4846  155.0238 H   0  0  0  0  0  0  0  0  0  0  0  0
  1  2  2  0  0  0  0
  2  3  1  0  0  0  0
  2  9  1  0  0  0  0
  3  4  1  0  0  0  0
  3 17  1  0  0  0  0
  3 18  1  0  0  0  0
  4  8  1  0  0  0  0
  4  5  1  0  0  0  0
  4 19  1  0  0  0  0
  5  6  2  0  0  0  0
  5 20  1  0  0  0  0
  6  7  1  0  0  0  0
  6 21  1  0  0  0  0
  7  8  1  0  0  0  0
  7 22  1  0  0  0  0
  7 23  1  0  0  0  0
  8 24  1  0  0  0  0
  8 25  1  0  0  0  0
  9 10  1  0  0  0  0
  9 26  1  0  0  0  0
 10 11  1  0  0  0  0
 10 27  1  0  0  0  0
 10 28  1  0  0  0  0
 11 12  1  0  0  0  0
 11 29  1  0  0  0  0
 11 30  1  0  0  0  0
 12 16  1  0  0  0  0
 12 13  1  0  0  0  0
 13 14  2  0  0  0  0
 13 31  1  0  0  0  0
 14 15  1  0  0  0  0
 14 32  1  0  0  0  0
 15 16  2  0  0  0  0
 16 33  1  0  0  0  0
M  END
> <s_m_source_file>
AV-unprocessed.smi

> <i_m_source_file_index>
3110

> <i_lp_mmshare_version>
43012

> <i_f3d_flags>
0

> <s_epik_input>
W0NIMl0xW0NIMl1bQ0hdPVtDSF1bQ0BIXTFbQ0gyXUMoPU8pW05IXVtDSDJdW0NIMl1uMltjSF1bY0hdbltjSF0y

> <s_epik_cmdline>
J2VwaWtfcHl0aG9uJywgJy1waCcsICc3LjAnLCAnLXRuJywgJzgnLCAnLW1hJywgJzIwMCcsICctbWV0YWxfYmluZGluZycsICctaW1hZScsICc8aW5maWxlLm1hZT4nLCAnLW9tYWUnLCAnPG91dGZpbGUubWFlPic=

> <r_lp_tautomer_probability>
1

> <r_epik_Ionization_Penalty>
0.593629

> <r_epik_Ionization_Penalty_Charging>
0.593629

> <r_epik_Ionization_Penalty_Neutral>
1.57355e-08

> <r_epik_State_Penalty>
0.607413

> <r_epik_Charging_Adjusted_Penalty>
1.20104

> <i_epik_Tot_Q>
0

> <i_epik_Tot_abs_Q>
0

> <r_epik_Metal_State_Penalty>
0.299385

> <b_epik_Metal_Only>
0

> <s_lp_Force_Field>
OPLS_2005

> <r_lp_Energy>
17.6057

> <b_lp_Chiralities_Consistent>
1

> <s_lp_Variant>
AV-unprocessed.smi:3110-3

> <Gold.Version>
5.8.1

> <Gold.Id.Protein>
6NUR|6NUR_protein|mol2

> <Gold.PLP.Fitness>
42.2989

> <Gold.PLP.PLP>
-37.6676

> <Gold.PLP.part.hbond>
0.0000

> <Gold.PLP.part.metal>
0.0000

> <Gold.PLP.part.buried>
-2.3101

> <Gold.PLP.part.nonpolar>
-36.6495

> <Gold.PLP.part.repulsive>
0.3919

> <Gold.PLP.ligand.clash>
0.0000

> <Gold.PLP.ligand.torsion>
0.6831

> <Gold.PLP.Chemscore.Hbond>
0.0000

> <Gold.PLP.Chemscore.CHOScore>
1.9938

> <Gold.PLP.Chemscore.Metal>
0.0000

> <Gold.Chemscore.Hbonds>
donor molecule, donor type, donor heavy atom, donor atom, acceptor molecule, acceptor atom, score
      L1  C    13    31       P1  7948  0.70
      L1  C    14    32       P1 10175  1.00

> <Gold.PLP.Chemscore.Internal.Correction>
0.0163

> <Gold.Rescore>
     Score         DG    S(hbond)    S(metal)    S(lipo)     H(rot)  DE(clash)    DE(int)     intcor
      9.42     -11.39       0.00        0.00      94.48       2.01       0.07       1.90       ----

> <Gold.Chemscore.Fitness>
9.4206

> <Gold.Chemscore.DG>
-11.3861

> <Gold.Chemscore.ZeroCoef>
-5.4800

> <Gold.Chemscore.Hbond>
0.0000

> <Gold.Chemscore.Metal>
0.0000

> <Gold.Chemscore.Lipo>
94.4771

> <Gold.Chemscore.Internal_Hbond>
0.0000

> <Gold.Chemscore.DEClash>
0.0697

> <Gold.Chemscore.DEInternal>
1.8958

> <Gold.Chemscore.Rot>
2.0108

> <Gold.Chemscore.Internal.Correction>
   9.000000E+99

> <Gold.Chemscore.Hbond.Weighted>
-0.0000

> <Gold.Chemscore.Metal.Weighted>
-0.0000

> <Gold.Chemscore.Lipo.Weighted>
-11.0538

> <Gold.Chemscore.Internal_Hbond.Weighted>
0.0000

> <Gold.Chemscore.DEClash.Weighted>
0.0697

> <Gold.Chemscore.DEInternal.Weighted>
1.8958

> <Gold.Chemscore.Rot.Weighted>
5.1477

> <Gold.Chemscore.Internal.Correction.Weighted>
   9.000000E+99

> <Gold.Protein.RotatedTorsions>
[ 6907 6896 6895 6894 ] final  108.99 input  -60.11 | X-H torsion
[ 7974 7965 7964 7962 ] final  -65.02 input  175.53 | X-H torsion
[ 8008 7997 7996 7995 ] final   38.90 input   59.86 | X-H torsion
[ 10167 10162 10161 10158 ] final  -45.91 input  -65.29 | X-H torsion
[ 10718 10713 10712 10709 ] final   -6.24 input   66.30 | X-H torsion
[ 10763 10752 10751 10750 ] final   76.33 input  -60.55 | X-H torsion
[ 11005 11000 10999 10996 ] final   77.07 input  -57.11 | X-H torsion

> <Gold.Protein.ActiveResidues>
 VAL166  LYS551  ARG553  GLY616  TRP617  ASP618  TYR619  PRO620  LYS621  CYS622 
 ASP623  PHE694  ASN695  SER759  ASP760  ASP761  ALA762  ILE779  LEU786  VAL792 
 PHE793  MET794  SER795  GLU796  ALA797  LYS798  CYS799  TRP800  GLU811  SER814 

> <Gold.Protein.RotatedAtoms>
  152.5088  133.9009  159.7440 H   0  0  0  0  0  0  0  0  0  0  0  0  # atno 6907 bound_to 6896
  150.9425  133.6632  159.2795 H   0  0  0  0  0  0  0  0  0  0  0  0  # atno 6908 bound_to 6896
  151.3938  135.0965  159.9587 H   0  0  0  0  0  0  0  0  0  0  0  0  # atno 6909 bound_to 6896
  145.7595  140.8868  143.0437 H   0  0  0  0  0  0  0  0  0  0  0  0  # atno 7974 bound_to 7965
  155.2278  140.3336  155.4307 H   0  0  0  0  0  0  0  0  0  0  0  0  # atno 8008 bound_to 7997
  156.2307  140.1849  156.7296 H   0  0  0  0  0  0  0  0  0  0  0  0  # atno 8009 bound_to 7997
  154.5973  140.0628  156.9306 H   0  0  0  0  0  0  0  0  0  0  0  0  # atno 8010 bound_to 7997
  140.6839  143.2856  151.3707 H   0  0  0  0  0  0  0  0  0  0  0  0  # atno 10167 bound_to 10162
  156.7348  130.5191  149.5837 H   0  0  0  0  0  0  0  0  0  0  0  0  # atno 10718 bound_to 10713
  153.0718  135.4955  154.8320 H   0  0  0  0  0  0  0  0  0  0  0  0  # atno 10763 bound_to 10752
  154.7032  135.3005  154.9311 H   0  0  0  0  0  0  0  0  0  0  0  0  # atno 10764 bound_to 10752
  154.0028  135.6764  153.4813 H   0  0  0  0  0  0  0  0  0  0  0  0  # atno 10765 bound_to 10752
  139.9270  134.7653  156.1476 H   0  0  0  0  0  0  0  0  0  0  0  0  # atno 11005 bound_to 11000
  144.6833  139.9703  143.7482 LP  0  0  0  0  0  0  0  0  0  0  0  0  # atno 17320 bound_to 7965
  146.0278  139.3308  143.0773 LP  0  0  0  0  0  0  0  0  0  0  0  0  # atno 17321 bound_to 7965
  139.6182  144.0961  152.2366 LP  0  0  0  0  0  0  0  0  0  0  0  0  # atno 17342 bound_to 10162
  140.0396  144.6017  150.7421 LP  0  0  0  0  0  0  0  0  0  0  0  0  # atno 17343 bound_to 10162
  156.1504  130.6306  151.0588 LP  0  0  0  0  0  0  0  0  0  0  0  0  # atno 17370 bound_to 10713
  157.6843  131.0829  150.7285 LP  0  0  0  0  0  0  0  0  0  0  0  0  # atno 17371 bound_to 10713
  141.0835  133.6744  156.2385 LP  0  0  0  0  0  0  0  0  0  0  0  0  # atno 17394 bound_to 11000
  140.6308  134.5266  157.5559 LP  0  0  0  0  0  0  0  0  0  0  0  0  # atno 17395 bound_to 11000

$$$$
