AV-unprocessed.smi:148|AV-procd|sdf|1225|dock4
  -GOLD-   2262018423D 1   1.00000     0.00000
 Structure written by MMmdl.
 63 67  0  0  0  0  0  0  0  0  1 V2000
  148.5903  142.3631  154.2801 O   0  0  0  0  0  0  0  0  0  0  0  0
  147.5426  141.4206  154.3922 C   0  0  0  0  0  0  0  0  0  0  0  0
  147.6751  140.5687  155.6760 C   0  0  1  0  0  0  0  0  0  0  0  0
  146.3655  139.7642  155.8899 C   0  0  0  0  0  0  0  0  0  0  0  0
  146.2219  138.6008  155.0335 N   0  0  0  0  0  0  0  0  0  0  0  0
  146.3597  138.5660  153.6633 C   0  0  0  0  0  0  0  0  0  0  0  0
  146.1834  137.3946  153.1150 N   0  0  0  0  0  0  0  0  0  0  0  0
  145.8802  136.5663  154.1874 C   0  0  0  0  0  0  0  0  0  0  0  0
  145.5722  135.1868  154.3109 C   0  0  0  0  0  0  0  0  0  0  0  0
  145.5440  134.3639  153.2401 N   0  0  0  0  0  0  0  0  0  0  0  0
  144.6732  134.9237  152.2040 C   0  0  0  0  0  0  0  0  0  0  0  0
  144.3741  133.8950  151.1098 C   0  0  0  0  0  0  0  0  0  0  0  0
  145.6845  133.3722  150.5201 C   0  0  0  0  0  0  0  0  0  0  0  0
  146.5663  132.7989  151.6368 C   0  0  0  0  0  0  0  0  0  0  0  0
  146.8373  133.8206  152.7751 C   0  0  2  0  0  0  0  0  0  0  0  0
  147.6906  133.1556  153.9121 C   0  0  1  0  0  0  0  0  0  0  0  0
  148.9522  132.4103  153.4356 C   0  0  0  0  0  0  0  0  0  0  0  0
  149.8431  132.2304  154.6699 C   0  0  0  0  0  0  0  0  0  0  0  0
  149.3311  133.2273  155.7152 C   0  0  0  0  0  0  0  0  0  0  0  0
  148.2716  134.0787  155.0081 C   0  0  1  0  0  0  0  0  0  0  0  0
  148.9024  135.2129  154.4434 O   0  0  0  0  0  0  0  0  0  0  0  0
  145.3132  134.6981  155.5527 N   0  0  0  0  0  0  0  0  0  0  0  0
  145.3424  135.5169  156.6088 C   0  0  0  0  0  0  0  0  0  0  0  0
  145.6123  136.8242  156.6452 N   0  0  0  0  0  0  0  0  0  0  0  0
  145.8823  137.3103  155.3994 C   0  0  0  0  0  0  0  0  0  0  0  0
  148.9742  139.7091  155.6933 C   0  0  1  0  0  0  0  0  0  0  0  0
  149.2783  138.9919  154.3870 C   0  0  0  0  0  0  0  0  0  0  0  0
  150.7507  138.6426  154.5440 C   0  0  0  0  0  0  0  0  0  0  0  0
  151.3136  139.7579  155.2176 O   0  0  0  0  0  0  0  0  0  0  0  0
  150.2886  140.4828  155.8909 C   0  0  0  0  0  0  0  0  0  0  0  0
  148.3431  143.1453  154.7497 H   0  0  0  0  0  0  0  0  0  0  0  0
  146.5896  141.9485  154.3662 H   0  0  0  0  0  0  0  0  0  0  0  0
  147.5566  140.7802  153.5097 H   0  0  0  0  0  0  0  0  0  0  0  0
  147.7548  141.2845  156.4948 H   0  0  0  0  0  0  0  0  0  0  0  0
  146.3080  139.4148  156.9214 H   0  0  0  0  0  0  0  0  0  0  0  0
  145.4997  140.4101  155.7384 H   0  0  0  0  0  0  0  0  0  0  0  0
  146.6120  139.4398  153.0803 H   0  0  0  0  0  0  0  0  0  0  0  0
  143.7353  135.2631  152.6472 H   0  0  0  0  0  0  0  0  0  0  0  0
  145.1502  135.7993  151.7603 H   0  0  0  0  0  0  0  0  0  0  0  0
  143.7966  133.0687  151.5264 H   0  0  0  0  0  0  0  0  0  0  0  0
  143.7609  134.3445  150.3285 H   0  0  0  0  0  0  0  0  0  0  0  0
  145.4816  132.6075  149.7698 H   0  0  0  0  0  0  0  0  0  0  0  0
  146.2114  134.1806  150.0115 H   0  0  0  0  0  0  0  0  0  0  0  0
  146.0868  131.9105  152.0507 H   0  0  0  0  0  0  0  0  0  0  0  0
  147.4989  132.4646  151.1834 H   0  0  0  0  0  0  0  0  0  0  0  0
  147.4049  134.6442  152.3403 H   0  0  0  0  0  0  0  0  0  0  0  0
  147.0613  132.4127  154.4062 H   0  0  0  0  0  0  0  0  0  0  0  0
  148.7206  131.4525  152.9685 H   0  0  0  0  0  0  0  0  0  0  0  0
  149.4837  133.0143  152.6987 H   0  0  0  0  0  0  0  0  0  0  0  0
  149.7704  131.2125  155.0549 H   0  0  0  0  0  0  0  0  0  0  0  0
  150.8894  132.4119  154.4220 H   0  0  0  0  0  0  0  0  0  0  0  0
  148.8621  132.6758  156.5313 H   0  0  0  0  0  0  0  0  0  0  0  0
  150.1319  133.8248  156.1532 H   0  0  0  0  0  0  0  0  0  0  0  0
  147.5290  134.4143  155.7288 H   0  0  0  0  0  0  0  0  0  0  0  0
  148.7438  135.2100  153.5118 H   0  0  0  0  0  0  0  0  0  0  0  0
  145.1172  135.0590  157.5603 H   0  0  0  0  0  0  0  0  0  0  0  0
  148.8955  138.9556  156.4788 H   0  0  0  0  0  0  0  0  0  0  0  0
  148.6601  138.1084  154.2257 H   0  0  0  0  0  0  0  0  0  0  0  0
  149.1435  139.6656  153.5395 H   0  0  0  0  0  0  0  0  0  0  0  0
  150.8684  137.7558  155.1681 H   0  0  0  0  0  0  0  0  0  0  0  0
  151.2450  138.4584  153.5900 H   0  0  0  0  0  0  0  0  0  0  0  0
  150.2329  141.4766  155.4454 H   0  0  0  0  0  0  0  0  0  0  0  0
  150.5473  140.5976  156.9425 H   0  0  0  0  0  0  0  0  0  0  0  0
  1  2  1  0  0  0  0
  1 31  1  0  0  0  0
  2  3  1  0  0  0  0
  2 32  1  0  0  0  0
  2 33  1  0  0  0  0
  3  4  1  0  0  0  0
  3 26  1  0  0  0  0
  3 34  1  0  0  0  0
  4  5  1  0  0  0  0
  4 35  1  0  0  0  0
  4 36  1  0  0  0  0
  5 25  1  0  0  0  0
  5  6  1  0  0  0  0
  6  7  2  0  0  0  0
  6 37  1  0  0  0  0
  7  8  1  0  0  0  0
  8 25  2  0  0  0  0
  8  9  1  0  0  0  0
  9 10  1  0  0  0  0
  9 22  2  0  0  0  0
 10 15  1  0  0  0  0
 10 11  1  0  0  0  0
 11 12  1  0  0  0  0
 11 38  1  0  0  0  0
 11 39  1  0  0  0  0
 12 13  1  0  0  0  0
 12 40  1  0  0  0  0
 12 41  1  0  0  0  0
 13 14  1  0  0  0  0
 13 42  1  0  0  0  0
 13 43  1  0  0  0  0
 14 15  1  0  0  0  0
 14 44  1  0  0  0  0
 14 45  1  0  0  0  0
 15 16  1  0  0  0  0
 15 46  1  0  0  0  0
 16 20  1  0  0  0  0
 16 17  1  0  0  0  0
 16 47  1  0  0  0  0
 17 18  1  0  0  0  0
 17 48  1  0  0  0  0
 17 49  1  0  0  0  0
 18 19  1  0  0  0  0
 18 50  1  0  0  0  0
 18 51  1  0  0  0  0
 19 20  1  0  0  0  0
 19 52  1  0  0  0  0
 19 53  1  0  0  0  0
 20 21  1  0  0  0  0
 20 54  1  0  0  0  0
 21 55  1  0  0  0  0
 22 23  1  0  0  0  0
 23 24  2  0  0  0  0
 23 56  1  0  0  0  0
 24 25  1  0  0  0  0
 26 30  1  0  0  0  0
 26 27  1  0  0  0  0
 26 57  1  0  0  0  0
 27 28  1  0  0  0  0
 27 58  1  0  0  0  0
 27 59  1  0  0  0  0
 28 29  1  0  0  0  0
 28 60  1  0  0  0  0
 28 61  1  0  0  0  0
 29 30  1  0  0  0  0
 30 62  1  0  0  0  0
 30 63  1  0  0  0  0
M  END
> <s_m_source_file>
AV-unprocessed.smi

> <i_m_source_file_index>
148

> <i_lp_mmshare_version>
43012

> <i_f3d_flags>
0

> <s_epik_input>
W0NIMl0xT1tDSDJdW0NIMl1bQ0BIXTFbQ0BIXShbQ0gyXVtPSF0pW0NIMl1uKFtjSF1uMiljKGMyMyluW2NIXW5jM040W0NIMl1bQ0gyXVtDSDJdW0NIMl1bQ0BIXTRbQ0BASF01W0NIMl1bQ0gyXVtDSDJdW0NASF01W09IXQ==

> <s_epik_cmdline>
J2VwaWtfcHl0aG9uJywgJy1waCcsICc3LjAnLCAnLXRuJywgJzgnLCAnLW1hJywgJzIwMCcsICctbWV0YWxfYmluZGluZycsICctaW1hZScsICc8aW5maWxlLm1hZT4nLCAnLW9tYWUnLCAnPG91dGZpbGUubWFlPic=

> <r_lp_tautomer_probability>
1

> <r_epik_Ionization_Penalty>
0.00556303

> <r_epik_Ionization_Penalty_Charging>
0

> <r_epik_Ionization_Penalty_Neutral>
0.00556303

> <r_epik_State_Penalty>
0.00401767

> <r_epik_Charging_Adjusted_Penalty>
0.00401767

> <i_epik_Tot_Q>
0

> <i_epik_Tot_abs_Q>
0

> <r_epik_Metal_State_Penalty>
-0

> <b_epik_Metal_Only>
0

> <s_lp_Force_Field>
OPLS_2005

> <r_lp_Energy>
70.5137

> <b_lp_Chiralities_Consistent>
1

> <s_lp_Variant>
AV-unprocessed.smi:148-24

> <Gold.Version>
5.8.1

> <Gold.Id.Protein>
6NUR|6NUR_protein|mol2

> <Gold.PLP.Fitness>
45.0169

> <Gold.PLP.PLP>
-37.1302

> <Gold.PLP.part.hbond>
-4.0000

> <Gold.PLP.part.metal>
0.0000

> <Gold.PLP.part.buried>
-7.1201

> <Gold.PLP.part.nonpolar>
-27.8979

> <Gold.PLP.part.repulsive>
0.3847

> <Gold.PLP.ligand.clash>
0.0000

> <Gold.PLP.ligand.torsion>
0.9454

> <Gold.PLP.Chemscore.Hbond>
3.0664

> <Gold.PLP.Chemscore.CHOScore>
0.0000

> <Gold.PLP.Chemscore.Metal>
0.0000

> <Gold.Chemscore.Hbonds>
donor molecule, donor type, donor heavy atom, donor atom, acceptor molecule, acceptor atom, score
      L1  H     1    31       P1  8028  0.98
      L1  H    21    55       P1  7948  0.90
      P1  H  7989  7998       L1    29  0.68
      P1  H  8011  8017       L1     1  0.08

> <Gold.PLP.Chemscore.Internal.Correction>
0.5784

> <Gold.Rescore>
     Score         DG    S(hbond)    S(metal)    S(lipo)     H(rot)  DE(clash)    DE(int)     intcor
     11.31     -13.27       1.78        0.00      88.48       3.32       0.00       1.95       ----

> <Gold.Chemscore.Fitness>
11.3091

> <Gold.Chemscore.DG>
-13.2658

> <Gold.Chemscore.ZeroCoef>
-5.4800

> <Gold.Chemscore.Hbond>
1.7765

> <Gold.Chemscore.Metal>
0.0000

> <Gold.Chemscore.Lipo>
88.4812

> <Gold.Chemscore.Internal_Hbond>
0.0000

> <Gold.Chemscore.DEClash>
0.0029

> <Gold.Chemscore.DEInternal>
1.9537

> <Gold.Chemscore.Rot>
3.3203

> <Gold.Chemscore.Internal.Correction>
   9.000000E+99

> <Gold.Chemscore.Hbonds>
donor molecule, donor type, donor heavy atom, donor atom, acceptor molecule, acceptor atom, score
      L1  H     1    31       P1  8028  0.93
      L1  H    21    55       P1  7948  0.69
      P1  H  7989  7998       L1    29  0.04
      P1  H  8011  8017       L1     1  0.08

> <Gold.Chemscore.Hbond.Weighted>
-5.9335

> <Gold.Chemscore.Metal.Weighted>
-0.0000

> <Gold.Chemscore.Lipo.Weighted>
-10.3523

> <Gold.Chemscore.Internal_Hbond.Weighted>
0.0000

> <Gold.Chemscore.DEClash.Weighted>
0.0029

> <Gold.Chemscore.DEInternal.Weighted>
1.9537

> <Gold.Chemscore.Rot.Weighted>
8.5000

> <Gold.Chemscore.Internal.Correction.Weighted>
   9.000000E+99

> <Gold.Protein.RotatedTorsions>
[ 6907 6896 6895 6894 ] final -164.50 input  -60.11 | X-H torsion
[ 7974 7965 7964 7962 ] final   98.43 input  175.53 | X-H torsion
[ 8008 7997 7996 7995 ] final  -38.07 input   59.86 | X-H torsion
[ 10167 10162 10161 10158 ] final  152.48 input  -65.29 | X-H torsion
[ 10718 10713 10712 10709 ] final  -15.36 input   66.30 | X-H torsion
[ 10763 10752 10751 10750 ] final -148.57 input  -60.55 | X-H torsion
[ 11005 11000 10999 10996 ] final -150.81 input  -57.11 | X-H torsion

> <Gold.Protein.ActiveResidues>
 VAL166  LYS551  ARG553  GLY616  TRP617  ASP618  TYR619  PRO620  LYS621  CYS622 
 ASP623  PHE694  ASN695  SER759  ASP760  ASP761  ALA762  ILE779  LEU786  VAL792 
 PHE793  MET794  SER795  GLU796  ALA797  LYS798  CYS799  TRP800  GLU811  SER814 

> <Gold.Protein.RotatedAtoms>
  151.4129  133.3722  159.2745 H   0  0  0  0  0  0  0  0  0  0  0  0  # atno 6907 bound_to 6896
  150.9350  134.8764  159.7586 H   0  0  0  0  0  0  0  0  0  0  0  0  # atno 6908 bound_to 6896
  152.5045  134.4076  159.9490 H   0  0  0  0  0  0  0  0  0  0  0  0  # atno 6909 bound_to 6896
  145.4122  139.2332  143.3242 H   0  0  0  0  0  0  0  0  0  0  0  0  # atno 7974 bound_to 7965
  154.4043  140.1587  156.2640 H   0  0  0  0  0  0  0  0  0  0  0  0  # atno 8008 bound_to 7997
  155.9011  140.3433  155.6005 H   0  0  0  0  0  0  0  0  0  0  0  0  # atno 8009 bound_to 7997
  155.7446  140.0797  157.2220 H   0  0  0  0  0  0  0  0  0  0  0  0  # atno 8010 bound_to 7997
  139.4832  144.5354  151.7654 H   0  0  0  0  0  0  0  0  0  0  0  0  # atno 10167 bound_to 10162
  156.6029  130.4829  149.6232 H   0  0  0  0  0  0  0  0  0  0  0  0  # atno 10718 bound_to 10713
  154.8225  135.3331  154.6995 H   0  0  0  0  0  0  0  0  0  0  0  0  # atno 10763 bound_to 10752
  153.7626  135.6931  153.4927 H   0  0  0  0  0  0  0  0  0  0  0  0  # atno 10764 bound_to 10752
  153.2100  135.4485  155.0317 H   0  0  0  0  0  0  0  0  0  0  0  0  # atno 10765 bound_to 10752
  140.7362  134.3565  157.5157 H   0  0  0  0  0  0  0  0  0  0  0  0  # atno 11005 bound_to 11000
  146.2699  140.4835  142.8819 LP  0  0  0  0  0  0  0  0  0  0  0  0  # atno 17320 bound_to 7965
  144.8301  140.6693  143.6296 LP  0  0  0  0  0  0  0  0  0  0  0  0  # atno 17321 bound_to 7965
  140.4886  144.1344  150.5946 LP  0  0  0  0  0  0  0  0  0  0  0  0  # atno 17342 bound_to 10162
  140.4197  143.2617  151.9730 LP  0  0  0  0  0  0  0  0  0  0  0  0  # atno 17343 bound_to 10162
  156.2454  130.6876  151.1595 LP  0  0  0  0  0  0  0  0  0  0  0  0  # atno 17370 bound_to 10713
  157.7275  131.0639  150.5863 LP  0  0  0  0  0  0  0  0  0  0  0  0  # atno 17371 bound_to 10713
  139.8815  134.9051  156.2892 LP  0  0  0  0  0  0  0  0  0  0  0  0  # atno 17394 bound_to 11000
  140.9877  133.7228  156.0767 LP  0  0  0  0  0  0  0  0  0  0  0  0  # atno 17395 bound_to 11000

$$$$
