#       Name:                AV-unprocessed.smi:169
#       Creating user name   scv26
#       Creation time:       Thu Mar 26 19:14:40 2020


#       File generated by GOLD software.
#

@<TRIPOS>MOLECULE
AV-unprocessed.smi:169
    64    68     1
SMALL
NO_CHARGES


@<TRIPOS>ATOM
      1 ****        -5.2583  -2.6436   1.0018 C.3            1 S1                 0.0000
      2 ****        -4.1233  -2.3595   0.0013 C.3            1 S1                 0.0000
      3 ****        -3.4816  -1.0291   0.1722 N.4            1 S1                 1.0000
      4 ****        -4.3982   0.1122  -0.0754 C.3            1 S1                 0.0000
      5 ****        -3.6842   1.2521  -0.8258 C.3            1 S1                 0.0000
      6 ****        -2.5209   1.9337  -0.0747 C.3            1 S1                 0.0000
      7 ****        -2.9453   2.5744   1.2516 C.3            1 S1                 0.0000
      8 ****        -2.6366   1.5118   2.3126 C.3            1 S1                 0.0000
      9 ****        -1.8723   0.3939   1.5736 C.3            1 S1                 0.0000
     10 ****        -2.6840  -0.9177   1.4246 C.3            1 S1                 0.0000
     11 ****        -1.4810   0.9732   0.2899 N.3            1 S1                 0.0000
     12 ****        -0.1664   1.3010   0.1823 C.ar           1 S1                 0.0000
     13 ****         0.2135   2.5910  -0.0161 N.ar           1 S1                 0.0000
     14 ****         1.5086   2.9086  -0.1002 C.ar           1 S1                 0.0000
     15 ****         2.5708   2.1058  -0.0160 N.ar           1 S1                 0.0000
     16 ****         2.1984   0.8082   0.1731 C.ar           1 S1                 0.0000
     17 ****         0.8641   0.3249   0.2844 C.ar           1 S1                 0.0000
     18 ****         0.8717  -1.0517   0.4745 N.2            1 S1                 0.0000
     19 ****         2.1391  -1.3628   0.4863 C.2            1 S1                 0.0000
     20 ****         3.0064  -0.3086   0.3020 N.pl3          1 S1                 0.0000
     21 ****         4.4604  -0.3769   0.2739 C.3            1 S1                 0.0000
     22 ****         5.0705  -0.4241  -1.1411 C.3            1 S1                 0.0000
     23 ****         4.4310  -1.5879  -1.9268 C.3            1 S1                 0.0000
     24 ****         5.0325  -1.7840  -3.1912 O.3            1 S1                 0.0000
     25 ****         5.1654   0.9152  -1.8866 C.3            1 S1                 0.0000
     26 ****         6.5794   0.7452  -2.1295 O.3            1 S1                 0.0000
     27 ****         6.6040  -0.3422  -1.1795 C.3            1 S1                 0.0000
     28 ****        -5.7166  -3.6100   0.7902 H              1 S1                 0.0000
     29 ****        -6.0468  -1.8931   0.9476 H              1 S1                 0.0000
     30 ****        -4.8972  -2.6796   2.0291 H              1 S1                 0.0000
     31 ****        -3.3616  -3.1360   0.0819 H              1 S1                 0.0000
     32 ****        -4.5116  -2.4298  -1.0155 H              1 S1                 0.0000
     33 ****        -5.2251  -0.2168  -0.7062 H              1 S1                 0.0000
     34 ****        -4.8532   0.4549   0.8542 H              1 S1                 0.0000
     35 ****        -3.3131   0.8706  -1.7780 H              1 S1                 0.0000
     36 ****        -4.4218   2.0126  -1.0844 H              1 S1                 0.0000
     37 ****        -2.1376   2.7085  -0.7394 H              1 S1                 0.0000
     38 ****        -2.3382   3.4607   1.4408 H              1 S1                 0.0000
     39 ****        -3.9895   2.8884   1.2581 H              1 S1                 0.0000
     40 ****        -2.0160   1.9444   3.0984 H              1 S1                 0.0000
     41 ****        -3.5465   1.1482   2.7906 H              1 S1                 0.0000
     42 ****        -0.9955   0.1615   2.1802 H              1 S1                 0.0000
     43 ****        -3.3091  -1.0743   2.3034 H              1 S1                 0.0000
     44 ****        -1.9725  -1.7444   1.4164 H              1 S1                 0.0000
     45 ****         1.7244   3.9556  -0.2551 H              1 S1                 0.0000
     46 ****         2.4797  -2.3789   0.6236 H              1 S1                 0.0000
     47 ****         4.8440   0.4803   0.8289 H              1 S1                 0.0000
     48 ****         4.7676  -1.2544   0.8441 H              1 S1                 0.0000
     49 ****         4.5052  -2.5211  -1.3678 H              1 S1                 0.0000
     50 ****         3.3708  -1.4062  -2.1040 H              1 S1                 0.0000
     51 ****         4.5931  -2.4979  -3.6277 H              1 S1                 0.0000
     52 ****         4.5816   0.9577  -2.8065 H              1 S1                 0.0000
     53 ****         4.9733   1.7895  -1.2640 H              1 S1                 0.0000
     54 ****         7.0549  -0.0387  -0.2334 H              1 S1                 0.0000
     55 ****         7.0960  -1.2332  -1.5708 H              1 S1                 0.0000
     56 ****        -2.8045  -0.9797  -0.5759 H              1 S1                 0.0000
     57 ****        -1.4651   0.2989  -0.4484 LP             1 S1                 0.0000
     58 ****        -0.4802   3.3063  -0.0996 LP             1 S1                 0.0000
     59 ****         3.5190   2.4162  -0.0830 LP             1 S1                 0.0000
     60 ****         0.0871  -1.6629   0.5783 LP             1 S1                 0.0000
     61 ****         6.0003  -2.0064  -3.0728 LP             1 S1                 0.0000
     62 ****         4.9464  -0.9511  -3.7378 LP             1 S1                 0.0000
     63 ****         7.1376   1.5319  -1.8657 LP             1 S1                 0.0000
     64 ****         6.8044   0.4758  -3.0659 LP             1 S1                 0.0000
@<TRIPOS>BOND
    1    1    2 1     
    2    1   28 1     
    3    1   29 1     
    4    1   30 1     
    5    2    3 1     
    6    2   31 1     
    7    2   32 1     
    8    3   10 1     
    9    3    4 1     
   10    3   56 1     
   11    4    5 1     
   12    4   33 1     
   13    4   34 1     
   14    5    6 1     
   15    5   35 1     
   16    5   36 1     
   17    6   11 1     
   18    6    7 1     
   19    6   37 1     
   20    7    8 1     
   21    7   38 1     
   22    7   39 1     
   23    8    9 1     
   24    8   40 1     
   25    8   41 1     
   26    9   10 1     
   27    9   11 1     
   28    9   42 1     
   29   10   43 1     
   30   10   44 1     
   31   11   12 1     
   32   12   17 ar    
   33   12   13 ar    
   34   13   14 ar    
   35   14   15 ar    
   36   14   45 1     
   37   15   16 ar    
   38   16   20 1     
   39   16   17 ar    
   40   17   18 1     
   41   18   19 2     
   42   19   20 1     
   43   19   46 1     
   44   20   21 1     
   45   21   22 1     
   46   21   47 1     
   47   21   48 1     
   48   22   27 1     
   49   22   23 1     
   50   22   25 1     
   51   23   24 1     
   52   23   49 1     
   53   23   50 1     
   54   24   51 1     
   55   25   26 1     
   56   25   52 1     
   57   25   53 1     
   58   26   27 1     
   59   27   54 1     
   60   27   55 1     
   61   11   57 1     
   62   13   58 1     
   63   15   59 1     
   64   18   60 1     
   65   24   61 1     
   66   24   62 1     
   67   26   63 1     
   68   26   64 1     
@<TRIPOS>SUBSTRUCTURE
      1 S1             1
@<TRIPOS>SET
LONE_PAIRS      STATIC     ATOMS    <user>   **** ""
8 57 58 59 60 61 62 63 64
DONOR_HYDROGENS      STATIC     ATOMS    <user>   **** ""
2 56 51
ATOM$BLUE        STATIC     ATOMS    COLORGROUP SYSTEM
8 57 58 59 60 61 62 63 64
ATOM$RED        STATIC     ATOMS    COLORGROUP SYSTEM
2 56 51
