#       Name:                AV-unprocessed.smi:1788
#       Creating user name   scv26
#       Creation time:       Fri Mar 27 08:45:14 2020


#       File generated by GOLD software.
#

@<TRIPOS>MOLECULE
AV-unprocessed.smi:1788
    61    63     1
SMALL
NO_CHARGES


@<TRIPOS>ATOM
      1 ****        -2.8984   6.5348   0.5640 C.3            1 S1                 0.0000
      2 ****        -3.5778   5.4144  -0.2357 C.3            1 S1                 0.0000
      3 ****        -5.0362   5.2126   0.2086 C.3            1 S1                 0.0000
      4 ****        -5.6815   4.0728  -0.5892 C.3            1 S1                 0.0000
      5 ****        -4.8526   2.7837  -0.4748 C.3            1 S1                 0.0000
      6 ****        -3.4510   3.0074  -0.9139 N.4            1 S1                 1.0000
      7 ****        -2.6656   1.7479  -0.9430 C.3            1 S1                 0.0000
      8 ****        -1.4638   1.8272  -1.9042 C.3            1 S1                 0.0000
      9 ****        -0.7424   0.5612  -1.9660 N.am           1 S1                 0.0000
     10 ****         0.1225   0.1224  -1.0403 C.2            1 S1                 0.0000
     11 ****         0.3937   0.7532  -0.0193 O.2            1 S1                 0.0000
     12 ****         0.6402  -1.0684  -1.3886 N.am           1 S1                 0.0000
     13 ****         1.5874  -1.8749  -0.6995 C.ar           1 S1                 0.0000
     14 ****         1.9747  -1.6965   0.6494 C.ar           1 S1                 0.0000
     15 ****         2.9162  -2.5798   1.2119 C.ar           1 S1                 0.0000
     16 ****         3.4459  -3.6271   0.4213 C.ar           1 S1                 0.0000
     17 ****         4.3890  -4.5266   0.9661 N.3            1 S1                 0.0000
     18 ****         4.0153  -5.1482   2.2346 C.3            1 S1                 0.0000
     19 ****         5.2294  -5.8515   2.8661 C.3            1 S1                 0.0000
     20 ****         5.7843  -6.7797   1.9406 O.3            1 S1                 0.0000
     21 ****         6.2468  -6.1346   0.7591 C.3            1 S1                 0.0000
     22 ****         5.0696  -5.4425   0.0515 C.3            1 S1                 0.0000
     23 ****         3.0708  -3.7948  -0.8704 N.ar           1 S1                 0.0000
     24 ****         2.1682  -2.9471  -1.4054 C.ar           1 S1                 0.0000
     25 ****        -2.7980   4.0883  -0.1263 C.3            1 S1                 0.0000
     26 ****        -2.8607   6.2964   1.6274 H              1 S1                 0.0000
     27 ****        -3.4350   7.4775   0.4529 H              1 S1                 0.0000
     28 ****        -1.8754   6.6967   0.2231 H              1 S1                 0.0000
     29 ****        -3.5822   5.7171  -1.2842 H              1 S1                 0.0000
     30 ****        -5.0731   4.9807   1.2741 H              1 S1                 0.0000
     31 ****        -5.6063   6.1319   0.0693 H              1 S1                 0.0000
     32 ****        -6.6963   3.8964  -0.2313 H              1 S1                 0.0000
     33 ****        -5.7689   4.3613  -1.6375 H              1 S1                 0.0000
     34 ****        -4.8598   2.4194   0.5539 H              1 S1                 0.0000
     35 ****        -5.3141   2.0098  -1.0894 H              1 S1                 0.0000
     36 ****        -2.3467   1.4935   0.0690 H              1 S1                 0.0000
     37 ****        -3.3072   0.9309  -1.2765 H              1 S1                 0.0000
     38 ****        -1.8089   2.0679  -2.9100 H              1 S1                 0.0000
     39 ****        -0.7710   2.6188  -1.6170 H              1 S1                 0.0000
     40 ****        -0.9047  -0.0178  -2.7773 H              1 S1                 0.0000
     41 ****         0.3494  -1.4282  -2.2859 H              1 S1                 0.0000
     42 ****         1.5708  -0.9122   1.2692 H              1 S1                 0.0000
     43 ****         3.2272  -2.4351   2.2357 H              1 S1                 0.0000
     44 ****         3.6228  -4.4205   2.9428 H              1 S1                 0.0000
     45 ****         3.2201  -5.8718   2.0502 H              1 S1                 0.0000
     46 ****         5.9860  -5.1252   3.1678 H              1 S1                 0.0000
     47 ****         4.9261  -6.3866   3.7661 H              1 S1                 0.0000
     48 ****         7.0297  -5.4157   1.0061 H              1 S1                 0.0000
     49 ****         6.6948  -6.8786   0.1003 H              1 S1                 0.0000
     50 ****         4.3586  -6.1887  -0.3063 H              1 S1                 0.0000
     51 ****         5.4417  -4.9011  -0.8192 H              1 S1                 0.0000
     52 ****         1.9035  -3.1322  -2.4363 H              1 S1                 0.0000
     53 ****        -1.7803   4.2472  -0.4813 H              1 S1                 0.0000
     54 ****        -2.7211   3.7806   0.9180 H              1 S1                 0.0000
     55 ****        -3.5063   3.3314  -1.8689 H              1 S1                 0.0000
     56 ****        -0.0388   1.6386   0.1511 LP             1 S1                 0.0000
     57 ****         1.0466   0.3805   0.6401 LP             1 S1                 0.0000
     58 ****         5.1110  -3.8724   1.1915 LP             1 S1                 0.0000
     59 ****         5.0827  -7.4473   1.6915 LP             1 S1                 0.0000
     60 ****         6.5527  -7.2498   2.3748 LP             1 S1                 0.0000
     61 ****         3.4576  -4.5362  -1.4188 LP             1 S1                 0.0000
@<TRIPOS>BOND
    1    1    2 1     
    2    1   26 1     
    3    1   27 1     
    4    1   28 1     
    5    2   25 1     
    6    2    3 1     
    7    2   29 1     
    8    3    4 1     
    9    3   30 1     
   10    3   31 1     
   11    4    5 1     
   12    4   32 1     
   13    4   33 1     
   14    5    6 1     
   15    5   34 1     
   16    5   35 1     
   17    6    7 1     
   18    6   25 1     
   19    6   55 1     
   20    7    8 1     
   21    7   36 1     
   22    7   37 1     
   23    8    9 1     
   24    8   38 1     
   25    8   39 1     
   26    9   10 am    
   27    9   40 1     
   28   10   11 2     
   29   10   12 am    
   30   12   13 1     
   31   12   41 1     
   32   13   24 ar    
   33   13   14 ar    
   34   14   15 ar    
   35   14   42 1     
   36   15   16 ar    
   37   15   43 1     
   38   16   17 1     
   39   16   23 ar    
   40   17   22 1     
   41   17   18 1     
   42   18   19 1     
   43   18   44 1     
   44   18   45 1     
   45   19   20 1     
   46   19   46 1     
   47   19   47 1     
   48   20   21 1     
   49   21   22 1     
   50   21   48 1     
   51   21   49 1     
   52   22   50 1     
   53   22   51 1     
   54   23   24 ar    
   55   24   52 1     
   56   25   53 1     
   57   25   54 1     
   58   11   56 1     
   59   11   57 1     
   60   17   58 1     
   61   20   59 1     
   62   20   60 1     
   63   23   61 1     
@<TRIPOS>SUBSTRUCTURE
      1 S1             1
@<TRIPOS>SET
LONE_PAIRS      STATIC     ATOMS    <user>   **** ""
6 56 57 58 59 60 61
DONOR_HYDROGENS      STATIC     ATOMS    <user>   **** ""
3 55 40 41
ATOM$BLUE        STATIC     ATOMS    COLORGROUP SYSTEM
6 56 57 58 59 60 61
ATOM$RED        STATIC     ATOMS    COLORGROUP SYSTEM
3 55 40 41
