AV-unprocessed.smi:2166|AV-procd|sdf|8814|dock6
  -GOLD-   2272012 03D 1   1.00000     0.00000
 Structure written by MMmdl.
 38 39  0  0  0  0  0  0  0  0  1 V2000
  155.7227  140.7796  168.9771 C   0  0  0  0  0  0  0  0  0  0  0  0
  155.1335  140.8910  167.2649 S   0  0  0  0  0  0  0  0  0  0  0  0
  155.6445  142.5807  166.8291 C   0  0  2  0  0  0  0  0  0  0  0  0
  155.1057  143.5830  167.8626 C   0  0  0  0  0  0  0  0  0  0  0  0
  155.2121  142.9616  165.4071 C   0  0  0  0  0  0  0  0  0  0  0  0
  155.3506  144.1208  165.0148 O   0  0  0  0  0  0  0  0  0  0  0  0
  154.6859  141.9642  164.6710 N   0  0  0  0  0  0  0  0  0  0  0  0
  154.1841  142.0162  163.3440 C   0  0  0  0  0  0  0  0  0  0  0  0
  153.4578  143.1854  163.0274 C   0  0  0  0  0  0  0  0  0  0  0  0
  152.9221  143.3401  161.7347 C   0  0  0  0  0  0  0  0  0  0  0  0
  153.1241  142.3213  160.7844 C   0  0  0  0  0  0  0  0  0  0  0  0
  152.6005  142.4610  159.4913 N   0  0  0  0  0  0  0  0  0  0  0  0
  151.3863  141.6857  159.2683 C   0  0  0  0  0  0  0  0  0  0  0  0
  150.9494  141.8028  157.7973 C   0  0  0  0  0  0  0  0  0  0  0  0
  150.7858  143.1764  157.4551 O   0  0  0  0  0  0  0  0  0  0  0  0
  151.9967  143.9125  157.6057 C   0  0  0  0  0  0  0  0  0  0  0  0
  152.4606  143.8497  159.0718 C   0  0  0  0  0  0  0  0  0  0  0  0
  153.8592  141.1844  161.1879 C   0  0  0  0  0  0  0  0  0  0  0  0
  154.3729  141.0354  162.4270 N   0  0  0  0  0  0  0  0  0  0  0  0
  155.4430  139.8174  169.4060 H   0  0  0  0  0  0  0  0  0  0  0  0
  155.2822  141.5694  169.5855 H   0  0  0  0  0  0  0  0  0  0  0  0
  156.8081  140.8689  169.0197 H   0  0  0  0  0  0  0  0  0  0  0  0
  156.7339  142.6103  166.8835 H   0  0  0  0  0  0  0  0  0  0  0  0
  155.3957  144.6046  167.6137 H   0  0  0  0  0  0  0  0  0  0  0  0
  155.4988  143.3651  168.8559 H   0  0  0  0  0  0  0  0  0  0  0  0
  154.0171  143.5509  167.9259 H   0  0  0  0  0  0  0  0  0  0  0  0
  154.6298  141.0625  165.1213 H   0  0  0  0  0  0  0  0  0  0  0  0
  153.3115  143.9616  163.7645 H   0  0  0  0  0  0  0  0  0  0  0  0
  152.3663  144.2303  161.4788 H   0  0  0  0  0  0  0  0  0  0  0  0
  151.5636  140.6403  159.5237 H   0  0  0  0  0  0  0  0  0  0  0  0
  150.5889  142.0477  159.9186 H   0  0  0  0  0  0  0  0  0  0  0  0
  151.6813  141.3371  157.1354 H   0  0  0  0  0  0  0  0  0  0  0  0
  150.0041  141.2826  157.6432 H   0  0  0  0  0  0  0  0  0  0  0  0
  152.7621  143.5136  156.9379 H   0  0  0  0  0  0  0  0  0  0  0  0
  151.8236  144.9472  157.3096 H   0  0  0  0  0  0  0  0  0  0  0  0
  151.7369  144.3590  159.7096 H   0  0  0  0  0  0  0  0  0  0  0  0
  153.4135  144.3682  159.1849 H   0  0  0  0  0  0  0  0  0  0  0  0
  154.0428  140.3707  160.5018 H   0  0  0  0  0  0  0  0  0  0  0  0
  1  2  1  0  0  0  0
  1 20  1  0  0  0  0
  1 21  1  0  0  0  0
  1 22  1  0  0  0  0
  2  3  1  0  0  0  0
  3  4  1  0  0  0  0
  3  5  1  0  0  0  0
  3 23  1  0  0  0  0
  4 24  1  0  0  0  0
  4 25  1  0  0  0  0
  4 26  1  0  0  0  0
  5  6  2  0  0  0  0
  5  7  1  0  0  0  0
  7  8  1  0  0  0  0
  7 27  1  0  0  0  0
  8 19  1  0  0  0  0
  8  9  2  0  0  0  0
  9 10  1  0  0  0  0
  9 28  1  0  0  0  0
 10 11  2  0  0  0  0
 10 29  1  0  0  0  0
 11 12  1  0  0  0  0
 11 18  1  0  0  0  0
 12 17  1  0  0  0  0
 12 13  1  0  0  0  0
 13 14  1  0  0  0  0
 13 30  1  0  0  0  0
 13 31  1  0  0  0  0
 14 15  1  0  0  0  0
 14 32  1  0  0  0  0
 14 33  1  0  0  0  0
 15 16  1  0  0  0  0
 16 17  1  0  0  0  0
 16 34  1  0  0  0  0
 16 35  1  0  0  0  0
 17 36  1  0  0  0  0
 17 37  1  0  0  0  0
 18 19  2  0  0  0  0
 18 38  1  0  0  0  0
M  END
> <s_m_source_file>
AV-unprocessed.smi

> <i_m_source_file_index>
2166

> <i_lp_mmshare_version>
43012

> <i_f3d_flags>
0

> <s_epik_input>
W0NIM11TW0NASF0oW0NIM10pQyg9TylbTkhdYzFbY0hdW2NIXWMoW2NIXW4xKU4yW0NIMl1bQ0gyXU9bQ0gyXVtDSDJdMg==

> <s_epik_cmdline>
J2VwaWtfcHl0aG9uJywgJy1waCcsICc3LjAnLCAnLXRuJywgJzgnLCAnLW1hJywgJzIwMCcsICctbWV0YWxfYmluZGluZycsICctaW1hZScsICc8aW5maWxlLm1hZT4nLCAnLW9tYWUnLCAnPG91dGZpbGUubWFlPic=

> <r_lp_tautomer_probability>
1

> <r_epik_Ionization_Penalty>
0.0038652

> <r_epik_Ionization_Penalty_Charging>
0

> <r_epik_Ionization_Penalty_Neutral>
0.0038652

> <r_epik_State_Penalty>
0.00681294

> <r_epik_Charging_Adjusted_Penalty>
0.00681294

> <i_epik_Tot_Q>
0

> <i_epik_Tot_abs_Q>
0

> <r_epik_Metal_State_Penalty>
-0

> <b_epik_Metal_Only>
0

> <s_lp_Force_Field>
OPLS_2005

> <r_lp_Energy>
27.7309

> <b_lp_Chiralities_Consistent>
1

> <s_lp_Variant>
AV-unprocessed.smi:2166-1

> <Gold.Version>
5.8.1

> <Gold.Id.Protein>
6NUR|6NUR_protein|mol2

> <Gold.PLP.Fitness>
43.3660

> <Gold.PLP.PLP>
-45.4297

> <Gold.PLP.part.hbond>
-1.0401

> <Gold.PLP.part.metal>
0.0000

> <Gold.PLP.part.buried>
-6.1536

> <Gold.PLP.part.nonpolar>
-38.0979

> <Gold.PLP.part.repulsive>
0.3327

> <Gold.PLP.ligand.clash>
0.0000

> <Gold.PLP.ligand.torsion>
1.0991

> <Gold.PLP.Chemscore.Hbond>
0.0000

> <Gold.PLP.Chemscore.CHOScore>
0.0000

> <Gold.PLP.Chemscore.Metal>
0.0000

> <Gold.PLP.Chemscore.Internal.Correction>
0.1346

> <Gold.Rescore>
     Score         DG    S(hbond)    S(metal)    S(lipo)     H(rot)  DE(clash)    DE(int)     intcor
     11.54     -14.71       0.00        0.00     107.57       1.31       0.76       2.41       ----

> <Gold.Chemscore.Fitness>
11.5390

> <Gold.Chemscore.DG>
-14.7102

> <Gold.Chemscore.ZeroCoef>
-5.4800

> <Gold.Chemscore.Hbond>
0.0000

> <Gold.Chemscore.Metal>
0.0000

> <Gold.Chemscore.Lipo>
107.5658

> <Gold.Chemscore.Internal_Hbond>
0.0000

> <Gold.Chemscore.DEClash>
0.7631

> <Gold.Chemscore.DEInternal>
2.4081

> <Gold.Chemscore.Rot>
1.3105

> <Gold.Chemscore.Internal.Correction>
   9.000000E+99

> <Gold.Chemscore.Hbond.Weighted>
-0.0000

> <Gold.Chemscore.Metal.Weighted>
-0.0000

> <Gold.Chemscore.Lipo.Weighted>
-12.5852

> <Gold.Chemscore.Internal_Hbond.Weighted>
0.0000

> <Gold.Chemscore.DEClash.Weighted>
0.7631

> <Gold.Chemscore.DEInternal.Weighted>
2.4081

> <Gold.Chemscore.Rot.Weighted>
3.3549

> <Gold.Chemscore.Internal.Correction.Weighted>
   9.000000E+99

> <Gold.Protein.RotatedTorsions>
[ 6907 6896 6895 6894 ] final   57.54 input  -60.11 | X-H torsion
[ 7974 7965 7964 7962 ] final   59.28 input  175.53 | X-H torsion
[ 8008 7997 7996 7995 ] final  -51.41 input   59.86 | X-H torsion
[ 10167 10162 10161 10158 ] final -132.01 input  -65.29 | X-H torsion
[ 10718 10713 10712 10709 ] final -146.21 input   66.30 | X-H torsion
[ 10763 10752 10751 10750 ] final  -16.13 input  -60.55 | X-H torsion
[ 11005 11000 10999 10996 ] final   23.21 input  -57.11 | X-H torsion

> <Gold.Protein.ActiveResidues>
 VAL166  LYS551  ARG553  GLY616  TRP617  ASP618  TYR619  PRO620  LYS621  CYS622 
 ASP623  PHE694  ASN695  SER759  ASP760  ASP761  ALA762  ILE779  LEU786  VAL792 
 PHE793  MET794  SER795  GLU796  ALA797  LYS798  CYS799  TRP800  GLU811  SER814 

> <Gold.Protein.RotatedAtoms>
  152.3741  134.6690  160.0165 H   0  0  0  0  0  0  0  0  0  0  0  0  # atno 6907 bound_to 6896
  151.6974  133.3305  159.3266 H   0  0  0  0  0  0  0  0  0  0  0  0  # atno 6908 bound_to 6896
  150.7696  134.6581  159.6369 H   0  0  0  0  0  0  0  0  0  0  0  0  # atno 6909 bound_to 6896
  145.9089  139.3638  143.0547 H   0  0  0  0  0  0  0  0  0  0  0  0  # atno 7974 bound_to 7965
  154.4082  140.1248  156.4824 H   0  0  0  0  0  0  0  0  0  0  0  0  # atno 8008 bound_to 7997
  155.7072  140.3494  155.4938 H   0  0  0  0  0  0  0  0  0  0  0  0  # atno 8009 bound_to 7997
  155.9333  140.1073  157.1105 H   0  0  0  0  0  0  0  0  0  0  0  0  # atno 8010 bound_to 7997
  139.9130  143.6472  152.2571 H   0  0  0  0  0  0  0  0  0  0  0  0  # atno 10167 bound_to 10162
  156.3920  130.7890  151.2094 H   0  0  0  0  0  0  0  0  0  0  0  0  # atno 10718 bound_to 10713
  153.5539  135.7011  153.5578 H   0  0  0  0  0  0  0  0  0  0  0  0  # atno 10763 bound_to 10752
  153.3490  135.4000  155.1631 H   0  0  0  0  0  0  0  0  0  0  0  0  # atno 10764 bound_to 10752
  154.8657  135.3761  154.5052 H   0  0  0  0  0  0  0  0  0  0  0  0  # atno 10765 bound_to 10752
  140.3721  134.2012  155.7666 H   0  0  0  0  0  0  0  0  0  0  0  0  # atno 11005 bound_to 11000
  145.8697  140.9427  143.0657 LP  0  0  0  0  0  0  0  0  0  0  0  0  # atno 17320 bound_to 7965
  144.6741  140.0638  143.7475 LP  0  0  0  0  0  0  0  0  0  0  0  0  # atno 17321 bound_to 7965
  139.6926  144.7645  151.1411 LP  0  0  0  0  0  0  0  0  0  0  0  0  # atno 17342 bound_to 10162
  140.7681  143.5567  150.9144 LP  0  0  0  0  0  0  0  0  0  0  0  0  # atno 17343 bound_to 10162
  157.7499  131.0312  150.4173 LP  0  0  0  0  0  0  0  0  0  0  0  0  # atno 17370 bound_to 10713
  156.4437  130.3997  149.6681 LP  0  0  0  0  0  0  0  0  0  0  0  0  # atno 17371 bound_to 10713
  141.1951  133.8113  157.0728 LP  0  0  0  0  0  0  0  0  0  0  0  0  # atno 17394 bound_to 11000
  140.0544  134.9788  157.1194 LP  0  0  0  0  0  0  0  0  0  0  0  0  # atno 17395 bound_to 11000

$$$$
