#       Name:                AV-unprocessed.smi:2143
#       Creating user name   scv26
#       Creation time:       Fri Mar 27 11:49:35 2020


#       File generated by GOLD software.
#

@<TRIPOS>MOLECULE
AV-unprocessed.smi:2143
    50    51     1
SMALL
NO_CHARGES


@<TRIPOS>ATOM
      1 ****        -4.6904  -2.3902   1.4472 C.3            1 S1                 0.0000
      2 ****        -3.8359  -1.2162   0.9339 C.3            1 S1                 0.0000
      3 ****        -3.8828  -0.0626   1.9556 C.3            1 S1                 0.0000
      4 ****        -3.0751   1.1513   1.4844 C.3            1 S1                 0.0000
      5 ****        -1.6214   0.7570   1.2089 C.3            1 S1                 0.0000
      6 ****        -1.5356  -0.3840   0.1762 C.3            1 S1                 0.0000
      7 ****        -0.1338  -0.7493  -0.0218 N.am           1 S1                 0.0000
      8 ****         0.7211  -0.1332  -0.8523 C.2            1 S1                 0.0000
      9 ****         0.4027   0.8189  -1.5661 O.2            1 S1                 0.0000
     10 ****         2.1480  -0.6967  -0.8892 C.3            1 S1                 0.0000
     11 ****         3.1512   0.3091  -1.2619 N.am           1 S1                 0.0000
     12 ****         3.6186   0.3627  -2.5622 C.2            1 S1                 0.0000
     13 ****         4.5252   1.2678  -2.9910 C.2            1 S1                 0.0000
     14 ****         5.0779   2.2636  -2.0809 C.2            1 S1                 0.0000
     15 ****         5.8911   3.1178  -2.4354 O.2            1 S1                 0.0000
     16 ****         4.5939   2.1771  -0.7533 N.am           1 S1                 0.0000
     17 ****         5.0678   3.1360   0.2231 C.3            1 S1                 0.0000
     18 ****         3.6343   1.2378  -0.3150 C.2            1 S1                 0.0000
     19 ****         3.2204   1.2229   0.8471 O.2            1 S1                 0.0000
     20 ****        -2.3685  -1.6205   0.6120 C.3            1 S1                 0.0000
     21 ****        -2.2979  -2.7395  -0.4503 C.3            1 S1                 0.0000
     22 ****        -4.2383  -2.8565   2.3229 H              1 S1                 0.0000
     23 ****        -4.8265  -3.1585   0.6870 H              1 S1                 0.0000
     24 ****        -5.6876  -2.0527   1.7311 H              1 S1                 0.0000
     25 ****        -4.2959  -0.8568   0.0120 H              1 S1                 0.0000
     26 ****        -4.9159   0.2403   2.1299 H              1 S1                 0.0000
     27 ****        -3.4969  -0.4050   2.9170 H              1 S1                 0.0000
     28 ****        -3.5233   1.5669   0.5809 H              1 S1                 0.0000
     29 ****        -3.1103   1.9372   2.2393 H              1 S1                 0.0000
     30 ****        -1.0713   1.6296   0.8547 H              1 S1                 0.0000
     31 ****        -1.1451   0.4500   2.1413 H              1 S1                 0.0000
     32 ****        -1.9445  -0.0241  -0.7702 H              1 S1                 0.0000
     33 ****         0.2131  -1.5266   0.5214 H              1 S1                 0.0000
     34 ****         2.4002  -1.1329   0.0793 H              1 S1                 0.0000
     35 ****         2.1679  -1.5246  -1.5992 H              1 S1                 0.0000
     36 ****         3.2358  -0.3514  -3.2769 H              1 S1                 0.0000
     37 ****         4.8434   1.2572  -4.0232 H              1 S1                 0.0000
     38 ****         5.2616   2.6085   1.1588 H              1 S1                 0.0000
     39 ****         4.2811   3.8827   0.3409 H              1 S1                 0.0000
     40 ****         5.9988   3.5955  -0.1086 H              1 S1                 0.0000
     41 ****        -1.9246  -2.0126   1.5288 H              1 S1                 0.0000
     42 ****        -2.7744  -2.4300  -1.3807 H              1 S1                 0.0000
     43 ****        -2.7867  -3.6516  -0.1109 H              1 S1                 0.0000
     44 ****        -1.2700  -3.0165  -0.6832 H              1 S1                 0.0000
     45 ****        -0.5337   1.1692  -1.5441 LP             1 S1                 0.0000
     46 ****         1.0806   1.2416  -2.1676 LP             1 S1                 0.0000
     47 ****         6.2010   3.1493  -3.3857 LP             1 S1                 0.0000
     48 ****         6.2415   3.7800  -1.7730 LP             1 S1                 0.0000
     49 ****         2.5364   0.5487   1.1256 LP             1 S1                 0.0000
     50 ****         3.5689   1.8851   1.5105 LP             1 S1                 0.0000
@<TRIPOS>BOND
    1    1    2 1     
    2    1   22 1     
    3    1   23 1     
    4    1   24 1     
    5    2   20 1     
    6    2    3 1     
    7    2   25 1     
    8    3    4 1     
    9    3   26 1     
   10    3   27 1     
   11    4    5 1     
   12    4   28 1     
   13    4   29 1     
   14    5    6 1     
   15    5   30 1     
   16    5   31 1     
   17    6    7 1     
   18    6   20 1     
   19    6   32 1     
   20    7    8 am    
   21    7   33 1     
   22    8    9 2     
   23    8   10 1     
   24   10   11 1     
   25   10   34 1     
   26   10   35 1     
   27   11   18 am    
   28   11   12 1     
   29   12   13 2     
   30   12   36 1     
   31   13   14 1     
   32   13   37 1     
   33   14   15 2     
   34   14   16 am    
   35   16   17 1     
   36   16   18 am    
   37   17   38 1     
   38   17   39 1     
   39   17   40 1     
   40   18   19 2     
   41   20   21 1     
   42   20   41 1     
   43   21   42 1     
   44   21   43 1     
   45   21   44 1     
   46    9   45 1     
   47    9   46 1     
   48   15   47 1     
   49   15   48 1     
   50   19   49 1     
   51   19   50 1     
@<TRIPOS>SUBSTRUCTURE
      1 S1             1
@<TRIPOS>SET
LONE_PAIRS      STATIC     ATOMS    <user>   **** ""
6 45 46 47 48 49 50
DONOR_HYDROGENS      STATIC     ATOMS    <user>   **** ""
1 33
ATOM$BLUE        STATIC     ATOMS    COLORGROUP SYSTEM
6 45 46 47 48 49 50
ATOM$RED        STATIC     ATOMS    COLORGROUP SYSTEM
1 33
