AV-unprocessed.smi:2081|AV-procd|sdf|8488|dock6
  -GOLD-   2272011193D 1   1.00000     0.00000
 Structure written by MMmdl.
 45 46  0  0  0  0  0  0  0  0  1 V2000
  148.5080  135.0592  157.2681 C   0  0  0  0  0  0  0  0  0  0  0  0
  149.6544  134.5094  156.5224 N   0  0  0  0  0  0  0  0  0  0  0  0
  149.8545  135.0387  155.1568 C   0  0  0  0  0  0  0  0  0  0  0  0
  150.7224  136.2923  155.0293 C   0  0  0  0  0  0  0  0  0  0  0  0
  151.7359  136.4163  155.7167 O   0  0  0  0  0  0  0  0  0  0  0  0
  150.3147  137.2052  154.1348 N   0  0  0  0  0  0  0  0  0  0  0  0
  151.0250  138.4392  153.8180 C   0  0  0  0  0  0  0  0  0  0  0  0
  151.2681  139.3333  155.0245 C   0  0  0  0  0  0  0  0  0  0  0  0
  150.3935  140.3887  155.3563 C   0  0  0  0  0  0  0  0  0  0  0  0
  150.6740  141.1799  156.4862 C   0  0  0  0  0  0  0  0  0  0  0  0
  151.8206  140.8920  157.2644 C   0  0  0  0  0  0  0  0  0  0  0  0
  152.1238  141.6722  158.4021 N   0  0  0  0  0  0  0  0  0  0  0  0
  152.4332  140.9746  159.6491 C   0  0  0  0  0  0  0  0  0  0  0  0
  153.0191  141.9533  160.6803 C   0  0  0  0  0  0  0  0  0  0  0  0
  152.1218  143.0422  160.8697 O   0  0  0  0  0  0  0  0  0  0  0  0
  151.9216  143.7770  159.6669 C   0  0  0  0  0  0  0  0  0  0  0  0
  151.3013  142.8644  158.5943 C   0  0  0  0  0  0  0  0  0  0  0  0
  152.6572  139.8744  156.9417 N   0  0  0  0  0  0  0  0  0  0  0  0
  152.3840  139.1191  155.8572 C   0  0  0  0  0  0  0  0  0  0  0  0
  150.0742  132.8501  156.8052 S   0  0  0  0  0  0  0  0  0  0  0  0
  150.0851  132.1368  155.1094 C   0  0  0  0  0  0  0  0  0  0  0  0
  151.4459  132.8131  157.3350 O   0  0  0  0  0  0  0  0  0  0  0  0
  148.9786  132.2278  157.5640 O   0  0  0  0  0  0  0  0  0  0  0  0
  147.5754  134.8126  156.7603 H   0  0  0  0  0  0  0  0  0  0  0  0
  148.5771  136.1418  157.3684 H   0  0  0  0  0  0  0  0  0  0  0  0
  148.4686  134.6467  158.2757 H   0  0  0  0  0  0  0  0  0  0  0  0
  150.3047  134.2651  154.5345 H   0  0  0  0  0  0  0  0  0  0  0  0
  148.8772  135.2466  154.7197 H   0  0  0  0  0  0  0  0  0  0  0  0
  149.4669  137.0183  153.6188 H   0  0  0  0  0  0  0  0  0  0  0  0
  151.9916  138.1747  153.3893 H   0  0  0  0  0  0  0  0  0  0  0  0
  150.4848  138.9896  153.0457 H   0  0  0  0  0  0  0  0  0  0  0  0
  149.5208  140.5976  154.7551 H   0  0  0  0  0  0  0  0  0  0  0  0
  150.0180  142.0018  156.7307 H   0  0  0  0  0  0  0  0  0  0  0  0
  151.5238  140.5179  160.0425 H   0  0  0  0  0  0  0  0  0  0  0  0
  153.1498  140.1726  159.4668 H   0  0  0  0  0  0  0  0  0  0  0  0
  153.1711  141.4473  161.6337 H   0  0  0  0  0  0  0  0  0  0  0  0
  153.9936  142.3223  160.3565 H   0  0  0  0  0  0  0  0  0  0  0  0
  151.2597  144.6185  159.8716 H   0  0  0  0  0  0  0  0  0  0  0  0
  152.8688  144.1943  159.3210 H   0  0  0  0  0  0  0  0  0  0  0  0
  151.1875  143.4320  157.6721 H   0  0  0  0  0  0  0  0  0  0  0  0
  150.3012  142.5552  158.9006 H   0  0  0  0  0  0  0  0  0  0  0  0
  153.0822  138.3222  155.6478 H   0  0  0  0  0  0  0  0  0  0  0  0
  150.3335  131.0771  155.1665 H   0  0  0  0  0  0  0  0  0  0  0  0
  150.8297  132.6476  154.4997 H   0  0  0  0  0  0  0  0  0  0  0  0
  149.1008  132.2515  154.6564 H   0  0  0  0  0  0  0  0  0  0  0  0
  1  2  1  0  0  0  0
  1 24  1  0  0  0  0
  1 25  1  0  0  0  0
  1 26  1  0  0  0  0
  2  3  1  0  0  0  0
  2 20  1  0  0  0  0
  3  4  1  0  0  0  0
  3 27  1  0  0  0  0
  3 28  1  0  0  0  0
  4  5  2  0  0  0  0
  4  6  1  0  0  0  0
  6  7  1  0  0  0  0
  6 29  1  0  0  0  0
  7  8  1  0  0  0  0
  7 30  1  0  0  0  0
  7 31  1  0  0  0  0
  8 19  1  0  0  0  0
  8  9  2  0  0  0  0
  9 10  1  0  0  0  0
  9 32  1  0  0  0  0
 10 11  2  0  0  0  0
 10 33  1  0  0  0  0
 11 12  1  0  0  0  0
 11 18  1  0  0  0  0
 12 17  1  0  0  0  0
 12 13  1  0  0  0  0
 13 14  1  0  0  0  0
 13 34  1  0  0  0  0
 13 35  1  0  0  0  0
 14 15  1  0  0  0  0
 14 36  1  0  0  0  0
 14 37  1  0  0  0  0
 15 16  1  0  0  0  0
 16 17  1  0  0  0  0
 16 38  1  0  0  0  0
 16 39  1  0  0  0  0
 17 40  1  0  0  0  0
 17 41  1  0  0  0  0
 18 19  2  0  0  0  0
 19 42  1  0  0  0  0
 20 21  1  0  0  0  0
 20 22  2  0  0  0  0
 20 23  2  0  0  0  0
 21 43  1  0  0  0  0
 21 44  1  0  0  0  0
 21 45  1  0  0  0  0
M  END
> <s_m_source_file>
AV-unprocessed.smi

> <i_m_source_file_index>
2081

> <i_lp_mmshare_version>
43012

> <i_f3d_flags>
0

> <s_epik_input>
W0NIM11TKD1PKSg9TylOKFtDSDNdKVtDSDJdQyg9TylbTkhdW0NIMl1jMVtjSF1bY0hdYyhuW2NIXTEpTjJbQ0gyXVtDSDJdT1tDSDJdW0NIMl0y

> <s_epik_cmdline>
J2VwaWtfcHl0aG9uJywgJy1waCcsICc3LjAnLCAnLXRuJywgJzgnLCAnLW1hJywgJzIwMCcsICctbWV0YWxfYmluZGluZycsICctaW1hZScsICc8aW5maWxlLm1hZT4nLCAnLW9tYWUnLCAnPG91dGZpbGUubWFlPic=

> <r_lp_tautomer_probability>
1

> <r_epik_Ionization_Penalty>
0.00477463

> <r_epik_Ionization_Penalty_Charging>
0

> <r_epik_Ionization_Penalty_Neutral>
0.00477463

> <r_epik_State_Penalty>
0.00345982

> <r_epik_Charging_Adjusted_Penalty>
0.00345982

> <i_epik_Tot_Q>
0

> <i_epik_Tot_abs_Q>
0

> <r_epik_Metal_State_Penalty>
-0

> <b_epik_Metal_Only>
0

> <s_lp_Force_Field>
OPLS_2005

> <r_lp_Energy>
5.64261

> <b_lp_Chiralities_Consistent>
1

> <s_lp_Variant>
AV-unprocessed.smi:2081-1

> <Gold.Version>
5.8.1

> <Gold.Id.Protein>
6NUR|6NUR_protein|mol2

> <Gold.PLP.Fitness>
49.8069

> <Gold.PLP.PLP>
-40.1302

> <Gold.PLP.part.hbond>
-5.0000

> <Gold.PLP.part.metal>
0.0000

> <Gold.PLP.part.buried>
-4.1222

> <Gold.PLP.part.nonpolar>
-30.3407

> <Gold.PLP.part.repulsive>
0.1761

> <Gold.PLP.ligand.clash>
0.0000

> <Gold.PLP.ligand.torsion>
2.1658

> <Gold.PLP.Chemscore.Hbond>
3.7600

> <Gold.PLP.Chemscore.CHOScore>
0.0000

> <Gold.PLP.Chemscore.Metal>
0.0000

> <Gold.Chemscore.Hbonds>
donor molecule, donor type, donor heavy atom, donor atom, acceptor molecule, acceptor atom, score
      L1  H     6    29       P1  7948  0.72
      P1  H  6896  6908       L1    22  0.96
      P1  H  7997  8010       L1    18  1.00
      P1  H 10752 10765       L1     5  1.00

> <Gold.PLP.Chemscore.Internal.Correction>
2.7283

> <Gold.Rescore>
     Score         DG    S(hbond)    S(metal)    S(lipo)     H(rot)  DE(clash)    DE(int)     intcor
     17.38     -20.74       3.05        0.00      88.65       2.07       0.21       3.15       ----

> <Gold.Chemscore.Fitness>
17.3834

> <Gold.Chemscore.DG>
-20.7408

> <Gold.Chemscore.ZeroCoef>
-5.4800

> <Gold.Chemscore.Hbond>
3.0539

> <Gold.Chemscore.Metal>
0.0000

> <Gold.Chemscore.Lipo>
88.6502

> <Gold.Chemscore.Internal_Hbond>
0.0000

> <Gold.Chemscore.DEClash>
0.2052

> <Gold.Chemscore.DEInternal>
3.1521

> <Gold.Chemscore.Rot>
2.0748

> <Gold.Chemscore.Internal.Correction>
   9.000000E+99

> <Gold.Chemscore.Hbonds>
donor molecule, donor type, donor heavy atom, donor atom, acceptor molecule, acceptor atom, score
      L1  H     6    29       P1  7948  0.64
      P1  H  6896  6908       L1    22  0.68
      P1  H  7997  8010       L1    18  0.25
      P1  H 10752 10765       L1     5  0.84

> <Gold.Chemscore.Hbond.Weighted>
-10.2001

> <Gold.Chemscore.Metal.Weighted>
-0.0000

> <Gold.Chemscore.Lipo.Weighted>
-10.3721

> <Gold.Chemscore.Internal_Hbond.Weighted>
0.0000

> <Gold.Chemscore.DEClash.Weighted>
0.2052

> <Gold.Chemscore.DEInternal.Weighted>
3.1521

> <Gold.Chemscore.Rot.Weighted>
5.3115

> <Gold.Chemscore.Internal.Correction.Weighted>
   9.000000E+99

> <Gold.Protein.RotatedTorsions>
[ 6907 6896 6895 6894 ] final   73.04 input  -60.11 | X-H torsion
[ 7974 7965 7964 7962 ] final   36.50 input  175.53 | X-H torsion
[ 8008 7997 7996 7995 ] final   52.73 input   59.86 | X-H torsion
[ 10167 10162 10161 10158 ] final  137.01 input  -65.29 | X-H torsion
[ 10718 10713 10712 10709 ] final -153.56 input   66.30 | X-H torsion
[ 10763 10752 10751 10750 ] final -148.43 input  -60.55 | X-H torsion
[ 11005 11000 10999 10996 ] final -132.66 input  -57.11 | X-H torsion

> <Gold.Protein.ActiveResidues>
 VAL166  LYS551  ARG553  GLY616  TRP617  ASP618  TYR619  PRO620  LYS621  CYS622 
 ASP623  PHE694  ASN695  SER759  ASP760  ASP761  ALA762  ILE779  LEU786  VAL792 
 PHE793  MET794  SER795  GLU796  ALA797  LYS798  CYS799  TRP800  GLU811  SER814 

> <Gold.Protein.RotatedAtoms>
  152.4901  134.4482  159.9565 H   0  0  0  0  0  0  0  0  0  0  0  0  # atno 6907 bound_to 6896
  151.4470  133.3621  159.2797 H   0  0  0  0  0  0  0  0  0  0  0  0  # atno 6908 bound_to 6896
  150.9047  134.8486  159.7445 H   0  0  0  0  0  0  0  0  0  0  0  0  # atno 6909 bound_to 6896
  146.1207  139.6010  142.9292 H   0  0  0  0  0  0  0  0  0  0  0  0  # atno 7974 bound_to 7965
  155.4566  140.3460  155.4307 H   0  0  0  0  0  0  0  0  0  0  0  0  # atno 8008 bound_to 7997
  156.1187  140.1481  156.9265 H   0  0  0  0  0  0  0  0  0  0  0  0  # atno 8009 bound_to 7997
  154.4807  140.0870  156.7351 H   0  0  0  0  0  0  0  0  0  0  0  0  # atno 8010 bound_to 7997
  139.5159  144.6433  151.5508 H   0  0  0  0  0  0  0  0  0  0  0  0  # atno 10167 bound_to 10162
  156.4875  130.8332  151.2556 H   0  0  0  0  0  0  0  0  0  0  0  0  # atno 10718 bound_to 10713
  154.8233  135.3335  154.6972 H   0  0  0  0  0  0  0  0  0  0  0  0  # atno 10763 bound_to 10752
  153.7602  135.6933  153.4931 H   0  0  0  0  0  0  0  0  0  0  0  0  # atno 10764 bound_to 10752
  153.2115  135.4480  155.0335 H   0  0  0  0  0  0  0  0  0  0  0  0  # atno 10765 bound_to 10752
  140.9150  134.1519  157.4359 H   0  0  0  0  0  0  0  0  0  0  0  0  # atno 11005 bound_to 11000
  145.5472  141.0416  143.2298 LP  0  0  0  0  0  0  0  0  0  0  0  0  # atno 17320 bound_to 7965
  144.7594  139.6993  143.7240 LP  0  0  0  0  0  0  0  0  0  0  0  0  # atno 17321 bound_to 7965
  140.6209  143.9261  150.6525 LP  0  0  0  0  0  0  0  0  0  0  0  0  # atno 17342 bound_to 10162
  140.2534  143.3576  152.1386 LP  0  0  0  0  0  0  0  0  0  0  0  0  # atno 17343 bound_to 10162
  157.7477  131.0024  150.3001 LP  0  0  0  0  0  0  0  0  0  0  0  0  # atno 17370 bound_to 10713
  156.3460  130.3823  149.7369 LP  0  0  0  0  0  0  0  0  0  0  0  0  # atno 17371 bound_to 10713
  139.8764  134.9950  156.5722 LP  0  0  0  0  0  0  0  0  0  0  0  0  # atno 17394 bound_to 11000
  140.8061  133.8466  155.8769 LP  0  0  0  0  0  0  0  0  0  0  0  0  # atno 17395 bound_to 11000

$$$$
