AV-unprocessed.smi:855|AV-procd|sdf|3957|dock9
  -GOLD-   22720 1423D 1   1.00000     0.00000
 Structure written by MMmdl.
 35 36  0  0  0  0  0  0  0  0  3 V2000
  146.5678  136.2242  162.7011 C   0  0  0  0  0  0  0  0  0  0  0  0
  147.3630  136.0640  161.4506 C   0  0  0  0  0  0  0  0  0  0  0  0
  147.8213  134.9676  160.7768 C   0  0  0  0  0  0  0  0  0  0  0  0
  148.5134  135.5322  159.6706 C   0  0  0  0  0  0  0  0  0  0  0  0
  149.1390  134.8500  158.6987 N   0  5  0  0  0  0  0  0  0  0  0  0
  148.9486  135.1851  157.4023 C   0  0  0  0  0  0  0  0  0  0  0  0
  148.5317  136.2651  156.9775 O   0  0  0  0  0  0  0  0  0  0  0  0
  149.2590  134.2072  156.5413 N   0  0  0  0  0  0  0  0  0  0  0  0
  149.1312  134.3011  155.0941 C   0  0  0  0  0  0  0  0  0  0  0  0
  147.7413  134.8258  154.7074 C   0  0  0  0  0  0  0  0  0  0  0  0
  147.4968  134.7154  153.2507 N   0  3  0  0  0  0  0  0  0  0  0  0
  147.5559  133.3460  152.7032 C   0  0  0  0  0  0  0  0  0  0  0  0
  146.8366  133.4155  151.3534 C   0  0  0  0  0  0  0  0  0  0  0  0
  145.9383  134.6565  151.4314 C   0  0  0  0  0  0  0  0  0  0  0  0
  146.2023  135.2682  152.8108 C   0  0  0  0  0  0  0  0  0  0  0  0
  148.4641  136.8538  159.6642 N   0  0  0  0  0  0  0  0  0  0  0  0
  147.7343  137.2033  160.8067 O   0  0  0  0  0  0  0  0  0  0  0  0
  145.6726  135.6028  162.6711 H   0  0  0  0  0  0  0  0  0  0  0  0
  146.2552  137.2595  162.8384 H   0  0  0  0  0  0  0  0  0  0  0  0
  147.1552  135.9302  163.5709 H   0  0  0  0  0  0  0  0  0  0  0  0
  147.6871  133.9280  161.0354 H   0  0  0  0  0  0  0  0  0  0  0  0
  149.5960  133.3361  156.9247 H   0  0  0  0  0  0  0  0  0  0  0  0
  149.9037  134.9668  154.7057 H   0  0  0  0  0  0  0  0  0  0  0  0
  149.3042  133.3144  154.6624 H   0  0  0  0  0  0  0  0  0  0  0  0
  146.9625  134.2956  155.2579 H   0  0  0  0  0  0  0  0  0  0  0  0
  147.6676  135.8765  154.9920 H   0  0  0  0  0  0  0  0  0  0  0  0
  148.5815  132.9889  152.6055 H   0  0  0  0  0  0  0  0  0  0  0  0
  147.0226  132.6635  153.3671 H   0  0  0  0  0  0  0  0  0  0  0  0
  147.5611  133.5353  150.5467 H   0  0  0  0  0  0  0  0  0  0  0  0
  146.2697  132.5059  151.1525 H   0  0  0  0  0  0  0  0  0  0  0  0
  146.2111  135.3613  150.6450 H   0  0  0  0  0  0  0  0  0  0  0  0
  144.8843  134.4097  151.2998 H   0  0  0  0  0  0  0  0  0  0  0  0
  145.4194  134.9561  153.5042 H   0  0  0  0  0  0  0  0  0  0  0  0
  146.2176  136.3583  152.7891 H   0  0  0  0  0  0  0  0  0  0  0  0
  148.2112  135.2519  152.7792 H   0  0  0  0  0  0  0  0  0  0  0  0
  1  2  1  0  0  0  0
  1 18  1  0  0  0  0
  1 19  1  0  0  0  0
  1 20  1  0  0  0  0
  2 17  1  0  0  0  0
  2  3  2  0  0  0  0
  3  4  1  0  0  0  0
  3 21  1  0  0  0  0
  4  5  1  0  0  0  0
  4 16  2  0  0  0  0
  5  6  1  0  0  0  0
  6  7  2  0  0  0  0
  6  8  1  0  0  0  0
  8  9  1  0  0  0  0
  8 22  1  0  0  0  0
  9 10  1  0  0  0  0
  9 23  1  0  0  0  0
  9 24  1  0  0  0  0
 10 11  1  0  0  0  0
 10 25  1  0  0  0  0
 10 26  1  0  0  0  0
 11 15  1  0  0  0  0
 11 12  1  0  0  0  0
 11 35  1  0  0  0  0
 12 13  1  0  0  0  0
 12 27  1  0  0  0  0
 12 28  1  0  0  0  0
 13 14  1  0  0  0  0
 13 29  1  0  0  0  0
 13 30  1  0  0  0  0
 14 15  1  0  0  0  0
 14 31  1  0  0  0  0
 14 32  1  0  0  0  0
 15 33  1  0  0  0  0
 15 34  1  0  0  0  0
 16 17  1  0  0  0  0
M  CHG  1   5  -1
M  CHG  1  11   1
M  END
> <s_m_source_file>
AV-unprocessed.smi

> <i_m_source_file_index>
855

> <i_lp_mmshare_version>
43012

> <i_f3d_flags>
0

> <s_epik_input>
W0NIM11jMVtjSF1jKG5vMSlbTkhdQyg9TylbTkhdW0NIMl1bQ0gyXU4yW0NIMl1bQ0gyXVtDSDJdW0NIMl0y

> <s_epik_cmdline>
J2VwaWtfcHl0aG9uJywgJy1waCcsICc3LjAnLCAnLXRuJywgJzgnLCAnLW1hJywgJzIwMCcsICctbWV0YWxfYmluZGluZycsICctaW1hZScsICc8aW5maWxlLm1hZT4nLCAnLW9tYWUnLCAnPG91dGZpbGUubWFlPic=

> <r_epik_Ionization_Penalty>
6.22372

> <r_epik_Ionization_Penalty_Charging>
6.22363

> <r_epik_Ionization_Penalty_Neutral>
9.36971e-05

> <r_epik_State_Penalty>
6.22291

> <r_epik_Charging_Adjusted_Penalty>
12.4465

> <i_epik_Tot_Q>
0

> <i_epik_Tot_abs_Q>
2

> <r_epik_Metal_State_Penalty>
2.16624

> <b_epik_Metal_Only>
1

> <s_lp_Force_Field>
OPLS_2005

> <r_lp_Energy>
15.2309

> <b_lp_Chiralities_Consistent>
1

> <s_lp_Variant>
AV-unprocessed.smi:855-2

> <Gold.Version>
5.8.1

> <Gold.Id.Protein>
6NUR|6NUR_protein|mol2

> <Gold.PLP.Fitness>
40.3819

> <Gold.PLP.PLP>
-24.2216

> <Gold.PLP.part.hbond>
-4.0000

> <Gold.PLP.part.metal>
0.0000

> <Gold.PLP.part.buried>
-2.0098

> <Gold.PLP.part.nonpolar>
-18.1169

> <Gold.PLP.part.repulsive>
0.0520

> <Gold.PLP.ligand.clash>
0.0000

> <Gold.PLP.ligand.torsion>
0.5534

> <Gold.PLP.Chemscore.Hbond>
5.7440

> <Gold.PLP.Chemscore.CHOScore>
0.0000

> <Gold.PLP.Chemscore.Metal>
0.0000

> <Gold.Chemscore.Hbonds>
donor molecule, donor type, donor heavy atom, donor atom, acceptor molecule, acceptor atom, score
      L1  H    11    35       P1  7948  1.89
      P1  H  6896  6909       L1     5  1.80
      P1  H  6931  6943       L1    17  0.83
      P1  H  6934  6947       L1    17  0.90

> <Gold.PLP.Chemscore.Internal.Correction>
0.0352

> <Gold.Rescore>
     Score         DG    S(hbond)    S(metal)    S(lipo)     H(rot)  DE(clash)    DE(int)     intcor
     12.31     -15.85       2.58        0.00      49.52       1.57       0.08       3.46       ----

> <Gold.Chemscore.Fitness>
12.3125

> <Gold.Chemscore.DG>
-15.8536

> <Gold.Chemscore.ZeroCoef>
-5.4800

> <Gold.Chemscore.Hbond>
2.5770

> <Gold.Chemscore.Metal>
0.0000

> <Gold.Chemscore.Lipo>
49.5189

> <Gold.Chemscore.Internal_Hbond>
0.0000

> <Gold.Chemscore.DEClash>
0.0799

> <Gold.Chemscore.DEInternal>
3.4612

> <Gold.Chemscore.Rot>
1.5731

> <Gold.Chemscore.Internal.Correction>
   9.000000E+99

> <Gold.Chemscore.Hbonds>
donor molecule, donor type, donor heavy atom, donor atom, acceptor molecule, acceptor atom, score
      L1  H    11    35       P1  7948  0.87
      P1  H  6896  6909       L1     5  0.18
      P1  H  6931  6943       L1    17  0.28
      P1  H  6934  6947       L1    17  0.81

> <Gold.Chemscore.Hbond.Weighted>
-8.6070

> <Gold.Chemscore.Metal.Weighted>
-0.0000

> <Gold.Chemscore.Lipo.Weighted>
-5.7937

> <Gold.Chemscore.Internal_Hbond.Weighted>
0.0000

> <Gold.Chemscore.DEClash.Weighted>
0.0799

> <Gold.Chemscore.DEInternal.Weighted>
3.4612

> <Gold.Chemscore.Rot.Weighted>
4.0271

> <Gold.Chemscore.Internal.Correction.Weighted>
   9.000000E+99

> <Gold.Protein.RotatedTorsions>
[ 6907 6896 6895 6894 ] final   49.37 input  -60.11 | X-H torsion
[ 7974 7965 7964 7962 ] final -147.09 input  175.53 | X-H torsion
[ 8008 7997 7996 7995 ] final  -25.98 input   59.86 | X-H torsion
[ 10167 10162 10161 10158 ] final  -23.58 input  -65.29 | X-H torsion
[ 10718 10713 10712 10709 ] final    8.77 input   66.30 | X-H torsion
[ 10763 10752 10751 10750 ] final -134.49 input  -60.55 | X-H torsion
[ 11005 11000 10999 10996 ] final   50.27 input  -57.11 | X-H torsion

> <Gold.Protein.ActiveResidues>
 VAL166  LYS551  ARG553  GLY616  TRP617  ASP618  TYR619  PRO620  LYS621  CYS622 
 ASP623  PHE694  ASN695  SER759  ASP760  ASP761  ALA762  ILE779  LEU786  VAL792 
 PHE793  MET794  SER795  GLU796  ALA797  LYS798  CYS799  TRP800  GLU811  SER814 

> <Gold.Protein.RotatedAtoms>
  152.2900  134.7732  160.0379 H   0  0  0  0  0  0  0  0  0  0  0  0  # atno 6907 bound_to 6896
  151.8282  133.3399  159.3613 H   0  0  0  0  0  0  0  0  0  0  0  0  # atno 6908 bound_to 6896
  150.7226  134.5437  159.5804 H   0  0  0  0  0  0  0  0  0  0  0  0  # atno 6909 bound_to 6896
  144.8116  140.5371  143.5638 H   0  0  0  0  0  0  0  0  0  0  0  0  # atno 7974 bound_to 7965
  154.4448  140.1912  156.0704 H   0  0  0  0  0  0  0  0  0  0  0  0  # atno 8008 bound_to 7997
  156.0515  140.3308  155.7330 H   0  0  0  0  0  0  0  0  0  0  0  0  # atno 8009 bound_to 7997
  155.5549  140.0598  157.2832 H   0  0  0  0  0  0  0  0  0  0  0  0  # atno 8010 bound_to 7997
  140.7288  143.4430  151.0629 H   0  0  0  0  0  0  0  0  0  0  0  0  # atno 10167 bound_to 10162
  156.9566  130.5917  149.5659 H   0  0  0  0  0  0  0  0  0  0  0  0  # atno 10718 bound_to 10713
  154.8718  135.3733  154.4744 H   0  0  0  0  0  0  0  0  0  0  0  0  # atno 10763 bound_to 10752
  153.5402  135.7026  153.5645 H   0  0  0  0  0  0  0  0  0  0  0  0  # atno 10764 bound_to 10752
  153.3810  135.3996  155.1821 H   0  0  0  0  0  0  0  0  0  0  0  0  # atno 10765 bound_to 10752
  140.1032  134.5053  155.8743 H   0  0  0  0  0  0  0  0  0  0  0  0  # atno 11005 bound_to 11000
  145.5311  139.1475  143.3499 LP  0  0  0  0  0  0  0  0  0  0  0  0  # atno 17320 bound_to 7965
  146.2415  140.5451  142.8932 LP  0  0  0  0  0  0  0  0  0  0  0  0  # atno 17321 bound_to 7965
  139.8099  143.7966  152.3170 LP  0  0  0  0  0  0  0  0  0  0  0  0  # atno 17342 bound_to 10162
  139.8011  144.7373  150.9823 LP  0  0  0  0  0  0  0  0  0  0  0  0  # atno 17343 bound_to 10162
  156.0340  130.5429  150.8607 LP  0  0  0  0  0  0  0  0  0  0  0  0  # atno 17370 bound_to 10713
  157.5686  131.0946  150.9451 LP  0  0  0  0  0  0  0  0  0  0  0  0  # atno 17371 bound_to 10713
  141.2111  133.6703  156.6559 LP  0  0  0  0  0  0  0  0  0  0  0  0  # atno 17394 bound_to 11000
  140.3191  134.8022  157.4238 LP  0  0  0  0  0  0  0  0  0  0  0  0  # atno 17395 bound_to 11000

$$$$
