AV-unprocessed.smi:525|AV-procd|sdf|2809|dock6
  -GOLD-   2262023283D 1   1.00000     0.00000
 Structure written by MMmdl.
 44 46  0  0  0  0  0  0  0  0  2 V2000
  154.0278  137.9927  159.0818 C   0  0  0  0  0  0  0  0  0  0  0  0
  154.4665  139.3006  158.7584 O   0  0  0  0  0  0  0  0  0  0  0  0
  153.6286  140.3043  159.3040 C   0  0  0  0  0  0  0  0  0  0  0  0
  152.2328  140.1723  158.6829 C   0  0  0  0  0  0  0  0  0  0  0  0
  151.7550  141.4492  158.1376 N   0  0  0  0  0  0  0  0  0  0  0  0
  151.2704  141.7570  156.9024 C   0  0  0  0  0  0  0  0  0  0  0  0
  151.0828  140.6359  155.5507 S   0  0  0  0  0  0  0  0  0  0  0  0
  149.4691  139.8160  155.7730 C   0  0  2  0  0  0  0  0  0  0  0  0
  149.3444  138.4898  155.0112 C   0  0  0  0  0  0  0  0  0  0  0  0
  149.4533  138.5167  153.6792 N   0  0  0  0  0  0  0  0  0  0  0  0
  149.1410  137.4448  155.6251 O   0  0  0  0  0  0  0  0  0  0  0  0
  148.3234  140.7538  155.4009 C   0  0  0  0  0  0  0  0  0  0  0  0
  148.1637  141.2297  154.0787 C   0  0  0  0  0  0  0  0  0  0  0  0
  147.1077  142.1048  153.7596 C   0  0  0  0  0  0  0  0  0  0  0  0
  146.2018  142.5100  154.7579 C   0  0  0  0  0  0  0  0  0  0  0  0
  146.3512  142.0373  156.0754 C   0  0  0  0  0  0  0  0  0  0  0  0
  147.4074  141.1626  156.3951 C   0  0  0  0  0  0  0  0  0  0  0  0
  150.9671  143.0849  156.8989 N   0  3  0  0  0  0  0  0  0  0  0  0
  151.2715  143.6371  158.1435 C   0  0  0  0  0  0  0  0  0  0  0  0
  151.1467  144.9392  158.6176 C   0  0  0  0  0  0  0  0  0  0  0  0
  151.5570  145.1702  159.9471 C   0  0  0  0  0  0  0  0  0  0  0  0
  152.0676  144.1293  160.7498 C   0  0  0  0  0  0  0  0  0  0  0  0
  152.1889  142.8125  160.2587 C   0  0  0  0  0  0  0  0  0  0  0  0
  151.7799  142.5924  158.9438 C   0  0  0  0  0  0  0  0  0  0  0  0
  154.7057  137.2600  158.6444 H   0  0  0  0  0  0  0  0  0  0  0  0
  153.0284  137.8038  158.6875 H   0  0  0  0  0  0  0  0  0  0  0  0
  154.0140  137.8361  160.1612 H   0  0  0  0  0  0  0  0  0  0  0  0
  153.5720  140.1947  160.3882 H   0  0  0  0  0  0  0  0  0  0  0  0
  154.0415  141.2921  159.0922 H   0  0  0  0  0  0  0  0  0  0  0  0
  152.2490  139.4455  157.8703 H   0  0  0  0  0  0  0  0  0  0  0  0
  151.5099  139.8048  159.4118 H   0  0  0  0  0  0  0  0  0  0  0  0
  149.3943  139.5816  156.8360 H   0  0  0  0  0  0  0  0  0  0  0  0
  149.3742  137.6612  153.1487 H   0  0  0  0  0  0  0  0  0  0  0  0
  149.6129  139.3951  153.2074 H   0  0  0  0  0  0  0  0  0  0  0  0
  148.8503  140.9269  153.3017 H   0  0  0  0  0  0  0  0  0  0  0  0
  146.9923  142.4648  152.7478 H   0  0  0  0  0  0  0  0  0  0  0  0
  145.3915  143.1807  154.5130 H   0  0  0  0  0  0  0  0  0  0  0  0
  145.6541  142.3451  156.8410 H   0  0  0  0  0  0  0  0  0  0  0  0
  147.5105  140.8057  157.4095 H   0  0  0  0  0  0  0  0  0  0  0  0
  150.7575  145.7384  158.0037 H   0  0  0  0  0  0  0  0  0  0  0  0
  151.4798  146.1660  160.3592 H   0  0  0  0  0  0  0  0  0  0  0  0
  152.3734  144.3453  161.7633 H   0  0  0  0  0  0  0  0  0  0  0  0
  152.5836  142.0226  160.8807 H   0  0  0  0  0  0  0  0  0  0  0  0
  150.5912  143.5770  156.0987 H   0  0  0  0  0  0  0  0  0  0  0  0
  1  2  1  0  0  0  0
  1 25  1  0  0  0  0
  1 26  1  0  0  0  0
  1 27  1  0  0  0  0
  2  3  1  0  0  0  0
  3  4  1  0  0  0  0
  3 28  1  0  0  0  0
  3 29  1  0  0  0  0
  4  5  1  0  0  0  0
  4 30  1  0  0  0  0
  4 31  1  0  0  0  0
  5 24  1  0  0  0  0
  5  6  1  0  0  0  0
  6  7  1  0  0  0  0
  6 18  2  0  0  0  0
  7  8  1  0  0  0  0
  8  9  1  0  0  0  0
  8 12  1  0  0  0  0
  8 32  1  0  0  0  0
  9 10  1  0  0  0  0
  9 11  2  0  0  0  0
 10 33  1  0  0  0  0
 10 34  1  0  0  0  0
 12 17  1  0  0  0  0
 12 13  2  0  0  0  0
 13 14  1  0  0  0  0
 13 35  1  0  0  0  0
 14 15  2  0  0  0  0
 14 36  1  0  0  0  0
 15 16  1  0  0  0  0
 15 37  1  0  0  0  0
 16 17  2  0  0  0  0
 16 38  1  0  0  0  0
 17 39  1  0  0  0  0
 18 19  1  0  0  0  0
 18 44  1  0  0  0  0
 19 24  2  0  0  0  0
 19 20  1  0  0  0  0
 20 21  2  0  0  0  0
 20 40  1  0  0  0  0
 21 22  1  0  0  0  0
 21 41  1  0  0  0  0
 22 23  2  0  0  0  0
 22 42  1  0  0  0  0
 23 24  1  0  0  0  0
 23 43  1  0  0  0  0
M  CHG  1  18   1
M  END
> <s_m_source_file>
AV-unprocessed.smi

> <i_m_source_file_index>
525

> <i_lp_mmshare_version>
43012

> <i_f3d_flags>
0

> <s_epik_input>
W2NIXTFbY0hdW2NIXVtjSF1jKGMxMiluKFtDSDJdW0NIMl1PW0NIM10pYyhuMilTW0NASF0oQyg9TylbTkgyXSljM1tjSF1bY0hdW2NIXVtjSF1bY0hdMw==

> <s_epik_cmdline>
J2VwaWtfcHl0aG9uJywgJy1waCcsICc3LjAnLCAnLXRuJywgJzgnLCAnLW1hJywgJzIwMCcsICctbWV0YWxfYmluZGluZycsICctaW1hZScsICc8aW5maWxlLm1hZT4nLCAnLW9tYWUnLCAnPG91dGZpbGUubWFlPic=

> <r_epik_Ionization_Penalty>
1.29485

> <r_epik_Ionization_Penalty_Charging>
1.29485

> <r_epik_Ionization_Penalty_Neutral>
1.02965e-06

> <r_epik_State_Penalty>
1.36828

> <r_epik_Charging_Adjusted_Penalty>
2.66313

> <i_epik_Tot_Q>
1

> <i_epik_Tot_abs_Q>
1

> <r_epik_Metal_State_Penalty>
1.43316

> <b_epik_Metal_Only>
0

> <s_lp_Force_Field>
OPLS_2005

> <r_lp_Energy>
14.4741

> <b_lp_Chiralities_Consistent>
1

> <s_lp_Variant>
AV-unprocessed.smi:525-3

> <Gold.Version>
5.8.1

> <Gold.Id.Protein>
6NUR|6NUR_protein|mol2

> <Gold.PLP.Fitness>
60.2807

> <Gold.PLP.PLP>
-49.6491

> <Gold.PLP.part.hbond>
-3.9485

> <Gold.PLP.part.metal>
0.0000

> <Gold.PLP.part.buried>
-6.7295

> <Gold.PLP.part.nonpolar>
-38.6265

> <Gold.PLP.part.repulsive>
0.1648

> <Gold.PLP.ligand.clash>
0.0000

> <Gold.PLP.ligand.torsion>
0.9715

> <Gold.PLP.Chemscore.Hbond>
4.1193

> <Gold.PLP.Chemscore.CHOScore>
0.0000

> <Gold.PLP.Chemscore.Metal>
0.0000

> <Gold.Chemscore.Hbonds>
donor molecule, donor type, donor heavy atom, donor atom, acceptor molecule, acceptor atom, score
      L1  H    10    33       P1  7948  1.00
      L1  H    10    34       P1  7957  0.49
      L1  H    18    44       P1  8028  1.30
      P1  H  7997  8008       L1     2  1.00

> <Gold.PLP.Chemscore.Internal.Correction>
0.2168

> <Gold.Rescore>
     Score         DG    S(hbond)    S(metal)    S(lipo)     H(rot)  DE(clash)    DE(int)     intcor
     20.81     -23.35       2.87        0.00     125.85       2.51       0.58       1.96       ----

> <Gold.Chemscore.Fitness>
20.8148

> <Gold.Chemscore.DG>
-23.3526

> <Gold.Chemscore.ZeroCoef>
-5.4800

> <Gold.Chemscore.Hbond>
2.8698

> <Gold.Chemscore.Metal>
0.0000

> <Gold.Chemscore.Lipo>
125.8520

> <Gold.Chemscore.Internal_Hbond>
0.0000

> <Gold.Chemscore.DEClash>
0.5795

> <Gold.Chemscore.DEInternal>
1.9583

> <Gold.Chemscore.Rot>
2.5145

> <Gold.Chemscore.Internal.Correction>
   9.000000E+99

> <Gold.Chemscore.Hbonds>
donor molecule, donor type, donor heavy atom, donor atom, acceptor molecule, acceptor atom, score
      L1  H    10    33       P1  7948  0.95
      L1  H    10    34       P1  7957  0.50
      L1  H    18    44       P1  8028  0.62
      P1  H  7997  8008       L1     2  0.25

> <Gold.Chemscore.Hbond.Weighted>
-9.5851

> <Gold.Chemscore.Metal.Weighted>
-0.0000

> <Gold.Chemscore.Lipo.Weighted>
-14.7247

> <Gold.Chemscore.Internal_Hbond.Weighted>
0.0000

> <Gold.Chemscore.DEClash.Weighted>
0.5795

> <Gold.Chemscore.DEInternal.Weighted>
1.9583

> <Gold.Chemscore.Rot.Weighted>
6.4372

> <Gold.Chemscore.Internal.Correction.Weighted>
   9.000000E+99

> <Gold.Protein.RotatedTorsions>
[ 6907 6896 6895 6894 ] final   35.37 input  -60.11 | X-H torsion
[ 7974 7965 7964 7962 ] final -112.34 input  175.53 | X-H torsion
[ 8008 7997 7996 7995 ] final  -99.55 input   59.86 | X-H torsion
[ 10167 10162 10161 10158 ] final -171.21 input  -65.29 | X-H torsion
[ 10718 10713 10712 10709 ] final    9.50 input   66.30 | X-H torsion
[ 10763 10752 10751 10750 ] final -175.84 input  -60.55 | X-H torsion
[ 11005 11000 10999 10996 ] final  135.02 input  -57.11 | X-H torsion

> <Gold.Protein.ActiveResidues>
 VAL166  LYS551  ARG553  GLY616  TRP617  ASP618  TYR619  PRO620  LYS621  CYS622 
 ASP623  PHE694  ASN695  SER759  ASP760  ASP761  ALA762  ILE779  LEU786  VAL792 
 PHE793  MET794  SER795  GLU796  ALA797  LYS798  CYS799  TRP800  GLU811  SER814 

> <Gold.Protein.RotatedAtoms>
  152.1153  134.9245  160.0564 H   0  0  0  0  0  0  0  0  0  0  0  0  # atno 6907 bound_to 6896
  152.0407  133.3971  159.4344 H   0  0  0  0  0  0  0  0  0  0  0  0  # atno 6908 bound_to 6896
  150.6846  134.3339  159.4882 H   0  0  0  0  0  0  0  0  0  0  0  0  # atno 6909 bound_to 6896
  145.1452  140.8799  143.3679 H   0  0  0  0  0  0  0  0  0  0  0  0  # atno 7974 bound_to 7965
  154.8164  140.0447  157.1379 H   0  0  0  0  0  0  0  0  0  0  0  0  # atno 8008 bound_to 7997
  154.9310  140.3040  155.5148 H   0  0  0  0  0  0  0  0  0  0  0  0  # atno 8009 bound_to 7997
  156.2976  140.2323  156.4370 H   0  0  0  0  0  0  0  0  0  0  0  0  # atno 8010 bound_to 7997
  139.5816  144.1411  152.1522 H   0  0  0  0  0  0  0  0  0  0  0  0  # atno 10167 bound_to 10162
  156.9673  130.5955  149.5666 H   0  0  0  0  0  0  0  0  0  0  0  0  # atno 10718 bound_to 10713
  154.5796  135.2835  155.0746 H   0  0  0  0  0  0  0  0  0  0  0  0  # atno 10763 bound_to 10752
  154.2088  135.6411  153.5112 H   0  0  0  0  0  0  0  0  0  0  0  0  # atno 10764 bound_to 10752
  153.0084  135.5486  154.6445 H   0  0  0  0  0  0  0  0  0  0  0  0  # atno 10765 bound_to 10752
  139.9952  134.9500  156.9949 H   0  0  0  0  0  0  0  0  0  0  0  0  # atno 11005 bound_to 11000
  145.0489  139.3197  143.5938 LP  0  0  0  0  0  0  0  0  0  0  0  0  # atno 17320 bound_to 7965
  146.3501  139.9890  142.8687 LP  0  0  0  0  0  0  0  0  0  0  0  0  # atno 17321 bound_to 7965
  140.0966  144.5576  150.7018 LP  0  0  0  0  0  0  0  0  0  0  0  0  # atno 17342 bound_to 10162
  140.7093  143.2492  151.4630 LP  0  0  0  0  0  0  0  0  0  0  0  0  # atno 17343 bound_to 10162
  156.0297  130.5389  150.8502 LP  0  0  0  0  0  0  0  0  0  0  0  0  # atno 17370 bound_to 10713
  157.5617  131.0946  150.9549 LP  0  0  0  0  0  0  0  0  0  0  0  0  # atno 17371 bound_to 10713
  140.4831  134.1269  155.7220 LP  0  0  0  0  0  0  0  0  0  0  0  0  # atno 17394 bound_to 11000
  141.1599  133.8813  157.1877 LP  0  0  0  0  0  0  0  0  0  0  0  0  # atno 17395 bound_to 11000

$$$$
