AV-unprocessed.smi:1606|AV-procd|sdf|6461|dock4
  -GOLD-   22720 7113D 1   1.00000     0.00000
 Structure written by MMmdl.
 35 36  0  0  0  0  0  0  0  0  1 V2000
  151.3669  139.6698  154.5015 O   0  0  0  0  0  0  0  0  0  0  0  0
  150.5044  139.9323  155.3402 C   0  0  0  0  0  0  0  0  0  0  0  0
  150.7845  140.1815  156.6285 N   0  0  0  0  0  0  0  0  0  0  0  0
  152.1267  140.2359  157.1993 C   0  0  0  0  0  0  0  0  0  0  0  0
  152.1429  140.7327  158.6599 C   0  0  0  0  0  0  0  0  0  0  0  0
  152.0851  142.2461  158.7950 C   0  0  0  0  0  0  0  0  0  0  0  0
  152.5062  142.8749  159.9859 C   0  0  0  0  0  0  0  0  0  0  0  0
  152.4211  144.2782  160.0708 C   0  0  0  0  0  0  0  0  0  0  0  0
  151.9183  144.9954  158.9683 C   0  0  0  0  0  0  0  0  0  0  0  0
  151.5224  144.2746  157.8242 C   0  0  0  0  0  0  0  0  0  0  0  0
  151.6013  142.9299  157.7324 N   0  0  0  0  0  0  0  0  0  0  0  0
  149.0260  140.0053  154.9381 C   0  0  0  0  0  0  0  0  0  0  0  0
  148.6031  138.7821  154.1049 C   0  0  0  0  0  0  0  0  0  0  0  0
  147.1471  138.9297  153.6341 C   0  0  0  0  0  0  0  0  0  0  0  0
  146.9952  140.1343  152.8903 O   0  0  0  0  0  0  0  0  0  0  0  0
  147.2734  141.3011  153.6572 C   0  0  0  0  0  0  0  0  0  0  0  0
  148.7357  141.2829  154.1310 C   0  0  0  0  0  0  0  0  0  0  0  0
  150.0157  140.3886  157.2494 H   0  0  0  0  0  0  0  0  0  0  0  0
  152.5423  139.2290  157.1556 H   0  0  0  0  0  0  0  0  0  0  0  0
  152.7717  140.8609  156.5800 H   0  0  0  0  0  0  0  0  0  0  0  0
  151.3022  140.2971  159.2010 H   0  0  0  0  0  0  0  0  0  0  0  0
  153.0397  140.3685  159.1636 H   0  0  0  0  0  0  0  0  0  0  0  0
  152.8831  142.2966  160.8167 H   0  0  0  0  0  0  0  0  0  0  0  0
  152.7338  144.7947  160.9662 H   0  0  0  0  0  0  0  0  0  0  0  0
  151.8377  146.0720  158.9986 H   0  0  0  0  0  0  0  0  0  0  0  0
  151.1311  144.7908  156.9601 H   0  0  0  0  0  0  0  0  0  0  0  0
  148.4185  140.0268  155.8448 H   0  0  0  0  0  0  0  0  0  0  0  0
  149.2490  138.6727  153.2322 H   0  0  0  0  0  0  0  0  0  0  0  0
  148.7118  137.8683  154.6903 H   0  0  0  0  0  0  0  0  0  0  0  0
  146.8725  138.0876  152.9987 H   0  0  0  0  0  0  0  0  0  0  0  0
  146.4611  138.9253  154.4827 H   0  0  0  0  0  0  0  0  0  0  0  0
  147.0917  142.1802  153.0390 H   0  0  0  0  0  0  0  0  0  0  0  0
  146.5899  141.3625  154.5055 H   0  0  0  0  0  0  0  0  0  0  0  0
  148.9386  142.1677  154.7361 H   0  0  0  0  0  0  0  0  0  0  0  0
  149.3936  141.3415  153.2627 H   0  0  0  0  0  0  0  0  0  0  0  0
  1  2  2  0  0  0  0
  2  3  1  0  0  0  0
  2 12  1  0  0  0  0
  3  4  1  0  0  0  0
  3 18  1  0  0  0  0
  4  5  1  0  0  0  0
  4 19  1  0  0  0  0
  4 20  1  0  0  0  0
  5  6  1  0  0  0  0
  5 21  1  0  0  0  0
  5 22  1  0  0  0  0
  6 11  1  0  0  0  0
  6  7  2  0  0  0  0
  7  8  1  0  0  0  0
  7 23  1  0  0  0  0
  8  9  2  0  0  0  0
  8 24  1  0  0  0  0
  9 10  1  0  0  0  0
  9 25  1  0  0  0  0
 10 11  2  0  0  0  0
 10 26  1  0  0  0  0
 12 17  1  0  0  0  0
 12 13  1  0  0  0  0
 12 27  1  0  0  0  0
 13 14  1  0  0  0  0
 13 28  1  0  0  0  0
 13 29  1  0  0  0  0
 14 15  1  0  0  0  0
 14 30  1  0  0  0  0
 14 31  1  0  0  0  0
 15 16  1  0  0  0  0
 16 17  1  0  0  0  0
 16 32  1  0  0  0  0
 16 33  1  0  0  0  0
 17 34  1  0  0  0  0
 17 35  1  0  0  0  0
M  END
> <s_m_source_file>
AV-unprocessed.smi

> <i_m_source_file_index>
1606

> <i_lp_mmshare_version>
43012

> <i_f3d_flags>
0

> <s_epik_input>
W0NIMl0xW0NIMl1PW0NIMl1bQ0gyXVtDSF0xQyg9TylbTkhdW0NIMl1bQ0gyXWMyW2NIXVtjSF1bY0hdW2NIXW4y

> <s_epik_cmdline>
J2VwaWtfcHl0aG9uJywgJy1waCcsICc3LjAnLCAnLXRuJywgJzgnLCAnLW1hJywgJzIwMCcsICctbWV0YWxfYmluZGluZycsICctaW1hZScsICc8aW5maWxlLm1hZT4nLCAnLW9tYWUnLCAnPG91dGZpbGUubWFlPic=

> <r_epik_Ionization_Penalty>
0.0277532

> <r_epik_Ionization_Penalty_Charging>
0

> <r_epik_Ionization_Penalty_Neutral>
0.0277532

> <r_epik_State_Penalty>
0.022734

> <r_epik_Charging_Adjusted_Penalty>
0.022734

> <i_epik_Tot_Q>
0

> <i_epik_Tot_abs_Q>
0

> <r_epik_Metal_State_Penalty>
0.0217131

> <b_epik_Metal_Only>
0

> <s_lp_Force_Field>
OPLS_2005

> <r_lp_Energy>
8.37046

> <b_lp_Chiralities_Consistent>
1

> <s_lp_Variant>
AV-unprocessed.smi:1606-1

> <Gold.Version>
5.8.1

> <Gold.Id.Protein>
6NUR|6NUR_protein|mol2

> <Gold.PLP.Fitness>
41.4870

> <Gold.PLP.PLP>
-36.9225

> <Gold.PLP.part.hbond>
-1.0000

> <Gold.PLP.part.metal>
0.0000

> <Gold.PLP.part.buried>
-3.7310

> <Gold.PLP.part.nonpolar>
-32.5969

> <Gold.PLP.part.repulsive>
0.6186

> <Gold.PLP.ligand.clash>
0.0000

> <Gold.PLP.ligand.torsion>
0.7199

> <Gold.PLP.Chemscore.Hbond>
1.0000

> <Gold.PLP.Chemscore.CHOScore>
0.9971

> <Gold.PLP.Chemscore.Metal>
0.0000

> <Gold.Chemscore.Hbonds>
donor molecule, donor type, donor heavy atom, donor atom, acceptor molecule, acceptor atom, score
      P1  H  7989  7998       L1     1  1.00
      L1  C    10    26       P1  8028  0.94

> <Gold.PLP.Chemscore.Internal.Correction>
0.0128

> <Gold.Rescore>
     Score         DG    S(hbond)    S(metal)    S(lipo)     H(rot)  DE(clash)    DE(int)     intcor
     16.45     -16.94       0.94        0.00     103.20       1.47       0.01       0.48       ----

> <Gold.Chemscore.Fitness>
16.4484

> <Gold.Chemscore.DG>
-16.9409

> <Gold.Chemscore.ZeroCoef>
-5.4800

> <Gold.Chemscore.Hbond>
0.9411

> <Gold.Chemscore.Metal>
0.0000

> <Gold.Chemscore.Lipo>
103.1991

> <Gold.Chemscore.Internal_Hbond>
0.0000

> <Gold.Chemscore.DEClash>
0.0113

> <Gold.Chemscore.DEInternal>
0.4813

> <Gold.Chemscore.Rot>
1.4674

> <Gold.Chemscore.Internal.Correction>
   9.000000E+99

> <Gold.Chemscore.Hbonds>
donor molecule, donor type, donor heavy atom, donor atom, acceptor molecule, acceptor atom, score
      P1  H  7989  7998       L1     1  0.86

> <Gold.Chemscore.Hbond.Weighted>
-3.1433

> <Gold.Chemscore.Metal.Weighted>
-0.0000

> <Gold.Chemscore.Lipo.Weighted>
-12.0743

> <Gold.Chemscore.Internal_Hbond.Weighted>
0.0000

> <Gold.Chemscore.DEClash.Weighted>
0.0113

> <Gold.Chemscore.DEInternal.Weighted>
0.4813

> <Gold.Chemscore.Rot.Weighted>
3.7567

> <Gold.Chemscore.Internal.Correction.Weighted>
   9.000000E+99

> <Gold.Protein.RotatedTorsions>
[ 6907 6896 6895 6894 ] final  -13.03 input  -60.11 | X-H torsion
[ 7974 7965 7964 7962 ] final   29.58 input  175.53 | X-H torsion
[ 8008 7997 7996 7995 ] final   66.85 input   59.86 | X-H torsion
[ 10167 10162 10161 10158 ] final    4.86 input  -65.29 | X-H torsion
[ 10718 10713 10712 10709 ] final  154.58 input   66.30 | X-H torsion
[ 10763 10752 10751 10750 ] final   -5.01 input  -60.55 | X-H torsion
[ 11005 11000 10999 10996 ] final -146.78 input  -57.11 | X-H torsion

> <Gold.Protein.ActiveResidues>
 VAL166  LYS551  ARG553  GLY616  TRP617  ASP618  TYR619  PRO620  LYS621  CYS622 
 ASP623  PHE694  ASN695  SER759  ASP760  ASP761  ALA762  ILE779  LEU786  VAL792 
 PHE793  MET794  SER795  GLU796  ALA797  LYS798  CYS799  TRP800  GLU811  SER814 

> <Gold.Protein.RotatedAtoms>
  151.3612  135.0904  159.9434 H   0  0  0  0  0  0  0  0  0  0  0  0  # atno 6907 bound_to 6896
  152.5161  133.9256  159.7566 H   0  0  0  0  0  0  0  0  0  0  0  0  # atno 6908 bound_to 6896
  150.9651  133.6349  159.2777 H   0  0  0  0  0  0  0  0  0  0  0  0  # atno 6909 bound_to 6896
  146.1663  139.6903  142.8999 H   0  0  0  0  0  0  0  0  0  0  0  0  # atno 7974 bound_to 7965
  155.6838  140.3496  155.4866 H   0  0  0  0  0  0  0  0  0  0  0  0  # atno 8008 bound_to 7997
  155.9583  140.1132  157.0940 H   0  0  0  0  0  0  0  0  0  0  0  0  # atno 8009 bound_to 7997
  154.4137  140.1180  156.5131 H   0  0  0  0  0  0  0  0  0  0  0  0  # atno 8010 bound_to 7997
  140.6512  143.7539  150.7579 H   0  0  0  0  0  0  0  0  0  0  0  0  # atno 10167 bound_to 10162
  157.2297  131.0736  151.1860 H   0  0  0  0  0  0  0  0  0  0  0  0  # atno 10718 bound_to 10713
  153.3927  135.7002  153.6483 H   0  0  0  0  0  0  0  0  0  0  0  0  # atno 10763 bound_to 10752
  153.5049  135.3644  155.2559 H   0  0  0  0  0  0  0  0  0  0  0  0  # atno 10764 bound_to 10752
  154.8704  135.4121  154.3246 H   0  0  0  0  0  0  0  0  0  0  0  0  # atno 10765 bound_to 10752
  140.7785  134.3107  157.5053 H   0  0  0  0  0  0  0  0  0  0  0  0  # atno 11005 bound_to 11000
  145.4458  141.0425  143.2832 LP  0  0  0  0  0  0  0  0  0  0  0  0  # atno 17320 bound_to 7965
  144.8097  139.5984  143.7035 LP  0  0  0  0  0  0  0  0  0  0  0  0  # atno 17321 bound_to 7965
  140.1190  143.4629  152.2324 LP  0  0  0  0  0  0  0  0  0  0  0  0  # atno 17342 bound_to 10162
  139.5728  144.7472  151.3845 LP  0  0  0  0  0  0  0  0  0  0  0  0  # atno 17343 bound_to 10162
  157.3490  130.7072  149.6429 LP  0  0  0  0  0  0  0  0  0  0  0  0  # atno 17370 bound_to 10713
  155.9676  130.4258  150.4669 LP  0  0  0  0  0  0  0  0  0  0  0  0  # atno 17371 bound_to 10713
  139.8746  134.9304  156.3501 LP  0  0  0  0  0  0  0  0  0  0  0  0  # atno 17394 bound_to 11000
  140.9506  133.7454  156.0266 LP  0  0  0  0  0  0  0  0  0  0  0  0  # atno 17395 bound_to 11000

$$$$
