AV-unprocessed.smi:1521|AV-procd|sdf|6130|dock5
  -GOLD-   22720 6273D 1   1.00000     0.00000
 Structure written by MMmdl.
 36 37  0  0  0  0  0  0  0  0  1 V2000
  145.6781  138.1284  154.1388 O   0  0  0  0  0  0  0  0  0  0  0  0
  146.5720  137.6499  153.4407 C   0  0  0  0  0  0  0  0  0  0  0  0
  146.3805  136.6209  152.6039 N   0  0  0  0  0  0  0  0  0  0  0  0
  145.1100  135.9358  152.3913 C   0  0  0  0  0  0  0  0  0  0  0  0
  145.2174  134.8730  151.2846 C   0  0  2  0  0  0  0  0  0  0  0  0
  143.9900  133.9402  151.2597 C   0  0  0  0  0  0  0  0  0  0  0  0
  144.1692  132.9538  150.2516 O   0  0  0  0  0  0  0  0  0  0  0  0
  145.3302  132.1711  150.4946 C   0  0  0  0  0  0  0  0  0  0  0  0
  146.5597  133.0939  150.5231 C   0  0  0  0  0  0  0  0  0  0  0  0
  146.3740  134.0793  151.5306 O   0  0  0  0  0  0  0  0  0  0  0  0
  147.8457  138.0810  153.3880 N   0  0  0  0  0  0  0  0  0  0  0  0
  148.4657  139.1032  154.1258 C   0  0  0  0  0  0  0  0  0  0  0  0
  149.6210  138.9600  154.8264 C   0  0  0  0  0  0  0  0  0  0  0  0
  150.2224  140.0640  155.5560 C   0  0  0  0  0  0  0  0  0  0  0  0
  151.4720  139.8737  156.4017 C   0  0  0  0  0  0  0  0  0  0  0  0
  151.7852  140.9903  157.0601 F   0  0  0  0  0  0  0  0  0  0  0  0
  151.3031  138.8960  157.2923 F   0  0  0  0  0  0  0  0  0  0  0  0
  152.5017  139.5499  155.6206 F   0  0  0  0  0  0  0  0  0  0  0  0
  149.5691  141.2398  155.5105 C   0  0  0  0  0  0  0  0  0  0  0  0
  148.3930  141.4008  154.7744 N   0  0  0  0  0  0  0  0  0  0  0  0
  147.7944  140.4125  154.0728 C   0  0  0  0  0  0  0  0  0  0  0  0
  146.7586  140.6350  153.4467 O   0  0  0  0  0  0  0  0  0  0  0  0
  147.9720  142.3186  154.7767 H   0  0  0  0  0  0  0  0  0  0  0  0
  147.1671  136.2957  152.0609 H   0  0  0  0  0  0  0  0  0  0  0  0
  144.8104  135.4696  153.3301 H   0  0  0  0  0  0  0  0  0  0  0  0
  144.3330  136.6619  152.1464 H   0  0  0  0  0  0  0  0  0  0  0  0
  145.3132  135.3669  150.3159 H   0  0  0  0  0  0  0  0  0  0  0  0
  143.8398  133.4622  152.2292 H   0  0  0  0  0  0  0  0  0  0  0  0
  143.0855  134.5074  151.0391 H   0  0  0  0  0  0  0  0  0  0  0  0
  145.2290  131.6292  151.4359 H   0  0  0  0  0  0  0  0  0  0  0  0
  145.4315  131.4273  149.7042 H   0  0  0  0  0  0  0  0  0  0  0  0
  147.4593  132.5206  150.7464 H   0  0  0  0  0  0  0  0  0  0  0  0
  146.7133  133.5690  149.5530 H   0  0  0  0  0  0  0  0  0  0  0  0
  148.4400  137.6403  152.7007 H   0  0  0  0  0  0  0  0  0  0  0  0
  150.1452  138.0183  154.8420 H   0  0  0  0  0  0  0  0  0  0  0  0
  149.8871  142.1327  156.0285 H   0  0  0  0  0  0  0  0  0  0  0  0
  1  2  2  0  0  0  0
  2  3  1  0  0  0  0
  2 11  1  0  0  0  0
  3  4  1  0  0  0  0
  3 24  1  0  0  0  0
  4  5  1  0  0  0  0
  4 25  1  0  0  0  0
  4 26  1  0  0  0  0
  5 10  1  0  0  0  0
  5  6  1  0  0  0  0
  5 27  1  0  0  0  0
  6  7  1  0  0  0  0
  6 28  1  0  0  0  0
  6 29  1  0  0  0  0
  7  8  1  0  0  0  0
  8  9  1  0  0  0  0
  8 30  1  0  0  0  0
  8 31  1  0  0  0  0
  9 10  1  0  0  0  0
  9 32  1  0  0  0  0
  9 33  1  0  0  0  0
 11 12  1  0  0  0  0
 11 34  1  0  0  0  0
 12 21  1  0  0  0  0
 12 13  2  0  0  0  0
 13 14  1  0  0  0  0
 13 35  1  0  0  0  0
 14 15  1  0  0  0  0
 14 19  2  0  0  0  0
 15 16  1  0  0  0  0
 15 17  1  0  0  0  0
 15 18  1  0  0  0  0
 19 20  1  0  0  0  0
 19 36  1  0  0  0  0
 20 23  1  0  0  0  0
 20 21  1  0  0  0  0
 21 22  2  0  0  0  0
M  END
> <s_m_source_file>
AV-unprocessed.smi

> <i_m_source_file_index>
1521

> <i_lp_mmshare_version>
43012

> <i_f3d_flags>
0

> <s_epik_input>
Tz1jMVtuSF1bY0hdYyhDKEYpKEYpRilbY0hdYzFbTkhdQyg9TylbTkhdW0NIMl1bQ0BASF0yW0NIMl1PW0NIMl1bQ0gyXU8y

> <s_epik_cmdline>
J2VwaWtfcHl0aG9uJywgJy1waCcsICc3LjAnLCAnLXRuJywgJzgnLCAnLW1hJywgJzIwMCcsICctbWV0YWxfYmluZGluZycsICctaW1hZScsICc8aW5maWxlLm1hZT4nLCAnLW9tYWUnLCAnPG91dGZpbGUubWFlPic=

> <r_lp_tautomer_probability>
1

> <r_epik_Ionization_Penalty>
0.00396636

> <r_epik_Ionization_Penalty_Charging>
0.00394789

> <r_epik_Ionization_Penalty_Neutral>
1.84676e-05

> <r_epik_State_Penalty>
-0

> <r_epik_Charging_Adjusted_Penalty>
0.00394789

> <i_epik_Tot_Q>
0

> <i_epik_Tot_abs_Q>
0

> <r_epik_Metal_State_Penalty>
0.372669

> <b_epik_Metal_Only>
0

> <s_lp_Force_Field>
OPLS_2005

> <r_lp_Energy>
18.8562

> <b_lp_Chiralities_Consistent>
1

> <s_lp_Variant>
AV-unprocessed.smi:1521-1

> <Gold.Version>
5.8.1

> <Gold.Id.Protein>
6NUR|6NUR_protein|mol2

> <Gold.PLP.Fitness>
39.9142

> <Gold.PLP.PLP>
-33.3761

> <Gold.PLP.part.hbond>
-2.3162

> <Gold.PLP.part.metal>
0.0000

> <Gold.PLP.part.buried>
-3.9327

> <Gold.PLP.part.nonpolar>
-29.0875

> <Gold.PLP.part.repulsive>
1.2347

> <Gold.PLP.ligand.clash>
1.2422

> <Gold.PLP.ligand.torsion>
0.6044

> <Gold.PLP.Chemscore.Hbond>
1.9760

> <Gold.PLP.Chemscore.CHOScore>
1.0000

> <Gold.PLP.Chemscore.Metal>
0.0000

> <Gold.Chemscore.Hbonds>
donor molecule, donor type, donor heavy atom, donor atom, acceptor molecule, acceptor atom, score
      L1  H     3    24       P1  7948  0.98
      L1  H    11    34       P1  7948  1.00
      L1  C    19    36       P1  8028  0.31

> <Gold.PLP.Chemscore.Internal.Correction>
0.0611

> <Gold.Rescore>
     Score         DG    S(hbond)    S(metal)    S(lipo)     H(rot)  DE(clash)    DE(int)     intcor
     12.31     -15.17       1.96        0.00      56.85       1.37       0.04       2.82       ----

> <Gold.Chemscore.Fitness>
12.3069

> <Gold.Chemscore.DG>
-15.1659

> <Gold.Chemscore.ZeroCoef>
-5.4800

> <Gold.Chemscore.Hbond>
1.9614

> <Gold.Chemscore.Metal>
0.0000

> <Gold.Chemscore.Lipo>
56.8475

> <Gold.Chemscore.Internal_Hbond>
0.0000

> <Gold.Chemscore.DEClash>
0.0360

> <Gold.Chemscore.DEInternal>
2.8230

> <Gold.Chemscore.Rot>
1.3735

> <Gold.Chemscore.Internal.Correction>
   9.000000E+99

> <Gold.Chemscore.Hbonds>
donor molecule, donor type, donor heavy atom, donor atom, acceptor molecule, acceptor atom, score
      L1  H     3    24       P1  7948  0.93
      L1  H    11    34       P1  7948  0.96

> <Gold.Chemscore.Hbond.Weighted>
-6.5510

> <Gold.Chemscore.Metal.Weighted>
-0.0000

> <Gold.Chemscore.Lipo.Weighted>
-6.6512

> <Gold.Chemscore.Internal_Hbond.Weighted>
0.0000

> <Gold.Chemscore.DEClash.Weighted>
0.0360

> <Gold.Chemscore.DEInternal.Weighted>
2.8230

> <Gold.Chemscore.Rot.Weighted>
3.5162

> <Gold.Chemscore.Internal.Correction.Weighted>
   9.000000E+99

> <Gold.Protein.RotatedTorsions>
[ 6907 6896 6895 6894 ] final -118.41 input  -60.11 | X-H torsion
[ 7974 7965 7964 7962 ] final  154.02 input  175.53 | X-H torsion
[ 8008 7997 7996 7995 ] final  -57.99 input   59.86 | X-H torsion
[ 10167 10162 10161 10158 ] final   31.68 input  -65.29 | X-H torsion
[ 10718 10713 10712 10709 ] final    8.27 input   66.30 | X-H torsion
[ 10763 10752 10751 10750 ] final -165.66 input  -60.55 | X-H torsion
[ 11005 11000 10999 10996 ] final -159.77 input  -57.11 | X-H torsion

> <Gold.Protein.ActiveResidues>
 VAL166  LYS551  ARG553  GLY616  TRP617  ASP618  TYR619  PRO620  LYS621  CYS622 
 ASP623  PHE694  ASN695  SER759  ASP760  ASP761  ALA762  ILE779  LEU786  VAL792 
 PHE793  MET794  SER795  GLU796  ALA797  LYS798  CYS799  TRP800  GLU811  SER814 

> <Gold.Protein.RotatedAtoms>
  150.8217  133.8241  159.3135 H   0  0  0  0  0  0  0  0  0  0  0  0  # atno 6907 bound_to 6896
  151.5997  135.1046  160.0067 H   0  0  0  0  0  0  0  0  0  0  0  0  # atno 6908 bound_to 6896
  152.4306  133.7229  159.6600 H   0  0  0  0  0  0  0  0  0  0  0  0  # atno 6909 bound_to 6896
  144.8116  139.6877  143.6139 H   0  0  0  0  0  0  0  0  0  0  0  0  # atno 7974 bound_to 7965
  154.4290  140.1094  156.5885 H   0  0  0  0  0  0  0  0  0  0  0  0  # atno 8008 bound_to 7997
  155.6037  140.3493  155.4582 H   0  0  0  0  0  0  0  0  0  0  0  0  # atno 8009 bound_to 7997
  156.0154  140.1228  157.0401 H   0  0  0  0  0  0  0  0  0  0  0  0  # atno 8010 bound_to 7997
  140.4567  144.0968  150.6203 H   0  0  0  0  0  0  0  0  0  0  0  0  # atno 10167 bound_to 10162
  156.9492  130.5890  149.5656 H   0  0  0  0  0  0  0  0  0  0  0  0  # atno 10718 bound_to 10713
  154.6910  135.2971  154.9479 H   0  0  0  0  0  0  0  0  0  0  0  0  # atno 10763 bound_to 10752
  154.0443  135.6653  153.4797 H   0  0  0  0  0  0  0  0  0  0  0  0  # atno 10764 bound_to 10752
  153.0612  135.5114  154.8002 H   0  0  0  0  0  0  0  0  0  0  0  0  # atno 10765 bound_to 10752
  140.6388  134.4573  157.5232 H   0  0  0  0  0  0  0  0  0  0  0  0  # atno 11005 bound_to 11000
  146.2415  139.6011  142.9488 LP  0  0  0  0  0  0  0  0  0  0  0  0  # atno 17320 bound_to 7965
  145.5310  141.0427  143.2383 LP  0  0  0  0  0  0  0  0  0  0  0  0  # atno 17321 bound_to 7965
  140.4143  143.2642  151.9795 LP  0  0  0  0  0  0  0  0  0  0  0  0  # atno 17342 bound_to 10162
  139.4802  144.5888  151.7807 LP  0  0  0  0  0  0  0  0  0  0  0  0  # atno 17343 bound_to 10162
  156.0370  130.5457  150.8678 LP  0  0  0  0  0  0  0  0  0  0  0  0  # atno 17370 bound_to 10713
  157.5733  131.0946  150.9384 LP  0  0  0  0  0  0  0  0  0  0  0  0  # atno 17371 bound_to 10713
  139.9088  134.8390  156.1606 LP  0  0  0  0  0  0  0  0  0  0  0  0  # atno 17394 bound_to 11000
  141.0621  133.6836  156.1974 LP  0  0  0  0  0  0  0  0  0  0  0  0  # atno 17395 bound_to 11000

$$$$
