AV-unprocessed.smi:2278|AV-procd|sdf|9179|dock7
  -GOLD-   2272012393D 1   1.00000     0.00000
 Structure written by MMmdl.
 46 47  0  0  0  0  0  0  0  0  2 V2000
  151.2396  141.4499  156.9462 C   0  0  0  0  0  0  0  0  0  0  0  0
  150.0134  141.1252  156.1119 C   0  0  0  0  0  0  0  0  0  0  0  0
  150.2564  140.4208  154.9293 N   0  0  0  0  0  0  0  0  0  0  0  0
  149.2709  140.0957  154.1586 C   0  0  0  0  0  0  0  0  0  0  0  0
  147.9430  140.4277  154.4761 N   0  0  0  0  0  0  0  0  0  0  0  0
  146.9169  139.9797  153.5173 C   0  0  0  0  0  0  0  0  0  0  0  0
  147.1474  138.5313  153.0287 C   0  0  2  0  0  0  0  0  0  0  0  0
  147.6608  138.5992  151.7135 O   0  0  0  0  0  0  0  0  0  0  0  0
  145.8631  137.6735  153.0066 C   0  0  0  0  0  0  0  0  0  0  0  0
  146.0841  136.3265  152.4219 N   0  3  2  0  0  0  0  0  0  0  0  0
  145.0601  135.9821  151.4022 C   0  0  0  0  0  0  0  0  0  0  0  0
  145.3889  134.6473  150.7127 C   0  0  0  0  0  0  0  0  0  0  0  0
  145.5278  133.5082  151.7364 C   0  0  1  0  0  0  0  0  0  0  0  0
  145.8882  132.1776  151.0610 C   0  0  0  0  0  0  0  0  0  0  0  0
  146.5652  133.9067  152.7995 C   0  0  0  0  0  0  0  0  0  0  0  0
  146.2125  135.2562  153.4467 C   0  0  0  0  0  0  0  0  0  0  0  0
  147.6199  141.1240  155.6049 C   0  0  0  0  0  0  0  0  0  0  0  0
  146.4527  141.4127  155.8757 O   0  0  0  0  0  0  0  0  0  0  0  0
  148.7517  141.4845  156.4741 C   0  0  0  0  0  0  0  0  0  0  0  0
  148.4260  142.2460  157.7531 C   0  0  0  0  0  0  0  0  0  0  0  0
  151.3381  142.5277  157.0788 H   0  0  0  0  0  0  0  0  0  0  0  0
  152.1519  141.0882  156.4699 H   0  0  0  0  0  0  0  0  0  0  0  0
  151.1675  140.9825  157.9287 H   0  0  0  0  0  0  0  0  0  0  0  0
  149.4058  139.5449  153.2260 H   0  0  0  0  0  0  0  0  0  0  0  0
  145.9135  140.0735  153.9367 H   0  0  0  0  0  0  0  0  0  0  0  0
  146.9124  140.6559  152.6596 H   0  0  0  0  0  0  0  0  0  0  0  0
  147.9100  138.0670  153.6528 H   0  0  0  0  0  0  0  0  0  0  0  0
  148.3033  139.2916  151.6739 H   0  0  0  0  0  0  0  0  0  0  0  0
  145.4550  137.5484  154.0092 H   0  0  0  0  0  0  0  0  0  0  0  0
  145.1031  138.2086  152.4347 H   0  0  0  0  0  0  0  0  0  0  0  0
  144.0770  135.9322  151.8734 H   0  0  0  0  0  0  0  0  0  0  0  0
  145.0113  136.7687  150.6481 H   0  0  0  0  0  0  0  0  0  0  0  0
  144.6085  134.4069  149.9896 H   0  0  0  0  0  0  0  0  0  0  0  0
  146.3148  134.7501  150.1444 H   0  0  0  0  0  0  0  0  0  0  0  0
  144.5650  133.3780  152.2330 H   0  0  0  0  0  0  0  0  0  0  0  0
  146.8442  132.2421  150.5404 H   0  0  0  0  0  0  0  0  0  0  0  0
  145.1307  131.8905  150.3310 H   0  0  0  0  0  0  0  0  0  0  0  0
  145.9613  131.3726  151.7926 H   0  0  0  0  0  0  0  0  0  0  0  0
  146.6246  133.1365  153.5695 H   0  0  0  0  0  0  0  0  0  0  0  0
  147.5563  133.9680  152.3474 H   0  0  0  0  0  0  0  0  0  0  0  0
  146.9853  135.5119  154.1707 H   0  0  0  0  0  0  0  0  0  0  0  0
  145.2779  135.1701  154.0035 H   0  0  0  0  0  0  0  0  0  0  0  0
  147.7515  141.6597  158.3778 H   0  0  0  0  0  0  0  0  0  0  0  0
  147.9331  143.1888  157.5144 H   0  0  0  0  0  0  0  0  0  0  0  0
  149.3055  142.4786  158.3510 H   0  0  0  0  0  0  0  0  0  0  0  0
  146.9650  136.3760  151.9295 H   0  0  0  0  0  0  0  0  0  0  0  0
  1  2  1  0  0  0  0
  1 21  1  0  0  0  0
  1 22  1  0  0  0  0
  1 23  1  0  0  0  0
  2 19  2  0  0  0  0
  2  3  1  0  0  0  0
  3  4  2  0  0  0  0
  4  5  1  0  0  0  0
  4 24  1  0  0  0  0
  5  6  1  0  0  0  0
  5 17  1  0  0  0  0
  6  7  1  0  0  0  0
  6 25  1  0  0  0  0
  6 26  1  0  0  0  0
  7  8  1  0  0  0  0
  7  9  1  0  0  0  0
  7 27  1  0  0  0  0
  8 28  1  0  0  0  0
  9 10  1  0  0  0  0
  9 29  1  0  0  0  0
  9 30  1  0  0  0  0
 10 16  1  0  0  0  0
 10 11  1  0  0  0  0
 10 46  1  0  0  0  0
 11 12  1  0  0  0  0
 11 31  1  0  0  0  0
 11 32  1  0  0  0  0
 12 13  1  0  0  0  0
 12 33  1  0  0  0  0
 12 34  1  0  0  0  0
 13 14  1  0  0  0  0
 13 15  1  0  0  0  0
 13 35  1  0  0  0  0
 14 36  1  0  0  0  0
 14 37  1  0  0  0  0
 14 38  1  0  0  0  0
 15 16  1  0  0  0  0
 15 39  1  0  0  0  0
 15 40  1  0  0  0  0
 16 41  1  0  0  0  0
 16 42  1  0  0  0  0
 17 18  2  0  0  0  0
 17 19  1  0  0  0  0
 19 20  1  0  0  0  0
 20 43  1  0  0  0  0
 20 44  1  0  0  0  0
 20 45  1  0  0  0  0
M  CHG  1  10   1
M  END
> <s_m_source_file>
AV-unprocessed.smi

> <i_m_source_file_index>
2278

> <i_lp_mmshare_version>
43012

> <i_f3d_flags>
0

> <s_epik_input>
W0NIM11jMW5bY0hdbihjKD1PKWMxW0NIM10pW0NIMl1bQ0BIXShbT0hdKVtDSDJdTjJbQ0gyXVtDSDJdW0NIXShbQ0gzXSlbQ0gyXVtDSDJdMg==

> <s_epik_cmdline>
J2VwaWtfcHl0aG9uJywgJy1waCcsICc3LjAnLCAnLXRuJywgJzgnLCAnLW1hJywgJzIwMCcsICctbWV0YWxfYmluZGluZycsICctaW1hZScsICc8aW5maWxlLm1hZT4nLCAnLW9tYWUnLCAnPG91dGZpbGUubWFlPic=

> <r_lp_tautomer_probability>
1

> <r_epik_Ionization_Penalty>
0.00139489

> <r_epik_Ionization_Penalty_Charging>
0.00136819

> <r_epik_Ionization_Penalty_Neutral>
2.66975e-05

> <r_epik_State_Penalty>
0.000910892

> <r_epik_Charging_Adjusted_Penalty>
0.00227908

> <i_epik_Tot_Q>
1

> <i_epik_Tot_abs_Q>
1

> <r_epik_Metal_State_Penalty>
-0

> <b_epik_Metal_Only>
0

> <s_lp_Force_Field>
OPLS_2005

> <r_lp_Energy>
28.1947

> <b_lp_Chiralities_Consistent>
1

> <s_lp_Variant>
AV-unprocessed.smi:2278-1

> <Gold.Version>
5.8.1

> <Gold.Id.Protein>
6NUR|6NUR_protein|mol2

> <Gold.PLP.Fitness>
45.1648

> <Gold.PLP.PLP>
-31.4578

> <Gold.PLP.part.hbond>
-4.7830

> <Gold.PLP.part.metal>
0.0000

> <Gold.PLP.part.buried>
-1.6203

> <Gold.PLP.part.nonpolar>
-25.2176

> <Gold.PLP.part.repulsive>
0.1763

> <Gold.PLP.ligand.clash>
0.0000

> <Gold.PLP.ligand.torsion>
1.4995

> <Gold.PLP.Chemscore.Hbond>
4.5470

> <Gold.PLP.Chemscore.CHOScore>
1.0000

> <Gold.PLP.Chemscore.Metal>
0.0000

> <Gold.Chemscore.Hbonds>
donor molecule, donor type, donor heavy atom, donor atom, acceptor molecule, acceptor atom, score
      L1  H     8    28       P1  7957  1.00
      L1  H    10    46       P1  7948  2.00
      P1  H  7954  7966       L1     8  0.58
      P1  H  7989  7998       L1     3  0.94
      L1  C     4    24       P1  7957  1.00

> <Gold.PLP.Chemscore.Internal.Correction>
0.0650

> <Gold.Rescore>
     Score         DG    S(hbond)    S(metal)    S(lipo)     H(rot)  DE(clash)    DE(int)     intcor
     14.00     -16.05       2.45        0.00      68.49       2.20       0.38       1.67       ----

> <Gold.Chemscore.Fitness>
13.9996

> <Gold.Chemscore.DG>
-16.0468

> <Gold.Chemscore.ZeroCoef>
-5.4800

> <Gold.Chemscore.Hbond>
2.4497

> <Gold.Chemscore.Metal>
0.0000

> <Gold.Chemscore.Lipo>
68.4893

> <Gold.Chemscore.Internal_Hbond>
0.0000

> <Gold.Chemscore.DEClash>
0.3752

> <Gold.Chemscore.DEInternal>
1.6720

> <Gold.Chemscore.Rot>
2.1986

> <Gold.Chemscore.Internal.Correction>
   9.000000E+99

> <Gold.Chemscore.Hbonds>
donor molecule, donor type, donor heavy atom, donor atom, acceptor molecule, acceptor atom, score
      L1  H     8    28       P1  7957  0.92
      L1  H    10    46       P1  7948  0.95
      P1  H  7954  7966       L1     8  0.04
      P1  H  7989  7998       L1     3  0.19

> <Gold.Chemscore.Hbond.Weighted>
-8.1821

> <Gold.Chemscore.Metal.Weighted>
-0.0000

> <Gold.Chemscore.Lipo.Weighted>
-8.0133

> <Gold.Chemscore.Internal_Hbond.Weighted>
0.0000

> <Gold.Chemscore.DEClash.Weighted>
0.3752

> <Gold.Chemscore.DEInternal.Weighted>
1.6720

> <Gold.Chemscore.Rot.Weighted>
5.6285

> <Gold.Chemscore.Internal.Correction.Weighted>
   9.000000E+99

> <Gold.Protein.RotatedTorsions>
[ 6907 6896 6895 6894 ] final -130.43 input  -60.11 | X-H torsion
[ 7974 7965 7964 7962 ] final   -3.23 input  175.53 | X-H torsion
[ 8008 7997 7996 7995 ] final -165.64 input   59.86 | X-H torsion
[ 10167 10162 10161 10158 ] final   20.59 input  -65.29 | X-H torsion
[ 10718 10713 10712 10709 ] final   18.84 input   66.30 | X-H torsion
[ 10763 10752 10751 10750 ] final -179.55 input  -60.55 | X-H torsion
[ 11005 11000 10999 10996 ] final   -5.97 input  -57.11 | X-H torsion

> <Gold.Protein.ActiveResidues>
 VAL166  LYS551  ARG553  GLY616  TRP617  ASP618  TYR619  PRO620  LYS621  CYS622 
 ASP623  PHE694  ASN695  SER759  ASP760  ASP761  ALA762  ILE779  LEU786  VAL792 
 PHE793  MET794  SER795  GLU796  ALA797  LYS798  CYS799  TRP800  GLU811  SER814 

> <Gold.Protein.RotatedAtoms>
  150.9396  133.6672  159.2793 H   0  0  0  0  0  0  0  0  0  0  0  0  # atno 6907 bound_to 6896
  151.4065  135.0977  159.9581 H   0  0  0  0  0  0  0  0  0  0  0  0  # atno 6908 bound_to 6896
  152.5063  133.8879  159.7434 H   0  0  0  0  0  0  0  0  0  0  0  0  # atno 6909 bound_to 6896
  146.2393  140.1690  142.8332 H   0  0  0  0  0  0  0  0  0  0  0  0  # atno 7974 bound_to 7965
  155.8526  140.0965  157.1665 H   0  0  0  0  0  0  0  0  0  0  0  0  # atno 8008 bound_to 7997
  154.3986  140.1380  156.3925 H   0  0  0  0  0  0  0  0  0  0  0  0  # atno 8009 bound_to 7997
  155.7944  140.3455  155.5370 H   0  0  0  0  0  0  0  0  0  0  0  0  # atno 8010 bound_to 7997
  140.5492  143.9540  150.6567 H   0  0  0  0  0  0  0  0  0  0  0  0  # atno 10167 bound_to 10162
  157.1020  130.6472  149.5875 H   0  0  0  0  0  0  0  0  0  0  0  0  # atno 10718 bound_to 10713
  154.5336  135.2801  155.1158 H   0  0  0  0  0  0  0  0  0  0  0  0  # atno 10763 bound_to 10752
  154.2668  135.6311  153.5299 H   0  0  0  0  0  0  0  0  0  0  0  0  # atno 10764 bound_to 10752
  152.9962  135.5619  154.5856 H   0  0  0  0  0  0  0  0  0  0  0  0  # atno 10765 bound_to 10752
  140.6969  133.9023  155.8656 H   0  0  0  0  0  0  0  0  0  0  0  0  # atno 11005 bound_to 11000
  145.0027  140.8646  143.5272 LP  0  0  0  0  0  0  0  0  0  0  0  0  # atno 17320 bound_to 7965
  145.1712  139.2403  143.5341 LP  0  0  0  0  0  0  0  0  0  0  0  0  # atno 17321 bound_to 7965
  140.2961  143.3291  152.1016 LP  0  0  0  0  0  0  0  0  0  0  0  0  # atno 17342 bound_to 10162
  139.5020  144.6725  151.6207 LP  0  0  0  0  0  0  0  0  0  0  0  0  # atno 17343 bound_to 10162
  155.9871  130.4909  150.7110 LP  0  0  0  0  0  0  0  0  0  0  0  0  # atno 17370 bound_to 10713
  157.4632  131.0885  151.0723 LP  0  0  0  0  0  0  0  0  0  0  0  0  # atno 17371 bound_to 10713
  141.0196  134.0908  157.4135 LP  0  0  0  0  0  0  0  0  0  0  0  0  # atno 17394 bound_to 11000
  139.8907  135.0114  156.6753 LP  0  0  0  0  0  0  0  0  0  0  0  0  # atno 17395 bound_to 11000

$$$$
