AV-unprocessed.smi:1447|AV-procd|sdf|5892|dock4
  -GOLD-   22720 5573D 1   1.00000     0.00000
 Structure written by MMmdl.
 48 50  0  0  0  0  0  0  0  0  2 V2000
  152.1742  136.6741  157.3168 C   0  0  0  0  0  0  0  0  0  0  0  0
  151.6173  135.8030  156.3483 O   0  0  0  0  0  0  0  0  0  0  0  0
  150.4632  136.3457  155.7295 C   0  0  0  0  0  0  0  0  0  0  0  0
  150.9019  137.3554  154.6581 C   0  0  0  0  0  0  0  0  0  0  0  0
  149.8796  138.3831  154.4362 N   0  0  0  0  0  0  0  0  0  0  0  0
  148.6442  137.8797  154.0628 N   0  0  0  0  0  0  0  0  0  0  0  0
  147.6541  138.6838  153.8440 C   0  0  0  0  0  0  0  0  0  0  0  0
  146.3099  138.1835  153.4423 C   0  0  0  0  0  0  0  0  0  0  0  0
  145.2932  138.4641  154.0798 O   0  0  0  0  0  0  0  0  0  0  0  0
  146.2870  137.4106  152.3412 N   0  0  0  0  0  0  0  0  0  0  0  0
  145.0925  136.8047  151.7613 C   0  0  2  0  0  0  0  0  0  0  0  0
  144.3726  135.9535  152.8203 C   0  0  0  0  0  0  0  0  0  0  0  0
  143.1555  135.2254  152.2180 C   0  0  0  0  0  0  0  0  0  0  0  0
  143.5234  134.4038  151.0361 N   0  3  2  0  0  0  0  0  0  0  0  0
  144.2391  133.1551  151.3895 C   0  0  0  0  0  0  0  0  0  0  0  0
  144.9717  132.5262  150.2274 C   0  0  0  0  0  0  0  0  0  0  0  0
  143.6744  131.9241  150.7199 C   0  0  0  0  0  0  0  0  0  0  0  0
  144.2151  135.2036  149.9929 C   0  0  0  0  0  0  0  0  0  0  0  0
  145.4552  135.9304  150.5459 C   0  0  0  0  0  0  0  0  0  0  0  0
  147.8175  140.1209  153.9836 C   0  0  0  0  0  0  0  0  0  0  0  0
  149.0269  140.5962  154.3530 C   0  0  0  0  0  0  0  0  0  0  0  0
  150.1620  139.7093  154.6120 C   0  0  0  0  0  0  0  0  0  0  0  0
  151.2695  140.1176  154.9601 O   0  0  0  0  0  0  0  0  0  0  0  0
  153.0550  136.2120  157.7625 H   0  0  0  0  0  0  0  0  0  0  0  0
  151.4622  136.8815  158.1168 H   0  0  0  0  0  0  0  0  0  0  0  0
  152.4815  137.6196  156.8676 H   0  0  0  0  0  0  0  0  0  0  0  0
  149.8751  135.5474  155.2739 H   0  0  0  0  0  0  0  0  0  0  0  0
  149.8348  136.8322  156.4773 H   0  0  0  0  0  0  0  0  0  0  0  0
  151.8497  137.8154  154.9434 H   0  0  0  0  0  0  0  0  0  0  0  0
  151.1060  136.8273  153.7247 H   0  0  0  0  0  0  0  0  0  0  0  0
  147.1657  137.2290  151.8769 H   0  0  0  0  0  0  0  0  0  0  0  0
  144.4118  137.5959  151.4403 H   0  0  0  0  0  0  0  0  0  0  0  0
  145.0636  135.2260  153.2482 H   0  0  0  0  0  0  0  0  0  0  0  0
  144.0465  136.5862  153.6469 H   0  0  0  0  0  0  0  0  0  0  0  0
  142.6747  134.6005  152.9715 H   0  0  0  0  0  0  0  0  0  0  0  0
  142.4105  135.9594  151.9079 H   0  0  0  0  0  0  0  0  0  0  0  0
  144.6529  133.0921  152.3941 H   0  0  0  0  0  0  0  0  0  0  0  0
  144.9550  133.0399  149.2678 H   0  0  0  0  0  0  0  0  0  0  0  0
  145.8884  131.9826  150.4474 H   0  0  0  0  0  0  0  0  0  0  0  0
  143.7365  130.9831  151.2633 H   0  0  0  0  0  0  0  0  0  0  0  0
  142.7967  132.0372  150.0857 H   0  0  0  0  0  0  0  0  0  0  0  0
  144.4912  134.5641  149.1539 H   0  0  0  0  0  0  0  0  0  0  0  0
  143.5102  135.9374  149.5995 H   0  0  0  0  0  0  0  0  0  0  0  0
  145.8947  136.5445  149.7590 H   0  0  0  0  0  0  0  0  0  0  0  0
  146.2182  135.2022  150.8242 H   0  0  0  0  0  0  0  0  0  0  0  0
  146.9974  140.7995  153.7990 H   0  0  0  0  0  0  0  0  0  0  0  0
  149.1620  141.6623  154.4615 H   0  0  0  0  0  0  0  0  0  0  0  0
  142.6521  134.1016  150.6238 H   0  0  0  0  0  0  0  0  0  0  0  0
  1  2  1  0  0  0  0
  1 24  1  0  0  0  0
  1 25  1  0  0  0  0
  1 26  1  0  0  0  0
  2  3  1  0  0  0  0
  3  4  1  0  0  0  0
  3 27  1  0  0  0  0
  3 28  1  0  0  0  0
  4  5  1  0  0  0  0
  4 29  1  0  0  0  0
  4 30  1  0  0  0  0
  5 22  1  0  0  0  0
  5  6  1  0  0  0  0
  6  7  2  0  0  0  0
  7  8  1  0  0  0  0
  7 20  1  0  0  0  0
  8  9  2  0  0  0  0
  8 10  1  0  0  0  0
 10 11  1  0  0  0  0
 10 31  1  0  0  0  0
 11 19  1  0  0  0  0
 11 12  1  0  0  0  0
 11 32  1  0  0  0  0
 12 13  1  0  0  0  0
 12 33  1  0  0  0  0
 12 34  1  0  0  0  0
 13 14  1  0  0  0  0
 13 35  1  0  0  0  0
 13 36  1  0  0  0  0
 14 15  1  0  0  0  0
 14 18  1  0  0  0  0
 14 48  1  0  0  0  0
 15 17  1  0  0  0  0
 15 16  1  0  0  0  0
 15 37  1  0  0  0  0
 16 17  1  0  0  0  0
 16 38  1  0  0  0  0
 16 39  1  0  0  0  0
 17 40  1  0  0  0  0
 17 41  1  0  0  0  0
 18 19  1  0  0  0  0
 18 42  1  0  0  0  0
 18 43  1  0  0  0  0
 19 44  1  0  0  0  0
 19 45  1  0  0  0  0
 20 21  2  0  0  0  0
 20 46  1  0  0  0  0
 21 22  1  0  0  0  0
 21 47  1  0  0  0  0
 22 23  2  0  0  0  0
M  CHG  1  14   1
M  END
> <s_m_source_file>
AV-unprocessed.smi

> <i_m_source_file_index>
1447

> <i_lp_mmshare_version>
43012

> <i_f3d_flags>
0

> <s_epik_input>
W0NIM11PW0NIMl1bQ0gyXW4xbmMoW2NIXVtjSF1jMT1PKUMoPU8pW05IXVtDSF0yW0NIMl1bQ0gyXU4oW0NIMl1bQ0gyXTIpW0NIXTNbQ0gyXVtDSDJdMw==

> <s_epik_cmdline>
J2VwaWtfcHl0aG9uJywgJy1waCcsICc3LjAnLCAnLXRuJywgJzgnLCAnLW1hJywgJzIwMCcsICctbWV0YWxfYmluZGluZycsICctaW1hZScsICc8aW5maWxlLm1hZT4nLCAnLW9tYWUnLCAnPG91dGZpbGUubWFlPic=

> <r_lp_tautomer_probability>
1

> <r_epik_Ionization_Penalty>
0.168623

> <r_epik_Ionization_Penalty_Charging>
0.16862

> <r_epik_Ionization_Penalty_Neutral>
2.93027e-06

> <r_epik_State_Penalty>
0.157986

> <r_epik_Charging_Adjusted_Penalty>
0.326605

> <i_epik_Tot_Q>
1

> <i_epik_Tot_abs_Q>
1

> <r_epik_Metal_State_Penalty>
0.157986

> <b_epik_Metal_Only>
0

> <s_lp_Force_Field>
OPLS_2005

> <r_lp_Energy>
47.6191

> <b_lp_Chiralities_Consistent>
1

> <s_lp_Variant>
AV-unprocessed.smi:1447-2

> <Gold.Version>
5.8.1

> <Gold.Id.Protein>
6NUR|6NUR_protein|mol2

> <Gold.PLP.Fitness>
46.3237

> <Gold.PLP.PLP>
-35.2727

> <Gold.PLP.part.hbond>
-4.0000

> <Gold.PLP.part.metal>
0.0000

> <Gold.PLP.part.buried>
-2.3920

> <Gold.PLP.part.nonpolar>
-32.7872

> <Gold.PLP.part.repulsive>
2.8521

> <Gold.PLP.ligand.clash>
0.0000

> <Gold.PLP.ligand.torsion>
2.1377

> <Gold.PLP.Chemscore.Hbond>
4.6717

> <Gold.PLP.Chemscore.CHOScore>
0.0000

> <Gold.PLP.Chemscore.Metal>
0.0000

> <Gold.Chemscore.Hbonds>
donor molecule, donor type, donor heavy atom, donor atom, acceptor molecule, acceptor atom, score
      L1  H    10    31       P1  7948  0.99
      L1  H    14    48       P1 10186  2.00
      P1  H  7989  7998       L1    23  0.80
      P1  H 10752 10765       L1     2  0.98

> <Gold.PLP.Chemscore.Internal.Correction>
1.3111

> <Gold.Rescore>
     Score         DG    S(hbond)    S(metal)    S(lipo)     H(rot)  DE(clash)    DE(int)     intcor
     14.08     -19.60       2.44        0.00      89.56       1.76       2.41       3.12       ----

> <Gold.Chemscore.Fitness>
14.0802

> <Gold.Chemscore.DG>
-19.6048

> <Gold.Chemscore.ZeroCoef>
-5.4800

> <Gold.Chemscore.Hbond>
2.4414

> <Gold.Chemscore.Metal>
0.0000

> <Gold.Chemscore.Lipo>
89.5584

> <Gold.Chemscore.Internal_Hbond>
0.0000

> <Gold.Chemscore.DEClash>
2.4073

> <Gold.Chemscore.DEInternal>
3.1173

> <Gold.Chemscore.Rot>
1.7608

> <Gold.Chemscore.Internal.Correction>
   9.000000E+99

> <Gold.Chemscore.Hbonds>
donor molecule, donor type, donor heavy atom, donor atom, acceptor molecule, acceptor atom, score
      L1  H    10    31       P1  7948  0.88
      L1  H    14    48       P1 10186  0.66
      P1  H  7989  7998       L1    23  0.12
      P1  H 10752 10765       L1     2  0.39

> <Gold.Chemscore.Hbond.Weighted>
-8.1542

> <Gold.Chemscore.Metal.Weighted>
-0.0000

> <Gold.Chemscore.Lipo.Weighted>
-10.4783

> <Gold.Chemscore.Internal_Hbond.Weighted>
0.0000

> <Gold.Chemscore.DEClash.Weighted>
2.4073

> <Gold.Chemscore.DEInternal.Weighted>
3.1173

> <Gold.Chemscore.Rot.Weighted>
4.5077

> <Gold.Chemscore.Internal.Correction.Weighted>
   9.000000E+99

> <Gold.Protein.RotatedTorsions>
[ 6907 6896 6895 6894 ] final -146.44 input  -60.11 | X-H torsion
[ 7974 7965 7964 7962 ] final -173.20 input  175.53 | X-H torsion
[ 8008 7997 7996 7995 ] final   -8.26 input   59.86 | X-H torsion
[ 10167 10162 10161 10158 ] final   54.55 input  -65.29 | X-H torsion
[ 10718 10713 10712 10709 ] final -159.98 input   66.30 | X-H torsion
[ 10763 10752 10751 10750 ] final -160.32 input  -60.55 | X-H torsion
[ 11005 11000 10999 10996 ] final   55.90 input  -57.11 | X-H torsion

> <Gold.Protein.ActiveResidues>
 VAL166  LYS551  ARG553  GLY616  TRP617  ASP618  TYR619  PRO620  LYS621  CYS622 
 ASP623  PHE694  ASN695  SER759  ASP760  ASP761  ALA762  ILE779  LEU786  VAL792 
 PHE793  MET794  SER795  GLU796  ALA797  LYS798  CYS799  TRP800  GLU811  SER814 

> <Gold.Protein.RotatedAtoms>
  151.1416  133.4967  159.2596 H   0  0  0  0  0  0  0  0  0  0  0  0  # atno 6907 bound_to 6896
  151.1649  135.0290  159.8736 H   0  0  0  0  0  0  0  0  0  0  0  0  # atno 6908 bound_to 6896
  152.5462  134.1286  159.8482 H   0  0  0  0  0  0  0  0  0  0  0  0  # atno 6909 bound_to 6896
  144.7140  140.1658  143.6372 H   0  0  0  0  0  0  0  0  0  0  0  0  # atno 7974 bound_to 7965
  154.5758  140.2385  155.8125 H   0  0  0  0  0  0  0  0  0  0  0  0  # atno 8008 bound_to 7997
  156.2142  140.3017  155.9758 H   0  0  0  0  0  0  0  0  0  0  0  0  # atno 8009 bound_to 7997
  155.2629  140.0415  157.2990 H   0  0  0  0  0  0  0  0  0  0  0  0  # atno 8010 bound_to 7997
  140.2289  144.3708  150.6422 H   0  0  0  0  0  0  0  0  0  0  0  0  # atno 10167 bound_to 10162
  156.5757  130.8708  151.2850 H   0  0  0  0  0  0  0  0  0  0  0  0  # atno 10718 bound_to 10713
  154.7400  135.3066  154.8745 H   0  0  0  0  0  0  0  0  0  0  0  0  # atno 10763 bound_to 10752
  153.9562  135.6758  153.4749 H   0  0  0  0  0  0  0  0  0  0  0  0  # atno 10764 bound_to 10752
  153.0999  135.4917  154.8773 H   0  0  0  0  0  0  0  0  0  0  0  0  # atno 10765 bound_to 10752
  140.0571  134.5655  155.9195 H   0  0  0  0  0  0  0  0  0  0  0  0  # atno 11005 bound_to 11000
  145.8989  139.2418  143.1505 LP  0  0  0  0  0  0  0  0  0  0  0  0  # atno 17320 bound_to 7965
  145.9830  140.8666  143.0104 LP  0  0  0  0  0  0  0  0  0  0  0  0  # atno 17321 bound_to 7965
  140.6200  143.2175  151.6714 LP  0  0  0  0  0  0  0  0  0  0  0  0  # atno 17342 bound_to 10162
  139.5117  144.3500  152.0661 LP  0  0  0  0  0  0  0  0  0  0  0  0  # atno 17343 bound_to 10162
  157.7338  130.9736  150.1996 LP  0  0  0  0  0  0  0  0  0  0  0  0  # atno 17370 bound_to 10713
  156.2675  130.3718  149.8066 LP  0  0  0  0  0  0  0  0  0  0  0  0  # atno 17371 bound_to 10713
  141.1956  133.6588  156.5654 LP  0  0  0  0  0  0  0  0  0  0  0  0  # atno 17394 bound_to 11000
  140.3828  134.7509  157.4672 LP  0  0  0  0  0  0  0  0  0  0  0  0  # atno 17395 bound_to 11000

$$$$
