AV-unprocessed.smi:1570|AV-procd|sdf|6316|dock8
  -GOLD-   22720 6523D 1   1.00000     0.00000
 Structure written by MMmdl.
 51 53  0  0  0  0  0  0  0  0  1 V2000
  154.5423  141.1444  160.9071 C   0  0  0  0  0  0  0  0  0  0  0  0
  153.3248  140.4026  160.3416 C   0  0  0  0  0  0  0  0  0  0  0  0
  152.6150  141.2208  159.3616 N   0  0  0  0  0  0  0  0  0  0  0  0
  152.2638  140.8534  158.1069 C   0  0  0  0  0  0  0  0  0  0  0  0
  152.4827  139.7600  157.5848 O   0  0  0  0  0  0  0  0  0  0  0  0
  151.6384  141.9016  157.5209 N   0  0  0  0  0  0  0  0  0  0  0  0
  151.0908  141.9399  156.1657 C   0  0  0  0  0  0  0  0  0  0  0  0
  150.4234  140.6055  155.7771 C   0  0  2  0  0  0  0  0  0  0  0  0
  151.3935  139.8005  155.1372 O   0  0  0  0  0  0  0  0  0  0  0  0
  149.2769  140.8262  154.7688 C   0  0  0  0  0  0  0  0  0  0  0  0
  148.1633  141.6491  155.2451 N   0  0  0  0  0  0  0  0  0  0  0  0
  147.2527  140.8577  156.0665 C   0  0  0  0  0  0  0  0  0  0  0  0
  146.0554  141.6738  156.5924 C   0  0  1  0  0  0  0  0  0  0  0  0
  146.4307  142.6533  157.7175 C   0  0  0  0  0  0  0  0  0  0  0  0
  145.3967  142.3341  155.5107 O   0  0  0  0  0  0  0  0  0  0  0  0
  146.2421  143.1232  154.6760 C   0  0  2  0  0  0  0  0  0  0  0  0
  145.3905  143.6890  153.5348 C   0  0  0  0  0  0  0  0  0  0  0  0
  147.4049  142.2585  154.1558 C   0  0  0  0  0  0  0  0  0  0  0  0
  151.6044  142.9767  158.4205 C   0  0  0  0  0  0  0  0  0  0  0  0
  151.0885  144.2781  158.2897 C   0  0  0  0  0  0  0  0  0  0  0  0
  151.2210  145.1414  159.4025 C   0  0  0  0  0  0  0  0  0  0  0  0
  151.8531  144.7002  160.5939 C   0  0  0  0  0  0  0  0  0  0  0  0
  152.3667  143.3863  160.6978 C   0  0  0  0  0  0  0  0  0  0  0  0
  152.2193  142.5483  159.5786 C   0  0  0  0  0  0  0  0  0  0  0  0
  155.0644  140.5290  161.6397 H   0  0  0  0  0  0  0  0  0  0  0  0
  154.2459  142.0702  161.4008 H   0  0  0  0  0  0  0  0  0  0  0  0
  155.2520  141.3961  160.1184 H   0  0  0  0  0  0  0  0  0  0  0  0
  153.6429  139.4658  159.8815 H   0  0  0  0  0  0  0  0  0  0  0  0
  152.6466  140.1264  161.1493 H   0  0  0  0  0  0  0  0  0  0  0  0
  150.3493  142.7400  156.1375 H   0  0  0  0  0  0  0  0  0  0  0  0
  151.8535  142.2265  155.4407 H   0  0  0  0  0  0  0  0  0  0  0  0
  150.0618  140.1006  156.6718 H   0  0  0  0  0  0  0  0  0  0  0  0
  151.5762  139.0586  155.6940 H   0  0  0  0  0  0  0  0  0  0  0  0
  149.6807  141.2751  153.8599 H   0  0  0  0  0  0  0  0  0  0  0  0
  148.8997  139.8470  154.4688 H   0  0  0  0  0  0  0  0  0  0  0  0
  146.8737  140.0197  155.4790 H   0  0  0  0  0  0  0  0  0  0  0  0
  147.7918  140.4213  156.9083 H   0  0  0  0  0  0  0  0  0  0  0  0
  145.3311  140.9738  157.0095 H   0  0  0  0  0  0  0  0  0  0  0  0
  146.8299  142.1182  158.5794 H   0  0  0  0  0  0  0  0  0  0  0  0
  145.5576  143.2136  158.0521 H   0  0  0  0  0  0  0  0  0  0  0  0
  147.1877  143.3708  157.4018 H   0  0  0  0  0  0  0  0  0  0  0  0
  146.6408  143.9589  155.2519 H   0  0  0  0  0  0  0  0  0  0  0  0
  145.9885  144.3148  152.8719 H   0  0  0  0  0  0  0  0  0  0  0  0
  144.5756  144.3006  153.9228 H   0  0  0  0  0  0  0  0  0  0  0  0
  144.9517  142.8902  152.9363 H   0  0  0  0  0  0  0  0  0  0  0  0
  148.0515  142.8880  153.5466 H   0  0  0  0  0  0  0  0  0  0  0  0
  147.0158  141.4805  153.4969 H   0  0  0  0  0  0  0  0  0  0  0  0
  150.6136  144.6116  157.3791 H   0  0  0  0  0  0  0  0  0  0  0  0
  150.8383  146.1497  159.3431 H   0  0  0  0  0  0  0  0  0  0  0  0
  151.9451  145.3764  161.4310 H   0  0  0  0  0  0  0  0  0  0  0  0
  152.8527  143.0469  161.6004 H   0  0  0  0  0  0  0  0  0  0  0  0
  1  2  1  0  0  0  0
  1 25  1  0  0  0  0
  1 26  1  0  0  0  0
  1 27  1  0  0  0  0
  2  3  1  0  0  0  0
  2 28  1  0  0  0  0
  2 29  1  0  0  0  0
  3 24  1  0  0  0  0
  3  4  1  0  0  0  0
  4  5  2  0  0  0  0
  4  6  1  0  0  0  0
  6  7  1  0  0  0  0
  6 19  1  0  0  0  0
  7  8  1  0  0  0  0
  7 30  1  0  0  0  0
  7 31  1  0  0  0  0
  8  9  1  0  0  0  0
  8 10  1  0  0  0  0
  8 32  1  0  0  0  0
  9 33  1  0  0  0  0
 10 11  1  0  0  0  0
 10 34  1  0  0  0  0
 10 35  1  0  0  0  0
 11 18  1  0  0  0  0
 11 12  1  0  0  0  0
 12 13  1  0  0  0  0
 12 36  1  0  0  0  0
 12 37  1  0  0  0  0
 13 14  1  0  0  0  0
 13 15  1  0  0  0  0
 13 38  1  0  0  0  0
 14 39  1  0  0  0  0
 14 40  1  0  0  0  0
 14 41  1  0  0  0  0
 15 16  1  0  0  0  0
 16 17  1  0  0  0  0
 16 18  1  0  0  0  0
 16 42  1  0  0  0  0
 17 43  1  0  0  0  0
 17 44  1  0  0  0  0
 17 45  1  0  0  0  0
 18 46  1  0  0  0  0
 18 47  1  0  0  0  0
 19 24  2  0  0  0  0
 19 20  1  0  0  0  0
 20 21  2  0  0  0  0
 20 48  1  0  0  0  0
 21 22  1  0  0  0  0
 21 49  1  0  0  0  0
 22 23  2  0  0  0  0
 22 50  1  0  0  0  0
 23 24  1  0  0  0  0
 23 51  1  0  0  0  0
M  END
> <s_m_source_file>
AV-unprocessed.smi

> <i_m_source_file_index>
1570

> <i_lp_mmshare_version>
43012

> <i_f3d_flags>
0

> <s_epik_input>
W2NIXTFbY0hdW2NIXVtjSF1jKGMxMiluKFtDSDJdW0NIM10pYyg9TyluMltDSDJdW0NASF0oW09IXSlbQ0gyXU4zW0NIMl1bQ0BASF0oW0NIM10pT1tDQEBIXShbQ0gzXSlbQ0gyXTM=

> <s_epik_cmdline>
J2VwaWtfcHl0aG9uJywgJy1waCcsICc3LjAnLCAnLXRuJywgJzgnLCAnLW1hJywgJzIwMCcsICctbWV0YWxfYmluZGluZycsICctaW1hZScsICc8aW5maWxlLm1hZT4nLCAnLW9tYWUnLCAnPG91dGZpbGUubWFlPic=

> <r_epik_Ionization_Penalty>
0.214359

> <r_epik_Ionization_Penalty_Charging>
2.30976e-09

> <r_epik_Ionization_Penalty_Neutral>
0.214359

> <r_epik_State_Penalty>
0.204533

> <r_epik_Charging_Adjusted_Penalty>
0.204533

> <i_epik_Tot_Q>
0

> <i_epik_Tot_abs_Q>
0

> <r_epik_Metal_State_Penalty>
0.204533

> <b_epik_Metal_Only>
0

> <s_lp_Force_Field>
OPLS_2005

> <r_lp_Energy>
63.3527

> <b_lp_Chiralities_Consistent>
1

> <s_lp_Variant>
AV-unprocessed.smi:1570-5

> <Gold.Version>
5.8.1

> <Gold.Id.Protein>
6NUR|6NUR_protein|mol2

> <Gold.PLP.Fitness>
55.2978

> <Gold.PLP.PLP>
-51.3101

> <Gold.PLP.part.hbond>
-2.0000

> <Gold.PLP.part.metal>
0.0000

> <Gold.PLP.part.buried>
-7.0574

> <Gold.PLP.part.nonpolar>
-41.2863

> <Gold.PLP.part.repulsive>
0.3957

> <Gold.PLP.ligand.clash>
0.0000

> <Gold.PLP.ligand.torsion>
0.9995

> <Gold.PLP.Chemscore.Hbond>
1.9750

> <Gold.PLP.Chemscore.CHOScore>
0.0000

> <Gold.PLP.Chemscore.Metal>
0.0000

> <Gold.Chemscore.Hbonds>
donor molecule, donor type, donor heavy atom, donor atom, acceptor molecule, acceptor atom, score
      P1  H  7989  7998       L1     9  0.95
      P1  H  7997  8010       L1     5  0.73

> <Gold.PLP.Chemscore.Internal.Correction>
0.0616

> <Gold.Rescore>
     Score         DG    S(hbond)    S(metal)    S(lipo)     H(rot)  DE(clash)    DE(int)     intcor
     18.43     -20.83       1.76        0.00     125.87       2.06       0.21       2.20       ----

> <Gold.Chemscore.Fitness>
18.4260

> <Gold.Chemscore.DG>
-20.8336

> <Gold.Chemscore.ZeroCoef>
-5.4800

> <Gold.Chemscore.Hbond>
1.7645

> <Gold.Chemscore.Metal>
0.0000

> <Gold.Chemscore.Lipo>
125.8714

> <Gold.Chemscore.Internal_Hbond>
0.0000

> <Gold.Chemscore.DEClash>
0.2112

> <Gold.Chemscore.DEInternal>
2.1963

> <Gold.Chemscore.Rot>
2.0574

> <Gold.Chemscore.Internal.Correction>
   9.000000E+99

> <Gold.Chemscore.Hbonds>
donor molecule, donor type, donor heavy atom, donor atom, acceptor molecule, acceptor atom, score
      P1  H  7989  7998       L1     9  0.21
      P1  H  7997  8010       L1     5  0.25

> <Gold.Chemscore.Hbond.Weighted>
-5.8935

> <Gold.Chemscore.Metal.Weighted>
-0.0000

> <Gold.Chemscore.Lipo.Weighted>
-14.7270

> <Gold.Chemscore.Internal_Hbond.Weighted>
0.0000

> <Gold.Chemscore.DEClash.Weighted>
0.2112

> <Gold.Chemscore.DEInternal.Weighted>
2.1963

> <Gold.Chemscore.Rot.Weighted>
5.2669

> <Gold.Chemscore.Internal.Correction.Weighted>
   9.000000E+99

> <Gold.Protein.RotatedTorsions>
[ 6907 6896 6895 6894 ] final   -6.66 input  -60.11 | X-H torsion
[ 7974 7965 7964 7962 ] final   28.70 input  175.53 | X-H torsion
[ 8008 7997 7996 7995 ] final   60.25 input   59.86 | X-H torsion
[ 10167 10162 10161 10158 ] final   67.99 input  -65.29 | X-H torsion
[ 10718 10713 10712 10709 ] final   99.44 input   66.30 | X-H torsion
[ 10763 10752 10751 10750 ] final  -22.42 input  -60.55 | X-H torsion
[ 11005 11000 10999 10996 ] final  134.81 input  -57.11 | X-H torsion

> <Gold.Protein.ActiveResidues>
 VAL166  LYS551  ARG553  GLY616  TRP617  ASP618  TYR619  PRO620  LYS621  CYS622 
 ASP623  PHE694  ASN695  SER759  ASP760  ASP761  ALA762  ILE779  LEU786  VAL792 
 PHE793  MET794  SER795  GLU796  ALA797  LYS798  CYS799  TRP800  GLU811  SER814 

> <Gold.Protein.RotatedAtoms>
  151.4620  135.1039  159.9727 H   0  0  0  0  0  0  0  0  0  0  0  0  # atno 6907 bound_to 6896
  152.4849  133.8343  159.7130 H   0  0  0  0  0  0  0  0  0  0  0  0  # atno 6908 bound_to 6896
  150.8950  133.7132  159.2921 H   0  0  0  0  0  0  0  0  0  0  0  0  # atno 6909 bound_to 6896
  146.1714  139.7021  142.8965 H   0  0  0  0  0  0  0  0  0  0  0  0  # atno 7974 bound_to 7965
  155.5793  140.3491  155.4536 H   0  0  0  0  0  0  0  0  0  0  0  0  # atno 8008 bound_to 7997
  156.0385  140.1290  157.0206 H   0  0  0  0  0  0  0  0  0  0  0  0  # atno 8009 bound_to 7997
  154.4382  140.1029  156.6188 H   0  0  0  0  0  0  0  0  0  0  0  0  # atno 8010 bound_to 7997
  140.0836  144.5050  150.7146 H   0  0  0  0  0  0  0  0  0  0  0  0  # atno 10167 bound_to 10162
  157.6876  131.0670  150.4949 H   0  0  0  0  0  0  0  0  0  0  0  0  # atno 10718 bound_to 10713
  153.6516  135.6980  153.5207 H   0  0  0  0  0  0  0  0  0  0  0  0  # atno 10763 bound_to 10752
  153.2702  135.4217  155.0979 H   0  0  0  0  0  0  0  0  0  0  0  0  # atno 10764 bound_to 10752
  154.8475  135.3576  154.6061 H   0  0  0  0  0  0  0  0  0  0  0  0  # atno 10765 bound_to 10752
  139.9939  134.9505  156.9919 H   0  0  0  0  0  0  0  0  0  0  0  0  # atno 11005 bound_to 11000
  145.4330  141.0416  143.2900 LP  0  0  0  0  0  0  0  0  0  0  0  0  # atno 17320 bound_to 7965
  144.8169  139.5861  143.7004 LP  0  0  0  0  0  0  0  0  0  0  0  0  # atno 17321 bound_to 7965
  140.7065  143.2472  151.4710 LP  0  0  0  0  0  0  0  0  0  0  0  0  # atno 17342 bound_to 10162
  139.5765  144.1806  152.1910 LP  0  0  0  0  0  0  0  0  0  0  0  0  # atno 17343 bound_to 10162
  156.5274  130.4176  149.6219 LP  0  0  0  0  0  0  0  0  0  0  0  0  # atno 17370 bound_to 10713
  156.3100  130.7224  151.2114 LP  0  0  0  0  0  0  0  0  0  0  0  0  # atno 17371 bound_to 10713
  140.4856  134.1245  155.7224 LP  0  0  0  0  0  0  0  0  0  0  0  0  # atno 17394 bound_to 11000
  141.1588  133.8832  157.1904 LP  0  0  0  0  0  0  0  0  0  0  0  0  # atno 17395 bound_to 11000

$$$$
