AV-unprocessed.smi:1635|AV-procd|sdf|6541|dock2
  -GOLD-   22720 7223D 1   1.00000     0.00000
 Structure written by MMmdl.
 37 38  0  0  0  0  0  0  0  0  1 V2000
  151.6020  144.8657  158.9057 C   0  0  0  0  0  0  0  0  0  0  0  0
  152.1297  143.5447  159.4418 C   0  0  0  0  0  0  0  0  0  0  0  0
  152.9299  143.5417  160.6043 C   0  0  0  0  0  0  0  0  0  0  0  0
  153.4161  142.3196  161.0991 C   0  0  0  0  0  0  0  0  0  0  0  0
  153.0794  141.1445  160.4056 C   0  0  0  0  0  0  0  0  0  0  0  0
  152.3151  141.1381  159.2946 N   0  0  0  0  0  0  0  0  0  0  0  0
  151.8371  142.3092  158.8039 C   0  0  0  0  0  0  0  0  0  0  0  0
  151.0273  142.3788  157.6353 N   0  0  0  0  0  0  0  0  0  0  0  0
  150.2895  141.4081  157.0684 C   0  0  0  0  0  0  0  0  0  0  0  0
  150.1802  140.2557  157.4886 O   0  0  0  0  0  0  0  0  0  0  0  0
  149.6665  141.8567  155.9686 N   0  0  0  0  0  0  0  0  0  0  0  0
  148.7900  141.0695  155.0996 C   0  0  1  0  0  0  0  0  0  0  0  0
  148.1293  141.9852  154.0449 C   0  0  0  0  0  0  0  0  0  0  0  0
  146.8283  141.4201  153.4528 C   0  0  0  0  0  0  0  0  0  0  0  0
  146.9927  140.1094  152.6691 C   0  0  0  0  0  0  0  0  0  0  0  0
  147.4345  138.9209  153.5400 C   0  0  0  0  0  0  0  0  0  0  0  0
  148.8643  138.9350  153.8235 N   0  0  0  0  0  0  0  0  0  0  0  0
  149.5476  139.8658  154.5073 C   0  0  0  0  0  0  0  0  0  0  0  0
  150.7654  139.7632  154.6539 O   0  0  0  0  0  0  0  0  0  0  0  0
  151.9160  145.7020  159.5310 H   0  0  0  0  0  0  0  0  0  0  0  0
  150.5119  144.8584  158.8789 H   0  0  0  0  0  0  0  0  0  0  0  0
  151.9731  145.0438  157.8960 H   0  0  0  0  0  0  0  0  0  0  0  0
  153.1701  144.4636  161.1133 H   0  0  0  0  0  0  0  0  0  0  0  0
  154.0309  142.2834  161.9862 H   0  0  0  0  0  0  0  0  0  0  0  0
  153.4328  140.1841  160.7507 H   0  0  0  0  0  0  0  0  0  0  0  0
  151.0057  143.2788  157.1792 H   0  0  0  0  0  0  0  0  0  0  0  0
  149.8184  142.8168  155.6953 H   0  0  0  0  0  0  0  0  0  0  0  0
  148.0056  140.6517  155.7340 H   0  0  0  0  0  0  0  0  0  0  0  0
  147.8857  142.9470  154.4984 H   0  0  0  0  0  0  0  0  0  0  0  0
  148.8379  142.2085  153.2462 H   0  0  0  0  0  0  0  0  0  0  0  0
  146.0973  141.2793  154.2500 H   0  0  0  0  0  0  0  0  0  0  0  0
  146.3991  142.1694  152.7869 H   0  0  0  0  0  0  0  0  0  0  0  0
  146.0297  139.8644  152.2197 H   0  0  0  0  0  0  0  0  0  0  0  0
  147.6835  140.2480  151.8362 H   0  0  0  0  0  0  0  0  0  0  0  0
  146.8624  138.8761  154.4677 H   0  0  0  0  0  0  0  0  0  0  0  0
  147.2257  137.9926  153.0075 H   0  0  0  0  0  0  0  0  0  0  0  0
  149.3961  138.1606  153.4532 H   0  0  0  0  0  0  0  0  0  0  0  0
  1  2  1  0  0  0  0
  1 20  1  0  0  0  0
  1 21  1  0  0  0  0
  1 22  1  0  0  0  0
  2  7  1  0  0  0  0
  2  3  2  0  0  0  0
  3  4  1  0  0  0  0
  3 23  1  0  0  0  0
  4  5  2  0  0  0  0
  4 24  1  0  0  0  0
  5  6  1  0  0  0  0
  5 25  1  0  0  0  0
  6  7  2  0  0  0  0
  7  8  1  0  0  0  0
  8  9  1  0  0  0  0
  8 26  1  0  0  0  0
  9 10  2  0  0  0  0
  9 11  1  0  0  0  0
 11 12  1  0  0  0  0
 11 27  1  0  0  0  0
 12 18  1  0  0  0  0
 12 13  1  0  0  0  0
 12 28  1  0  0  0  0
 13 14  1  0  0  0  0
 13 29  1  0  0  0  0
 13 30  1  0  0  0  0
 14 15  1  0  0  0  0
 14 31  1  0  0  0  0
 14 32  1  0  0  0  0
 15 16  1  0  0  0  0
 15 33  1  0  0  0  0
 15 34  1  0  0  0  0
 16 17  1  0  0  0  0
 16 35  1  0  0  0  0
 16 36  1  0  0  0  0
 17 18  1  0  0  0  0
 17 37  1  0  0  0  0
 18 19  2  0  0  0  0
M  END
> <s_m_source_file>
AV-unprocessed.smi

> <i_m_source_file_index>
1635

> <i_lp_mmshare_version>
43012

> <i_f3d_flags>
0

> <s_epik_input>
W0NIM11jMVtjSF1bY0hdW2NIXW5jMVtOSF1DKD1PKVtOSF1bQ0BASF0yW0NIMl1bQ0gyXVtDSDJdW0NIMl1bTkhdQzI9Tw==

> <s_epik_cmdline>
J2VwaWtfcHl0aG9uJywgJy1waCcsICc3LjAnLCAnLXRuJywgJzgnLCAnLW1hJywgJzIwMCcsICctbWV0YWxfYmluZGluZycsICctaW1hZScsICc8aW5maWxlLm1hZT4nLCAnLW9tYWUnLCAnPG91dGZpbGUubWFlPic=

> <r_lp_tautomer_probability>
1

> <r_epik_Ionization_Penalty>
5.14862e-05

> <r_epik_Ionization_Penalty_Charging>
0

> <r_epik_Ionization_Penalty_Neutral>
5.14862e-05

> <r_epik_State_Penalty>
-0

> <r_epik_Charging_Adjusted_Penalty>
0

> <i_epik_Tot_Q>
0

> <i_epik_Tot_abs_Q>
0

> <r_epik_Metal_State_Penalty>
-0

> <b_epik_Metal_Only>
0

> <s_lp_Force_Field>
OPLS_2005

> <r_lp_Energy>
13.1322

> <b_lp_Chiralities_Consistent>
1

> <s_lp_Variant>
AV-unprocessed.smi:1635-2

> <Gold.Version>
5.8.1

> <Gold.Id.Protein>
6NUR|6NUR_protein|mol2

> <Gold.PLP.Fitness>
46.3289

> <Gold.PLP.PLP>
-40.5504

> <Gold.PLP.part.hbond>
-3.0279

> <Gold.PLP.part.metal>
0.0000

> <Gold.PLP.part.buried>
-2.3273

> <Gold.PLP.part.nonpolar>
-33.7962

> <Gold.PLP.part.repulsive>
0.2961

> <Gold.PLP.ligand.clash>
0.0000

> <Gold.PLP.ligand.torsion>
0.1242

> <Gold.PLP.Chemscore.Hbond>
2.0000

> <Gold.PLP.Chemscore.CHOScore>
0.0000

> <Gold.PLP.Chemscore.Metal>
0.0000

> <Gold.Chemscore.Hbonds>
donor molecule, donor type, donor heavy atom, donor atom, acceptor molecule, acceptor atom, score
      L1  H    11    27       P1  8028  0.66
      P1  H  7989  7998       L1    19  1.00

> <Gold.PLP.Chemscore.Internal.Correction>
0.0269

> <Gold.Rescore>
     Score         DG    S(hbond)    S(metal)    S(lipo)     H(rot)  DE(clash)    DE(int)     intcor
     17.99     -20.27       1.92        0.00      93.62       1.00       0.04       2.24       ----

> <Gold.Chemscore.Fitness>
17.9901

> <Gold.Chemscore.DG>
-20.2719

> <Gold.Chemscore.ZeroCoef>
-5.4800

> <Gold.Chemscore.Hbond>
1.9156

> <Gold.Chemscore.Metal>
0.0000

> <Gold.Chemscore.Lipo>
93.6222

> <Gold.Chemscore.Internal_Hbond>
0.0000

> <Gold.Chemscore.DEClash>
0.0400

> <Gold.Chemscore.DEInternal>
2.2417

> <Gold.Chemscore.Rot>
1.0000

> <Gold.Chemscore.Internal.Correction>
   9.000000E+99

> <Gold.Chemscore.Hbonds>
donor molecule, donor type, donor heavy atom, donor atom, acceptor molecule, acceptor atom, score
      L1  H    11    27       P1  8028  0.65
      L1  H    17    37       P1  7948  0.01
      P1  H  7989  7998       L1    19  0.74

> <Gold.Chemscore.Hbond.Weighted>
-6.3981

> <Gold.Chemscore.Metal.Weighted>
-0.0000

> <Gold.Chemscore.Lipo.Weighted>
-10.9538

> <Gold.Chemscore.Internal_Hbond.Weighted>
0.0000

> <Gold.Chemscore.DEClash.Weighted>
0.0400

> <Gold.Chemscore.DEInternal.Weighted>
2.2417

> <Gold.Chemscore.Rot.Weighted>
2.5600

> <Gold.Chemscore.Internal.Correction.Weighted>
   9.000000E+99

> <Gold.Protein.RotatedTorsions>
[ 6907 6896 6895 6894 ] final   39.50 input  -60.11 | X-H torsion
[ 7974 7965 7964 7962 ] final  -91.57 input  175.53 | X-H torsion
[ 8008 7997 7996 7995 ] final  -60.47 input   59.86 | X-H torsion
[ 10167 10162 10161 10158 ] final   94.40 input  -65.29 | X-H torsion
[ 10718 10713 10712 10709 ] final    8.13 input   66.30 | X-H torsion
[ 10763 10752 10751 10750 ] final  -17.66 input  -60.55 | X-H torsion
[ 11005 11000 10999 10996 ] final -152.38 input  -57.11 | X-H torsion

> <Gold.Protein.ActiveResidues>
 VAL166  LYS551  ARG553  GLY616  TRP617  ASP618  TYR619  PRO620  LYS621  CYS622 
 ASP623  PHE694  ASN695  SER759  ASP760  ASP761  ALA762  ILE779  LEU786  VAL792 
 PHE793  MET794  SER795  GLU796  ALA797  LYS798  CYS799  TRP800  GLU811  SER814 

> <Gold.Protein.RotatedAtoms>
  152.1704  134.8839  160.0534 H   0  0  0  0  0  0  0  0  0  0  0  0  # atno 6907 bound_to 6896
  151.9801  133.3750  159.4112 H   0  0  0  0  0  0  0  0  0  0  0  0  # atno 6908 bound_to 6896
  150.6901  134.3971  159.5146 H   0  0  0  0  0  0  0  0  0  0  0  0  # atno 6909 bound_to 6896
  145.4114  140.9545  143.2232 H   0  0  0  0  0  0  0  0  0  0  0  0  # atno 7974 bound_to 7965
  154.4400  140.1039  156.6278 H   0  0  0  0  0  0  0  0  0  0  0  0  # atno 8008 bound_to 7997
  155.5637  140.3488  155.4479 H   0  0  0  0  0  0  0  0  0  0  0  0  # atno 8009 bound_to 7997
  156.0441  140.1288  157.0113 H   0  0  0  0  0  0  0  0  0  0  0  0  # atno 8010 bound_to 7997
  139.8087  144.6783  150.9668 H   0  0  0  0  0  0  0  0  0  0  0  0  # atno 10167 bound_to 10162
  156.9471  130.5883  149.5655 H   0  0  0  0  0  0  0  0  0  0  0  0  # atno 10718 bound_to 10713
  153.5772  135.7006  153.5479 H   0  0  0  0  0  0  0  0  0  0  0  0  # atno 10763 bound_to 10752
  153.3292  135.4052  155.1481 H   0  0  0  0  0  0  0  0  0  0  0  0  # atno 10764 bound_to 10752
  154.8623  135.3714  154.5298 H   0  0  0  0  0  0  0  0  0  0  0  0  # atno 10765 bound_to 10752
  140.7194  134.3744  157.5185 H   0  0  0  0  0  0  0  0  0  0  0  0  # atno 11005 bound_to 11000
  144.8306  139.5635  143.6945 LP  0  0  0  0  0  0  0  0  0  0  0  0  # atno 17320 bound_to 7965
  146.2703  139.6618  142.9301 LP  0  0  0  0  0  0  0  0  0  0  0  0  # atno 17321 bound_to 7965
  140.7818  143.4207  151.0846 LP  0  0  0  0  0  0  0  0  0  0  0  0  # atno 17342 bound_to 10162
  139.7874  143.8267  152.3147 LP  0  0  0  0  0  0  0  0  0  0  0  0  # atno 17343 bound_to 10162
  156.0379  130.5464  150.8698 LP  0  0  0  0  0  0  0  0  0  0  0  0  # atno 17370 bound_to 10713
  157.5746  131.0946  150.9365 LP  0  0  0  0  0  0  0  0  0  0  0  0  # atno 17371 bound_to 10713
  139.8852  134.8945  156.2659 LP  0  0  0  0  0  0  0  0  0  0  0  0  # atno 17394 bound_to 11000
  141.0016  133.7148  156.0969 LP  0  0  0  0  0  0  0  0  0  0  0  0  # atno 17395 bound_to 11000

$$$$
