#       Name:                AV-unprocessed.smi:1644
#       Creating user name   scv26
#       Creation time:       Fri Mar 27 07:27:53 2020


#       File generated by GOLD software.
#

@<TRIPOS>MOLECULE
AV-unprocessed.smi:1644
    56    58     1
SMALL
NO_CHARGES


@<TRIPOS>ATOM
      1 ****        -3.7393   3.9537   0.9545 C.3            1 S1                 0.0000
      2 ****        -2.9944   2.6197   1.0698 C.3            1 S1                 0.0000
      3 ****        -2.0977   2.3406  -0.1535 C.3            1 S1                 0.0000
      4 ****        -1.3096   1.0115  -0.1202 C.3            1 S1                 0.0000
      5 ****        -2.1483  -0.1474   0.1044 N.am           1 S1                 0.0000
      6 ****        -1.7695  -0.8548   1.1766 C.2            1 S1                 0.0000
      7 ****        -2.3210  -1.8795   1.5748 O.2            1 S1                 0.0000
      8 ****        -0.6935  -0.2583   1.7248 N.am           1 S1                 0.0000
      9 ****         0.0106  -0.7504   2.9180 C.3            1 S1                 0.0000
     10 ****         1.4871  -1.1543   2.6682 C.3            1 S1                 0.0000
     11 ****         2.1347  -1.2063   3.9220 O.3            1 S1                 0.0000
     12 ****         1.7200  -2.5155   1.9719 C.3            1 S1                 0.0000
     13 ****         1.1166  -2.6267   0.6551 N.pl3          1 S1                 0.0000
     14 ****         0.2055  -3.5388   0.2635 C.2            1 S1                 0.0000
     15 ****        -0.2365  -3.4611  -0.9881 N.2            1 S1                 0.0000
     16 ****         0.4882  -2.3869  -1.4729 C.ar           1 S1                 0.0000
     17 ****         0.4733  -1.7737  -2.7443 C.ar           1 S1                 0.0000
     18 ****         1.3074  -0.6689  -3.0257 C.ar           1 S1                 0.0000
     19 ****         1.2497  -0.0313  -4.4026 C.3            1 S1                 0.0000
     20 ****         2.1834  -0.1690  -2.0296 C.ar           1 S1                 0.0000
     21 ****         3.0888   1.0177  -2.3075 C.3            1 S1                 0.0000
     22 ****         2.2140  -0.7727  -0.7556 C.ar           1 S1                 0.0000
     23 ****         1.3637  -1.8582  -0.4793 C.ar           1 S1                 0.0000
     24 ****        -0.3744   0.8649   1.0654 C.2            1 S1                 0.0000
     25 ****         0.5181   1.6665   1.3405 O.2            1 S1                 0.0000
     26 ****        -4.3656   4.1260   1.8301 H              1 S1                 0.0000
     27 ****        -4.3841   3.9704   0.0753 H              1 S1                 0.0000
     28 ****        -3.0418   4.7880   0.8753 H              1 S1                 0.0000
     29 ****        -2.3964   2.6290   1.9815 H              1 S1                 0.0000
     30 ****        -3.7238   1.8178   1.1871 H              1 S1                 0.0000
     31 ****        -2.7181   2.3486  -1.0504 H              1 S1                 0.0000
     32 ****        -1.3933   3.1644  -0.2775 H              1 S1                 0.0000
     33 ****        -0.7442   0.8762  -1.0431 H              1 S1                 0.0000
     34 ****        -2.9284  -0.3854  -0.4910 H              1 S1                 0.0000
     35 ****        -0.0235   0.0556   3.6534 H              1 S1                 0.0000
     36 ****        -0.5219  -1.5832   3.3800 H              1 S1                 0.0000
     37 ****         1.9968  -0.3709   2.1105 H              1 S1                 0.0000
     38 ****         2.0684  -0.3560   4.3293 H              1 S1                 0.0000
     39 ****         2.7896  -2.6983   1.8615 H              1 S1                 0.0000
     40 ****         1.3319  -3.3214   2.5971 H              1 S1                 0.0000
     41 ****        -0.1726  -4.2888   0.9428 H              1 S1                 0.0000
     42 ****        -0.1908  -2.1586  -3.5042 H              1 S1                 0.0000
     43 ****         2.2210  -0.0942  -4.8936 H              1 S1                 0.0000
     44 ****         0.9673   1.0188  -4.3253 H              1 S1                 0.0000
     45 ****         0.5192  -0.5278  -5.0419 H              1 S1                 0.0000
     46 ****         3.7093   1.2553  -1.4430 H              1 S1                 0.0000
     47 ****         2.4963   1.9009  -2.5468 H              1 S1                 0.0000
     48 ****         3.7517   0.8057  -3.1465 H              1 S1                 0.0000
     49 ****         2.8748  -0.3953   0.0101 H              1 S1                 0.0000
     50 ****        -3.1150  -2.2419   1.0868 LP             1 S1                 0.0000
     51 ****        -1.9753  -2.3502   2.3865 LP             1 S1                 0.0000
     52 ****         3.0974  -1.4452   3.7948 LP             1 S1                 0.0000
     53 ****         1.6946  -1.8928   4.5008 LP             1 S1                 0.0000
     54 ****        -0.9138  -4.0291  -1.4556 LP             1 S1                 0.0000
     55 ****         0.6601   2.4731   0.7666 LP             1 S1                 0.0000
     56 ****         1.1013   1.5113   2.1379 LP             1 S1                 0.0000
@<TRIPOS>BOND
    1    1    2 1     
    2    1   26 1     
    3    1   27 1     
    4    1   28 1     
    5    2    3 1     
    6    2   29 1     
    7    2   30 1     
    8    3    4 1     
    9    3   31 1     
   10    3   32 1     
   11    4   24 1     
   12    4    5 1     
   13    4   33 1     
   14    5    6 am    
   15    5   34 1     
   16    6    7 2     
   17    6    8 am    
   18    8    9 1     
   19    8   24 am    
   20    9   10 1     
   21    9   35 1     
   22    9   36 1     
   23   10   11 1     
   24   10   12 1     
   25   10   37 1     
   26   11   38 1     
   27   12   13 1     
   28   12   39 1     
   29   12   40 1     
   30   13   23 1     
   31   13   14 1     
   32   14   15 2     
   33   14   41 1     
   34   15   16 1     
   35   16   23 ar    
   36   16   17 ar    
   37   17   18 ar    
   38   17   42 1     
   39   18   19 1     
   40   18   20 ar    
   41   19   43 1     
   42   19   44 1     
   43   19   45 1     
   44   20   21 1     
   45   20   22 ar    
   46   21   46 1     
   47   21   47 1     
   48   21   48 1     
   49   22   23 ar    
   50   22   49 1     
   51   24   25 2     
   52    7   50 1     
   53    7   51 1     
   54   11   52 1     
   55   11   53 1     
   56   15   54 1     
   57   25   55 1     
   58   25   56 1     
@<TRIPOS>SUBSTRUCTURE
      1 S1             1
@<TRIPOS>SET
LONE_PAIRS      STATIC     ATOMS    <user>   **** ""
7 50 51 52 53 54 55 56
DONOR_HYDROGENS      STATIC     ATOMS    <user>   **** ""
2 34 38
ATOM$BLUE        STATIC     ATOMS    COLORGROUP SYSTEM
7 50 51 52 53 54 55 56
ATOM$RED        STATIC     ATOMS    COLORGROUP SYSTEM
2 34 38
