AV-unprocessed.smi:169|AV-procd|sdf|1399|dock10
  -GOLD-   2262019143D 1   1.00000     0.00000
 Structure written by MMmdl.
 56 60  0  0  0  0  0  0  0  0  2 V2000
  142.5253  133.2168  161.3284 C   0  0  0  0  0  0  0  0  0  0  0  0
  142.8078  134.4677  162.1801 C   0  0  0  0  0  0  0  0  0  0  0  0
  144.1612  135.0487  161.9760 N   0  3  1  0  0  0  0  0  0  0  0  0
  144.3411  136.3799  162.6082 C   0  0  0  0  0  0  0  0  0  0  0  0
  145.1663  137.3203  161.7099 C   0  0  0  0  0  0  0  0  0  0  0  0
  146.6252  136.8941  161.4417 C   0  0  1  0  0  0  0  0  0  0  0  0
  147.4669  136.7696  162.7168 C   0  0  0  0  0  0  0  0  0  0  0  0
  147.3964  135.2832  163.0852 C   0  0  0  0  0  0  0  0  0  0  0  0
  146.6843  134.5936  161.9031 C   0  0  1  0  0  0  0  0  0  0  0  0
  145.2622  134.0840  162.2483 C   0  0  0  0  0  0  0  0  0  0  0  0
  146.6930  135.5735  160.8185 N   0  0  0  0  0  0  0  0  0  0  0  0
  147.5825  135.3224  159.8220 C   0  0  0  0  0  0  0  0  0  0  0  0
  147.7307  134.0664  159.3238 N   0  0  0  0  0  0  0  0  0  0  0  0
  148.5922  133.8310  158.3300 C   0  0  0  0  0  0  0  0  0  0  0  0
  149.3925  134.6921  157.6993 N   0  0  0  0  0  0  0  0  0  0  0  0
  149.2574  135.9529  158.1996 C   0  0  0  0  0  0  0  0  0  0  0  0
  148.3821  136.3509  159.2492 C   0  0  0  0  0  0  0  0  0  0  0  0
  148.5144  137.7136  159.4873 N   0  0  0  0  0  0  0  0  0  0  0  0
  149.4090  138.1013  158.6198 C   0  0  0  0  0  0  0  0  0  0  0  0
  149.9166  137.1072  157.8125 N   0  0  0  0  0  0  0  0  0  0  0  0
  150.9176  137.2658  156.7673 C   0  0  0  0  0  0  0  0  0  0  0  0
  150.5416  138.2832  155.6718 C   0  0  0  0  0  0  0  0  0  0  0  0
  149.2594  137.8051  154.9590 C   0  0  0  0  0  0  0  0  0  0  0  0
  149.0608  138.4440  153.7134 O   0  0  0  0  0  0  0  0  0  0  0  0
  150.5692  139.7637  156.0791 C   0  0  0  0  0  0  0  0  0  0  0  0
  151.4505  140.1069  154.9869 O   0  0  0  0  0  0  0  0  0  0  0  0
  151.7061  138.7034  154.7623 C   0  0  0  0  0  0  0  0  0  0  0  0
  141.5394  132.8142  161.5623 H   0  0  0  0  0  0  0  0  0  0  0  0
  143.2504  132.4247  161.5146 H   0  0  0  0  0  0  0  0  0  0  0  0
  142.5347  133.4387  160.2618 H   0  0  0  0  0  0  0  0  0  0  0  0
  142.0568  135.2304  161.9704 H   0  0  0  0  0  0  0  0  0  0  0  0
  142.6917  134.2201  163.2359 H   0  0  0  0  0  0  0  0  0  0  0  0
  143.3664  136.8484  162.7512 H   0  0  0  0  0  0  0  0  0  0  0  0
  144.7718  136.2825  163.6051 H   0  0  0  0  0  0  0  0  0  0  0  0
  144.6525  137.4378  160.7548 H   0  0  0  0  0  0  0  0  0  0  0  0
  145.1732  138.3132  162.1609 H   0  0  0  0  0  0  0  0  0  0  0  0
  147.0577  137.6636  160.8016 H   0  0  0  0  0  0  0  0  0  0  0  0
  148.5014  137.0393  162.5002 H   0  0  0  0  0  0  0  0  0  0  0  0
  147.1225  137.4217  163.5199 H   0  0  0  0  0  0  0  0  0  0  0  0
  148.4045  134.8855  163.2091 H   0  0  0  0  0  0  0  0  0  0  0  0
  146.8762  135.1302  164.0310 H   0  0  0  0  0  0  0  0  0  0  0  0
  147.2843  133.7197  161.6440 H   0  0  0  0  0  0  0  0  0  0  0  0
  145.2295  133.7316  163.2790 H   0  0  0  0  0  0  0  0  0  0  0  0
  145.0691  133.2068  161.6294 H   0  0  0  0  0  0  0  0  0  0  0  0
  148.6464  132.8070  157.9907 H   0  0  0  0  0  0  0  0  0  0  0  0
  149.7318  139.1299  158.5484 H   0  0  0  0  0  0  0  0  0  0  0  0
  151.8564  137.5470  157.2463 H   0  0  0  0  0  0  0  0  0  0  0  0
  151.0990  136.2864  156.3230 H   0  0  0  0  0  0  0  0  0  0  0  0
  149.2889  136.7288  154.7869 H   0  0  0  0  0  0  0  0  0  0  0  0
  148.3753  138.0068  155.5641 H   0  0  0  0  0  0  0  0  0  0  0  0
  148.8047  137.7935  153.0773 H   0  0  0  0  0  0  0  0  0  0  0  0
  149.6026  140.2638  156.0142 H   0  0  0  0  0  0  0  0  0  0  0  0
  151.0413  139.9547  157.0433 H   0  0  0  0  0  0  0  0  0  0  0  0
  152.6881  138.4093  155.1361 H   0  0  0  0  0  0  0  0  0  0  0  0
  151.5915  138.4158  153.7167 H   0  0  0  0  0  0  0  0  0  0  0  0
  144.2092  135.2290  160.9832 H   0  0  0  0  0  0  0  0  0  0  0  0
  1  2  1  0  0  0  0
  1 28  1  0  0  0  0
  1 29  1  0  0  0  0
  1 30  1  0  0  0  0
  2  3  1  0  0  0  0
  2 31  1  0  0  0  0
  2 32  1  0  0  0  0
  3 10  1  0  0  0  0
  3  4  1  0  0  0  0
  3 56  1  0  0  0  0
  4  5  1  0  0  0  0
  4 33  1  0  0  0  0
  4 34  1  0  0  0  0
  5  6  1  0  0  0  0
  5 35  1  0  0  0  0
  5 36  1  0  0  0  0
  6 11  1  0  0  0  0
  6  7  1  0  0  0  0
  6 37  1  0  0  0  0
  7  8  1  0  0  0  0
  7 38  1  0  0  0  0
  7 39  1  0  0  0  0
  8  9  1  0  0  0  0
  8 40  1  0  0  0  0
  8 41  1  0  0  0  0
  9 10  1  0  0  0  0
  9 11  1  0  0  0  0
  9 42  1  0  0  0  0
 10 43  1  0  0  0  0
 10 44  1  0  0  0  0
 11 12  1  0  0  0  0
 12 17  1  0  0  0  0
 12 13  2  0  0  0  0
 13 14  1  0  0  0  0
 14 15  2  0  0  0  0
 14 45  1  0  0  0  0
 15 16  1  0  0  0  0
 16 20  1  0  0  0  0
 16 17  2  0  0  0  0
 17 18  1  0  0  0  0
 18 19  2  0  0  0  0
 19 20  1  0  0  0  0
 19 46  1  0  0  0  0
 20 21  1  0  0  0  0
 21 22  1  0  0  0  0
 21 47  1  0  0  0  0
 21 48  1  0  0  0  0
 22 27  1  0  0  0  0
 22 23  1  0  0  0  0
 22 25  1  0  0  0  0
 23 24  1  0  0  0  0
 23 49  1  0  0  0  0
 23 50  1  0  0  0  0
 24 51  1  0  0  0  0
 25 26  1  0  0  0  0
 25 52  1  0  0  0  0
 25 53  1  0  0  0  0
 26 27  1  0  0  0  0
 27 54  1  0  0  0  0
 27 55  1  0  0  0  0
M  CHG  1   3   1
M  END
> <s_m_source_file>
AV-unprocessed.smi

> <i_m_source_file_index>
169

> <i_lp_mmshare_version>
43012

> <i_f3d_flags>
0

> <s_epik_input>
W0NASF0xMltDSDJdW0NIMl1OKFtDSDJdW0NIM10pW0NIMl1bQ0BIXShbQ0gyXVtDSDJdMSlOMmMobltjSF1uMyljKGMzNCluW2NIXW40W0NIMl1DNShbQ0gyXVtPSF0pW0NIMl1PW0NIMl01

> <s_epik_cmdline>
J2VwaWtfcHl0aG9uJywgJy1waCcsICc3LjAnLCAnLXRuJywgJzgnLCAnLW1hJywgJzIwMCcsICctbWV0YWxfYmluZGluZycsICctaW1hZScsICc8aW5maWxlLm1hZT4nLCAnLW9tYWUnLCAnPG91dGZpbGUubWFlPic=

> <r_lp_tautomer_probability>
1

> <r_epik_Ionization_Penalty>
0.00274162

> <r_epik_Ionization_Penalty_Charging>
0.00243722

> <r_epik_Ionization_Penalty_Neutral>
0.000304399

> <r_epik_State_Penalty>
-0

> <r_epik_Charging_Adjusted_Penalty>
0.00243722

> <i_epik_Tot_Q>
1

> <i_epik_Tot_abs_Q>
1

> <r_epik_Metal_State_Penalty>
-0

> <b_epik_Metal_Only>
0

> <s_lp_Force_Field>
OPLS_2005

> <r_lp_Energy>
78.3459

> <b_lp_Chiralities_Consistent>
1

> <s_lp_Variant>
AV-unprocessed.smi:169-2

> <Gold.Version>
5.8.1

> <Gold.Id.Protein>
6NUR|6NUR_protein|mol2

> <Gold.PLP.Fitness>
48.0359

> <Gold.PLP.PLP>
-42.4753

> <Gold.PLP.part.hbond>
-5.7107

> <Gold.PLP.part.metal>
0.0000

> <Gold.PLP.part.buried>
-6.1536

> <Gold.PLP.part.nonpolar>
-31.0963

> <Gold.PLP.part.repulsive>
0.0597

> <Gold.PLP.ligand.clash>
0.0000

> <Gold.PLP.ligand.torsion>
0.6228

> <Gold.PLP.Chemscore.Hbond>
2.0951

> <Gold.PLP.Chemscore.CHOScore>
0.0000

> <Gold.PLP.Chemscore.Metal>
0.0000

> <Gold.Chemscore.Hbonds>
donor molecule, donor type, donor heavy atom, donor atom, acceptor molecule, acceptor atom, score
      L1  H    24    51       P1  7948  1.00
      P1  H  6896  6909       L1    15  0.01
      P1  H  6934  6947       L1    18  0.08
      P1  H  7989  7998       L1    26  1.00

> <Gold.PLP.Chemscore.Internal.Correction>
0.5208

> <Gold.Rescore>
     Score         DG    S(hbond)    S(metal)    S(lipo)     H(rot)  DE(clash)    DE(int)     intcor
     14.36     -16.47       2.07        0.00      92.14       2.62       0.14       1.98       ----

> <Gold.Chemscore.Fitness>
14.3570

> <Gold.Chemscore.DG>
-16.4729

> <Gold.Chemscore.ZeroCoef>
-5.4800

> <Gold.Chemscore.Hbond>
2.0726

> <Gold.Chemscore.Metal>
0.0000

> <Gold.Chemscore.Lipo>
92.1436

> <Gold.Chemscore.Internal_Hbond>
0.0000

> <Gold.Chemscore.DEClash>
0.1378

> <Gold.Chemscore.DEInternal>
1.9782

> <Gold.Chemscore.Rot>
2.6212

> <Gold.Chemscore.Internal.Correction>
   9.000000E+99

> <Gold.Chemscore.Hbonds>
donor molecule, donor type, donor heavy atom, donor atom, acceptor molecule, acceptor atom, score
      L1  H    24    51       P1  7948  0.97
      P1  H  6934  6947       L1    18  0.08
      P1  H  7989  7998       L1    26  0.59

> <Gold.Chemscore.Hbond.Weighted>
-6.9224

> <Gold.Chemscore.Metal.Weighted>
-0.0000

> <Gold.Chemscore.Lipo.Weighted>
-10.7808

> <Gold.Chemscore.Internal_Hbond.Weighted>
0.0000

> <Gold.Chemscore.DEClash.Weighted>
0.1378

> <Gold.Chemscore.DEInternal.Weighted>
1.9782

> <Gold.Chemscore.Rot.Weighted>
6.7102

> <Gold.Chemscore.Internal.Correction.Weighted>
   9.000000E+99

> <Gold.Protein.RotatedTorsions>
[ 6907 6896 6895 6894 ] final   30.14 input  -60.11 | X-H torsion
[ 7974 7965 7964 7962 ] final   49.74 input  175.53 | X-H torsion
[ 8008 7997 7996 7995 ] final   84.01 input   59.86 | X-H torsion
[ 10167 10162 10161 10158 ] final  -52.22 input  -65.29 | X-H torsion
[ 10718 10713 10712 10709 ] final   90.72 input   66.30 | X-H torsion
[ 10763 10752 10751 10750 ] final  -89.05 input  -60.55 | X-H torsion
[ 11005 11000 10999 10996 ] final   -4.68 input  -57.11 | X-H torsion

> <Gold.Protein.ActiveResidues>
 VAL166  LYS551  ARG553  GLY616  TRP617  ASP618  TYR619  PRO620  LYS621  CYS622 
 ASP623  PHE694  ASN695  SER759  ASP760  ASP761  ALA762  ILE779  LEU786  VAL792 
 PHE793  MET794  SER795  GLU796  ALA797  LYS798  CYS799  TRP800  GLU811  SER814 

> <Gold.Protein.RotatedAtoms>
  152.0417  134.9707  160.0573 H   0  0  0  0  0  0  0  0  0  0  0  0  # atno 6907 bound_to 6896
  152.1144  133.4313  159.4654 H   0  0  0  0  0  0  0  0  0  0  0  0  # atno 6908 bound_to 6896
  150.6845  134.2529  159.4561 H   0  0  0  0  0  0  0  0  0  0  0  0  # atno 6909 bound_to 6896
  146.0079  139.4511  142.9974 H   0  0  0  0  0  0  0  0  0  0  0  0  # atno 7974 bound_to 7965
  155.9315  140.3414  155.6253 H   0  0  0  0  0  0  0  0  0  0  0  0  # atno 8008 bound_to 7997
  155.7152  140.0776  157.2373 H   0  0  0  0  0  0  0  0  0  0  0  0  # atno 8009 bound_to 7997
  154.4086  140.1615  156.2328 H   0  0  0  0  0  0  0  0  0  0  0  0  # atno 8010 bound_to 7997
  140.6548  143.2591  151.4617 H   0  0  0  0  0  0  0  0  0  0  0  0  # atno 10167 bound_to 10162
  157.6959  131.0381  150.3621 H   0  0  0  0  0  0  0  0  0  0  0  0  # atno 10718 bound_to 10713
  154.6511  135.5355  153.7903 H   0  0  0  0  0  0  0  0  0  0  0  0  # atno 10763 bound_to 10752
  153.0387  135.6483  154.1015 H   0  0  0  0  0  0  0  0  0  0  0  0  # atno 10764 bound_to 10752
  154.0932  135.2938  155.3247 H   0  0  0  0  0  0  0  0  0  0  0  0  # atno 10765 bound_to 10752
  140.6829  133.9137  155.8567 H   0  0  0  0  0  0  0  0  0  0  0  0  # atno 11005 bound_to 11000
  145.7387  141.0016  143.1313 LP  0  0  0  0  0  0  0  0  0  0  0  0  # atno 17320 bound_to 7965
  144.6942  139.9072  143.7461 LP  0  0  0  0  0  0  0  0  0  0  0  0  # atno 17321 bound_to 7965
  139.5769  144.1798  152.1915 LP  0  0  0  0  0  0  0  0  0  0  0  0  # atno 17342 bound_to 10162
  140.1112  144.5456  150.6924 LP  0  0  0  0  0  0  0  0  0  0  0  0  # atno 17343 bound_to 10162
  156.4056  130.3924  149.6928 LP  0  0  0  0  0  0  0  0  0  0  0  0  # atno 17370 bound_to 10713
  156.4230  130.7778  151.2796 LP  0  0  0  0  0  0  0  0  0  0  0  0  # atno 17371 bound_to 10713
  141.0303  134.0766  157.4022 LP  0  0  0  0  0  0  0  0  0  0  0  0  # atno 17394 bound_to 11000
  139.8946  135.0137  156.6960 LP  0  0  0  0  0  0  0  0  0  0  0  0  # atno 17395 bound_to 11000

$$$$
