AV-unprocessed.smi:1799|AV-procd|sdf|7261|dock10
  -GOLD-   22720 8513D 1   1.00000     0.00000
 Structure written by MMmdl.
 41 42  0  0  0  0  0  0  0  0  2 V2000
  146.5726  134.3144  151.4115 C   0  0  0  0  0  0  0  0  0  0  0  0
  145.6607  133.5850  152.4225 C   0  0  0  0  0  0  0  0  0  0  0  0
  145.6617  132.0970  152.0211 C   0  0  0  0  0  0  0  0  0  0  0  0
  146.1901  133.6869  153.8749 C   0  0  0  0  0  0  0  0  0  0  0  0
  145.8984  135.0223  154.5871 C   0  0  0  0  0  0  0  0  0  0  0  0
  146.7630  136.1205  154.1594 N   0  0  0  0  0  0  0  0  0  0  0  0
  146.7822  137.3505  154.6935 C   0  0  0  0  0  0  0  0  0  0  0  0
  146.0524  137.6972  155.6220 O   0  0  0  0  0  0  0  0  0  0  0  0
  147.6938  138.1303  154.0863 N   0  0  0  0  0  0  0  0  0  0  0  0
  148.0485  139.4704  154.3942 C   0  0  0  0  0  0  0  0  0  0  0  0
  149.2860  139.8494  154.7506 N   0  0  0  0  0  0  0  0  0  0  0  0
  149.3628  141.2155  154.9879 N   0  0  0  0  0  0  0  0  0  0  0  0
  148.1823  141.8126  154.8010 C   0  0  0  0  0  0  0  0  0  0  0  0
  146.8605  140.7637  154.3174 S   0  0  0  0  0  0  0  0  0  0  0  0
  144.4080  135.3777  154.4596 C   0  0  0  0  0  0  0  0  0  0  0  0
  143.8321  135.3068  153.0210 C   0  0  0  0  0  0  0  0  0  0  0  0
  142.2950  135.2616  153.1254 C   0  0  0  0  0  0  0  0  0  0  0  0
  144.1801  136.5597  152.1870 C   0  0  0  0  0  0  0  0  0  0  0  0
  144.2495  134.0543  152.3288 N   0  3  0  0  0  0  0  0  0  0  0  0
  147.5591  133.8507  151.3766 H   0  0  0  0  0  0  0  0  0  0  0  0
  146.7425  135.3593  151.6484 H   0  0  0  0  0  0  0  0  0  0  0  0
  146.1602  134.2710  150.4028 H   0  0  0  0  0  0  0  0  0  0  0  0
  146.6635  131.6694  152.0813 H   0  0  0  0  0  0  0  0  0  0  0  0
  145.3080  131.9577  150.9986 H   0  0  0  0  0  0  0  0  0  0  0  0
  145.0162  131.5044  152.6707 H   0  0  0  0  0  0  0  0  0  0  0  0
  145.7151  132.9052  154.4699 H   0  0  0  0  0  0  0  0  0  0  0  0
  147.2553  133.4542  153.9055 H   0  0  0  0  0  0  0  0  0  0  0  0
  146.0994  134.8794  155.6506 H   0  0  0  0  0  0  0  0  0  0  0  0
  147.3921  135.9303  153.3930 H   0  0  0  0  0  0  0  0  0  0  0  0
  148.2075  137.7124  153.3248 H   0  0  0  0  0  0  0  0  0  0  0  0
  148.0896  142.8783  154.9487 H   0  0  0  0  0  0  0  0  0  0  0  0
  143.8615  134.6700  155.0852 H   0  0  0  0  0  0  0  0  0  0  0  0
  144.2146  136.3571  154.9000 H   0  0  0  0  0  0  0  0  0  0  0  0
  141.9029  136.1402  153.6397 H   0  0  0  0  0  0  0  0  0  0  0  0
  141.9555  134.3839  153.6769 H   0  0  0  0  0  0  0  0  0  0  0  0
  141.8282  135.2242  152.1401 H   0  0  0  0  0  0  0  0  0  0  0  0
  143.7225  137.4510  152.6178 H   0  0  0  0  0  0  0  0  0  0  0  0
  143.8102  136.4707  151.1649 H   0  0  0  0  0  0  0  0  0  0  0  0
  145.2432  136.7675  152.1299 H   0  0  0  0  0  0  0  0  0  0  0  0
  143.9866  134.1135  151.3555 H   0  0  0  0  0  0  0  0  0  0  0  0
  143.6968  133.3211  152.7497 H   0  0  0  0  0  0  0  0  0  0  0  0
  1  2  1  0  0  0  0
  1 20  1  0  0  0  0
  1 21  1  0  0  0  0
  1 22  1  0  0  0  0
  2 19  1  0  0  0  0
  2  3  1  0  0  0  0
  2  4  1  0  0  0  0
  3 23  1  0  0  0  0
  3 24  1  0  0  0  0
  3 25  1  0  0  0  0
  4  5  1  0  0  0  0
  4 26  1  0  0  0  0
  4 27  1  0  0  0  0
  5  6  1  0  0  0  0
  5 15  1  0  0  0  0
  5 28  1  0  0  0  0
  6  7  1  0  0  0  0
  6 29  1  0  0  0  0
  7  8  2  0  0  0  0
  7  9  1  0  0  0  0
  9 10  1  0  0  0  0
  9 30  1  0  0  0  0
 10 14  1  0  0  0  0
 10 11  2  0  0  0  0
 11 12  1  0  0  0  0
 12 13  2  0  0  0  0
 13 14  1  0  0  0  0
 13 31  1  0  0  0  0
 15 16  1  0  0  0  0
 15 32  1  0  0  0  0
 15 33  1  0  0  0  0
 16 17  1  0  0  0  0
 16 18  1  0  0  0  0
 16 19  1  0  0  0  0
 17 34  1  0  0  0  0
 17 35  1  0  0  0  0
 17 36  1  0  0  0  0
 18 37  1  0  0  0  0
 18 38  1  0  0  0  0
 18 39  1  0  0  0  0
 19 40  1  0  0  0  0
 19 41  1  0  0  0  0
M  CHG  1  19   1
M  END
> <s_m_source_file>
AV-unprocessed.smi

> <i_m_source_file_index>
1799

> <i_lp_mmshare_version>
43012

> <i_f3d_flags>
0

> <s_epik_input>
W0NIM11DMShbQ0gzXSlbQ0gyXVtDSF0oW0NIMl1DKFtDSDNdKShbQ0gzXSlbTkhdMSlbTkhdQyg9TylbTkhdYzJubltjSF1zMg==

> <s_epik_cmdline>
J2VwaWtfcHl0aG9uJywgJy1waCcsICc3LjAnLCAnLXRuJywgJzgnLCAnLW1hJywgJzIwMCcsICctbWV0YWxfYmluZGluZycsICctaW1hZScsICc8aW5maWxlLm1hZT4nLCAnLW9tYWUnLCAnPG91dGZpbGUubWFlPic=

> <r_lp_tautomer_probability>
1

> <r_epik_Ionization_Penalty>
0.000698711

> <r_epik_Ionization_Penalty_Charging>
0.000101406

> <r_epik_Ionization_Penalty_Neutral>
0.000597305

> <r_epik_State_Penalty>
-0

> <r_epik_Charging_Adjusted_Penalty>
0.000101406

> <i_epik_Tot_Q>
1

> <i_epik_Tot_abs_Q>
1

> <r_epik_Metal_State_Penalty>
0.237927

> <b_epik_Metal_Only>
0

> <s_lp_Force_Field>
OPLS_2005

> <r_lp_Energy>
25.55

> <b_lp_Chiralities_Consistent>
1

> <s_lp_Variant>
AV-unprocessed.smi:1799-1

> <Gold.Version>
5.8.1

> <Gold.Id.Protein>
6NUR|6NUR_protein|mol2

> <Gold.PLP.Fitness>
34.1307

> <Gold.PLP.PLP>
-23.9949

> <Gold.PLP.part.hbond>
-3.0000

> <Gold.PLP.part.metal>
0.0000

> <Gold.PLP.part.buried>
-5.6418

> <Gold.PLP.part.nonpolar>
-15.7441

> <Gold.PLP.part.repulsive>
0.3205

> <Gold.PLP.ligand.clash>
0.0000

> <Gold.PLP.ligand.torsion>
0.5810

> <Gold.PLP.Chemscore.Hbond>
2.7600

> <Gold.PLP.Chemscore.CHOScore>
1.0000

> <Gold.PLP.Chemscore.Metal>
0.0000

> <Gold.Chemscore.Hbonds>
donor molecule, donor type, donor heavy atom, donor atom, acceptor molecule, acceptor atom, score
      L1  H     6    29       P1  7948  0.57
      L1  H     9    30       P1  7948  0.57
      L1  C    13    31       P1  8028  1.00

> <Gold.PLP.Chemscore.Internal.Correction>
0.0178

> <Gold.Rescore>
     Score         DG    S(hbond)    S(metal)    S(lipo)     H(rot)  DE(clash)    DE(int)     intcor
     15.59     -16.12       2.35        0.00      45.60       1.00       0.01       0.52       ----

> <Gold.Chemscore.Fitness>
15.5918

> <Gold.Chemscore.DG>
-16.1203

> <Gold.Chemscore.ZeroCoef>
-5.4800

> <Gold.Chemscore.Hbond>
2.3548

> <Gold.Chemscore.Metal>
0.0000

> <Gold.Chemscore.Lipo>
45.5997

> <Gold.Chemscore.Internal_Hbond>
0.0000

> <Gold.Chemscore.DEClash>
0.0057

> <Gold.Chemscore.DEInternal>
0.5228

> <Gold.Chemscore.Rot>
1.0000

> <Gold.Chemscore.Internal.Correction>
   9.000000E+99

> <Gold.Chemscore.Hbonds>
donor molecule, donor type, donor heavy atom, donor atom, acceptor molecule, acceptor atom, score
      L1  H     6    29       P1  7948  0.56
      L1  H     9    30       P1  7948  0.56

> <Gold.Chemscore.Hbond.Weighted>
-7.8651

> <Gold.Chemscore.Metal.Weighted>
-0.0000

> <Gold.Chemscore.Lipo.Weighted>
-5.3352

> <Gold.Chemscore.Internal_Hbond.Weighted>
0.0000

> <Gold.Chemscore.DEClash.Weighted>
0.0057

> <Gold.Chemscore.DEInternal.Weighted>
0.5228

> <Gold.Chemscore.Rot.Weighted>
2.5600

> <Gold.Chemscore.Internal.Correction.Weighted>
   9.000000E+99

> <Gold.Protein.RotatedTorsions>
[ 6907 6896 6895 6894 ] final  143.01 input  -60.11 | X-H torsion
[ 7974 7965 7964 7962 ] final  -23.90 input  175.53 | X-H torsion
[ 8008 7997 7996 7995 ] final   93.17 input   59.86 | X-H torsion
[ 10167 10162 10161 10158 ] final  -57.57 input  -65.29 | X-H torsion
[ 10718 10713 10712 10709 ] final  -40.70 input   66.30 | X-H torsion
[ 10763 10752 10751 10750 ] final -138.27 input  -60.55 | X-H torsion
[ 11005 11000 10999 10996 ] final   87.16 input  -57.11 | X-H torsion

> <Gold.Protein.ActiveResidues>
 VAL166  LYS551  ARG553  GLY616  TRP617  ASP618  TYR619  PRO620  LYS621  CYS622 
 ASP623  PHE694  ASN695  SER759  ASP760  ASP761  ALA762  ILE779  LEU786  VAL792 
 PHE793  MET794  SER795  GLU796  ALA797  LYS798  CYS799  TRP800  GLU811  SER814 

> <Gold.Protein.RotatedAtoms>
  152.2116  133.4915  159.5112 H   0  0  0  0  0  0  0  0  0  0  0  0  # atno 6907 bound_to 6896
  150.6991  134.1459  159.4131 H   0  0  0  0  0  0  0  0  0  0  0  0  # atno 6908 bound_to 6896
  151.9379  135.0227  160.0584 H   0  0  0  0  0  0  0  0  0  0  0  0  # atno 6909 bound_to 6896
  146.1588  140.4678  142.8580 H   0  0  0  0  0  0  0  0  0  0  0  0  # atno 7974 bound_to 7965
  156.0437  140.3316  155.7273 H   0  0  0  0  0  0  0  0  0  0  0  0  # atno 8008 bound_to 7997
  155.5705  140.0627  157.2825 H   0  0  0  0  0  0  0  0  0  0  0  0  # atno 8009 bound_to 7997
  154.4404  140.1861  156.0863 H   0  0  0  0  0  0  0  0  0  0  0  0  # atno 8010 bound_to 7997
  140.6250  143.2434  151.5387 H   0  0  0  0  0  0  0  0  0  0  0  0  # atno 10167 bound_to 10162
  156.2785  130.4214  149.8362 H   0  0  0  0  0  0  0  0  0  0  0  0  # atno 10718 bound_to 10713
  154.8641  135.3617  154.5358 H   0  0  0  0  0  0  0  0  0  0  0  0  # atno 10763 bound_to 10752
  153.5981  135.7013  153.5400 H   0  0  0  0  0  0  0  0  0  0  0  0  # atno 10764 bound_to 10752
  153.3314  135.4123  155.1460 H   0  0  0  0  0  0  0  0  0  0  0  0  # atno 10765 bound_to 10752
  139.8926  134.8404  156.2821 H   0  0  0  0  0  0  0  0  0  0  0  0  # atno 11005 bound_to 11000
  144.7999  140.6193  143.6485 LP  0  0  0  0  0  0  0  0  0  0  0  0  # atno 17320 bound_to 7965
  145.4641  139.1510  143.3850 LP  0  0  0  0  0  0  0  0  0  0  0  0  # atno 17321 bound_to 7965
  139.5472  144.2491  152.1463 LP  0  0  0  0  0  0  0  0  0  0  0  0  # atno 17342 bound_to 10162
  140.1720  144.4926  150.6574 LP  0  0  0  0  0  0  0  0  0  0  0  0  # atno 17343 bound_to 10162
  156.5818  130.8469  151.3385 LP  0  0  0  0  0  0  0  0  0  0  0  0  # atno 17370 bound_to 10713
  157.7307  130.9689  150.1844 LP  0  0  0  0  0  0  0  0  0  0  0  0  # atno 17371 bound_to 10713
  141.0032  133.7139  156.0993 LP  0  0  0  0  0  0  0  0  0  0  0  0  # atno 17394 bound_to 11000
  140.7470  134.4087  157.5547 LP  0  0  0  0  0  0  0  0  0  0  0  0  # atno 17395 bound_to 11000

$$$$
