#       Name:                AV-unprocessed.smi:1
#       Creating user name   scv26
#       Creation time:       Thu Mar 26 15:13:04 2020


#       File generated by GOLD software.
#

@<TRIPOS>MOLECULE
AV-unprocessed.smi:1
    66    71     1
SMALL
NO_CHARGES


@<TRIPOS>ATOM
      1 ****        -5.3178   0.1348   2.0010 O.2            1 S1                 0.0000
      2 ****        -5.7164  -0.2680   0.9061 C.2            1 S1                 0.0000
      3 ****        -5.0150  -0.3683  -0.2511 N.pl3          1 S1                -1.0000
      4 ****        -3.7034  -0.0885  -0.2650 C.ar           1 S1                 0.0000
      5 ****        -3.2628   1.1320  -0.6642 N.ar           1 S1                 0.0000
      6 ****        -1.9523   1.4027  -0.6895 C.ar           1 S1                 0.0000
      7 ****        -0.9240   0.6101  -0.3714 N.ar           1 S1                 0.0000
      8 ****        -1.3561  -0.6227   0.0259 C.ar           1 S1                 0.0000
      9 ****        -2.7155  -1.0418   0.1030 C.ar           1 S1                 0.0000
     10 ****        -2.8022  -2.3553   0.5418 N.2            1 S1                 0.0000
     11 ****        -1.5192  -2.6686   0.7081 C.2            1 S1                 0.0000
     12 ****        -0.6078  -1.7180   0.4229 N.pl3          1 S1                 0.0000
     13 ****         0.8747  -1.8209   0.5162 C.3            1 S1                 0.0000
     14 ****         1.3611  -0.7134   1.2005 O.3            1 S1                 0.0000
     15 ****         2.6685  -0.3909   0.7309 C.3            1 S1                 0.0000
     16 ****         2.7211   1.1198   0.4732 C.3            1 S1                 0.0000
     17 ****         4.0579   1.4981   0.1882 O.3            1 S1                 0.0000
     18 ****         4.3594   2.7882  -0.0531 C.2            1 S1                 0.0000
     19 ****         3.5283   3.6984  -0.0345 O.2            1 S1                 0.0000
     20 ****         5.8071   2.9995  -0.3438 C.ar           1 S1                 0.0000
     21 ****         6.2838   4.3107  -0.5770 C.ar           1 S1                 0.0000
     22 ****         7.6459   4.5407  -0.8529 C.ar           1 S1                 0.0000
     23 ****         8.5479   3.4619  -0.8999 C.ar           1 S1                 0.0000
     24 ****         8.0862   2.1527  -0.6710 C.ar           1 S1                 0.0000
     25 ****         6.7247   1.9209  -0.3943 C.ar           1 S1                 0.0000
     26 ****         2.8995  -1.2340  -0.5339 C.3            1 S1                 0.0000
     27 ****         3.7659  -2.3179  -0.2415 O.3            1 S1                 0.0000
     28 ****         3.1417  -3.7053  -0.9328 S.o2           1 S1                 0.0000
     29 ****         3.9122  -4.0032  -2.1497 O.2            1 S1                 0.0000
     30 ****         2.9313  -4.6953   0.1345 O.2            1 S1                 0.0000
     31 ****         1.6524  -3.1048  -1.3923 O.3            1 S1                 0.0000
     32 ****         1.5160  -1.7969  -0.8680 C.3            1 S1                 0.0000
     33 ****        -7.1631  -0.6559   0.7585 C.ar           1 S1                 0.0000
     34 ****        -8.1553   0.0559   1.4703 C.ar           1 S1                 0.0000
     35 ****        -9.5116  -0.3102   1.3678 C.ar           1 S1                 0.0000
     36 ****        -9.8891  -1.3993   0.5602 C.ar           1 S1                 0.0000
     37 ****        -8.9086  -2.1243  -0.1426 C.ar           1 S1                 0.0000
     38 ****        -7.5522  -1.7581  -0.0416 C.ar           1 S1                 0.0000
     39 ****        -1.6896   2.3982  -1.0149 H              1 S1                 0.0000
     40 ****        -1.2245  -3.6495   1.0510 H              1 S1                 0.0000
     41 ****         1.0779  -2.7315   1.0818 H              1 S1                 0.0000
     42 ****         3.3891  -0.6566   1.5057 H              1 S1                 0.0000
     43 ****         2.0630   1.3903  -0.3539 H              1 S1                 0.0000
     44 ****         2.3764   1.6572   1.3576 H              1 S1                 0.0000
     45 ****         5.6102   5.1551  -0.5454 H              1 S1                 0.0000
     46 ****         7.9987   5.5464  -1.0280 H              1 S1                 0.0000
     47 ****         9.5924   3.6384  -1.1108 H              1 S1                 0.0000
     48 ****         8.7776   1.3236  -0.7070 H              1 S1                 0.0000
     49 ****         6.4044   0.9034  -0.2239 H              1 S1                 0.0000
     50 ****         3.3187  -0.6624  -1.3629 H              1 S1                 0.0000
     51 ****         0.9719  -1.1329  -1.5402 H              1 S1                 0.0000
     52 ****        -7.8815   0.8925   2.0970 H              1 S1                 0.0000
     53 ****       -10.2621   0.2446   1.9112 H              1 S1                 0.0000
     54 ****       -10.9288  -1.6807   0.4832 H              1 S1                 0.0000
     55 ****        -9.1951  -2.9646  -0.7576 H              1 S1                 0.0000
     56 ****        -6.8138  -2.3348  -0.5802 H              1 S1                 0.0000
     57 ****        -4.3707   0.4373   2.1079 LP             1 S1                 0.0000
     58 ****        -5.9416   0.1589   2.7822 LP             1 S1                 0.0000
     59 ****        -5.4755  -0.6506  -1.0927 LP             1 S1                 0.0000
     60 ****        -3.9208   1.8323  -0.9408 LP             1 S1                 0.0000
     61 ****         0.0366   0.8843  -0.4183 LP             1 S1                 0.0000
     62 ****        -3.6146  -2.9184   0.6932 LP             1 S1                 0.0000
     63 ****         1.4009  -0.9186   2.1784 LP             1 S1                 0.0000
     64 ****         0.7522   0.0649   1.0477 LP             1 S1                 0.0000
     65 ****         2.5701   3.4964   0.1681 LP             1 S1                 0.0000
     66 ****         3.8123   4.6387  -0.2220 LP             1 S1                 0.0000
@<TRIPOS>BOND
    1    1    2 2     
    2    2    3 1     
    3    2   33 1     
    4    3    4 1     
    5    4    9 ar    
    6    4    5 ar    
    7    5    6 ar    
    8    6    7 ar    
    9    6   39 1     
   10    7    8 ar    
   11    8   12 1     
   12    8    9 ar    
   13    9   10 1     
   14   10   11 2     
   15   11   12 1     
   16   11   40 1     
   17   12   13 1     
   18   13   32 1     
   19   13   14 1     
   20   13   41 1     
   21   14   15 1     
   22   15   16 1     
   23   15   26 1     
   24   15   42 1     
   25   16   17 1     
   26   16   43 1     
   27   16   44 1     
   28   17   18 1     
   29   18   19 2     
   30   18   20 1     
   31   20   25 ar    
   32   20   21 ar    
   33   21   22 ar    
   34   21   45 1     
   35   22   23 ar    
   36   22   46 1     
   37   23   24 ar    
   38   23   47 1     
   39   24   25 ar    
   40   24   48 1     
   41   25   49 1     
   42   26   32 1     
   43   26   27 1     
   44   26   50 1     
   45   27   28 1     
   46   28   29 2     
   47   28   30 2     
   48   28   31 1     
   49   31   32 1     
   50   32   51 1     
   51   33   38 ar    
   52   33   34 ar    
   53   34   35 ar    
   54   34   52 1     
   55   35   36 ar    
   56   35   53 1     
   57   36   37 ar    
   58   36   54 1     
   59   37   38 ar    
   60   37   55 1     
   61   38   56 1     
   62    1   57 1     
   63    1   58 1     
   64    3   59 1     
   65    5   60 1     
   66    7   61 1     
   67   10   62 1     
   68   14   63 1     
   69   14   64 1     
   70   19   65 1     
   71   19   66 1     
@<TRIPOS>SUBSTRUCTURE
      1 S1             1
@<TRIPOS>SET
LONE_PAIRS      STATIC     ATOMS    <user>   **** ""
12 57 58 59 60 61 62 63 64 65 66 29 30
ATOM$BLUE        STATIC     ATOMS    COLORGROUP SYSTEM
12 57 58 59 60 61 62 63 64 65 66 29 30
