AV-unprocessed.smi:3111|AV-procd|sdf|11835|dock7
  -GOLD-   2272017213D 1   1.00000     0.00000
 Structure written by MMmdl.
 30 30  0  0  0  0  0  0  0  0  2 V2000
  145.5908  144.4286  158.8312 C   0  0  0  0  0  0  0  0  0  0  0  0
  146.8623  144.0187  158.2549 N   0  0  0  0  0  0  0  0  0  0  0  0
  147.2289  142.7437  158.0652 C   0  0  0  0  0  0  0  0  0  0  0  0
  146.5099  141.7862  158.3580 O   0  0  0  0  0  0  0  0  0  0  0  0
  148.6139  142.5301  157.4387 C   0  0  0  0  0  0  0  0  0  0  0  0
  149.6843  143.1823  158.1889 N   0  0  0  0  0  0  0  0  0  0  0  0
  150.9058  142.6665  158.4013 C   0  0  0  0  0  0  0  0  0  0  0  0
  151.2365  141.5411  158.0261 O   0  0  0  0  0  0  0  0  0  0  0  0
  151.9107  143.5786  159.1217 C   0  0  1  0  0  0  0  0  0  0  0  0
  151.3911  145.0169  159.3095 C   0  0  0  0  0  0  0  0  0  0  0  0
  152.3225  142.9780  160.4017 N   0  0  0  0  0  0  0  0  0  0  0  0
  152.0547  143.4563  161.6598 C   0  0  0  0  0  0  0  0  0  0  0  0
  152.6429  142.5895  162.5444 C   0  0  0  0  0  0  0  0  0  0  0  0
  153.2463  141.6180  161.7924 N   0  3  0  0  0  0  0  0  0  0  0  0
  153.0511  141.8544  160.4914 C   0  0  0  0  0  0  0  0  0  0  0  0
  145.5340  145.5165  158.8708 H   0  0  0  0  0  0  0  0  0  0  0  0
  145.4825  144.0441  159.8461 H   0  0  0  0  0  0  0  0  0  0  0  0
  144.7563  144.0657  158.2299 H   0  0  0  0  0  0  0  0  0  0  0  0
  147.5043  144.7501  157.9849 H   0  0  0  0  0  0  0  0  0  0  0  0
  148.8207  141.4601  157.4089 H   0  0  0  0  0  0  0  0  0  0  0  0
  148.6107  142.8787  156.4043 H   0  0  0  0  0  0  0  0  0  0  0  0
  149.4955  144.1140  158.5292 H   0  0  0  0  0  0  0  0  0  0  0  0
  152.8053  143.6336  158.4988 H   0  0  0  0  0  0  0  0  0  0  0  0
  151.1187  145.4646  158.3530 H   0  0  0  0  0  0  0  0  0  0  0  0
  152.1567  145.6500  159.7589 H   0  0  0  0  0  0  0  0  0  0  0  0
  150.5125  145.0542  159.9547 H   0  0  0  0  0  0  0  0  0  0  0  0
  151.4818  144.3565  161.8293 H   0  0  0  0  0  0  0  0  0  0  0  0
  152.6778  142.5921  163.6241 H   0  0  0  0  0  0  0  0  0  0  0  0
  153.4164  141.2590  159.6734 H   0  0  0  0  0  0  0  0  0  0  0  0
  153.7688  140.8344  162.1640 H   0  0  0  0  0  0  0  0  0  0  0  0
  1  2  1  0  0  0  0
  1 16  1  0  0  0  0
  1 17  1  0  0  0  0
  1 18  1  0  0  0  0
  2  3  1  0  0  0  0
  2 19  1  0  0  0  0
  3  4  2  0  0  0  0
  3  5  1  0  0  0  0
  5  6  1  0  0  0  0
  5 20  1  0  0  0  0
  5 21  1  0  0  0  0
  6  7  1  0  0  0  0
  6 22  1  0  0  0  0
  7  8  2  0  0  0  0
  7  9  1  0  0  0  0
  9 10  1  0  0  0  0
  9 11  1  0  0  0  0
  9 23  1  0  0  0  0
 10 24  1  0  0  0  0
 10 25  1  0  0  0  0
 10 26  1  0  0  0  0
 11 15  1  0  0  0  0
 11 12  1  0  0  0  0
 12 13  2  0  0  0  0
 12 27  1  0  0  0  0
 13 14  1  0  0  0  0
 13 28  1  0  0  0  0
 14 15  2  0  0  0  0
 14 30  1  0  0  0  0
 15 29  1  0  0  0  0
M  CHG  1  14   1
M  END
> <s_m_source_file>
AV-unprocessed.smi

> <i_m_source_file_index>
3111

> <i_lp_mmshare_version>
43012

> <i_f3d_flags>
0

> <s_epik_input>
W0NIM11bTkhdQyg9TylbQ0gyXVtOSF1DKD1PKVtDQEhdKFtDSDNdKW4xW2NIXVtjSF1uW2NIXTE=

> <s_epik_cmdline>
J2VwaWtfcHl0aG9uJywgJy1waCcsICc3LjAnLCAnLXRuJywgJzgnLCAnLW1hJywgJzIwMCcsICctbWV0YWxfYmluZGluZycsICctaW1hZScsICc8aW5maWxlLm1hZT4nLCAnLW9tYWUnLCAnPG91dGZpbGUubWFlPic=

> <r_lp_tautomer_probability>
1

> <r_epik_Ionization_Penalty>
0.581414

> <r_epik_Ionization_Penalty_Charging>
0

> <r_epik_Ionization_Penalty_Neutral>
0.581414

> <r_epik_State_Penalty>
0.594207

> <r_epik_Charging_Adjusted_Penalty>
0.594207

> <i_epik_Tot_Q>
1

> <i_epik_Tot_abs_Q>
1

> <r_epik_Metal_State_Penalty>
0.784638

> <b_epik_Metal_Only>
0

> <s_lp_Force_Field>
OPLS_2005

> <r_lp_Energy>
5.66591

> <b_lp_Chiralities_Consistent>
1

> <s_lp_Variant>
AV-unprocessed.smi:3111-4

> <Gold.Version>
5.8.1

> <Gold.Id.Protein>
6NUR|6NUR_protein|mol2

> <Gold.PLP.Fitness>
38.7710

> <Gold.PLP.PLP>
-33.7613

> <Gold.PLP.part.hbond>
-2.1356

> <Gold.PLP.part.metal>
0.0000

> <Gold.PLP.part.buried>
-5.1579

> <Gold.PLP.part.nonpolar>
-26.0503

> <Gold.PLP.part.repulsive>
0.2096

> <Gold.PLP.ligand.clash>
0.1859

> <Gold.PLP.ligand.torsion>
0.4505

> <Gold.PLP.Chemscore.Hbond>
2.0000

> <Gold.PLP.Chemscore.CHOScore>
0.0000

> <Gold.PLP.Chemscore.Metal>
0.0000

> <Gold.Chemscore.Hbonds>
donor molecule, donor type, donor heavy atom, donor atom, acceptor molecule, acceptor atom, score
      L1  H     2    19       P1  8029  0.75

> <Gold.PLP.Chemscore.Internal.Correction>
0.0965

> <Gold.Rescore>
     Score         DG    S(hbond)    S(metal)    S(lipo)     H(rot)  DE(clash)    DE(int)     intcor
     12.09     -12.60       1.99        0.00      55.16       2.33       0.01       0.50       ----

> <Gold.Chemscore.Fitness>
12.0918

> <Gold.Chemscore.DG>
-12.6050

> <Gold.Chemscore.ZeroCoef>
-5.4800

> <Gold.Chemscore.Hbond>
1.9875

> <Gold.Chemscore.Metal>
0.0000

> <Gold.Chemscore.Lipo>
55.1647

> <Gold.Chemscore.Internal_Hbond>
0.0000

> <Gold.Chemscore.DEClash>
0.0126

> <Gold.Chemscore.DEInternal>
0.5006

> <Gold.Chemscore.Rot>
2.3311

> <Gold.Chemscore.Internal.Correction>
   9.000000E+99

> <Gold.Chemscore.Hbonds>
donor molecule, donor type, donor heavy atom, donor atom, acceptor molecule, acceptor atom, score
      L1  H     2    19       P1  8029  0.47

> <Gold.Chemscore.Hbond.Weighted>
-6.6383

> <Gold.Chemscore.Metal.Weighted>
-0.0000

> <Gold.Chemscore.Lipo.Weighted>
-6.4543

> <Gold.Chemscore.Internal_Hbond.Weighted>
0.0000

> <Gold.Chemscore.DEClash.Weighted>
0.0126

> <Gold.Chemscore.DEInternal.Weighted>
0.5006

> <Gold.Chemscore.Rot.Weighted>
5.9676

> <Gold.Chemscore.Internal.Correction.Weighted>
   9.000000E+99

> <Gold.Protein.RotatedTorsions>
[ 6907 6896 6895 6894 ] final   43.62 input  -60.11 | X-H torsion
[ 7974 7965 7964 7962 ] final   27.71 input  175.53 | X-H torsion
[ 8008 7997 7996 7995 ] final  135.74 input   59.86 | X-H torsion
[ 10167 10162 10161 10158 ] final -167.83 input  -65.29 | X-H torsion
[ 10718 10713 10712 10709 ] final -113.95 input   66.30 | X-H torsion
[ 10763 10752 10751 10750 ] final   83.66 input  -60.55 | X-H torsion
[ 11005 11000 10999 10996 ] final   92.45 input  -57.11 | X-H torsion

> <Gold.Protein.ActiveResidues>
 VAL166  LYS551  ARG553  GLY616  TRP617  ASP618  TYR619  PRO620  LYS621  CYS622 
 ASP623  PHE694  ASN695  SER759  ASP760  ASP761  ALA762  ILE779  LEU786  VAL792 
 PHE793  MET794  SER795  GLU796  ALA797  LYS798  CYS799  TRP800  GLU811  SER814 

> <Gold.Protein.RotatedAtoms>
  152.2226  134.8399  160.0483 H   0  0  0  0  0  0  0  0  0  0  0  0  # atno 6907 bound_to 6896
  151.9177  133.3572  159.3894 H   0  0  0  0  0  0  0  0  0  0  0  0  # atno 6908 bound_to 6896
  150.7004  134.4592  159.5417 H   0  0  0  0  0  0  0  0  0  0  0  0  # atno 6909 bound_to 6896
  146.1769  139.7154  142.8928 H   0  0  0  0  0  0  0  0  0  0  0  0  # atno 7974 bound_to 7965
  156.3003  140.2463  156.3631 H   0  0  0  0  0  0  0  0  0  0  0  0  # atno 8008 bound_to 7997
  154.8858  140.0411  157.1829 H   0  0  0  0  0  0  0  0  0  0  0  0  # atno 8009 bound_to 7997
  154.8648  140.2926  155.5521 H   0  0  0  0  0  0  0  0  0  0  0  0  # atno 8010 bound_to 7997
  139.6024  144.0983  152.1757 H   0  0  0  0  0  0  0  0  0  0  0  0  # atno 10167 bound_to 10162
  156.0799  130.6001  150.8711 H   0  0  0  0  0  0  0  0  0  0  0  0  # atno 10718 bound_to 10713
  153.1311  135.4683  154.9350 H   0  0  0  0  0  0  0  0  0  0  0  0  # atno 10763 bound_to 10752
  154.7665  135.3146  154.8279 H   0  0  0  0  0  0  0  0  0  0  0  0  # atno 10764 bound_to 10752
  153.8821  135.6893  153.4820 H   0  0  0  0  0  0  0  0  0  0  0  0  # atno 10765 bound_to 10752
  139.8823  134.8733  156.3574 H   0  0  0  0  0  0  0  0  0  0  0  0  # atno 11005 bound_to 11000
  145.4186  141.0404  143.2976 LP  0  0  0  0  0  0  0  0  0  0  0  0  # atno 17320 bound_to 7965
  144.8251  139.5724  143.6969 LP  0  0  0  0  0  0  0  0  0  0  0  0  # atno 17321 bound_to 7965
  140.0583  144.5877  150.7283 LP  0  0  0  0  0  0  0  0  0  0  0  0  # atno 17342 bound_to 10162
  140.7259  143.2636  151.4120 LP  0  0  0  0  0  0  0  0  0  0  0  0  # atno 17343 bound_to 10162
  157.5911  131.0944  150.9117 LP  0  0  0  0  0  0  0  0  0  0  0  0  # atno 17370 bound_to 10713
  156.9292  130.5343  149.5279 LP  0  0  0  0  0  0  0  0  0  0  0  0  # atno 17371 bound_to 10713
  140.9553  133.7424  156.0327 LP  0  0  0  0  0  0  0  0  0  0  0  0  # atno 17394 bound_to 11000
  140.8056  134.3458  157.5427 LP  0  0  0  0  0  0  0  0  0  0  0  0  # atno 17395 bound_to 11000

$$$$
