AV-unprocessed.smi:3348|AV-procd|sdf|12915|dock7
  -GOLD-   2272019333D 1   1.00000     0.00000
 Structure written by MMmdl.
 47 48  0  0  0  0  0  0  0  0  2 V2000
  146.1844  135.1411  152.9064 C   0  0  0  0  0  0  0  0  0  0  0  0
  145.4397  136.0526  151.9216 C   0  0  2  0  0  0  0  0  0  0  0  0
  145.2936  135.3591  150.5491 C   0  0  0  0  0  0  0  0  0  0  0  0
  145.1983  133.9132  150.6378 N   0  0  0  0  0  0  0  0  0  0  0  0
  144.0902  133.1143  150.4479 C   0  0  0  0  0  0  0  0  0  0  0  0
  144.4873  131.8201  150.6248 C   0  0  0  0  0  0  0  0  0  0  0  0
  145.8767  131.9288  150.9126 C   0  0  0  0  0  0  0  0  0  0  0  0
  146.2996  133.1829  150.9169 N   0  0  0  0  0  0  0  0  0  0  0  0
  146.1682  137.3367  151.8041 N   0  3  0  0  0  0  0  0  0  0  0  0
  146.1536  138.1870  153.0134 C   0  0  0  0  0  0  0  0  0  0  0  0
  147.4586  138.9780  153.1386 C   0  0  0  0  0  0  0  0  0  0  0  0
  147.4443  139.6805  154.3723 O   0  0  0  0  0  0  0  0  0  0  0  0
  148.6525  140.3685  154.6741 C   0  0  2  0  0  0  0  0  0  0  0  0
  149.8390  139.3844  154.5882 C   0  0  0  0  0  0  0  0  0  0  0  0
  151.1514  140.0397  155.0417 C   0  0  0  0  0  0  0  0  0  0  0  0
  151.0199  140.6102  156.4603 C   0  0  0  0  0  0  0  0  0  0  0  0
  149.8482  141.5991  156.5495 C   0  0  0  0  0  0  0  0  0  0  0  0
  148.5207  140.9570  156.0977 C   0  0  1  0  0  0  0  0  0  0  0  0
  147.3707  141.9732  156.1906 C   0  0  0  0  0  0  0  0  0  0  0  0
  145.6574  134.1961  153.0424 H   0  0  0  0  0  0  0  0  0  0  0  0
  146.2723  135.6099  153.8871 H   0  0  0  0  0  0  0  0  0  0  0  0
  147.1911  134.9122  152.5547 H   0  0  0  0  0  0  0  0  0  0  0  0
  144.4503  136.2375  152.3433 H   0  0  0  0  0  0  0  0  0  0  0  0
  144.4142  135.7352  150.0244 H   0  0  0  0  0  0  0  0  0  0  0  0
  146.1521  135.5952  149.9185 H   0  0  0  0  0  0  0  0  0  0  0  0
  143.1217  133.5273  150.2068 H   0  0  0  0  0  0  0  0  0  0  0  0
  143.8795  130.9302  150.5536 H   0  0  0  0  0  0  0  0  0  0  0  0
  146.5853  131.1393  151.1156 H   0  0  0  0  0  0  0  0  0  0  0  0
  147.1364  137.1222  151.6113 H   0  0  0  0  0  0  0  0  0  0  0  0
  145.3168  138.8823  152.9631 H   0  0  0  0  0  0  0  0  0  0  0  0
  146.0038  137.5687  153.8994 H   0  0  0  0  0  0  0  0  0  0  0  0
  148.3133  138.3049  153.0687 H   0  0  0  0  0  0  0  0  0  0  0  0
  147.5354  139.6902  152.3158 H   0  0  0  0  0  0  0  0  0  0  0  0
  148.8045  141.1912  153.9724 H   0  0  0  0  0  0  0  0  0  0  0  0
  149.6362  138.5123  155.2115 H   0  0  0  0  0  0  0  0  0  0  0  0
  149.9598  139.0131  153.5711 H   0  0  0  0  0  0  0  0  0  0  0  0
  151.9627  139.3121  155.0070 H   0  0  0  0  0  0  0  0  0  0  0  0
  151.4208  140.8377  154.3487 H   0  0  0  0  0  0  0  0  0  0  0  0
  150.8688  139.7968  157.1713 H   0  0  0  0  0  0  0  0  0  0  0  0
  151.9471  141.1057  156.7491 H   0  0  0  0  0  0  0  0  0  0  0  0
  149.7575  141.9622  157.5738 H   0  0  0  0  0  0  0  0  0  0  0  0
  150.0647  142.4724  155.9324 H   0  0  0  0  0  0  0  0  0  0  0  0
  148.2960  140.1387  156.7836 H   0  0  0  0  0  0  0  0  0  0  0  0
  147.5335  142.8183  155.5209 H   0  0  0  0  0  0  0  0  0  0  0  0
  147.2758  142.3659  157.2033 H   0  0  0  0  0  0  0  0  0  0  0  0
  146.4149  141.5197  155.9271 H   0  0  0  0  0  0  0  0  0  0  0  0
  145.7956  137.8548  151.0214 H   0  0  0  0  0  0  0  0  0  0  0  0
  1  2  1  0  0  0  0
  1 20  1  0  0  0  0
  1 21  1  0  0  0  0
  1 22  1  0  0  0  0
  2  3  1  0  0  0  0
  2  9  1  0  0  0  0
  2 23  1  0  0  0  0
  3  4  1  0  0  0  0
  3 24  1  0  0  0  0
  3 25  1  0  0  0  0
  4  8  1  0  0  0  0
  4  5  1  0  0  0  0
  5  6  2  0  0  0  0
  5 26  1  0  0  0  0
  6  7  1  0  0  0  0
  6 27  1  0  0  0  0
  7  8  2  0  0  0  0
  7 28  1  0  0  0  0
  9 10  1  0  0  0  0
  9 29  1  0  0  0  0
  9 47  1  0  0  0  0
 10 11  1  0  0  0  0
 10 30  1  0  0  0  0
 10 31  1  0  0  0  0
 11 12  1  0  0  0  0
 11 32  1  0  0  0  0
 11 33  1  0  0  0  0
 12 13  1  0  0  0  0
 13 18  1  0  0  0  0
 13 14  1  0  0  0  0
 13 34  1  0  0  0  0
 14 15  1  0  0  0  0
 14 35  1  0  0  0  0
 14 36  1  0  0  0  0
 15 16  1  0  0  0  0
 15 37  1  0  0  0  0
 15 38  1  0  0  0  0
 16 17  1  0  0  0  0
 16 39  1  0  0  0  0
 16 40  1  0  0  0  0
 17 18  1  0  0  0  0
 17 41  1  0  0  0  0
 17 42  1  0  0  0  0
 18 19  1  0  0  0  0
 18 43  1  0  0  0  0
 19 44  1  0  0  0  0
 19 45  1  0  0  0  0
 19 46  1  0  0  0  0
M  CHG  1   9   1
M  END
> <s_m_source_file>
AV-unprocessed.smi

> <i_m_source_file_index>
3348

> <i_lp_mmshare_version>
43012

> <i_f3d_flags>
0

> <s_epik_input>
bjFbY0hdW2NIXVtjSF1uMVtDSDJdW0NAQEhdKFtDSDNdKVtOSF1bQ0gyXVtDSDJdT1tDQEBIXTJbQ0gyXVtDSDJdW0NIMl1bQ0gyXVtDQEhdMltDSDNd

> <s_epik_cmdline>
J2VwaWtfcHl0aG9uJywgJy1waCcsICc3LjAnLCAnLXRuJywgJzgnLCAnLW1hJywgJzIwMCcsICctbWV0YWxfYmluZGluZycsICctaW1hZScsICc8aW5maWxlLm1hZT4nLCAnLW9tYWUnLCAnPG91dGZpbGUubWFlPic=

> <r_lp_tautomer_probability>
1

> <r_epik_Ionization_Penalty>
0.00925088

> <r_epik_Ionization_Penalty_Charging>
0.00924645

> <r_epik_Ionization_Penalty_Neutral>
4.42413e-06

> <r_epik_State_Penalty>
0.0070118

> <r_epik_Charging_Adjusted_Penalty>
0.0162583

> <i_epik_Tot_Q>
1

> <i_epik_Tot_abs_Q>
1

> <r_epik_Metal_State_Penalty>
0.00701222

> <b_epik_Metal_Only>
0

> <s_lp_Force_Field>
OPLS_2005

> <r_lp_Energy>
16.8222

> <b_lp_Chiralities_Consistent>
1

> <s_lp_Variant>
AV-unprocessed.smi:3348-1

> <Gold.Version>
5.8.1

> <Gold.Id.Protein>
6NUR|6NUR_protein|mol2

> <Gold.PLP.Fitness>
43.7220

> <Gold.PLP.PLP>
-32.5226

> <Gold.PLP.part.hbond>
-1.2274

> <Gold.PLP.part.metal>
0.0000

> <Gold.PLP.part.buried>
1.9656

> <Gold.PLP.part.nonpolar>
-32.4029

> <Gold.PLP.part.repulsive>
0.3764

> <Gold.PLP.ligand.clash>
0.0000

> <Gold.PLP.ligand.torsion>
0.7983

> <Gold.PLP.Chemscore.Hbond>
2.1903

> <Gold.PLP.Chemscore.CHOScore>
2.0000

> <Gold.PLP.Chemscore.Metal>
0.0000

> <Gold.Chemscore.Hbonds>
donor molecule, donor type, donor heavy atom, donor atom, acceptor molecule, acceptor atom, score
      L1  H     9    29       P1  7948  2.00
      L1  H     9    47       P1 10171  0.11
      L1  C     5    26       P1 10186  1.00
      L1  C     7    28       P1 10747  0.95

> <Gold.PLP.Chemscore.Internal.Correction>
0.2250

> <Gold.Rescore>
     Score         DG    S(hbond)    S(metal)    S(lipo)     H(rot)  DE(clash)    DE(int)     intcor
     13.05     -15.41       1.16        0.00      91.45       1.82       0.26       2.10       ----

> <Gold.Chemscore.Fitness>
13.0515

> <Gold.Chemscore.DG>
-15.4057

> <Gold.Chemscore.ZeroCoef>
-5.4800

> <Gold.Chemscore.Hbond>
1.1603

> <Gold.Chemscore.Metal>
0.0000

> <Gold.Chemscore.Lipo>
91.4546

> <Gold.Chemscore.Internal_Hbond>
0.0000

> <Gold.Chemscore.DEClash>
0.2562

> <Gold.Chemscore.DEInternal>
2.0980

> <Gold.Chemscore.Rot>
1.8163

> <Gold.Chemscore.Internal.Correction>
   9.000000E+99

> <Gold.Chemscore.Hbonds>
donor molecule, donor type, donor heavy atom, donor atom, acceptor molecule, acceptor atom, score
      L1  H     9    29       P1  7948  0.95
      L1  H     9    47       P1 10171  0.13

> <Gold.Chemscore.Hbond.Weighted>
-3.8753

> <Gold.Chemscore.Metal.Weighted>
-0.0000

> <Gold.Chemscore.Lipo.Weighted>
-10.7002

> <Gold.Chemscore.Internal_Hbond.Weighted>
0.0000

> <Gold.Chemscore.DEClash.Weighted>
0.2562

> <Gold.Chemscore.DEInternal.Weighted>
2.0980

> <Gold.Chemscore.Rot.Weighted>
4.6497

> <Gold.Chemscore.Internal.Correction.Weighted>
   9.000000E+99

> <Gold.Protein.RotatedTorsions>
[ 6907 6896 6895 6894 ] final  -79.30 input  -60.11 | X-H torsion
[ 7974 7965 7964 7962 ] final -114.92 input  175.53 | X-H torsion
[ 8008 7997 7996 7995 ] final   39.43 input   59.86 | X-H torsion
[ 10167 10162 10161 10158 ] final   62.49 input  -65.29 | X-H torsion
[ 10718 10713 10712 10709 ] final -128.23 input   66.30 | X-H torsion
[ 10763 10752 10751 10750 ] final -115.75 input  -60.55 | X-H torsion
[ 11005 11000 10999 10996 ] final  113.23 input  -57.11 | X-H torsion

> <Gold.Protein.ActiveResidues>
 VAL166  LYS551  ARG553  GLY616  TRP617  ASP618  TYR619  PRO620  LYS621  CYS622 
 ASP623  PHE694  ASN695  SER759  ASP760  ASP761  ALA762  ILE779  LEU786  VAL792 
 PHE793  MET794  SER795  GLU796  ALA797  LYS798  CYS799  TRP800  GLU811  SER814 

> <Gold.Protein.RotatedAtoms>
  150.6953  134.4142  159.5175 H   0  0  0  0  0  0  0  0  0  0  0  0  # atno 6907 bound_to 6896
  152.1896  134.8681  160.0528 H   0  0  0  0  0  0  0  0  0  0  0  0  # atno 6908 bound_to 6896
  151.9641  133.3670  159.4083 H   0  0  0  0  0  0  0  0  0  0  0  0  # atno 6909 bound_to 6896
  145.1144  140.8631  143.3850 H   0  0  0  0  0  0  0  0  0  0  0  0  # atno 7974 bound_to 7965
  155.2365  140.3342  155.4297 H   0  0  0  0  0  0  0  0  0  0  0  0  # atno 8008 bound_to 7997
  156.2273  140.1835  156.7376 H   0  0  0  0  0  0  0  0  0  0  0  0  # atno 8009 bound_to 7997
  154.5920  140.0636  156.9237 H   0  0  0  0  0  0  0  0  0  0  0  0  # atno 8010 bound_to 7997
  140.1433  144.4532  150.6799 H   0  0  0  0  0  0  0  0  0  0  0  0  # atno 10167 bound_to 10162
  156.1931  130.6808  151.0449 H   0  0  0  0  0  0  0  0  0  0  0  0  # atno 10718 bound_to 10713
  154.8493  135.4370  154.1713 H   0  0  0  0  0  0  0  0  0  0  0  0  # atno 10763 bound_to 10752
  153.2826  135.6955  153.7377 H   0  0  0  0  0  0  0  0  0  0  0  0  # atno 10764 bound_to 10752
  153.6575  135.3440  155.3092 H   0  0  0  0  0  0  0  0  0  0  0  0  # atno 10765 bound_to 10752
  139.8947  134.9546  156.6708 H   0  0  0  0  0  0  0  0  0  0  0  0  # atno 11005 bound_to 11000
  145.0810  139.2960  143.5783 LP  0  0  0  0  0  0  0  0  0  0  0  0  # atno 17320 bound_to 7965
  146.3524  140.0316  142.8650 LP  0  0  0  0  0  0  0  0  0  0  0  0  # atno 17321 bound_to 7965
  140.6747  143.2300  151.5537 LP  0  0  0  0  0  0  0  0  0  0  0  0  # atno 17342 bound_to 10162
  139.5461  144.2517  152.1444 LP  0  0  0  0  0  0  0  0  0  0  0  0  # atno 17343 bound_to 10162
  157.6941  131.0800  150.7020 LP  0  0  0  0  0  0  0  0  0  0  0  0  # atno 17370 bound_to 10713
  156.7077  130.4642  149.5555 LP  0  0  0  0  0  0  0  0  0  0  0  0  # atno 17371 bound_to 10713
  140.7375  133.9006  155.8254 LP  0  0  0  0  0  0  0  0  0  0  0  0  # atno 17394 bound_to 11000
  141.0104  134.1028  157.4227 LP  0  0  0  0  0  0  0  0  0  0  0  0  # atno 17395 bound_to 11000

$$$$
