#       Name:                AV-unprocessed.smi:2163
#       Creating user name   scv26
#       Creation time:       Fri Mar 27 11:59:08 2020


#       File generated by GOLD software.
#

@<TRIPOS>MOLECULE
AV-unprocessed.smi:2163
    49    51     1
SMALL
NO_CHARGES


@<TRIPOS>ATOM
      1 ****        -3.1969   2.7122  -2.2401 C.3            1 S1                 0.0000
      2 ****        -3.7242   1.9962  -1.0373 C.2            1 S1                 0.0000
      3 ****        -5.0292   1.8039  -0.8425 N.2            1 S1                 0.0000
      4 ****        -5.0589   1.1258   0.3607 C.ar           1 S1                 0.0000
      5 ****        -6.1508   0.6352   1.1121 C.ar           1 S1                 0.0000
      6 ****        -5.9329  -0.0345   2.3340 C.ar           1 S1                 0.0000
      7 ****        -4.6233  -0.2238   2.8209 C.ar           1 S1                 0.0000
      8 ****        -3.5211   0.2567   2.0878 C.ar           1 S1                 0.0000
      9 ****        -3.7441   0.9244   0.8688 C.ar           1 S1                 0.0000
     10 ****        -2.9036   1.5054  -0.0753 N.pl3          1 S1                 0.0000
     11 ****        -1.4487   1.5623  -0.0103 C.3            1 S1                 0.0000
     12 ****        -0.7837   0.2235  -0.3893 C.3            1 S1                 0.0000
     13 ****        -1.1344  -0.1074  -1.7185 O.3            1 S1                 0.0000
     14 ****         0.7483   0.2991  -0.2981 C.3            1 S1                 0.0000
     15 ****         1.2679  -1.0223  -0.2222 O.3            1 S1                 0.0000
     16 ****         2.6349  -1.1844  -0.1512 C.ar           1 S1                 0.0000
     17 ****         3.1219  -2.5076  -0.1237 C.ar           1 S1                 0.0000
     18 ****         4.5041  -2.7669  -0.0535 C.ar           1 S1                 0.0000
     19 ****         5.4209  -1.6989  -0.0087 C.ar           1 S1                 0.0000
     20 ****         6.9087  -1.9730   0.0580 C.3            1 S1                 0.0000
     21 ****         7.5268  -1.9715  -1.2762 C.1            1 S1                 0.0000
     22 ****         8.0129  -1.9696  -2.3261 N.1            1 S1                 0.0000
     23 ****         4.9467  -0.3729  -0.0333 C.ar           1 S1                 0.0000
     24 ****         3.5640  -0.1141  -0.1040 C.ar           1 S1                 0.0000
     25 ****        -4.0079   2.9532  -2.9281 H              1 S1                 0.0000
     26 ****        -2.4752   2.0895  -2.7685 H              1 S1                 0.0000
     27 ****        -2.7119   3.6417  -1.9416 H              1 S1                 0.0000
     28 ****        -7.1578   0.7749   0.7476 H              1 S1                 0.0000
     29 ****        -6.7751  -0.4045   2.9000 H              1 S1                 0.0000
     30 ****        -4.4654  -0.7385   3.7575 H              1 S1                 0.0000
     31 ****        -2.5165   0.1140   2.4571 H              1 S1                 0.0000
     32 ****        -1.0834   2.3657  -0.6500 H              1 S1                 0.0000
     33 ****        -1.1718   1.8388   1.0077 H              1 S1                 0.0000
     34 ****        -1.1506  -0.5581   0.2771 H              1 S1                 0.0000
     35 ****        -0.7462  -0.9428  -1.9299 H              1 S1                 0.0000
     36 ****         1.1601   0.8479  -1.1471 H              1 S1                 0.0000
     37 ****         1.0285   0.8321   0.6120 H              1 S1                 0.0000
     38 ****         2.4277  -3.3344  -0.1596 H              1 S1                 0.0000
     39 ****         4.8580  -3.7874  -0.0373 H              1 S1                 0.0000
     40 ****         7.4016  -1.2153   0.6676 H              1 S1                 0.0000
     41 ****         7.0935  -2.9411   0.5238 H              1 S1                 0.0000
     42 ****         5.6444   0.4510  -0.0009 H              1 S1                 0.0000
     43 ****         3.2420   0.9158  -0.1210 H              1 S1                 0.0000
     44 ****        -5.7951   2.0813  -1.4225 LP             1 S1                 0.0000
     45 ****        -0.7895   0.5931  -2.3432 LP             1 S1                 0.0000
     46 ****        -2.1292  -0.1667  -1.8006 LP             1 S1                 0.0000
     47 ****         0.9538  -1.5111  -1.0361 LP             1 S1                 0.0000
     48 ****         0.8766  -1.4478   0.5939 LP             1 S1                 0.0000
     49 ****         8.4331  -1.9680  -3.2335 LP             1 S1                 0.0000
@<TRIPOS>BOND
    1    1    2 1     
    2    1   25 1     
    3    1   26 1     
    4    1   27 1     
    5    2   10 1     
    6    2    3 2     
    7    3    4 1     
    8    4    9 ar    
    9    4    5 ar    
   10    5    6 ar    
   11    5   28 1     
   12    6    7 ar    
   13    6   29 1     
   14    7    8 ar    
   15    7   30 1     
   16    8    9 ar    
   17    8   31 1     
   18    9   10 1     
   19   10   11 1     
   20   11   12 1     
   21   11   32 1     
   22   11   33 1     
   23   12   13 1     
   24   12   14 1     
   25   12   34 1     
   26   13   35 1     
   27   14   15 1     
   28   14   36 1     
   29   14   37 1     
   30   15   16 1     
   31   16   24 ar    
   32   16   17 ar    
   33   17   18 ar    
   34   17   38 1     
   35   18   19 ar    
   36   18   39 1     
   37   19   20 1     
   38   19   23 ar    
   39   20   21 1     
   40   20   40 1     
   41   20   41 1     
   42   21   22 3     
   43   23   24 ar    
   44   23   42 1     
   45   24   43 1     
   46    3   44 1     
   47   13   45 1     
   48   13   46 1     
   49   15   47 1     
   50   15   48 1     
   51   22   49 1     
@<TRIPOS>SUBSTRUCTURE
      1 S1             1
@<TRIPOS>SET
LONE_PAIRS      STATIC     ATOMS    <user>   **** ""
6 44 45 46 47 48 49
DONOR_HYDROGENS      STATIC     ATOMS    <user>   **** ""
1 35
ATOM$BLUE        STATIC     ATOMS    COLORGROUP SYSTEM
6 44 45 46 47 48 49
ATOM$RED        STATIC     ATOMS    COLORGROUP SYSTEM
1 35
