AV-unprocessed.smi:3298|AV-procd|sdf|12641|dock3
  -GOLD-   2272018573D 1   1.00000     0.00000
 Structure written by MMmdl.
 35 36  0  0  0  0  0  0  0  0  1 V2000
  152.9046  141.8524  161.6293 C   0  0  0  0  0  0  0  0  0  0  0  0
  152.3196  142.8728  160.6753 C   0  0  0  0  0  0  0  0  0  0  0  0
  151.7002  142.4689  159.4737 C   0  0  0  0  0  0  0  0  0  0  0  0
  151.1815  143.4564  158.6105 C   0  0  0  0  0  0  0  0  0  0  0  0
  150.5461  143.0247  157.4148 N   0  0  0  0  0  0  0  0  0  0  0  0
  150.4929  141.7866  156.8937 C   0  0  0  0  0  0  0  0  0  0  0  0
  150.9616  140.7734  157.4125 O   0  0  0  0  0  0  0  0  0  0  0  0
  149.8365  141.7805  155.7248 N   0  0  0  0  0  0  0  0  0  0  0  0
  149.6006  140.5956  154.9073 C   0  0  1  0  0  0  0  0  0  0  0  0
  149.0678  139.4697  155.7499 C   0  0  0  0  0  0  0  0  0  0  0  0
  147.8794  139.0354  155.3367 C   0  0  0  0  0  0  0  0  0  0  0  0
  147.3576  139.7964  154.1464 C   0  0  2  0  0  0  0  0  0  0  0  0
  147.0198  138.8644  152.9711 C   0  0  0  0  0  0  0  0  0  0  0  0
  147.0267  139.5858  151.7576 O   0  0  0  0  0  0  0  0  0  0  0  0
  148.4939  140.8079  153.8411 C   0  0  0  0  0  0  0  0  0  0  0  0
  151.2866  144.8109  159.0076 C   0  0  0  0  0  0  0  0  0  0  0  0
  151.9224  145.1075  160.2296 C   0  0  0  0  0  0  0  0  0  0  0  0
  152.4335  144.1652  161.0498 N   0  0  0  0  0  0  0  0  0  0  0  0
  150.5317  140.2682  154.4412 H   0  0  0  0  0  0  0  0  0  0  0  0
  146.4599  140.3279  154.4656 H   0  0  0  0  0  0  0  0  0  0  0  0
  152.6675  140.8357  161.3152 H   0  0  0  0  0  0  0  0  0  0  0  0
  152.5074  141.9979  162.6344 H   0  0  0  0  0  0  0  0  0  0  0  0
  153.9895  141.9526  161.6701 H   0  0  0  0  0  0  0  0  0  0  0  0
  151.6309  141.4218  159.2166 H   0  0  0  0  0  0  0  0  0  0  0  0
  150.0331  143.7375  156.9176 H   0  0  0  0  0  0  0  0  0  0  0  0
  149.4790  142.6561  155.3718 H   0  0  0  0  0  0  0  0  0  0  0  0
  149.6185  139.0675  156.5876 H   0  0  0  0  0  0  0  0  0  0  0  0
  147.3185  138.2352  155.7963 H   0  0  0  0  0  0  0  0  0  0  0  0
  147.7330  138.0418  152.9071 H   0  0  0  0  0  0  0  0  0  0  0  0
  146.0307  138.4254  153.1052 H   0  0  0  0  0  0  0  0  0  0  0  0
  147.8571  139.4450  151.3289 H   0  0  0  0  0  0  0  0  0  0  0  0
  148.1046  141.8270  153.8528 H   0  0  0  0  0  0  0  0  0  0  0  0
  148.9089  140.6476  152.8452 H   0  0  0  0  0  0  0  0  0  0  0  0
  150.8856  145.6176  158.4138 H   0  0  0  0  0  0  0  0  0  0  0  0
  152.0166  146.1310  160.5605 H   0  0  0  0  0  0  0  0  0  0  0  0
  1  2  1  0  0  0  0
  1 21  1  0  0  0  0
  1 22  1  0  0  0  0
  1 23  1  0  0  0  0
  2 18  1  0  0  0  0
  2  3  2  0  0  0  0
  3  4  1  0  0  0  0
  3 24  1  0  0  0  0
  4  5  1  0  0  0  0
  4 16  2  0  0  0  0
  5  6  1  0  0  0  0
  5 25  1  0  0  0  0
  6  7  2  0  0  0  0
  6  8  1  0  0  0  0
  8  9  1  0  0  0  0
  8 26  1  0  0  0  0
  9 19  1  0  0  0  0
  9 15  1  0  0  0  0
  9 10  1  0  0  0  0
 10 11  2  0  0  0  0
 10 27  1  0  0  0  0
 11 12  1  0  0  0  0
 11 28  1  0  0  0  0
 12 20  1  0  0  0  0
 12 13  1  0  0  0  0
 12 15  1  0  0  0  0
 13 14  1  0  0  0  0
 13 29  1  0  0  0  0
 13 30  1  0  0  0  0
 14 31  1  0  0  0  0
 15 32  1  0  0  0  0
 15 33  1  0  0  0  0
 16 17  1  0  0  0  0
 16 34  1  0  0  0  0
 17 18  2  0  0  0  0
 17 35  1  0  0  0  0
M  END
> <s_m_source_file>
AV-unprocessed.smi

> <i_m_source_file_index>
3298

> <i_lp_mmshare_version>
43012

> <i_f3d_flags>
0

> <s_epik_input>
W0NIM11jMVtjSF1jKFtjSF1bY0hdbjEpW05IXUMoPU8pW05IXVtDQEBIXTJbQ0hdPVtDSF1bQ0BASF0oW0NIMl0yKVtDSDJdW09IXQ==

> <s_epik_cmdline>
J2VwaWtfcHl0aG9uJywgJy1waCcsICc3LjAnLCAnLXRuJywgJzgnLCAnLW1hJywgJzIwMCcsICctbWV0YWxfYmluZGluZycsICctaW1hZScsICc8aW5maWxlLm1hZT4nLCAnLW9tYWUnLCAnPG91dGZpbGUubWFlPic=

> <r_epik_Ionization_Penalty>
0.379275

> <r_epik_Ionization_Penalty_Charging>
0

> <r_epik_Ionization_Penalty_Neutral>
0.379275

> <r_epik_State_Penalty>
0.377195

> <r_epik_Charging_Adjusted_Penalty>
0.377195

> <i_epik_Tot_Q>
0

> <i_epik_Tot_abs_Q>
0

> <r_epik_Metal_State_Penalty>
0.22815

> <b_epik_Metal_Only>
0

> <s_lp_Force_Field>
OPLS_2005

> <r_lp_Energy>
21.1615

> <b_lp_Chiralities_Consistent>
1

> <s_lp_Variant>
AV-unprocessed.smi:3298-2

> <Gold.Version>
5.8.1

> <Gold.Id.Protein>
6NUR|6NUR_protein|mol2

> <Gold.PLP.Fitness>
47.3285

> <Gold.PLP.PLP>
-39.1432

> <Gold.PLP.part.hbond>
-3.3260

> <Gold.PLP.part.metal>
0.0000

> <Gold.PLP.part.buried>
-3.3429

> <Gold.PLP.part.nonpolar>
-31.9125

> <Gold.PLP.part.repulsive>
0.2839

> <Gold.PLP.ligand.clash>
0.0000

> <Gold.PLP.ligand.torsion>
0.3788

> <Gold.PLP.Chemscore.Hbond>
2.9760

> <Gold.PLP.Chemscore.CHOScore>
0.0000

> <Gold.PLP.Chemscore.Metal>
0.0000

> <Gold.Chemscore.Hbonds>
donor molecule, donor type, donor heavy atom, donor atom, acceptor molecule, acceptor atom, score
      L1  H     5    25       P1  8028  1.00
      L1  H     8    26       P1  8028  0.67
      L1  H    14    31       P1  7957  0.93

> <Gold.PLP.Chemscore.Internal.Correction>
0.0150

> <Gold.Rescore>
     Score         DG    S(hbond)    S(metal)    S(lipo)     H(rot)  DE(clash)    DE(int)     intcor
     18.42     -22.26       2.85        0.00     100.94       1.78       0.57       3.27       ----

> <Gold.Chemscore.Fitness>
18.4217

> <Gold.Chemscore.DG>
-22.2592

> <Gold.Chemscore.ZeroCoef>
-5.4800

> <Gold.Chemscore.Hbond>
2.8517

> <Gold.Chemscore.Metal>
0.0000

> <Gold.Chemscore.Lipo>
100.9437

> <Gold.Chemscore.Internal_Hbond>
0.0000

> <Gold.Chemscore.DEClash>
0.5654

> <Gold.Chemscore.DEInternal>
3.2721

> <Gold.Chemscore.Rot>
1.7796

> <Gold.Chemscore.Internal.Correction>
   9.000000E+99

> <Gold.Chemscore.Hbonds>
donor molecule, donor type, donor heavy atom, donor atom, acceptor molecule, acceptor atom, score
      L1  H     5    25       P1  8028  0.98
      L1  H     8    26       P1  8028  0.64
      L1  H    14    31       P1  7957  0.84

> <Gold.Chemscore.Hbond.Weighted>
-9.5246

> <Gold.Chemscore.Metal.Weighted>
-0.0000

> <Gold.Chemscore.Lipo.Weighted>
-11.8104

> <Gold.Chemscore.Internal_Hbond.Weighted>
0.0000

> <Gold.Chemscore.DEClash.Weighted>
0.5654

> <Gold.Chemscore.DEInternal.Weighted>
3.2721

> <Gold.Chemscore.Rot.Weighted>
4.5558

> <Gold.Chemscore.Internal.Correction.Weighted>
   9.000000E+99

> <Gold.Protein.RotatedTorsions>
[ 6907 6896 6895 6894 ] final -179.01 input  -60.11 | X-H torsion
[ 7974 7965 7964 7962 ] final -150.86 input  175.53 | X-H torsion
[ 8008 7997 7996 7995 ] final   44.41 input   59.86 | X-H torsion
[ 10167 10162 10161 10158 ] final   97.02 input  -65.29 | X-H torsion
[ 10718 10713 10712 10709 ] final   27.26 input   66.30 | X-H torsion
[ 10763 10752 10751 10750 ] final  -89.16 input  -60.55 | X-H torsion
[ 11005 11000 10999 10996 ] final -174.07 input  -57.11 | X-H torsion

> <Gold.Protein.ActiveResidues>
 VAL166  LYS551  ARG553  GLY616  TRP617  ASP618  TYR619  PRO620  LYS621  CYS622 
 ASP623  PHE694  ASN695  SER759  ASP760  ASP761  ALA762  ILE779  LEU786  VAL792 
 PHE793  MET794  SER795  GLU796  ALA797  LYS798  CYS799  TRP800  GLU811  SER814 

> <Gold.Protein.RotatedAtoms>
  151.6465  133.3323  159.3141 H   0  0  0  0  0  0  0  0  0  0  0  0  # atno 6907 bound_to 6896
  150.7982  134.7060  159.6586 H   0  0  0  0  0  0  0  0  0  0  0  0  # atno 6908 bound_to 6896
  152.4071  134.6192  160.0097 H   0  0  0  0  0  0  0  0  0  0  0  0  # atno 6909 bound_to 6896
  144.7883  140.4876  143.5790 H   0  0  0  0  0  0  0  0  0  0  0  0  # atno 7974 bound_to 7965
  155.3188  140.3395  155.4242 H   0  0  0  0  0  0  0  0  0  0  0  0  # atno 8008 bound_to 7997
  156.1919  140.1701  156.8112 H   0  0  0  0  0  0  0  0  0  0  0  0  # atno 8009 bound_to 7997
  154.5452  140.0716  156.8561 H   0  0  0  0  0  0  0  0  0  0  0  0  # atno 8010 bound_to 7997
  139.7839  144.6878  150.9984 H   0  0  0  0  0  0  0  0  0  0  0  0  # atno 10167 bound_to 10162
  157.2178  130.6964  149.6256 H   0  0  0  0  0  0  0  0  0  0  0  0  # atno 10718 bound_to 10713
  154.6523  135.5351  153.7917 H   0  0  0  0  0  0  0  0  0  0  0  0  # atno 10763 bound_to 10752
  153.0393  135.6485  154.0997 H   0  0  0  0  0  0  0  0  0  0  0  0  # atno 10764 bound_to 10752
  154.0913  135.2940  155.3251 H   0  0  0  0  0  0  0  0  0  0  0  0  # atno 10765 bound_to 10752
  140.4786  134.6097  157.4910 H   0  0  0  0  0  0  0  0  0  0  0  0  # atno 11005 bound_to 11000
  145.5862  139.1492  143.3208 LP  0  0  0  0  0  0  0  0  0  0  0  0  # atno 17320 bound_to 7965
  146.2125  140.5990  142.9053 LP  0  0  0  0  0  0  0  0  0  0  0  0  # atno 17321 bound_to 7965
  140.7819  143.4453  151.0492 LP  0  0  0  0  0  0  0  0  0  0  0  0  # atno 17342 bound_to 10162
  139.8132  143.7922  152.3172 LP  0  0  0  0  0  0  0  0  0  0  0  0  # atno 17343 bound_to 10162
  155.9685  130.4530  150.5794 LP  0  0  0  0  0  0  0  0  0  0  0  0  # atno 17370 bound_to 10713
  157.3607  131.0749  151.1639 LP  0  0  0  0  0  0  0  0  0  0  0  0  # atno 17371 bound_to 10713
  139.9840  134.7091  155.9807 LP  0  0  0  0  0  0  0  0  0  0  0  0  # atno 17394 bound_to 11000
  141.1542  133.6544  156.4109 LP  0  0  0  0  0  0  0  0  0  0  0  0  # atno 17395 bound_to 11000

$$$$
