AV-unprocessed.smi:2147|AV-procd|sdf|8743|dock1
  -GOLD-   2272011513D 1   1.00000     0.00000
 Structure written by MMmdl.
 41 43  0  0  0  0  0  0  0  0  1 V2000
  142.2946  146.4257  154.2622 C   0  0  0  0  0  0  0  0  0  0  0  0
  142.7595  145.4331  155.3264 C   0  0  0  0  0  0  0  0  0  0  0  0
  142.1513  145.3847  156.3952 O   0  0  0  0  0  0  0  0  0  0  0  0
  143.9345  144.5729  155.0087 C   0  0  0  0  0  0  0  0  0  0  0  0
  144.5364  144.5749  153.7291 C   0  0  0  0  0  0  0  0  0  0  0  0
  145.6432  143.7474  153.4594 C   0  0  0  0  0  0  0  0  0  0  0  0
  146.1743  142.9015  154.4527 C   0  0  0  0  0  0  0  0  0  0  0  0
  147.2558  142.1236  154.1000 O   0  0  0  0  0  0  0  0  0  0  0  0
  147.8007  141.2460  155.0766 C   0  0  0  0  0  0  0  0  0  0  0  0
  149.2915  141.0339  154.7766 C   0  0  1  0  0  0  0  0  0  0  0  0
  149.4600  140.9501  153.3753 O   0  0  0  0  0  0  0  0  0  0  0  0
  150.1722  142.1658  155.3412 C   0  0  0  0  0  0  0  0  0  0  0  0
  150.6244  141.8941  156.6938 N   0  0  0  0  0  0  0  0  0  0  0  0
  150.5556  140.7228  157.3555 C   0  0  0  0  0  0  0  0  0  0  0  0
  151.0294  140.6965  158.5980 N   0  0  0  0  0  0  0  0  0  0  0  0
  151.4608  142.0020  158.7602 C   0  0  0  0  0  0  0  0  0  0  0  0
  152.0687  142.6366  159.8670 C   0  0  0  0  0  0  0  0  0  0  0  0
  152.4281  143.9990  159.8008 C   0  0  0  0  0  0  0  0  0  0  0  0
  152.1857  144.7467  158.6299 C   0  0  0  0  0  0  0  0  0  0  0  0
  151.5807  144.1363  157.5144 C   0  0  0  0  0  0  0  0  0  0  0  0
  151.2233  142.7770  157.5850 C   0  0  0  0  0  0  0  0  0  0  0  0
  145.5742  142.8998  155.7356 C   0  0  0  0  0  0  0  0  0  0  0  0
  144.4667  143.7263  156.0069 C   0  0  0  0  0  0  0  0  0  0  0  0
  141.9917  145.9006  153.3560 H   0  0  0  0  0  0  0  0  0  0  0  0
  143.0956  147.1223  154.0141 H   0  0  0  0  0  0  0  0  0  0  0  0
  141.4421  147.0016  154.6232 H   0  0  0  0  0  0  0  0  0  0  0  0
  144.1645  145.2039  152.9343 H   0  0  0  0  0  0  0  0  0  0  0  0
  146.0893  143.7612  152.4757 H   0  0  0  0  0  0  0  0  0  0  0  0
  147.6849  141.6916  156.0662 H   0  0  0  0  0  0  0  0  0  0  0  0
  147.2783  140.2877  155.0732 H   0  0  0  0  0  0  0  0  0  0  0  0
  149.6050  140.0790  155.2006 H   0  0  0  0  0  0  0  0  0  0  0  0
  149.3742  140.0447  153.1178 H   0  0  0  0  0  0  0  0  0  0  0  0
  151.0447  142.3242  154.7055 H   0  0  0  0  0  0  0  0  0  0  0  0
  149.6202  143.1063  155.3518 H   0  0  0  0  0  0  0  0  0  0  0  0
  150.1287  139.8406  156.9009 H   0  0  0  0  0  0  0  0  0  0  0  0
  152.2585  142.0740  160.7690 H   0  0  0  0  0  0  0  0  0  0  0  0
  152.8924  144.4727  160.6532 H   0  0  0  0  0  0  0  0  0  0  0  0
  152.4646  145.7895  158.5888 H   0  0  0  0  0  0  0  0  0  0  0  0
  151.3932  144.7054  156.6158 H   0  0  0  0  0  0  0  0  0  0  0  0
  145.9441  142.2723  156.5322 H   0  0  0  0  0  0  0  0  0  0  0  0
  144.0306  143.7010  156.9952 H   0  0  0  0  0  0  0  0  0  0  0  0
  1  2  1  0  0  0  0
  1 24  1  0  0  0  0
  1 25  1  0  0  0  0
  1 26  1  0  0  0  0
  2  3  2  0  0  0  0
  2  4  1  0  0  0  0
  4 23  1  0  0  0  0
  4  5  2  0  0  0  0
  5  6  1  0  0  0  0
  5 27  1  0  0  0  0
  6  7  2  0  0  0  0
  6 28  1  0  0  0  0
  7  8  1  0  0  0  0
  7 22  1  0  0  0  0
  8  9  1  0  0  0  0
  9 10  1  0  0  0  0
  9 29  1  0  0  0  0
  9 30  1  0  0  0  0
 10 11  1  0  0  0  0
 10 12  1  0  0  0  0
 10 31  1  0  0  0  0
 11 32  1  0  0  0  0
 12 13  1  0  0  0  0
 12 33  1  0  0  0  0
 12 34  1  0  0  0  0
 13 21  1  0  0  0  0
 13 14  1  0  0  0  0
 14 15  2  0  0  0  0
 14 35  1  0  0  0  0
 15 16  1  0  0  0  0
 16 21  2  0  0  0  0
 16 17  1  0  0  0  0
 17 18  2  0  0  0  0
 17 36  1  0  0  0  0
 18 19  1  0  0  0  0
 18 37  1  0  0  0  0
 19 20  2  0  0  0  0
 19 38  1  0  0  0  0
 20 21  1  0  0  0  0
 20 39  1  0  0  0  0
 22 23  2  0  0  0  0
 22 40  1  0  0  0  0
 23 41  1  0  0  0  0
M  END
> <s_m_source_file>
AV-unprocessed.smi

> <i_m_source_file_index>
2147

> <i_lp_mmshare_version>
43012

> <i_f3d_flags>
0

> <s_epik_input>
W0NIM11DKD1PKWMxW2NIXVtjSF1jKFtjSF1bY0hdMSlPW0NIMl1bQ0BIXShbT0hdKVtDSDJdbihbY0hdbjIpYyhjMjMpW2NIXVtjSF1bY0hdW2NIXTM=

> <s_epik_cmdline>
J2VwaWtfcHl0aG9uJywgJy1waCcsICc3LjAnLCAnLXRuJywgJzgnLCAnLW1hJywgJzIwMCcsICctbWV0YWxfYmluZGluZycsICctaW1hZScsICc8aW5maWxlLm1hZT4nLCAnLW9tYWUnLCAnPG91dGZpbGUubWFlPic=

> <r_lp_tautomer_probability>
0.99995

> <r_epik_Ionization_Penalty>
0.0583018

> <r_epik_Ionization_Penalty_Charging>
0

> <r_epik_Ionization_Penalty_Neutral>
0.0583018

> <r_epik_State_Penalty>
0.0504087

> <r_epik_Charging_Adjusted_Penalty>
0.0504087

> <i_epik_Tot_Q>
0

> <i_epik_Tot_abs_Q>
0

> <r_epik_Metal_State_Penalty>
5.26129e-05

> <b_epik_Metal_Only>
0

> <s_lp_Force_Field>
OPLS_2005

> <r_lp_Energy>
19.4931

> <b_lp_Chiralities_Consistent>
1

> <s_lp_Variant>
AV-unprocessed.smi:2147-2

> <Gold.Version>
5.8.1

> <Gold.Id.Protein>
6NUR|6NUR_protein|mol2

> <Gold.PLP.Fitness>
53.1087

> <Gold.PLP.PLP>
-51.0438

> <Gold.PLP.part.hbond>
-2.5188

> <Gold.PLP.part.metal>
0.0000

> <Gold.PLP.part.buried>
-5.6649

> <Gold.PLP.part.nonpolar>
-43.7950

> <Gold.PLP.part.repulsive>
0.1599

> <Gold.PLP.ligand.clash>
0.0000

> <Gold.PLP.ligand.torsion>
0.9253

> <Gold.PLP.Chemscore.Hbond>
1.2059

> <Gold.PLP.Chemscore.CHOScore>
0.0000

> <Gold.PLP.Chemscore.Metal>
0.0000

> <Gold.Chemscore.Hbonds>
donor molecule, donor type, donor heavy atom, donor atom, acceptor molecule, acceptor atom, score
      L1  H    11    32       P1  7957  0.10
      P1  H  7989  7998       L1    11  0.10
      P1  H  8011  8017       L1    11  1.00

> <Gold.PLP.Chemscore.Internal.Correction>
0.2977

> <Gold.Rescore>
     Score         DG    S(hbond)    S(metal)    S(lipo)     H(rot)  DE(clash)    DE(int)     intcor
     16.10     -18.43       1.23        0.00     128.06       2.40       1.46       0.87       ----

> <Gold.Chemscore.Fitness>
16.0972

> <Gold.Chemscore.DG>
-18.4310

> <Gold.Chemscore.ZeroCoef>
-5.4800

> <Gold.Chemscore.Hbond>
1.2316

> <Gold.Chemscore.Metal>
0.0000

> <Gold.Chemscore.Lipo>
128.0561

> <Gold.Chemscore.Internal_Hbond>
0.0000

> <Gold.Chemscore.DEClash>
1.4606

> <Gold.Chemscore.DEInternal>
0.8732

> <Gold.Chemscore.Rot>
2.4005

> <Gold.Chemscore.Internal.Correction>
   9.000000E+99

> <Gold.Chemscore.Hbonds>
donor molecule, donor type, donor heavy atom, donor atom, acceptor molecule, acceptor atom, score
      L1  H    11    32       P1  7957  0.12
      P1  H  8011  8017       L1    11  0.98

> <Gold.Chemscore.Hbond.Weighted>
-4.1137

> <Gold.Chemscore.Metal.Weighted>
-0.0000

> <Gold.Chemscore.Lipo.Weighted>
-14.9826

> <Gold.Chemscore.Internal_Hbond.Weighted>
0.0000

> <Gold.Chemscore.DEClash.Weighted>
1.4606

> <Gold.Chemscore.DEInternal.Weighted>
0.8732

> <Gold.Chemscore.Rot.Weighted>
6.1453

> <Gold.Chemscore.Internal.Correction.Weighted>
   9.000000E+99

> <Gold.Protein.RotatedTorsions>
[ 6907 6896 6895 6894 ] final  144.09 input  -60.11 | X-H torsion
[ 7974 7965 7964 7962 ] final  168.74 input  175.53 | X-H torsion
[ 8008 7997 7996 7995 ] final  118.08 input   59.86 | X-H torsion
[ 10167 10162 10161 10158 ] final   22.70 input  -65.29 | X-H torsion
[ 10718 10713 10712 10709 ] final  102.25 input   66.30 | X-H torsion
[ 10763 10752 10751 10750 ] final   39.03 input  -60.55 | X-H torsion
[ 11005 11000 10999 10996 ] final  119.19 input  -57.11 | X-H torsion

> <Gold.Protein.ActiveResidues>
 VAL166  LYS551  ARG553  GLY616  TRP617  ASP618  TYR619  PRO620  LYS621  CYS622 
 ASP623  PHE694  ASN695  SER759  ASP760  ASP761  ALA762  ILE779  LEU786  VAL792 
 PHE793  MET794  SER795  GLU796  ALA797  LYS798  CYS799  TRP800  GLU811  SER814 

> <Gold.Protein.RotatedAtoms>
  152.1980  133.4821  159.5043 H   0  0  0  0  0  0  0  0  0  0  0  0  # atno 6907 bound_to 6896
  150.6964  134.1627  159.4191 H   0  0  0  0  0  0  0  0  0  0  0  0  # atno 6908 bound_to 6896
  151.9543  135.0154  160.0594 H   0  0  0  0  0  0  0  0  0  0  0  0  # atno 6909 bound_to 6896
  144.7378  139.8951  143.6406 H   0  0  0  0  0  0  0  0  0  0  0  0  # atno 7974 bound_to 7965
  156.2528  140.2882  156.0779 H   0  0  0  0  0  0  0  0  0  0  0  0  # atno 8008 bound_to 7997
  155.1599  140.0399  157.2857 H   0  0  0  0  0  0  0  0  0  0  0  0  # atno 8009 bound_to 7997
  154.6400  140.2520  155.7340 H   0  0  0  0  0  0  0  0  0  0  0  0  # atno 8010 bound_to 7997
  140.5327  143.9813  150.6474 H   0  0  0  0  0  0  0  0  0  0  0  0  # atno 10167 bound_to 10162
  157.6807  131.0748  150.5376 H   0  0  0  0  0  0  0  0  0  0  0  0  # atno 10718 bound_to 10713
  152.9980  135.6232  154.2400 H   0  0  0  0  0  0  0  0  0  0  0  0  # atno 10763 bound_to 10752
  154.2141  135.2798  155.2950 H   0  0  0  0  0  0  0  0  0  0  0  0  # atno 10764 bound_to 10752
  154.5582  135.5713  153.7042 H   0  0  0  0  0  0  0  0  0  0  0  0  # atno 10765 bound_to 10752
  139.9137  134.9626  156.7617 H   0  0  0  0  0  0  0  0  0  0  0  0  # atno 11005 bound_to 11000
  146.1113  139.4118  143.0286 LP  0  0  0  0  0  0  0  0  0  0  0  0  # atno 17320 bound_to 7965
  145.7439  140.9998  143.1286 LP  0  0  0  0  0  0  0  0  0  0  0  0  # atno 17321 bound_to 7965
  140.3192  143.3148  152.0801 LP  0  0  0  0  0  0  0  0  0  0  0  0  # atno 17342 bound_to 10162
  139.4960  144.6585  151.6519 LP  0  0  0  0  0  0  0  0  0  0  0  0  # atno 17343 bound_to 10162
  156.5684  130.4273  149.6031 LP  0  0  0  0  0  0  0  0  0  0  0  0  # atno 17370 bound_to 10713
  156.2762  130.7045  151.1856 LP  0  0  0  0  0  0  0  0  0  0  0  0  # atno 17371 bound_to 10713
  140.6692  133.9575  155.7847 LP  0  0  0  0  0  0  0  0  0  0  0  0  # atno 17394 bound_to 11000
  141.0589  134.0375  157.3685 LP  0  0  0  0  0  0  0  0  0  0  0  0  # atno 17395 bound_to 11000

$$$$
