AV-unprocessed.smi:2430|AV-procd|sdf|9583|dock4
  -GOLD-   2272013213D 1   1.00000     0.00000
 Structure written by MMmdl.
 46 47  0  0  0  0  0  0  0  0  1 V2000
  150.7265  144.7452  158.6167 C   0  0  0  0  0  0  0  0  0  0  0  0
  151.9642  144.0935  157.9746 C   0  0  2  0  0  0  0  0  0  0  0  0
  151.6201  143.1103  156.8378 C   0  0  0  0  0  0  0  0  0  0  0  0
  151.1086  141.8499  157.3687 N   0  0  0  0  0  0  0  0  0  0  0  0
  150.5075  140.9950  156.4205 C   0  0  0  0  0  0  0  0  0  0  0  0
  151.3105  140.1517  155.6176 C   0  0  0  0  0  0  0  0  0  0  0  0
  150.6947  139.3056  154.6756 C   0  0  0  0  0  0  0  0  0  0  0  0
  149.2864  139.3286  154.5534 C   0  0  0  0  0  0  0  0  0  0  0  0
  148.5500  138.5114  153.6550 N   0  0  0  0  0  0  0  0  0  0  0  0
  147.2192  138.4677  153.4735 C   0  0  0  0  0  0  0  0  0  0  0  0
  146.3961  139.1532  154.0798 O   0  0  0  0  0  0  0  0  0  0  0  0
  146.8851  137.5517  152.5535 N   0  0  0  0  0  0  0  0  0  0  0  0
  145.5203  137.2186  152.1624 C   0  0  0  0  0  0  0  0  0  0  0  0
  145.4935  136.0497  151.1645 C   0  0  0  0  0  0  0  0  0  0  0  0
  144.0972  135.4300  151.0248 C   0  0  0  0  0  0  0  0  0  0  0  0
  143.9588  134.8467  149.7475 O   0  0  0  0  0  0  0  0  0  0  0  0
  148.5702  140.1919  155.4056 C   0  0  0  0  0  0  0  0  0  0  0  0
  149.1568  141.0072  156.3068 N   0  0  0  0  0  0  0  0  0  0  0  0
  151.9840  141.2521  158.3728 C   0  0  0  0  0  0  0  0  0  0  0  0
  152.2717  142.2591  159.5001 C   0  0  1  0  0  0  0  0  0  0  0  0
  153.2873  141.7135  160.5093 C   0  0  0  0  0  0  0  0  0  0  0  0
  152.8039  143.4600  158.9425 O   0  0  0  0  0  0  0  0  0  0  0  0
  150.1776  145.3355  157.8828 H   0  0  0  0  0  0  0  0  0  0  0  0
  151.0155  145.4138  159.4279 H   0  0  0  0  0  0  0  0  0  0  0  0
  150.0333  144.0078  159.0206 H   0  0  0  0  0  0  0  0  0  0  0  0
  152.5561  144.9013  157.5435 H   0  0  0  0  0  0  0  0  0  0  0  0
  150.9160  143.5807  156.1525 H   0  0  0  0  0  0  0  0  0  0  0  0
  152.5191  142.8930  156.2595 H   0  0  0  0  0  0  0  0  0  0  0  0
  152.3867  140.1516  155.7068 H   0  0  0  0  0  0  0  0  0  0  0  0
  151.3106  138.6520  154.0777 H   0  0  0  0  0  0  0  0  0  0  0  0
  149.0912  137.8267  153.1481 H   0  0  0  0  0  0  0  0  0  0  0  0
  147.6263  137.0333  152.1052 H   0  0  0  0  0  0  0  0  0  0  0  0
  144.9210  136.9844  153.0440 H   0  0  0  0  0  0  0  0  0  0  0  0
  145.0727  138.1038  151.7100 H   0  0  0  0  0  0  0  0  0  0  0  0
  145.8362  136.3981  150.1889 H   0  0  0  0  0  0  0  0  0  0  0  0
  146.1981  135.2795  151.4824 H   0  0  0  0  0  0  0  0  0  0  0  0
  143.9386  134.6646  151.7849 H   0  0  0  0  0  0  0  0  0  0  0  0
  143.3233  136.1872  151.1552 H   0  0  0  0  0  0  0  0  0  0  0  0
  143.0395  134.7067  149.5787 H   0  0  0  0  0  0  0  0  0  0  0  0
  147.4917  140.2371  155.3609 H   0  0  0  0  0  0  0  0  0  0  0  0
  151.5185  140.3600  158.7944 H   0  0  0  0  0  0  0  0  0  0  0  0
  152.9154  140.9412  157.8973 H   0  0  0  0  0  0  0  0  0  0  0  0
  151.3491  142.4802  160.0373 H   0  0  0  0  0  0  0  0  0  0  0  0
  152.9255  140.7957  160.9733 H   0  0  0  0  0  0  0  0  0  0  0  0
  153.4734  142.4364  161.3039 H   0  0  0  0  0  0  0  0  0  0  0  0
  154.2411  141.4925  160.0291 H   0  0  0  0  0  0  0  0  0  0  0  0
  1  2  1  0  0  0  0
  1 23  1  0  0  0  0
  1 24  1  0  0  0  0
  1 25  1  0  0  0  0
  2 22  1  0  0  0  0
  2  3  1  0  0  0  0
  2 26  1  0  0  0  0
  3  4  1  0  0  0  0
  3 27  1  0  0  0  0
  3 28  1  0  0  0  0
  4  5  1  0  0  0  0
  4 19  1  0  0  0  0
  5 18  1  0  0  0  0
  5  6  2  0  0  0  0
  6  7  1  0  0  0  0
  6 29  1  0  0  0  0
  7  8  2  0  0  0  0
  7 30  1  0  0  0  0
  8  9  1  0  0  0  0
  8 17  1  0  0  0  0
  9 10  1  0  0  0  0
  9 31  1  0  0  0  0
 10 11  2  0  0  0  0
 10 12  1  0  0  0  0
 12 13  1  0  0  0  0
 12 32  1  0  0  0  0
 13 14  1  0  0  0  0
 13 33  1  0  0  0  0
 13 34  1  0  0  0  0
 14 15  1  0  0  0  0
 14 35  1  0  0  0  0
 14 36  1  0  0  0  0
 15 16  1  0  0  0  0
 15 37  1  0  0  0  0
 15 38  1  0  0  0  0
 16 39  1  0  0  0  0
 17 18  2  0  0  0  0
 17 40  1  0  0  0  0
 19 20  1  0  0  0  0
 19 41  1  0  0  0  0
 19 42  1  0  0  0  0
 20 21  1  0  0  0  0
 20 22  1  0  0  0  0
 20 43  1  0  0  0  0
 21 44  1  0  0  0  0
 21 45  1  0  0  0  0
 21 46  1  0  0  0  0
M  END
> <s_m_source_file>
AV-unprocessed.smi

> <i_m_source_file_index>
2430

> <i_lp_mmshare_version>
43012

> <i_f3d_flags>
0

> <s_epik_input>
W0NIM11bQ0BASF0xW0NIMl1OKFtDSDJdW0NASF0oTzEpW0NIM10pYzJbY0hdW2NIXWMoW2NIXW4yKVtOSF1DKD1PKVtOSF1bQ0gyXVtDSDJdW0NIMl1bT0hd

> <s_epik_cmdline>
J2VwaWtfcHl0aG9uJywgJy1waCcsICc3LjAnLCAnLXRuJywgJzgnLCAnLW1hJywgJzIwMCcsICctbWV0YWxfYmluZGluZycsICctaW1hZScsICc8aW5maWxlLm1hZT4nLCAnLW9tYWUnLCAnPG91dGZpbGUubWFlPic=

> <r_lp_tautomer_probability>
1

> <r_epik_Ionization_Penalty>
0.00269907

> <r_epik_Ionization_Penalty_Charging>
0

> <r_epik_Ionization_Penalty_Neutral>
0.00269907

> <r_epik_State_Penalty>
0.00185337

> <r_epik_Charging_Adjusted_Penalty>
0.00185337

> <i_epik_Tot_Q>
0

> <i_epik_Tot_abs_Q>
0

> <r_epik_Metal_State_Penalty>
-0

> <b_epik_Metal_Only>
0

> <s_lp_Force_Field>
OPLS_2005

> <r_lp_Energy>
20.8666

> <b_lp_Chiralities_Consistent>
1

> <s_lp_Variant>
AV-unprocessed.smi:2430-1

> <Gold.Version>
5.8.1

> <Gold.Id.Protein>
6NUR|6NUR_protein|mol2

> <Gold.PLP.Fitness>
49.6278

> <Gold.PLP.PLP>
-41.7571

> <Gold.PLP.part.hbond>
-4.6887

> <Gold.PLP.part.metal>
0.0000

> <Gold.PLP.part.buried>
-5.7446

> <Gold.PLP.part.nonpolar>
-33.5214

> <Gold.PLP.part.repulsive>
0.3344

> <Gold.PLP.ligand.clash>
0.0000

> <Gold.PLP.ligand.torsion>
0.5625

> <Gold.PLP.Chemscore.Hbond>
2.8873

> <Gold.PLP.Chemscore.CHOScore>
0.0000

> <Gold.PLP.Chemscore.Metal>
0.0000

> <Gold.Chemscore.Hbonds>
donor molecule, donor type, donor heavy atom, donor atom, acceptor molecule, acceptor atom, score
      L1  H     9    31       P1  7948  0.90
      L1  H    12    32       P1  7948  1.00
      L1  H    16    39       P1 10186  0.98

> <Gold.PLP.Chemscore.Internal.Correction>
0.3339

> <Gold.Rescore>
     Score         DG    S(hbond)    S(metal)    S(lipo)     H(rot)  DE(clash)    DE(int)     intcor
     17.92     -21.24       2.88        0.00     103.60       2.33       1.43       1.89       ----

> <Gold.Chemscore.Fitness>
17.9231

> <Gold.Chemscore.DG>
-21.2422

> <Gold.Chemscore.ZeroCoef>
-5.4800

> <Gold.Chemscore.Hbond>
2.8794

> <Gold.Chemscore.Metal>
0.0000

> <Gold.Chemscore.Lipo>
103.6042

> <Gold.Chemscore.Internal_Hbond>
0.0000

> <Gold.Chemscore.DEClash>
1.4328

> <Gold.Chemscore.DEInternal>
1.8864

> <Gold.Chemscore.Rot>
2.3346

> <Gold.Chemscore.Internal.Correction>
   9.000000E+99

> <Gold.Chemscore.Hbonds>
donor molecule, donor type, donor heavy atom, donor atom, acceptor molecule, acceptor atom, score
      L1  H     9    31       P1  7948  0.82
      L1  H    12    32       P1  7948  0.95
      L1  H    16    39       P1 10186  0.83

> <Gold.Chemscore.Hbond.Weighted>
-9.6171

> <Gold.Chemscore.Metal.Weighted>
-0.0000

> <Gold.Chemscore.Lipo.Weighted>
-12.1217

> <Gold.Chemscore.Internal_Hbond.Weighted>
0.0000

> <Gold.Chemscore.DEClash.Weighted>
1.4328

> <Gold.Chemscore.DEInternal.Weighted>
1.8864

> <Gold.Chemscore.Rot.Weighted>
5.9766

> <Gold.Chemscore.Internal.Correction.Weighted>
   9.000000E+99

> <Gold.Protein.RotatedTorsions>
[ 6907 6896 6895 6894 ] final -114.75 input  -60.11 | X-H torsion
[ 7974 7965 7964 7962 ] final   48.98 input  175.53 | X-H torsion
[ 8008 7997 7996 7995 ] final   16.42 input   59.86 | X-H torsion
[ 10167 10162 10161 10158 ] final   30.99 input  -65.29 | X-H torsion
[ 10718 10713 10712 10709 ] final  -45.02 input   66.30 | X-H torsion
[ 10763 10752 10751 10750 ] final    5.22 input  -60.55 | X-H torsion
[ 11005 11000 10999 10996 ] final  164.66 input  -57.11 | X-H torsion

> <Gold.Protein.ActiveResidues>
 VAL166  LYS551  ARG553  GLY616  TRP617  ASP618  TYR619  PRO620  LYS621  CYS622 
 ASP623  PHE694  ASN695  SER759  ASP760  ASP761  ALA762  ILE779  LEU786  VAL792 
 PHE793  MET794  SER795  GLU796  ALA797  LYS798  CYS799  TRP800  GLU811  SER814 

> <Gold.Protein.RotatedAtoms>
  150.7925  133.8757  159.3271 H   0  0  0  0  0  0  0  0  0  0  0  0  # atno 6907 bound_to 6896
  151.6591  135.0990  160.0185 H   0  0  0  0  0  0  0  0  0  0  0  0  # atno 6908 bound_to 6896
  152.4002  133.6767  159.6345 H   0  0  0  0  0  0  0  0  0  0  0  0  # atno 6909 bound_to 6896
  146.0152  139.4588  142.9931 H   0  0  0  0  0  0  0  0  0  0  0  0  # atno 7974 bound_to 7965
  154.8767  140.2967  155.5449 H   0  0  0  0  0  0  0  0  0  0  0  0  # atno 8008 bound_to 7997
  156.3022  140.2450  156.3697 H   0  0  0  0  0  0  0  0  0  0  0  0  # atno 8009 bound_to 7997
  154.8760  140.0399  157.1742 H   0  0  0  0  0  0  0  0  0  0  0  0  # atno 8010 bound_to 7997
  140.4629  144.0879  150.6217 H   0  0  0  0  0  0  0  0  0  0  0  0  # atno 10167 bound_to 10162
  156.2326  130.4173  149.8856 H   0  0  0  0  0  0  0  0  0  0  0  0  # atno 10718 bound_to 10713
  153.2620  135.6924  153.7569 H   0  0  0  0  0  0  0  0  0  0  0  0  # atno 10763 bound_to 10752
  153.6624  135.3358  155.3132 H   0  0  0  0  0  0  0  0  0  0  0  0  # atno 10764 bound_to 10752
  154.8433  135.4480  154.1613 H   0  0  0  0  0  0  0  0  0  0  0  0  # atno 10765 bound_to 10752
  140.2482  134.7998  157.3476 H   0  0  0  0  0  0  0  0  0  0  0  0  # atno 11005 bound_to 11000
  145.7279  141.0052  143.1367 LP  0  0  0  0  0  0  0  0  0  0  0  0  # atno 17320 bound_to 7965
  144.6968  139.8949  143.7455 LP  0  0  0  0  0  0  0  0  0  0  0  0  # atno 17321 bound_to 7965
  140.4071  143.2675  151.9877 LP  0  0  0  0  0  0  0  0  0  0  0  0  # atno 17342 bound_to 10162
  139.4808  144.5947  151.7711 LP  0  0  0  0  0  0  0  0  0  0  0  0  # atno 17343 bound_to 10162
  156.6465  130.8726  151.3523 LP  0  0  0  0  0  0  0  0  0  0  0  0  # atno 17370 bound_to 10713
  157.7140  130.9474  150.1188 LP  0  0  0  0  0  0  0  0  0  0  0  0  # atno 17371 bound_to 10713
  140.1584  134.4759  155.7911 LP  0  0  0  0  0  0  0  0  0  0  0  0  # atno 17394 bound_to 11000
  141.2204  133.6891  156.7502 LP  0  0  0  0  0  0  0  0  0  0  0  0  # atno 17395 bound_to 11000

$$$$
