AV-unprocessed.smi:2143|AV-procd|sdf|8724|dock2
  -GOLD-   2272011493D 1   1.00000     0.00000
 Structure written by MMmdl.
 44 45  0  0  0  0  0  0  0  0  1 V2000
  153.2438  142.5290  162.5066 C   0  0  0  0  0  0  0  0  0  0  0  0
  153.0160  143.3739  161.2391 C   0  0  2  0  0  0  0  0  0  0  0  0
  152.0950  144.5643  161.5740 C   0  0  0  0  0  0  0  0  0  0  0  0
  151.8604  145.4641  160.3563 C   0  0  0  0  0  0  0  0  0  0  0  0
  151.2691  144.6575  159.1971 C   0  0  0  0  0  0  0  0  0  0  0  0
  152.1720  143.4653  158.8231 C   0  0  2  0  0  0  0  0  0  0  0  0
  151.5424  142.7067  157.7435 N   0  0  0  0  0  0  0  0  0  0  0  0
  150.2745  142.2683  157.7373 C   0  0  0  0  0  0  0  0  0  0  0  0
  149.4792  142.4841  158.6528 O   0  0  0  0  0  0  0  0  0  0  0  0
  149.8399  141.4787  156.4955 C   0  0  0  0  0  0  0  0  0  0  0  0
  150.5715  140.2150  156.3401 N   0  0  0  0  0  0  0  0  0  0  0  0
  151.0769  139.5717  157.4552 C   0  0  0  0  0  0  0  0  0  0  0  0
  151.7774  138.4180  157.3959 C   0  0  0  0  0  0  0  0  0  0  0  0
  152.0446  137.7686  156.1182 C   0  0  0  0  0  0  0  0  0  0  0  0
  152.6961  136.7284  156.0181 O   0  0  0  0  0  0  0  0  0  0  0  0
  151.5031  138.4392  154.9951 N   0  0  0  0  0  0  0  0  0  0  0  0
  151.7300  137.8824  153.6775 C   0  0  0  0  0  0  0  0  0  0  0  0
  150.7841  139.6533  155.0626 C   0  0  0  0  0  0  0  0  0  0  0  0
  150.3585  140.2158  154.0505 O   0  0  0  0  0  0  0  0  0  0  0  0
  152.4547  142.5494  160.0453 C   0  0  1  0  0  0  0  0  0  0  0  0
  153.3896  141.3823  159.6587 C   0  0  0  0  0  0  0  0  0  0  0  0
  152.3306  142.0170  162.8114 H   0  0  0  0  0  0  0  0  0  0  0  0
  153.5659  143.1541  163.3400 H   0  0  0  0  0  0  0  0  0  0  0  0
  154.0203  141.7786  162.3619 H   0  0  0  0  0  0  0  0  0  0  0  0
  153.9836  143.7816  160.9416 H   0  0  0  0  0  0  0  0  0  0  0  0
  151.1367  144.1976  161.9449 H   0  0  0  0  0  0  0  0  0  0  0  0
  152.5288  145.1578  162.3795 H   0  0  0  0  0  0  0  0  0  0  0  0
  151.1891  146.2814  160.6210 H   0  0  0  0  0  0  0  0  0  0  0  0
  152.8010  145.9219  160.0470 H   0  0  0  0  0  0  0  0  0  0  0  0
  150.2766  144.2985  159.4736 H   0  0  0  0  0  0  0  0  0  0  0  0
  151.1308  145.3121  158.3357 H   0  0  0  0  0  0  0  0  0  0  0  0
  153.1291  143.8547  158.4703 H   0  0  0  0  0  0  0  0  0  0  0  0
  152.1218  142.4878  156.9460 H   0  0  0  0  0  0  0  0  0  0  0  0
  148.7694  141.2843  156.5740 H   0  0  0  0  0  0  0  0  0  0  0  0
  149.9637  142.0919  155.6008 H   0  0  0  0  0  0  0  0  0  0  0  0
  150.9109  140.0157  158.4260 H   0  0  0  0  0  0  0  0  0  0  0  0
  152.1490  137.9715  158.3064 H   0  0  0  0  0  0  0  0  0  0  0  0
  150.8052  137.9658  153.1041 H   0  0  0  0  0  0  0  0  0  0  0  0
  151.9947  136.8272  153.7464 H   0  0  0  0  0  0  0  0  0  0  0  0
  152.5357  138.4613  153.2239 H   0  0  0  0  0  0  0  0  0  0  0  0
  151.5040  142.1158  160.3603 H   0  0  0  0  0  0  0  0  0  0  0  0
  154.3794  141.7464  159.3812 H   0  0  0  0  0  0  0  0  0  0  0  0
  153.0012  140.8111  158.8158 H   0  0  0  0  0  0  0  0  0  0  0  0
  153.5108  140.6716  160.4750 H   0  0  0  0  0  0  0  0  0  0  0  0
  1  2  1  0  0  0  0
  1 22  1  0  0  0  0
  1 23  1  0  0  0  0
  1 24  1  0  0  0  0
  2 20  1  0  0  0  0
  2  3  1  0  0  0  0
  2 25  1  0  0  0  0
  3  4  1  0  0  0  0
  3 26  1  0  0  0  0
  3 27  1  0  0  0  0
  4  5  1  0  0  0  0
  4 28  1  0  0  0  0
  4 29  1  0  0  0  0
  5  6  1  0  0  0  0
  5 30  1  0  0  0  0
  5 31  1  0  0  0  0
  6  7  1  0  0  0  0
  6 20  1  0  0  0  0
  6 32  1  0  0  0  0
  7  8  1  0  0  0  0
  7 33  1  0  0  0  0
  8  9  2  0  0  0  0
  8 10  1  0  0  0  0
 10 11  1  0  0  0  0
 10 34  1  0  0  0  0
 10 35  1  0  0  0  0
 11 18  1  0  0  0  0
 11 12  1  0  0  0  0
 12 13  2  0  0  0  0
 12 36  1  0  0  0  0
 13 14  1  0  0  0  0
 13 37  1  0  0  0  0
 14 15  2  0  0  0  0
 14 16  1  0  0  0  0
 16 17  1  0  0  0  0
 16 18  1  0  0  0  0
 17 38  1  0  0  0  0
 17 39  1  0  0  0  0
 17 40  1  0  0  0  0
 18 19  2  0  0  0  0
 20 21  1  0  0  0  0
 20 41  1  0  0  0  0
 21 42  1  0  0  0  0
 21 43  1  0  0  0  0
 21 44  1  0  0  0  0
M  END
> <s_m_source_file>
AV-unprocessed.smi

> <i_m_source_file_index>
2143

> <i_lp_mmshare_version>
43012

> <i_f3d_flags>
0

> <s_epik_input>
W0NIM11bQ0BASF0xW0NIMl1bQ0gyXVtDSDJdW0NASF0oW0NASF0xW0NIM10pW05IXUMoPU8pW0NIMl1uMltjSF1bY0hdYyg9TyluKFtDSDNdKWMyPU8=

> <s_epik_cmdline>
J2VwaWtfcHl0aG9uJywgJy1waCcsICc3LjAnLCAnLXRuJywgJzgnLCAnLW1hJywgJzIwMCcsICctbWV0YWxfYmluZGluZycsICctaW1hZScsICc8aW5maWxlLm1hZT4nLCAnLW9tYWUnLCAnPG91dGZpbGUubWFlPic=

> <r_lp_tautomer_probability>
1

> <r_epik_Ionization_Penalty>
3.18445e-08

> <r_epik_Ionization_Penalty_Charging>
1.27977e-08

> <r_epik_Ionization_Penalty_Neutral>
1.90469e-08

> <r_epik_State_Penalty>
-0

> <r_epik_Charging_Adjusted_Penalty>
1.27977e-08

> <i_epik_Tot_Q>
0

> <i_epik_Tot_abs_Q>
0

> <r_epik_Metal_State_Penalty>
-0

> <b_epik_Metal_Only>
0

> <s_lp_Force_Field>
OPLS_2005

> <r_lp_Energy>
20.5946

> <b_lp_Chiralities_Consistent>
1

> <s_lp_Variant>
AV-unprocessed.smi:2143-3

> <Gold.Version>
5.8.1

> <Gold.Id.Protein>
6NUR|6NUR_protein|mol2

> <Gold.PLP.Fitness>
49.1312

> <Gold.PLP.PLP>
-44.1295

> <Gold.PLP.part.hbond>
-2.0570

> <Gold.PLP.part.metal>
0.0000

> <Gold.PLP.part.buried>
-3.0216

> <Gold.PLP.part.nonpolar>
-38.7951

> <Gold.PLP.part.repulsive>
0.8141

> <Gold.PLP.ligand.clash>
0.0000

> <Gold.PLP.ligand.torsion>
0.5042

> <Gold.PLP.Chemscore.Hbond>
2.0000

> <Gold.PLP.Chemscore.CHOScore>
0.0000

> <Gold.PLP.Chemscore.Metal>
0.0000

> <Gold.Chemscore.Hbonds>
donor molecule, donor type, donor heavy atom, donor atom, acceptor molecule, acceptor atom, score
      P1  H  7989  7998       L1    19  0.97
      P1  H 10752 10764       L1    15  0.85

> <Gold.PLP.Chemscore.Internal.Correction>
0.0102

> <Gold.Rescore>
     Score         DG    S(hbond)    S(metal)    S(lipo)     H(rot)  DE(clash)    DE(int)     intcor
     18.33     -21.31       1.91        0.00     114.02       1.51       1.01       1.97       ----

> <Gold.Chemscore.Fitness>
18.3301

> <Gold.Chemscore.DG>
-21.3139

> <Gold.Chemscore.ZeroCoef>
-5.4800

> <Gold.Chemscore.Hbond>
1.9063

> <Gold.Chemscore.Metal>
0.0000

> <Gold.Chemscore.Lipo>
114.0200

> <Gold.Chemscore.Internal_Hbond>
0.0000

> <Gold.Chemscore.DEClash>
1.0108

> <Gold.Chemscore.DEInternal>
1.9731

> <Gold.Chemscore.Rot>
1.5131

> <Gold.Chemscore.Internal.Correction>
   9.000000E+99

> <Gold.Chemscore.Hbonds>
donor molecule, donor type, donor heavy atom, donor atom, acceptor molecule, acceptor atom, score
      P1  H  7989  7998       L1    19  0.34
      P1  H 10752 10764       L1    15  0.83

> <Gold.Chemscore.Hbond.Weighted>
-6.3670

> <Gold.Chemscore.Metal.Weighted>
-0.0000

> <Gold.Chemscore.Lipo.Weighted>
-13.3403

> <Gold.Chemscore.Internal_Hbond.Weighted>
0.0000

> <Gold.Chemscore.DEClash.Weighted>
1.0108

> <Gold.Chemscore.DEInternal.Weighted>
1.9731

> <Gold.Chemscore.Rot.Weighted>
3.8734

> <Gold.Chemscore.Internal.Correction.Weighted>
   9.000000E+99

> <Gold.Protein.RotatedTorsions>
[ 6907 6896 6895 6894 ] final   23.92 input  -60.11 | X-H torsion
[ 7974 7965 7964 7962 ] final -115.08 input  175.53 | X-H torsion
[ 8008 7997 7996 7995 ] final -179.14 input   59.86 | X-H torsion
[ 10167 10162 10161 10158 ] final  134.55 input  -65.29 | X-H torsion
[ 10718 10713 10712 10709 ] final -161.18 input   66.30 | X-H torsion
[ 10763 10752 10751 10750 ] final  -33.43 input  -60.55 | X-H torsion
[ 11005 11000 10999 10996 ] final  -98.72 input  -57.11 | X-H torsion

> <Gold.Protein.ActiveResidues>
 VAL166  LYS551  ARG553  GLY616  TRP617  ASP618  TYR619  PRO620  LYS621  CYS622 
 ASP623  PHE694  ASN695  SER759  ASP760  ASP761  ALA762  ILE779  LEU786  VAL792 
 PHE793  MET794  SER795  GLU796  ALA797  LYS798  CYS799  TRP800  GLU811  SER814 

> <Gold.Protein.RotatedAtoms>
  151.9497  135.0175  160.0540 H   0  0  0  0  0  0  0  0  0  0  0  0  # atno 6907 bound_to 6896
  152.1964  133.4805  159.5043 H   0  0  0  0  0  0  0  0  0  0  0  0  # atno 6908 bound_to 6896
  150.6945  134.1564  159.4202 H   0  0  0  0  0  0  0  0  0  0  0  0  # atno 6909 bound_to 6896
  145.1126  140.8621  143.3861 H   0  0  0  0  0  0  0  0  0  0  0  0  # atno 7974 bound_to 7965
  156.0270  140.1273  157.0298 H   0  0  0  0  0  0  0  0  0  0  0  0  # atno 8008 bound_to 7997
  154.4334  140.1057  156.6115 H   0  0  0  0  0  0  0  0  0  0  0  0  # atno 8009 bound_to 7997
  155.5862  140.3468  155.4556 H   0  0  0  0  0  0  0  0  0  0  0  0  # atno 8010 bound_to 7997
  139.5252  144.6562  151.5155 H   0  0  0  0  0  0  0  0  0  0  0  0  # atno 10167 bound_to 10162
  156.5926  130.8776  151.2894 H   0  0  0  0  0  0  0  0  0  0  0  0  # atno 10718 bound_to 10713
  153.8302  135.6867  153.4815 H   0  0  0  0  0  0  0  0  0  0  0  0  # atno 10763 bound_to 10752
  153.1516  135.4616  154.9642 H   0  0  0  0  0  0  0  0  0  0  0  0  # atno 10764 bound_to 10752
  154.7890  135.3295  154.7765 H   0  0  0  0  0  0  0  0  0  0  0  0  # atno 10765 bound_to 10752
  141.1335  133.8266  157.0876 H   0  0  0  0  0  0  0  0  0  0  0  0  # atno 11005 bound_to 11000
  145.0829  139.2946  143.5774 LP  0  0  0  0  0  0  0  0  0  0  0  0  # atno 17320 bound_to 7965
  146.3525  140.0342  142.8648 LP  0  0  0  0  0  0  0  0  0  0  0  0  # atno 17321 bound_to 7965
  140.6388  143.8930  150.6672 LP  0  0  0  0  0  0  0  0  0  0  0  0  # atno 17342 bound_to 10162
  140.2258  143.3774  152.1606 LP  0  0  0  0  0  0  0  0  0  0  0  0  # atno 17343 bound_to 10162
  157.7300  130.9679  150.1812 LP  0  0  0  0  0  0  0  0  0  0  0  0  # atno 17370 bound_to 10713
  156.2537  130.3703  149.8205 LP  0  0  0  0  0  0  0  0  0  0  0  0  # atno 17371 bound_to 10713
  140.0412  134.9853  157.0965 LP  0  0  0  0  0  0  0  0  0  0  0  0  # atno 17394 bound_to 11000
  140.4132  134.1959  155.7163 LP  0  0  0  0  0  0  0  0  0  0  0  0  # atno 17395 bound_to 11000

$$$$
