#       Name:                AV-unprocessed.smi:2136
#       Creating user name   scv26
#       Creation time:       Fri Mar 27 11:46:29 2020


#       File generated by GOLD software.
#

@<TRIPOS>MOLECULE
AV-unprocessed.smi:2136
    45    46     1
SMALL
NO_CHARGES


@<TRIPOS>ATOM
      1 ****        -0.7527   3.4014   0.9332 C.3            1 S1                 0.0000
      2 ****        -2.0690   2.3710   1.7068 S.o2           1 S1                 0.0000
      3 ****        -1.4492   1.3948   2.6163 O.2            1 S1                 0.0000
      4 ****        -3.0825   3.3016   2.2278 O.2            1 S1                 0.0000
      5 ****        -2.7731   1.5052   0.3574 N.pl3          1 S1                 0.0000
      6 ****        -4.2482   1.6052   0.2345 C.3            1 S1                 0.0000
      7 ****        -4.7825   1.1146  -1.1173 C.3            1 S1                 0.0000
      8 ****        -4.2933  -0.2972  -1.4157 C.3            1 S1                 0.0000
      9 ****        -2.7682  -0.2720  -1.4346 C.3            1 S1                 0.0000
     10 ****        -2.1702   0.2094  -0.0897 C.3            1 S1                 0.0000
     11 ****        -0.6372   0.1960  -0.2140 C.2            1 S1                 0.0000
     12 ****        -0.0823   0.8003  -1.1328 O.2            1 S1                 0.0000
     13 ****         0.0381  -0.4966   0.7165 N.am           1 S1                 0.0000
     14 ****         1.4891  -0.6150   0.7833 C.3            1 S1                 0.0000
     15 ****         2.0248  -1.6274  -0.2434 C.3            1 S1                 0.0000
     16 ****         3.5319  -1.7775  -0.1704 C.ar           1 S1                 0.0000
     17 ****         4.3770  -0.7984  -0.7381 C.ar           1 S1                 0.0000
     18 ****         5.7757  -0.9604  -0.6565 C.ar           1 S1                 0.0000
     19 ****         6.2982  -2.0997  -0.0109 C.ar           1 S1                 0.0000
     20 ****         5.4587  -3.0162   0.5194 N.pl3          1 S1                 1.0000
     21 ****         4.1138  -2.8967   0.4638 C.ar           1 S1                 0.0000
     22 ****        -0.3769   4.1110   1.6699 H              1 S1                 0.0000
     23 ****        -1.1676   3.9485   0.0871 H              1 S1                 0.0000
     24 ****         0.0741   2.7795   0.5981 H              1 S1                 0.0000
     25 ****        -4.7037   1.0361   1.0458 H              1 S1                 0.0000
     26 ****        -4.5589   2.6420   0.3620 H              1 S1                 0.0000
     27 ****        -5.8726   1.1369  -1.1132 H              1 S1                 0.0000
     28 ****        -4.4626   1.7938  -1.9088 H              1 S1                 0.0000
     29 ****        -4.6559  -0.9959  -0.6609 H              1 S1                 0.0000
     30 ****        -4.6787  -0.6359  -2.3778 H              1 S1                 0.0000
     31 ****        -2.3985  -1.2710  -1.6706 H              1 S1                 0.0000
     32 ****        -2.4392   0.3742  -2.2505 H              1 S1                 0.0000
     33 ****        -2.4416  -0.5313   0.6649 H              1 S1                 0.0000
     34 ****        -0.4930  -0.9547   1.4435 H              1 S1                 0.0000
     35 ****         1.9462   0.3650   0.6350 H              1 S1                 0.0000
     36 ****         1.7550  -0.9322   1.7920 H              1 S1                 0.0000
     37 ****         1.5571  -2.6003  -0.0857 H              1 S1                 0.0000
     38 ****         1.7587  -1.3202  -1.2557 H              1 S1                 0.0000
     39 ****         3.9585   0.0683  -1.2292 H              1 S1                 0.0000
     40 ****         6.4376  -0.2213  -1.0840 H              1 S1                 0.0000
     41 ****         7.3537  -2.3041   0.0967 H              1 S1                 0.0000
     42 ****         3.5500  -3.6948   0.9249 H              1 S1                 0.0000
     43 ****         5.8574  -3.8339   0.9816 H              1 S1                 0.0000
     44 ****        -0.6288   1.3029  -1.8026 LP             1 S1                 0.0000
     45 ****         0.9148   0.7882  -1.2089 LP             1 S1                 0.0000
@<TRIPOS>BOND
    1    1    2 1     
    2    1   22 1     
    3    1   23 1     
    4    1   24 1     
    5    2    3 2     
    6    2    4 2     
    7    2    5 1     
    8    5   10 1     
    9    5    6 1     
   10    6    7 1     
   11    6   25 1     
   12    6   26 1     
   13    7    8 1     
   14    7   27 1     
   15    7   28 1     
   16    8    9 1     
   17    8   29 1     
   18    8   30 1     
   19    9   10 1     
   20    9   31 1     
   21    9   32 1     
   22   10   11 1     
   23   10   33 1     
   24   11   12 2     
   25   11   13 am    
   26   13   14 1     
   27   13   34 1     
   28   14   15 1     
   29   14   35 1     
   30   14   36 1     
   31   15   16 1     
   32   15   37 1     
   33   15   38 1     
   34   16   21 ar    
   35   16   17 ar    
   36   17   18 ar    
   37   17   39 1     
   38   18   19 ar    
   39   18   40 1     
   40   19   20 ar    
   41   19   41 1     
   42   20   21 ar    
   43   20   43 1     
   44   21   42 1     
   45   12   44 1     
   46   12   45 1     
@<TRIPOS>SUBSTRUCTURE
      1 S1             1
@<TRIPOS>SET
LONE_PAIRS      STATIC     ATOMS    <user>   **** ""
4 3 4 44 45
DONOR_HYDROGENS      STATIC     ATOMS    <user>   **** ""
2 34 43
ATOM$BLUE        STATIC     ATOMS    COLORGROUP SYSTEM
4 3 4 44 45
ATOM$RED        STATIC     ATOMS    COLORGROUP SYSTEM
2 34 43
