AV-unprocessed.smi:3115|AV-procd|sdf|11859|dock7
  -GOLD-   2272017243D 1   1.00000     0.00000
 Structure written by MMmdl.
 33 34  0  0  0  0  0  0  0  0  2 V2000
  151.9083  145.2627  159.5499 C   0  0  0  0  0  0  0  0  0  0  0  0
  151.9002  143.7338  159.6478 C   0  0  1  0  0  0  0  0  0  0  0  0
  151.7142  143.0657  158.2716 C   0  0  0  0  0  0  0  0  0  0  0  0
  151.8029  141.6162  158.4010 N   0  0  0  0  0  0  0  0  0  0  0  0
  151.5266  140.9308  157.2095 C   0  0  0  0  0  0  0  0  0  0  0  0
  150.3959  141.3040  156.4523 C   0  0  0  0  0  0  0  0  0  0  0  0
  150.1267  140.6164  155.2512 C   0  0  0  0  0  0  0  0  0  0  0  0
  148.9230  140.9771  154.4059 C   0  0  0  0  0  0  0  0  0  0  0  0
  148.1045  141.9990  155.0777 N   0  3  0  0  0  0  0  0  0  0  0  0
  150.9956  139.5793  154.8561 C   0  0  0  0  0  0  0  0  0  0  0  0
  152.0971  139.2778  155.6805 C   0  0  0  0  0  0  0  0  0  0  0  0
  152.3612  139.9333  156.8305 N   0  0  0  0  0  0  0  0  0  0  0  0
  153.0412  141.1913  159.0414 C   0  0  0  0  0  0  0  0  0  0  0  0
  153.2031  141.9023  160.3957 C   0  0  0  0  0  0  0  0  0  0  0  0
  153.1438  143.3131  160.2044 O   0  0  0  0  0  0  0  0  0  0  0  0
  150.9701  145.6345  159.1376 H   0  0  0  0  0  0  0  0  0  0  0  0
  152.7179  145.6125  158.9090 H   0  0  0  0  0  0  0  0  0  0  0  0
  152.0418  145.7154  160.5327 H   0  0  0  0  0  0  0  0  0  0  0  0
  151.0904  143.4326  160.3151 H   0  0  0  0  0  0  0  0  0  0  0  0
  150.7456  143.3372  157.8497 H   0  0  0  0  0  0  0  0  0  0  0  0
  152.4792  143.4214  157.5796 H   0  0  0  0  0  0  0  0  0  0  0  0
  149.7520  142.1045  156.7872 H   0  0  0  0  0  0  0  0  0  0  0  0
  149.2457  141.3531  153.4345 H   0  0  0  0  0  0  0  0  0  0  0  0
  148.3163  140.0892  154.2242 H   0  0  0  0  0  0  0  0  0  0  0  0
  148.6174  142.8677  155.1240 H   0  0  0  0  0  0  0  0  0  0  0  0
  147.8807  141.6878  156.0122 H   0  0  0  0  0  0  0  0  0  0  0  0
  150.8264  139.0253  153.9443 H   0  0  0  0  0  0  0  0  0  0  0  0
  152.7833  138.4891  155.4095 H   0  0  0  0  0  0  0  0  0  0  0  0
  153.0318  140.1101  159.1844 H   0  0  0  0  0  0  0  0  0  0  0  0
  153.8900  141.4259  158.3975 H   0  0  0  0  0  0  0  0  0  0  0  0
  152.4291  141.5871  161.0972 H   0  0  0  0  0  0  0  0  0  0  0  0
  154.1631  141.6443  160.8430 H   0  0  0  0  0  0  0  0  0  0  0  0
  147.2503  142.1381  154.5572 H   0  0  0  0  0  0  0  0  0  0  0  0
  1  2  1  0  0  0  0
  1 16  1  0  0  0  0
  1 17  1  0  0  0  0
  1 18  1  0  0  0  0
  2 15  1  0  0  0  0
  2  3  1  0  0  0  0
  2 19  1  0  0  0  0
  3  4  1  0  0  0  0
  3 20  1  0  0  0  0
  3 21  1  0  0  0  0
  4  5  1  0  0  0  0
  4 13  1  0  0  0  0
  5 12  1  0  0  0  0
  5  6  2  0  0  0  0
  6  7  1  0  0  0  0
  6 22  1  0  0  0  0
  7  8  1  0  0  0  0
  7 10  2  0  0  0  0
  8  9  1  0  0  0  0
  8 23  1  0  0  0  0
  8 24  1  0  0  0  0
  9 25  1  0  0  0  0
  9 26  1  0  0  0  0
  9 33  1  0  0  0  0
 10 11  1  0  0  0  0
 10 27  1  0  0  0  0
 11 12  2  0  0  0  0
 11 28  1  0  0  0  0
 13 14  1  0  0  0  0
 13 29  1  0  0  0  0
 13 30  1  0  0  0  0
 14 15  1  0  0  0  0
 14 31  1  0  0  0  0
 14 32  1  0  0  0  0
M  CHG  1   9   1
M  END
> <s_m_source_file>
AV-unprocessed.smi

> <i_m_source_file_index>
3115

> <i_lp_mmshare_version>
43012

> <i_f3d_flags>
0

> <s_epik_input>
W0NIM11bQ0BASF0xW0NIMl1OKFtDSDJdW0NIMl1PMSljMltjSF1jKFtDSDJdW05IMl0pW2NIXVtjSF1uMg==

> <s_epik_cmdline>
J2VwaWtfcHl0aG9uJywgJy1waCcsICc3LjAnLCAnLXRuJywgJzgnLCAnLW1hJywgJzIwMCcsICctbWV0YWxfYmluZGluZycsICctaW1hZScsICc8aW5maWxlLm1hZT4nLCAnLW9tYWUnLCAnPG91dGZpbGUubWFlPic=

> <r_lp_tautomer_probability>
1

> <r_epik_Ionization_Penalty>
0.0768907

> <r_epik_Ionization_Penalty_Charging>
0.0768864

> <r_epik_Ionization_Penalty_Neutral>
4.339e-06

> <r_epik_State_Penalty>
0.0093217

> <r_epik_Charging_Adjusted_Penalty>
0.0862081

> <i_epik_Tot_Q>
1

> <i_epik_Tot_abs_Q>
1

> <r_epik_Metal_State_Penalty>
0.0096683

> <b_epik_Metal_Only>
0

> <s_lp_Force_Field>
OPLS_2005

> <r_lp_Energy>
14.3897

> <b_lp_Chiralities_Consistent>
1

> <s_lp_Variant>
AV-unprocessed.smi:3115-2

> <Gold.Version>
5.8.1

> <Gold.Id.Protein>
6NUR|6NUR_protein|mol2

> <Gold.PLP.Fitness>
43.8900

> <Gold.PLP.PLP>
-35.1800

> <Gold.PLP.part.hbond>
-2.0000

> <Gold.PLP.part.metal>
0.0000

> <Gold.PLP.part.buried>
-2.5464

> <Gold.PLP.part.nonpolar>
-31.1524

> <Gold.PLP.part.repulsive>
0.1366

> <Gold.PLP.ligand.clash>
0.0000

> <Gold.PLP.ligand.torsion>
0.1941

> <Gold.PLP.Chemscore.Hbond>
3.0000

> <Gold.PLP.Chemscore.CHOScore>
0.0000

> <Gold.PLP.Chemscore.Metal>
0.0000

> <Gold.Chemscore.Hbonds>
donor molecule, donor type, donor heavy atom, donor atom, acceptor molecule, acceptor atom, score
      L1  H     9    25       P1  8028  2.00
      P1  H  7997  8009       L1    12  0.99

> <Gold.PLP.Chemscore.Internal.Correction>
0.0983

> <Gold.Rescore>
     Score         DG    S(hbond)    S(metal)    S(lipo)     H(rot)  DE(clash)    DE(int)     intcor
     17.65     -17.92       1.64        0.00      87.95       1.30       0.16       0.11       ----

> <Gold.Chemscore.Fitness>
17.6536

> <Gold.Chemscore.DG>
-17.9216

> <Gold.Chemscore.ZeroCoef>
-5.4800

> <Gold.Chemscore.Hbond>
1.6440

> <Gold.Chemscore.Metal>
0.0000

> <Gold.Chemscore.Lipo>
87.9492

> <Gold.Chemscore.Internal_Hbond>
0.0000

> <Gold.Chemscore.DEClash>
0.1550

> <Gold.Chemscore.DEInternal>
0.1130

> <Gold.Chemscore.Rot>
1.3045

> <Gold.Chemscore.Internal.Correction>
   9.000000E+99

> <Gold.Chemscore.Hbonds>
donor molecule, donor type, donor heavy atom, donor atom, acceptor molecule, acceptor atom, score
      L1  H     9    25       P1  8028  0.97
      P1  H  7997  8009       L1    12  0.23

> <Gold.Chemscore.Hbond.Weighted>
-5.4910

> <Gold.Chemscore.Metal.Weighted>
-0.0000

> <Gold.Chemscore.Lipo.Weighted>
-10.2901

> <Gold.Chemscore.Internal_Hbond.Weighted>
0.0000

> <Gold.Chemscore.DEClash.Weighted>
0.1550

> <Gold.Chemscore.DEInternal.Weighted>
0.1130

> <Gold.Chemscore.Rot.Weighted>
3.3395

> <Gold.Chemscore.Internal.Correction.Weighted>
   9.000000E+99

> <Gold.Protein.RotatedTorsions>
[ 6907 6896 6895 6894 ] final  -16.28 input  -60.11 | X-H torsion
[ 7974 7965 7964 7962 ] final  125.00 input  175.53 | X-H torsion
[ 8008 7997 7996 7995 ] final  176.94 input   59.86 | X-H torsion
[ 10167 10162 10161 10158 ] final   -5.71 input  -65.29 | X-H torsion
[ 10718 10713 10712 10709 ] final -138.95 input   66.30 | X-H torsion
[ 10763 10752 10751 10750 ] final  -85.55 input  -60.55 | X-H torsion
[ 11005 11000 10999 10996 ] final  -68.57 input  -57.11 | X-H torsion

> <Gold.Protein.ActiveResidues>
 VAL166  LYS551  ARG553  GLY616  TRP617  ASP618  TYR619  PRO620  LYS621  CYS622 
 ASP623  PHE694  ASN695  SER759  ASP760  ASP761  ALA762  ILE779  LEU786  VAL792 
 PHE793  MET794  SER795  GLU796  ALA797  LYS798  CYS799  TRP800  GLU811  SER814 

> <Gold.Protein.RotatedAtoms>
  151.3110  135.0794  159.9272 H   0  0  0  0  0  0  0  0  0  0  0  0  # atno 6907 bound_to 6896
  152.5277  133.9735  159.7783 H   0  0  0  0  0  0  0  0  0  0  0  0  # atno 6908 bound_to 6896
  151.0039  133.5978  159.2721 H   0  0  0  0  0  0  0  0  0  0  0  0  # atno 6909 bound_to 6896
  145.0780  139.3679  143.4924 H   0  0  0  0  0  0  0  0  0  0  0  0  # atno 7974 bound_to 7965
  156.0710  140.1371  156.9828 H   0  0  0  0  0  0  0  0  0  0  0  0  # atno 8008 bound_to 7997
  154.4532  140.0972  156.6731 H   0  0  0  0  0  0  0  0  0  0  0  0  # atno 8009 bound_to 7997
  155.5228  140.3456  155.4412 H   0  0  0  0  0  0  0  0  0  0  0  0  # atno 8010 bound_to 7997
  140.6972  143.6277  150.8553 H   0  0  0  0  0  0  0  0  0  0  0  0  # atno 10167 bound_to 10162
  156.3051  130.7451  151.1512 H   0  0  0  0  0  0  0  0  0  0  0  0  # atno 10718 bound_to 10713
  154.6124  135.5481  153.7487 H   0  0  0  0  0  0  0  0  0  0  0  0  # atno 10763 bound_to 10752
  153.0201  135.6392  154.1559 H   0  0  0  0  0  0  0  0  0  0  0  0  # atno 10764 bound_to 10752
  154.1496  135.2903  155.3119 H   0  0  0  0  0  0  0  0  0  0  0  0  # atno 10765 bound_to 10752
  141.1535  133.6744  156.6466 H   0  0  0  0  0  0  0  0  0  0  0  0  # atno 11005 bound_to 11000
  146.3530  140.0556  142.8633 LP  0  0  0  0  0  0  0  0  0  0  0  0  # atno 17320 bound_to 7965
  145.1213  140.9464  143.4599 LP  0  0  0  0  0  0  0  0  0  0  0  0  # atno 17321 bound_to 7965
  139.9996  143.5759  152.2880 LP  0  0  0  0  0  0  0  0  0  0  0  0  # atno 17342 bound_to 10162
  139.6443  144.7657  151.2275 LP  0  0  0  0  0  0  0  0  0  0  0  0  # atno 17343 bound_to 10162
  157.7377  131.0548  150.5336 LP  0  0  0  0  0  0  0  0  0  0  0  0  # atno 17370 bound_to 10713
  156.5468  130.4222  149.6127 LP  0  0  0  0  0  0  0  0  0  0  0  0  # atno 17371 bound_to 10713
  140.3352  134.7895  157.4356 LP  0  0  0  0  0  0  0  0  0  0  0  0  # atno 17394 bound_to 11000
  140.0983  134.5507  155.8377 LP  0  0  0  0  0  0  0  0  0  0  0  0  # atno 17395 bound_to 11000

$$$$
