AV-unprocessed.smi:88|AV-procd|sdf|824|dock6
  -GOLD-   2262017233D 1   1.00000     0.00000
 Structure written by MMmdl.
 56 60  0  0  0  0  0  0  0  0  1 V2000
  149.1447  131.8204  157.6434 C   0  0  0  0  0  0  0  0  0  0  0  0
  148.2202  132.6792  156.8998 N   0  0  0  0  0  0  0  0  0  0  0  0
  146.9617  132.3404  156.5755 C   0  0  0  0  0  0  0  0  0  0  0  0
  146.3980  131.2783  156.8333 O   0  0  0  0  0  0  0  0  0  0  0  0
  146.4070  133.3578  155.9189 N   0  0  0  0  0  0  0  0  0  0  0  0
  147.2894  134.4899  155.7580 C   0  0  0  0  0  0  0  0  0  0  0  0
  148.5920  134.0255  156.4446 C   0  0  0  0  0  0  0  0  0  0  0  0
  148.9726  134.9429  157.6338 C   0  0  0  0  0  0  0  0  0  0  0  0
  149.4291  136.3340  157.1586 C   0  0  0  0  0  0  0  0  0  0  0  0
  150.5135  136.2192  156.1875 N   0  0  0  0  0  0  0  0  0  0  0  0
  151.0811  137.4025  155.8740 C   0  0  0  0  0  0  0  0  0  0  0  0
  152.1460  137.3762  155.0364 N   0  0  0  0  0  0  0  0  0  0  0  0
  152.7494  138.5172  154.6890 C   0  0  0  0  0  0  0  0  0  0  0  0
  152.4522  139.7659  155.0573 N   0  0  0  0  0  0  0  0  0  0  0  0
  151.3804  139.7926  155.9013 C   0  0  0  0  0  0  0  0  0  0  0  0
  150.6405  138.6663  156.3584 C   0  0  0  0  0  0  0  0  0  0  0  0
  149.6191  139.0808  157.2048 N   0  0  0  0  0  0  0  0  0  0  0  0
  149.7490  140.3789  157.2468 C   0  0  0  0  0  0  0  0  0  0  0  0
  150.7842  140.8903  156.4969 N   0  0  0  0  0  0  0  0  0  0  0  0
  151.1545  142.2910  156.3639 C   0  0  0  0  0  0  0  0  0  0  0  0
  151.1241  143.0763  157.6981 C   0  0  0  0  0  0  0  0  0  0  0  0
  149.7692  143.3758  157.9881 O   0  0  0  0  0  0  0  0  0  0  0  0
  151.7108  142.2699  158.8777 C   0  0  0  0  0  0  0  0  0  0  0  0
  151.8669  143.1279  160.1461 C   0  0  0  0  0  0  0  0  0  0  0  0
  152.6439  144.2855  159.8643 O   0  0  0  0  0  0  0  0  0  0  0  0
  152.0325  145.1385  158.9043 C   0  0  0  0  0  0  0  0  0  0  0  0
  151.8970  144.4031  157.5593 C   0  0  0  0  0  0  0  0  0  0  0  0
  150.2165  135.3936  155.0206 C   0  0  0  0  0  0  0  0  0  0  0  0
  149.7784  133.9814  155.4487 C   0  0  0  0  0  0  0  0  0  0  0  0
  148.7134  130.8431  157.8630 H   0  0  0  0  0  0  0  0  0  0  0  0
  149.4133  132.2738  158.5969 H   0  0  0  0  0  0  0  0  0  0  0  0
  150.0586  131.6453  157.0774 H   0  0  0  0  0  0  0  0  0  0  0  0
  145.4609  133.3520  155.5663 H   0  0  0  0  0  0  0  0  0  0  0  0
  147.4174  134.7045  154.6967 H   0  0  0  0  0  0  0  0  0  0  0  0
  146.8458  135.3665  156.2313 H   0  0  0  0  0  0  0  0  0  0  0  0
  148.1356  135.0412  158.3262 H   0  0  0  0  0  0  0  0  0  0  0  0
  149.7895  134.4986  158.2030 H   0  0  0  0  0  0  0  0  0  0  0  0
  148.5913  136.8727  156.7154 H   0  0  0  0  0  0  0  0  0  0  0  0
  149.7653  136.9216  158.0141 H   0  0  0  0  0  0  0  0  0  0  0  0
  153.5910  138.4145  154.0199 H   0  0  0  0  0  0  0  0  0  0  0  0
  149.0918  141.0042  157.8336 H   0  0  0  0  0  0  0  0  0  0  0  0
  152.1531  142.3356  155.9273 H   0  0  0  0  0  0  0  0  0  0  0  0
  150.4860  142.7528  155.6357 H   0  0  0  0  0  0  0  0  0  0  0  0
  149.3331  143.6051  157.1815 H   0  0  0  0  0  0  0  0  0  0  0  0
  151.0940  141.3984  159.1004 H   0  0  0  0  0  0  0  0  0  0  0  0
  152.6923  141.8864  158.5964 H   0  0  0  0  0  0  0  0  0  0  0  0
  150.8946  143.4182  160.5471 H   0  0  0  0  0  0  0  0  0  0  0  0
  152.3681  142.5516  160.9239 H   0  0  0  0  0  0  0  0  0  0  0  0
  151.0619  145.4798  159.2673 H   0  0  0  0  0  0  0  0  0  0  0  0
  152.6518  146.0270  158.7812 H   0  0  0  0  0  0  0  0  0  0  0  0
  152.8985  144.1984  157.1785 H   0  0  0  0  0  0  0  0  0  0  0  0
  151.4182  145.0513  156.8240 H   0  0  0  0  0  0  0  0  0  0  0  0
  149.4353  135.8655  154.4243 H   0  0  0  0  0  0  0  0  0  0  0  0
  151.1008  135.3259  154.3854 H   0  0  0  0  0  0  0  0  0  0  0  0
  150.6363  133.4905  155.9082 H   0  0  0  0  0  0  0  0  0  0  0  0
  149.5210  133.3876  154.5709 H   0  0  0  0  0  0  0  0  0  0  0  0
  1  2  1  0  0  0  0
  1 30  1  0  0  0  0
  1 31  1  0  0  0  0
  1 32  1  0  0  0  0
  2  7  1  0  0  0  0
  2  3  1  0  0  0  0
  3  4  2  0  0  0  0
  3  5  1  0  0  0  0
  5  6  1  0  0  0  0
  5 33  1  0  0  0  0
  6  7  1  0  0  0  0
  6 34  1  0  0  0  0
  6 35  1  0  0  0  0
  7 29  1  0  0  0  0
  7  8  1  0  0  0  0
  8  9  1  0  0  0  0
  8 36  1  0  0  0  0
  8 37  1  0  0  0  0
  9 10  1  0  0  0  0
  9 38  1  0  0  0  0
  9 39  1  0  0  0  0
 10 11  1  0  0  0  0
 10 28  1  0  0  0  0
 11 16  1  0  0  0  0
 11 12  2  0  0  0  0
 12 13  1  0  0  0  0
 13 14  2  0  0  0  0
 13 40  1  0  0  0  0
 14 15  1  0  0  0  0
 15 19  1  0  0  0  0
 15 16  2  0  0  0  0
 16 17  1  0  0  0  0
 17 18  2  0  0  0  0
 18 19  1  0  0  0  0
 18 41  1  0  0  0  0
 19 20  1  0  0  0  0
 20 21  1  0  0  0  0
 20 42  1  0  0  0  0
 20 43  1  0  0  0  0
 21 27  1  0  0  0  0
 21 22  1  0  0  0  0
 21 23  1  0  0  0  0
 22 44  1  0  0  0  0
 23 24  1  0  0  0  0
 23 45  1  0  0  0  0
 23 46  1  0  0  0  0
 24 25  1  0  0  0  0
 24 47  1  0  0  0  0
 24 48  1  0  0  0  0
 25 26  1  0  0  0  0
 26 27  1  0  0  0  0
 26 49  1  0  0  0  0
 26 50  1  0  0  0  0
 27 51  1  0  0  0  0
 27 52  1  0  0  0  0
 28 29  1  0  0  0  0
 28 53  1  0  0  0  0
 28 54  1  0  0  0  0
 29 55  1  0  0  0  0
 29 56  1  0  0  0  0
M  END
> <s_m_source_file>
AV-unprocessed.smi

> <i_m_source_file_index>
88

> <i_lp_mmshare_version>
43012

> <i_f3d_flags>
0

> <s_epik_input>
W0NIMl0xW05IXUMoPU8pTihbQ0gzXSlDMTJbQ0gyXVtDSDJdTihbQ0gyXVtDSDJdMiljKG5bY0hdbjMpYyhjMzQpbltjSF1uNFtDSDJdQzUoW09IXSlbQ0gyXVtDSDJdT1tDSDJdW0NIMl01

> <s_epik_cmdline>
J2VwaWtfcHl0aG9uJywgJy1waCcsICc3LjAnLCAnLXRuJywgJzgnLCAnLW1hJywgJzIwMCcsICctbWV0YWxfYmluZGluZycsICctaW1hZScsICc8aW5maWxlLm1hZT4nLCAnLW9tYWUnLCAnPG91dGZpbGUubWFlPic=

> <r_lp_tautomer_probability>
1

> <r_epik_Ionization_Penalty>
0.00363326

> <r_epik_Ionization_Penalty_Charging>
0

> <r_epik_Ionization_Penalty_Neutral>
0.00363326

> <r_epik_State_Penalty>
0.00246926

> <r_epik_Charging_Adjusted_Penalty>
0.00246926

> <i_epik_Tot_Q>
0

> <i_epik_Tot_abs_Q>
0

> <r_epik_Metal_State_Penalty>
-0

> <b_epik_Metal_Only>
0

> <s_lp_Force_Field>
OPLS_2005

> <r_lp_Energy>
63.3868

> <b_lp_Chiralities_Consistent>
1

> <s_lp_Variant>
AV-unprocessed.smi:88-1

> <Gold.Version>
5.8.1

> <Gold.Id.Protein>
6NUR|6NUR_protein|mol2

> <Gold.PLP.Fitness>
47.5534

> <Gold.PLP.PLP>
-39.9057

> <Gold.PLP.part.hbond>
-3.5921

> <Gold.PLP.part.metal>
0.0000

> <Gold.PLP.part.buried>
-7.1184

> <Gold.PLP.part.nonpolar>
-30.0169

> <Gold.PLP.part.repulsive>
0.2388

> <Gold.PLP.ligand.clash>
0.0994

> <Gold.PLP.ligand.torsion>
0.5677

> <Gold.PLP.Chemscore.Hbond>
2.8980

> <Gold.PLP.Chemscore.CHOScore>
0.0000

> <Gold.PLP.Chemscore.Metal>
0.0000

> <Gold.Chemscore.Hbonds>
donor molecule, donor type, donor heavy atom, donor atom, acceptor molecule, acceptor atom, score
      L1  H    22    44       P1  8028  1.00
      P1  H  7989  7998       L1    14  0.62
      P1  H  7997  8009       L1    14  0.46
      P1  H 10752 10765       L1    12  0.80

> <Gold.PLP.Chemscore.Internal.Correction>
0.1885

> <Gold.Rescore>
     Score         DG    S(hbond)    S(metal)    S(lipo)     H(rot)  DE(clash)    DE(int)     intcor
     14.26     -16.37       1.79        0.00      89.71       2.18       0.08       2.04       ----

> <Gold.Chemscore.Fitness>
14.2577

> <Gold.Chemscore.DG>
-16.3686

> <Gold.Chemscore.ZeroCoef>
-5.4800

> <Gold.Chemscore.Hbond>
1.7913

> <Gold.Chemscore.Metal>
0.0000

> <Gold.Chemscore.Lipo>
89.7117

> <Gold.Chemscore.Internal_Hbond>
0.0000

> <Gold.Chemscore.DEClash>
0.0751

> <Gold.Chemscore.DEInternal>
2.0358

> <Gold.Chemscore.Rot>
2.1838

> <Gold.Chemscore.Internal.Correction>
   9.000000E+99

> <Gold.Chemscore.Hbonds>
donor molecule, donor type, donor heavy atom, donor atom, acceptor molecule, acceptor atom, score
      L1  H    22    44       P1  8028  0.69
      P1  H  7989  7998       L1    14  0.12
      P1  H  7997  8009       L1    14  0.06
      P1  H 10752 10765       L1    12  0.73

> <Gold.Chemscore.Hbond.Weighted>
-5.9828

> <Gold.Chemscore.Metal.Weighted>
-0.0000

> <Gold.Chemscore.Lipo.Weighted>
-10.4963

> <Gold.Chemscore.Internal_Hbond.Weighted>
0.0000

> <Gold.Chemscore.DEClash.Weighted>
0.0751

> <Gold.Chemscore.DEInternal.Weighted>
2.0358

> <Gold.Chemscore.Rot.Weighted>
5.5905

> <Gold.Chemscore.Internal.Correction.Weighted>
   9.000000E+99

> <Gold.Protein.RotatedTorsions>
[ 6907 6896 6895 6894 ] final  117.03 input  -60.11 | X-H torsion
[ 7974 7965 7964 7962 ] final -142.09 input  175.53 | X-H torsion
[ 8008 7997 7996 7995 ] final -143.38 input   59.86 | X-H torsion
[ 10167 10162 10161 10158 ] final    7.59 input  -65.29 | X-H torsion
[ 10718 10713 10712 10709 ] final -134.75 input   66.30 | X-H torsion
[ 10763 10752 10751 10750 ] final  177.03 input  -60.55 | X-H torsion
[ 11005 11000 10999 10996 ] final -179.48 input  -57.11 | X-H torsion

> <Gold.Protein.ActiveResidues>
 VAL166  LYS551  ARG553  GLY616  TRP617  ASP618  TYR619  PRO620  LYS621  CYS622 
 ASP623  PHE694  ASN695  SER759  ASP760  ASP761  ALA762  ILE779  LEU786  VAL792 
 PHE793  MET794  SER795  GLU796  ALA797  LYS798  CYS799  TRP800  GLU811  SER814 

> <Gold.Protein.RotatedAtoms>
  152.4639  133.7881  159.6886 H   0  0  0  0  0  0  0  0  0  0  0  0  # atno 6907 bound_to 6896
  150.8595  133.7655  159.3003 H   0  0  0  0  0  0  0  0  0  0  0  0  # atno 6908 bound_to 6896
  151.5225  135.1070  159.9934 H   0  0  0  0  0  0  0  0  0  0  0  0  # atno 6909 bound_to 6896
  144.8469  140.6000  143.5415 H   0  0  0  0  0  0  0  0  0  0  0  0  # atno 7974 bound_to 7965
  155.5097  140.0582  157.2925 H   0  0  0  0  0  0  0  0  0  0  0  0  # atno 8008 bound_to 7997
  154.4556  140.1971  156.0337 H   0  0  0  0  0  0  0  0  0  0  0  0  # atno 8009 bound_to 7997
  156.0793  140.3249  155.7677 H   0  0  0  0  0  0  0  0  0  0  0  0  # atno 8010 bound_to 7997
  140.6363  143.7878  150.7364 H   0  0  0  0  0  0  0  0  0  0  0  0  # atno 10167 bound_to 10162
  156.2588  130.7197  151.1123 H   0  0  0  0  0  0  0  0  0  0  0  0  # atno 10718 bound_to 10713
  154.4890  135.2778  155.1511 H   0  0  0  0  0  0  0  0  0  0  0  0  # atno 10763 bound_to 10752
  154.3190  135.6213  153.5503 H   0  0  0  0  0  0  0  0  0  0  0  0  # atno 10764 bound_to 10752
  152.9885  135.5738  154.5308 H   0  0  0  0  0  0  0  0  0  0  0  0  # atno 10765 bound_to 10752
  140.4181  134.6630  157.4650 H   0  0  0  0  0  0  0  0  0  0  0  0  # atno 11005 bound_to 11000
  145.4578  139.1516  143.3883 LP  0  0  0  0  0  0  0  0  0  0  0  0  # atno 17320 bound_to 7965
  146.2752  140.4707  142.8798 LP  0  0  0  0  0  0  0  0  0  0  0  0  # atno 17321 bound_to 7965
  140.1500  143.4366  152.2137 LP  0  0  0  0  0  0  0  0  0  0  0  0  # atno 17342 bound_to 10162
  139.5573  144.7382  151.4256 LP  0  0  0  0  0  0  0  0  0  0  0  0  # atno 17343 bound_to 10162
  157.7242  131.0661  150.6003 LP  0  0  0  0  0  0  0  0  0  0  0  0  # atno 17370 bound_to 10713
  156.6089  130.4374  149.5867 LP  0  0  0  0  0  0  0  0  0  0  0  0  # atno 17371 bound_to 10713
  140.0219  134.6534  155.9227 LP  0  0  0  0  0  0  0  0  0  0  0  0  # atno 17394 bound_to 11000
  141.1795  133.6544  156.4961 LP  0  0  0  0  0  0  0  0  0  0  0  0  # atno 17395 bound_to 11000

$$$$
