#       Name:                AV-unprocessed.smi:807
#       Creating user name   scv26
#       Creation time:       Fri Mar 27 01:23:58 2020


#       File generated by GOLD software.
#

@<TRIPOS>MOLECULE
AV-unprocessed.smi:807
    40    42     1
SMALL
NO_CHARGES


@<TRIPOS>ATOM
      1 ****         0.3062  -4.2379   0.7134 C.3            1 S1                 0.0000
      2 ****         0.1634  -2.8130   0.9652 N.pl3          1 S1                 0.0000
      3 ****        -1.1068  -2.2214   1.0066 C.ar           1 S1                 0.0000
      4 ****        -2.2153  -2.9916   0.9107 N.ar           1 S1                 0.0000
      5 ****        -3.4072  -2.3817   0.9543 C.ar           1 S1                 0.0000
      6 ****        -3.6846  -1.0751   1.0854 N.ar           1 S1                 0.0000
      7 ****        -2.5929  -0.3040   1.1809 C.ar           1 S1                 0.0000
      8 ****        -2.5801   1.0733   1.3191 N.2            1 S1                 0.0000
      9 ****        -1.2750   1.3288   1.3601 C.2            1 S1                 0.0000
     10 ****        -0.4327   0.2814   1.2616 N.pl3          1 S1                 0.0000
     11 ****         1.0188   0.3335   1.2640 C.3            1 S1                 0.0000
     12 ****         1.6105   0.2314  -0.1565 C.3            1 S1                 0.0000
     13 ****         3.0135   0.1091  -0.0375 O.3            1 S1                 0.0000
     14 ****         1.2047   1.4098  -1.0415 C.ar           1 S1                 0.0000
     15 ****         1.8486   2.6563  -0.8662 C.ar           1 S1                 0.0000
     16 ****         1.4909   3.7678  -1.6519 C.ar           1 S1                 0.0000
     17 ****         0.4805   3.6456  -2.6221 C.ar           1 S1                 0.0000
     18 ****        -0.1720   2.4123  -2.8019 C.ar           1 S1                 0.0000
     19 ****         0.1809   1.2952  -2.0181 C.ar           1 S1                 0.0000
     20 ****        -0.6737  -0.1858  -2.2787 Cl             1 S1                 0.0000
     21 ****        -1.2660  -0.8287   1.1469 C.ar           1 S1                 0.0000
     22 ****         1.3622  -4.5065   0.6876 H              1 S1                 0.0000
     23 ****        -0.1373  -4.5075  -0.2456 H              1 S1                 0.0000
     24 ****        -0.1755  -4.8205   1.4993 H              1 S1                 0.0000
     25 ****         0.9917  -2.2372   1.0120 H              1 S1                 0.0000
     26 ****        -4.2649  -3.0328   0.8735 H              1 S1                 0.0000
     27 ****        -0.9082   2.3403   1.4575 H              1 S1                 0.0000
     28 ****         1.3372   1.2580   1.7482 H              1 S1                 0.0000
     29 ****         1.3836  -0.4817   1.8896 H              1 S1                 0.0000
     30 ****         1.2862  -0.7029  -0.6110 H              1 S1                 0.0000
     31 ****         3.3476   0.8804   0.3940 H              1 S1                 0.0000
     32 ****         2.6218   2.7684  -0.1206 H              1 S1                 0.0000
     33 ****         1.9908   4.7146  -1.5086 H              1 S1                 0.0000
     34 ****         0.2036   4.4978  -3.2252 H              1 S1                 0.0000
     35 ****        -0.9513   2.3242  -3.5446 H              1 S1                 0.0000
     36 ****        -2.1469  -3.9842   0.8105 LP             1 S1                 0.0000
     37 ****        -4.6161  -0.7121   1.1095 LP             1 S1                 0.0000
     38 ****        -3.3498   1.7094   1.3738 LP             1 S1                 0.0000
     39 ****         3.4229   0.0274  -0.9462 LP             1 S1                 0.0000
     40 ****         3.2364  -0.7024   0.5027 LP             1 S1                 0.0000
@<TRIPOS>BOND
    1    1    2 1     
    2    1   22 1     
    3    1   23 1     
    4    1   24 1     
    5    2    3 1     
    6    2   25 1     
    7    3   21 ar    
    8    3    4 ar    
    9    4    5 ar    
   10    5    6 ar    
   11    5   26 1     
   12    6    7 ar    
   13    7   21 ar    
   14    7    8 1     
   15    8    9 2     
   16    9   10 1     
   17    9   27 1     
   18   10   11 1     
   19   10   21 1     
   20   11   12 1     
   21   11   28 1     
   22   11   29 1     
   23   12   13 1     
   24   12   14 1     
   25   12   30 1     
   26   13   31 1     
   27   14   19 ar    
   28   14   15 ar    
   29   15   16 ar    
   30   15   32 1     
   31   16   17 ar    
   32   16   33 1     
   33   17   18 ar    
   34   17   34 1     
   35   18   19 ar    
   36   18   35 1     
   37   19   20 1     
   38    4   36 1     
   39    6   37 1     
   40    8   38 1     
   41   13   39 1     
   42   13   40 1     
@<TRIPOS>SUBSTRUCTURE
      1 S1             1
@<TRIPOS>SET
LONE_PAIRS      STATIC     ATOMS    <user>   **** ""
5 36 37 38 39 40
DONOR_HYDROGENS      STATIC     ATOMS    <user>   **** ""
2 25 31
ATOM$BLUE        STATIC     ATOMS    COLORGROUP SYSTEM
5 36 37 38 39 40
ATOM$RED        STATIC     ATOMS    COLORGROUP SYSTEM
2 25 31
