#       Name:                AV-unprocessed.smi:826
#       Creating user name   scv26
#       Creation time:       Fri Mar 27 01:30:09 2020


#       File generated by GOLD software.
#

@<TRIPOS>MOLECULE
AV-unprocessed.smi:826
    45    46     1
SMALL
NO_CHARGES


@<TRIPOS>ATOM
      1 ****        -7.1626   2.3245  -1.3229 C.3            1 S1                 0.0000
      2 ****        -5.7376   1.8879  -1.3213 C.2            1 S1                 0.0000
      3 ****        -4.7576   2.6300  -0.7921 N.2            1 S1                 0.0000
      4 ****        -3.5153   2.0221  -0.9097 N.2            1 S1                 0.0000
      5 ****        -3.5960   0.8348  -1.5257 C.2            1 S1                 0.0000
      6 ****        -2.4759   0.0018  -1.7849 N.am           1 S1                 0.0000
      7 ****        -1.1832   0.2283  -1.4929 C.2            1 S1                 0.0000
      8 ****        -0.7473   1.2200  -0.9070 O.2            1 S1                 0.0000
      9 ****        -0.4057  -0.7772  -1.9221 N.am           1 S1                 0.0000
     10 ****         1.0436  -0.8545  -1.7464 C.3            1 S1                 0.0000
     11 ****         1.5962  -1.8535  -2.7767 C.3            1 S1                 0.0000
     12 ****         1.3837  -1.3759  -0.3416 C.2            1 S1                 0.0000
     13 ****         0.7731  -2.3337   0.1362 O.2            1 S1                 0.0000
     14 ****         2.3707  -0.7371   0.3044 N.am           1 S1                 0.0000
     15 ****         2.8401  -1.0626   1.6479 C.3            1 S1                 0.0000
     16 ****         1.8736  -0.5417   2.7328 C.3            1 S1                 0.0000
     17 ****         2.7360   0.2246   3.7374 C.3            1 S1                 0.0000
     18 ****         3.9048   0.7466   2.9081 C.3            1 S1                 0.0000
     19 ****         4.1957  -0.3877   1.9255 C.3            1 S1                 0.0000
     20 ****        -5.2133   0.3571  -2.0125 S.3            1 S1                 0.0000
     21 ****        -7.2413   3.3510  -1.6816 H              1 S1                 0.0000
     22 ****        -7.5702   2.2719  -0.3132 H              1 S1                 0.0000
     23 ****        -7.7562   1.6825  -1.9741 H              1 S1                 0.0000
     24 ****        -2.6819  -0.8641  -2.2604 H              1 S1                 0.0000
     25 ****        -0.8475  -1.5572  -2.3860 H              1 S1                 0.0000
     26 ****         1.4944   0.1267  -1.9090 H              1 S1                 0.0000
     27 ****         2.6788  -1.9544  -2.6895 H              1 S1                 0.0000
     28 ****         1.3839  -1.5202  -3.7931 H              1 S1                 0.0000
     29 ****         1.1584  -2.8461  -2.6577 H              1 S1                 0.0000
     30 ****         2.8170   0.0406  -0.1601 H              1 S1                 0.0000
     31 ****         2.9604  -2.1441   1.7349 H              1 S1                 0.0000
     32 ****         1.1412   0.1425   2.3007 H              1 S1                 0.0000
     33 ****         1.3158  -1.3493   3.2076 H              1 S1                 0.0000
     34 ****         2.1874   1.0212   4.2403 H              1 S1                 0.0000
     35 ****         3.1060  -0.4601   4.5019 H              1 S1                 0.0000
     36 ****         3.5982   1.6392   2.3609 H              1 S1                 0.0000
     37 ****         4.7707   1.0079   3.5172 H              1 S1                 0.0000
     38 ****         4.8632  -1.1075   2.4012 H              1 S1                 0.0000
     39 ****         4.6989  -0.0340   1.0246 H              1 S1                 0.0000
     40 ****        -4.9036   3.5205  -0.3613 LP             1 S1                 0.0000
     41 ****        -2.6622   2.4223  -0.5749 LP             1 S1                 0.0000
     42 ****        -1.3740   1.9392  -0.6071 LP             1 S1                 0.0000
     43 ****         0.2334   1.3060  -0.7312 LP             1 S1                 0.0000
     44 ****         0.0493  -2.7786  -0.3912 LP             1 S1                 0.0000
     45 ****         1.0014  -2.6661   1.0513 LP             1 S1                 0.0000
@<TRIPOS>BOND
    1    1    2 1     
    2    1   21 1     
    3    1   22 1     
    4    1   23 1     
    5    2   20 1     
    6    2    3 2     
    7    3    4 1     
    8    4    5 2     
    9    5    6 1     
   10    5   20 1     
   11    6    7 am    
   12    6   24 1     
   13    7    8 2     
   14    7    9 am    
   15    9   10 1     
   16    9   25 1     
   17   10   11 1     
   18   10   12 1     
   19   10   26 1     
   20   11   27 1     
   21   11   28 1     
   22   11   29 1     
   23   12   13 2     
   24   12   14 am    
   25   14   15 1     
   26   14   30 1     
   27   15   19 1     
   28   15   16 1     
   29   15   31 1     
   30   16   17 1     
   31   16   32 1     
   32   16   33 1     
   33   17   18 1     
   34   17   34 1     
   35   17   35 1     
   36   18   19 1     
   37   18   36 1     
   38   18   37 1     
   39   19   38 1     
   40   19   39 1     
   41    3   40 1     
   42    4   41 1     
   43    8   42 1     
   44    8   43 1     
   45   13   44 1     
   46   13   45 1     
@<TRIPOS>SUBSTRUCTURE
      1 S1             1
@<TRIPOS>SET
LONE_PAIRS      STATIC     ATOMS    <user>   **** ""
6 40 41 42 43 44 45
DONOR_HYDROGENS      STATIC     ATOMS    <user>   **** ""
3 24 25 30
ATOM$BLUE        STATIC     ATOMS    COLORGROUP SYSTEM
6 40 41 42 43 44 45
ATOM$RED        STATIC     ATOMS    COLORGROUP SYSTEM
3 24 25 30
