AV-unprocessed.smi:686|AV-procd|sdf|3342|dock9
  -GOLD-   22720 0313D 1   1.00000     0.00000
 Structure written by MMmdl.
 41 42  0  0  0  0  0  0  0  0  2 V2000
  150.3581  131.5531  153.1549 C   0  0  0  0  0  0  0  0  0  0  0  0
  149.6041  132.8809  153.0012 C   0  0  1  0  0  0  0  0  0  0  0  0
  148.5700  132.8698  151.8736 C   0  0  0  0  0  0  0  0  0  0  0  0
  147.5833  133.9027  152.2468 N   0  3  1  0  0  0  0  0  0  0  0  0
  146.2986  133.8631  151.4922 C   0  0  0  0  0  0  0  0  0  0  0  0
  145.4203  135.0893  151.8042 C   0  0  0  0  0  0  0  0  0  0  0  0
  145.5115  132.5740  151.7947 C   0  0  0  0  0  0  0  0  0  0  0  0
  147.4503  133.7943  153.7160 C   0  0  0  0  0  0  0  0  0  0  0  0
  148.8073  133.2989  154.2506 C   0  0  2  0  0  0  0  0  0  0  0  0
  149.5228  134.3537  154.9789 N   0  0  0  0  0  0  0  0  0  0  0  0
  150.9332  133.9867  155.9084 S   0  0  0  0  0  0  0  0  0  0  0  0
  150.5340  133.1110  157.0214 O   0  0  0  0  0  0  0  0  0  0  0  0
  151.9802  133.5610  154.9677 O   0  0  0  0  0  0  0  0  0  0  0  0
  151.4051  135.6357  156.5861 C   0  0  0  0  0  0  0  0  0  0  0  0
  151.5131  136.6271  155.4637 C   0  0  0  0  0  0  0  0  0  0  0  0
  150.6495  137.7146  155.1565 C   0  0  0  0  0  0  0  0  0  0  0  0
  151.2174  138.2678  154.0453 C   0  0  0  0  0  0  0  0  0  0  0  0
  152.3375  137.5865  153.6948 O   0  0  0  0  0  0  0  0  0  0  0  0
  152.5190  136.5410  154.6073 N   0  0  0  0  0  0  0  0  0  0  0  0
  149.6774  130.7323  153.3833 H   0  0  0  0  0  0  0  0  0  0  0  0
  151.0909  131.6118  153.9601 H   0  0  0  0  0  0  0  0  0  0  0  0
  150.8916  131.2980  152.2387 H   0  0  0  0  0  0  0  0  0  0  0  0
  150.3301  133.6602  152.7613 H   0  0  0  0  0  0  0  0  0  0  0  0
  149.0297  133.0702  150.9053 H   0  0  0  0  0  0  0  0  0  0  0  0
  148.0748  131.8984  151.8210 H   0  0  0  0  0  0  0  0  0  0  0  0
  146.5286  133.8766  150.4256 H   0  0  0  0  0  0  0  0  0  0  0  0
  144.4640  135.0260  151.2841 H   0  0  0  0  0  0  0  0  0  0  0  0
  145.8885  136.0201  151.4841 H   0  0  0  0  0  0  0  0  0  0  0  0
  145.2103  135.1672  152.8717 H   0  0  0  0  0  0  0  0  0  0  0  0
  144.5521  132.5706  151.2762 H   0  0  0  0  0  0  0  0  0  0  0  0
  145.3095  132.4741  152.8619 H   0  0  0  0  0  0  0  0  0  0  0  0
  146.0471  131.6819  151.4698 H   0  0  0  0  0  0  0  0  0  0  0  0
  147.1350  134.7421  154.1511 H   0  0  0  0  0  0  0  0  0  0  0  0
  146.6839  133.0558  153.9578 H   0  0  0  0  0  0  0  0  0  0  0  0
  148.6552  132.4488  154.9176 H   0  0  0  0  0  0  0  0  0  0  0  0
  149.5870  135.2429  154.4830 H   0  0  0  0  0  0  0  0  0  0  0  0
  150.6538  135.9397  157.3147 H   0  0  0  0  0  0  0  0  0  0  0  0
  152.3539  135.5385  157.1127 H   0  0  0  0  0  0  0  0  0  0  0  0
  149.7534  138.0349  155.6672 H   0  0  0  0  0  0  0  0  0  0  0  0
  150.9572  139.1082  153.4189 H   0  0  0  0  0  0  0  0  0  0  0  0
  148.0197  134.7946  152.0619 H   0  0  0  0  0  0  0  0  0  0  0  0
  1  2  1  0  0  0  0
  1 20  1  0  0  0  0
  1 21  1  0  0  0  0
  1 22  1  0  0  0  0
  2  9  1  0  0  0  0
  2  3  1  0  0  0  0
  2 23  1  0  0  0  0
  3  4  1  0  0  0  0
  3 24  1  0  0  0  0
  3 25  1  0  0  0  0
  4  5  1  0  0  0  0
  4  8  1  0  0  0  0
  4 41  1  0  0  0  0
  5  6  1  0  0  0  0
  5  7  1  0  0  0  0
  5 26  1  0  0  0  0
  6 27  1  0  0  0  0
  6 28  1  0  0  0  0
  6 29  1  0  0  0  0
  7 30  1  0  0  0  0
  7 31  1  0  0  0  0
  7 32  1  0  0  0  0
  8  9  1  0  0  0  0
  8 33  1  0  0  0  0
  8 34  1  0  0  0  0
  9 10  1  0  0  0  0
  9 35  1  0  0  0  0
 10 11  1  0  0  0  0
 10 36  1  0  0  0  0
 11 12  2  0  0  0  0
 11 13  2  0  0  0  0
 11 14  1  0  0  0  0
 14 15  1  0  0  0  0
 14 37  1  0  0  0  0
 14 38  1  0  0  0  0
 15 19  2  0  0  0  0
 15 16  1  0  0  0  0
 16 17  2  0  0  0  0
 16 39  1  0  0  0  0
 17 18  1  0  0  0  0
 17 40  1  0  0  0  0
 18 19  1  0  0  0  0
M  CHG  1   4   1
M  END
> <s_m_source_file>
AV-unprocessed.smi

> <i_m_source_file_index>
686

> <i_lp_mmshare_version>
43012

> <i_f3d_flags>
0

> <s_epik_input>
W0NIM11bQ0BASF0xW0NIMl1OKFtDSF0oW0NIM10pW0NIM10pW0NIMl1bQ0BIXTFbTkhdUyg9TykoPU8pW0NIMl1jMltjSF1bY0hdb24y

> <s_epik_cmdline>
J2VwaWtfcHl0aG9uJywgJy1waCcsICc3LjAnLCAnLXRuJywgJzgnLCAnLW1hJywgJzIwMCcsICctbWV0YWxfYmluZGluZycsICctaW1hZScsICc8aW5maWxlLm1hZT4nLCAnLW9tYWUnLCAnPG91dGZpbGUubWFlPic=

> <r_epik_Ionization_Penalty>
0.00200818

> <r_epik_Ionization_Penalty_Charging>
0.000701289

> <r_epik_Ionization_Penalty_Neutral>
0.00130689

> <r_epik_State_Penalty>
0.00131314

> <r_epik_Charging_Adjusted_Penalty>
0.00201443

> <i_epik_Tot_Q>
1

> <i_epik_Tot_abs_Q>
1

> <r_epik_Metal_State_Penalty>
0.310831

> <b_epik_Metal_Only>
0

> <s_lp_Force_Field>
OPLS_2005

> <r_lp_Energy>
19.8293

> <b_lp_Chiralities_Consistent>
1

> <s_lp_Variant>
AV-unprocessed.smi:686-6

> <Gold.Version>
5.8.1

> <Gold.Id.Protein>
6NUR|6NUR_protein|mol2

> <Gold.PLP.Fitness>
41.2940

> <Gold.PLP.PLP>
-26.9455

> <Gold.PLP.part.hbond>
-3.7074

> <Gold.PLP.part.metal>
0.0000

> <Gold.PLP.part.buried>
-3.7308

> <Gold.PLP.part.nonpolar>
-18.9386

> <Gold.PLP.part.repulsive>
0.2486

> <Gold.PLP.ligand.clash>
0.0000

> <Gold.PLP.ligand.torsion>
0.3500

> <Gold.PLP.Chemscore.Hbond>
3.9920

> <Gold.PLP.Chemscore.CHOScore>
0.9691

> <Gold.PLP.Chemscore.Metal>
0.0000

> <Gold.Chemscore.Hbonds>
donor molecule, donor type, donor heavy atom, donor atom, acceptor molecule, acceptor atom, score
      L1  H     4    41       P1  7948  2.00
      P1  H  6896  6909       L1    12  0.04
      L1  C    17    40       P1  7957  0.40

> <Gold.PLP.Chemscore.Internal.Correction>
0.1651

> <Gold.Rescore>
     Score         DG    S(hbond)    S(metal)    S(lipo)     H(rot)  DE(clash)    DE(int)     intcor
     14.44     -15.61       2.43        0.00      59.00       1.91       0.02       1.15       ----

> <Gold.Chemscore.Fitness>
14.4386

> <Gold.Chemscore.DG>
-15.6131

> <Gold.Chemscore.ZeroCoef>
-5.4800

> <Gold.Chemscore.Hbond>
2.4323

> <Gold.Chemscore.Metal>
0.0000

> <Gold.Chemscore.Lipo>
58.9977

> <Gold.Chemscore.Internal_Hbond>
0.0000

> <Gold.Chemscore.DEClash>
0.0223

> <Gold.Chemscore.DEInternal>
1.1521

> <Gold.Chemscore.Rot>
1.9115

> <Gold.Chemscore.Internal.Correction>
   9.000000E+99

> <Gold.Chemscore.Hbonds>
donor molecule, donor type, donor heavy atom, donor atom, acceptor molecule, acceptor atom, score
      L1  H     4    41       P1  7948  0.35
      P1  H  6896  6909       L1    12  0.07

> <Gold.Chemscore.Hbond.Weighted>
-8.1238

> <Gold.Chemscore.Metal.Weighted>
-0.0000

> <Gold.Chemscore.Lipo.Weighted>
-6.9027

> <Gold.Chemscore.Internal_Hbond.Weighted>
0.0000

> <Gold.Chemscore.DEClash.Weighted>
0.0223

> <Gold.Chemscore.DEInternal.Weighted>
1.1521

> <Gold.Chemscore.Rot.Weighted>
4.8935

> <Gold.Chemscore.Internal.Correction.Weighted>
   9.000000E+99

> <Gold.Protein.RotatedTorsions>
[ 6907 6896 6895 6894 ] final    9.11 input  -60.11 | X-H torsion
[ 7974 7965 7964 7962 ] final  123.34 input  175.53 | X-H torsion
[ 8008 7997 7996 7995 ] final   11.88 input   59.86 | X-H torsion
[ 10167 10162 10161 10158 ] final    6.98 input  -65.29 | X-H torsion
[ 10718 10713 10712 10709 ] final   54.17 input   66.30 | X-H torsion
[ 10763 10752 10751 10750 ] final -174.80 input  -60.55 | X-H torsion
[ 11005 11000 10999 10996 ] final -167.15 input  -57.11 | X-H torsion

> <Gold.Protein.ActiveResidues>
 VAL166  LYS551  ARG553  GLY616  TRP617  ASP618  TYR619  PRO620  LYS621  CYS622 
 ASP623  PHE694  ASN695  SER759  ASP760  ASP761  ALA762  ILE779  LEU786  VAL792 
 PHE793  MET794  SER795  GLU796  ALA797  LYS798  CYS799  TRP800  GLU811  SER814 

> <Gold.Protein.RotatedAtoms>
  151.7169  135.0902  160.0277 H   0  0  0  0  0  0  0  0  0  0  0  0  # atno 6907 bound_to 6896
  152.3627  133.6312  159.6035 H   0  0  0  0  0  0  0  0  0  0  0  0  # atno 6908 bound_to 6896
  150.7615  133.9315  159.3470 H   0  0  0  0  0  0  0  0  0  0  0  0  # atno 6909 bound_to 6896
  145.0970  139.3545  143.4831 H   0  0  0  0  0  0  0  0  0  0  0  0  # atno 7974 bound_to 7965
  154.8129  140.2871  155.5840 H   0  0  0  0  0  0  0  0  0  0  0  0  # atno 8008 bound_to 7997
  156.2990  140.2565  156.2951 H   0  0  0  0  0  0  0  0  0  0  0  0  # atno 8009 bound_to 7997
  154.9427  140.0381  157.2094 H   0  0  0  0  0  0  0  0  0  0  0  0  # atno 8010 bound_to 7997
  140.6397  143.7803  150.7410 H   0  0  0  0  0  0  0  0  0  0  0  0  # atno 10167 bound_to 10162
  157.5233  130.8580  149.8588 H   0  0  0  0  0  0  0  0  0  0  0  0  # atno 10718 bound_to 10713
  154.5920  135.2846  155.0625 H   0  0  0  0  0  0  0  0  0  0  0  0  # atno 10763 bound_to 10752
  154.1922  135.6438  153.5067 H   0  0  0  0  0  0  0  0  0  0  0  0  # atno 10764 bound_to 10752
  153.0125  135.5449  154.6609 H   0  0  0  0  0  0  0  0  0  0  0  0  # atno 10765 bound_to 10752
  140.5565  134.5376  157.5134 H   0  0  0  0  0  0  0  0  0  0  0  0  # atno 11005 bound_to 11000
  146.3530  140.0831  142.8616 LP  0  0  0  0  0  0  0  0  0  0  0  0  # atno 17320 bound_to 7965
  145.0999  140.9339  143.4719 LP  0  0  0  0  0  0  0  0  0  0  0  0  # atno 17321 bound_to 7965
  140.1432  143.4423  152.2180 LP  0  0  0  0  0  0  0  0  0  0  0  0  # atno 17342 bound_to 10162
  139.5606  144.7403  151.4165 LP  0  0  0  0  0  0  0  0  0  0  0  0  # atno 17343 bound_to 10162
  156.0369  130.3749  150.1537 LP  0  0  0  0  0  0  0  0  0  0  0  0  # atno 17370 bound_to 10713
  156.9724  130.9839  151.3456 LP  0  0  0  0  0  0  0  0  0  0  0  0  # atno 17371 bound_to 10713
  139.9429  134.7754  156.0634 LP  0  0  0  0  0  0  0  0  0  0  0  0  # atno 17394 bound_to 11000
  141.1140  133.6634  156.3049 LP  0  0  0  0  0  0  0  0  0  0  0  0  # atno 17395 bound_to 11000

$$$$
