AV-unprocessed.smi:3248|AV-procd|sdf|12416|dock1
  -GOLD-   2272018303D 1   1.00000     0.00000
 Structure written by MMmdl.
 38 39  0  0  0  0  0  0  0  0  1 V2000
  148.5741  134.8062  157.7750 C   0  0  0  0  0  0  0  0  0  0  0  0
  148.2067  136.2789  157.9999 C   0  0  1  0  0  0  0  0  0  0  0  0
  148.8455  136.8299  159.2918 C   0  0  0  0  0  0  0  0  0  0  0  0
  148.1790  136.3507  160.4904 N   0  0  0  0  0  0  0  0  0  0  0  0
  147.9252  135.0486  160.8663 C   0  0  0  0  0  0  0  0  0  0  0  0
  147.2586  135.0927  162.0569 C   0  0  0  0  0  0  0  0  0  0  0  0
  147.1513  136.4842  162.3334 C   0  0  0  0  0  0  0  0  0  0  0  0
  147.7055  137.2349  161.3955 N   0  0  0  0  0  0  0  0  0  0  0  0
  148.6363  137.0616  156.8421 N   0  0  0  0  0  0  0  0  0  0  0  0
  148.7059  138.4029  156.7788 C   0  0  0  0  0  0  0  0  0  0  0  0
  148.2881  139.1330  157.6774 O   0  0  0  0  0  0  0  0  0  0  0  0
  149.1818  138.8560  155.5937 N   0  0  0  0  0  0  0  0  0  0  0  0
  150.2636  138.1406  154.9009 C   0  0  0  0  0  0  0  0  0  0  0  0
  151.6072  138.7712  155.3163 C   0  0  0  0  0  0  0  0  0  0  0  0
  151.6113  140.1598  154.9934 O   0  0  0  0  0  0  0  0  0  0  0  0
  150.5452  140.8852  155.6029 C   0  0  0  0  0  0  0  0  0  0  0  0
  149.1983  140.2702  155.1720 C   0  0  2  0  0  0  0  0  0  0  0  0
  147.9864  141.1103  155.6267 C   0  0  0  0  0  0  0  0  0  0  0  0
  148.2425  134.1882  158.6098 H   0  0  0  0  0  0  0  0  0  0  0  0
  149.6519  134.6758  157.6718 H   0  0  0  0  0  0  0  0  0  0  0  0
  148.1029  134.4175  156.8716 H   0  0  0  0  0  0  0  0  0  0  0  0
  147.1213  136.3274  158.1032 H   0  0  0  0  0  0  0  0  0  0  0  0
  149.8920  136.5281  159.3497 H   0  0  0  0  0  0  0  0  0  0  0  0
  148.8370  137.9213  159.2890 H   0  0  0  0  0  0  0  0  0  0  0  0
  148.2310  134.2099  160.2583 H   0  0  0  0  0  0  0  0  0  0  0  0
  146.8998  134.2582  162.6406 H   0  0  0  0  0  0  0  0  0  0  0  0
  146.6895  136.9681  163.1812 H   0  0  0  0  0  0  0  0  0  0  0  0
  148.9578  136.5404  156.0395 H   0  0  0  0  0  0  0  0  0  0  0  0
  150.2828  137.0724  155.1203 H   0  0  0  0  0  0  0  0  0  0  0  0
  150.1269  138.2183  153.8216 H   0  0  0  0  0  0  0  0  0  0  0  0
  151.7855  138.6401  156.3845 H   0  0  0  0  0  0  0  0  0  0  0  0
  152.4307  138.2846  154.7939 H   0  0  0  0  0  0  0  0  0  0  0  0
  150.6560  140.8750  156.6883 H   0  0  0  0  0  0  0  0  0  0  0  0
  150.6086  141.9258  155.2842 H   0  0  0  0  0  0  0  0  0  0  0  0
  149.1619  140.2780  154.0810 H   0  0  0  0  0  0  0  0  0  0  0  0
  147.9731  142.0691  155.1078 H   0  0  0  0  0  0  0  0  0  0  0  0
  148.0074  141.3321  156.6933 H   0  0  0  0  0  0  0  0  0  0  0  0
  147.0469  140.6057  155.4005 H   0  0  0  0  0  0  0  0  0  0  0  0
  1  2  1  0  0  0  0
  1 19  1  0  0  0  0
  1 20  1  0  0  0  0
  1 21  1  0  0  0  0
  2  3  1  0  0  0  0
  2  9  1  0  0  0  0
  2 22  1  0  0  0  0
  3  4  1  0  0  0  0
  3 23  1  0  0  0  0
  3 24  1  0  0  0  0
  4  8  1  0  0  0  0
  4  5  1  0  0  0  0
  5  6  2  0  0  0  0
  5 25  1  0  0  0  0
  6  7  1  0  0  0  0
  6 26  1  0  0  0  0
  7  8  2  0  0  0  0
  7 27  1  0  0  0  0
  9 10  1  0  0  0  0
  9 28  1  0  0  0  0
 10 11  2  0  0  0  0
 10 12  1  0  0  0  0
 12 17  1  0  0  0  0
 12 13  1  0  0  0  0
 13 14  1  0  0  0  0
 13 29  1  0  0  0  0
 13 30  1  0  0  0  0
 14 15  1  0  0  0  0
 14 31  1  0  0  0  0
 14 32  1  0  0  0  0
 15 16  1  0  0  0  0
 16 17  1  0  0  0  0
 16 33  1  0  0  0  0
 16 34  1  0  0  0  0
 17 18  1  0  0  0  0
 17 35  1  0  0  0  0
 18 36  1  0  0  0  0
 18 37  1  0  0  0  0
 18 38  1  0  0  0  0
M  END
> <s_m_source_file>
AV-unprocessed.smi

> <i_m_source_file_index>
3248

> <i_lp_mmshare_version>
43012

> <i_f3d_flags>
0

> <s_epik_input>
bjFbY0hdW2NIXVtjSF1uMVtDSDJdW0NAQEhdKFtDSDNdKVtOSF1DKD1PKU4yW0NIMl1bQ0gyXU9bQ0gyXVtDQEhdMltDSDNd

> <s_epik_cmdline>
J2VwaWtfcHl0aG9uJywgJy1waCcsICc3LjAnLCAnLXRuJywgJzgnLCAnLW1hJywgJzIwMCcsICctbWV0YWxfYmluZGluZycsICctaW1hZScsICc8aW5maWxlLm1hZT4nLCAnLW9tYWUnLCAnPG91dGZpbGUubWFlPic=

> <r_lp_tautomer_probability>
1

> <r_epik_Ionization_Penalty>
4.45233e-05

> <r_epik_Ionization_Penalty_Charging>
0

> <r_epik_Ionization_Penalty_Neutral>
4.45233e-05

> <r_epik_State_Penalty>
-0

> <r_epik_Charging_Adjusted_Penalty>
0

> <i_epik_Tot_Q>
0

> <i_epik_Tot_abs_Q>
0

> <r_epik_Metal_State_Penalty>
-0

> <b_epik_Metal_Only>
0

> <s_lp_Force_Field>
OPLS_2005

> <r_lp_Energy>
30.7838

> <b_lp_Chiralities_Consistent>
1

> <s_lp_Variant>
AV-unprocessed.smi:3248-4

> <Gold.Version>
5.8.1

> <Gold.Id.Protein>
6NUR|6NUR_protein|mol2

> <Gold.PLP.Fitness>
35.8899

> <Gold.PLP.PLP>
-28.1609

> <Gold.PLP.part.hbond>
-3.0000

> <Gold.PLP.part.metal>
0.0000

> <Gold.PLP.part.buried>
-3.5705

> <Gold.PLP.part.nonpolar>
-21.0210

> <Gold.PLP.part.repulsive>
0.0484

> <Gold.PLP.ligand.clash>
0.0000

> <Gold.PLP.ligand.torsion>
0.5872

> <Gold.PLP.Chemscore.Hbond>
2.7840

> <Gold.PLP.Chemscore.CHOScore>
0.0000

> <Gold.PLP.Chemscore.Metal>
0.0000

> <Gold.Chemscore.Hbonds>
donor molecule, donor type, donor heavy atom, donor atom, acceptor molecule, acceptor atom, score
      P1  H  6931  6943       L1     8  0.98
      P1  H  6934  6947       L1     8  0.78
      P1  H  7989  7998       L1    15  1.00

> <Gold.PLP.Chemscore.Internal.Correction>
0.5514

> <Gold.Rescore>
     Score         DG    S(hbond)    S(metal)    S(lipo)     H(rot)  DE(clash)    DE(int)     intcor
     13.74     -17.08       2.41        0.00      61.38       1.42       0.09       3.25       ----

> <Gold.Chemscore.Fitness>
13.7435

> <Gold.Chemscore.DG>
-17.0820

> <Gold.Chemscore.ZeroCoef>
-5.4800

> <Gold.Chemscore.Hbond>
2.4114

> <Gold.Chemscore.Metal>
0.0000

> <Gold.Chemscore.Lipo>
61.3757

> <Gold.Chemscore.Internal_Hbond>
0.0000

> <Gold.Chemscore.DEClash>
0.0934

> <Gold.Chemscore.DEInternal>
3.2451

> <Gold.Chemscore.Rot>
1.4191

> <Gold.Chemscore.Internal.Correction>
   9.000000E+99

> <Gold.Chemscore.Hbonds>
donor molecule, donor type, donor heavy atom, donor atom, acceptor molecule, acceptor atom, score
      P1  H  6931  6943       L1     8  0.57
      P1  H  6934  6947       L1     8  0.77
      P1  H  7989  7998       L1    15  0.28

> <Gold.Chemscore.Hbond.Weighted>
-8.0540

> <Gold.Chemscore.Metal.Weighted>
-0.0000

> <Gold.Chemscore.Lipo.Weighted>
-7.1810

> <Gold.Chemscore.Internal_Hbond.Weighted>
0.0000

> <Gold.Chemscore.DEClash.Weighted>
0.0934

> <Gold.Chemscore.DEInternal.Weighted>
3.2451

> <Gold.Chemscore.Rot.Weighted>
3.6330

> <Gold.Chemscore.Internal.Correction.Weighted>
   9.000000E+99

> <Gold.Protein.RotatedTorsions>
[ 6907 6896 6895 6894 ] final -156.03 input  -60.11 | X-H torsion
[ 7974 7965 7964 7962 ] final -138.33 input  175.53 | X-H torsion
[ 8008 7997 7996 7995 ] final -159.39 input   59.86 | X-H torsion
[ 10167 10162 10161 10158 ] final  -98.74 input  -65.29 | X-H torsion
[ 10718 10713 10712 10709 ] final   17.30 input   66.30 | X-H torsion
[ 10763 10752 10751 10750 ] final   63.66 input  -60.55 | X-H torsion
[ 11005 11000 10999 10996 ] final  123.30 input  -57.11 | X-H torsion

> <Gold.Protein.ActiveResidues>
 VAL166  LYS551  ARG553  GLY616  TRP617  ASP618  TYR619  PRO620  LYS621  CYS622 
 ASP623  PHE694  ASN695  SER759  ASP760  ASP761  ALA762  ILE779  LEU786  VAL792 
 PHE793  MET794  SER795  GLU796  ALA797  LYS798  CYS799  TRP800  GLU811  SER814 

> <Gold.Protein.RotatedAtoms>
  151.2814  133.4208  159.2626 H   0  0  0  0  0  0  0  0  0  0  0  0  # atno 6907 bound_to 6896
  151.0357  134.9572  159.8145 H   0  0  0  0  0  0  0  0  0  0  0  0  # atno 6908 bound_to 6896
  152.5355  134.2774  159.9047 H   0  0  0  0  0  0  0  0  0  0  0  0  # atno 6909 bound_to 6896
  144.8768  140.6448  143.5232 H   0  0  0  0  0  0  0  0  0  0  0  0  # atno 7974 bound_to 7965
  155.7618  140.0840  157.2151 H   0  0  0  0  0  0  0  0  0  0  0  0  # atno 8008 bound_to 7997
  154.4003  140.1541  156.2898 H   0  0  0  0  0  0  0  0  0  0  0  0  # atno 8009 bound_to 7997
  155.8832  140.3419  155.5905 H   0  0  0  0  0  0  0  0  0  0  0  0  # atno 8010 bound_to 7997
  140.2698  143.3351  152.0545 H   0  0  0  0  0  0  0  0  0  0  0  0  # atno 10167 bound_to 10162
  157.0801  130.6384  149.5824 H   0  0  0  0  0  0  0  0  0  0  0  0  # atno 10718 bound_to 10713
  153.0026  135.5421  154.6387 H   0  0  0  0  0  0  0  0  0  0  0  0  # atno 10763 bound_to 10752
  154.5648  135.2837  155.0887 H   0  0  0  0  0  0  0  0  0  0  0  0  # atno 10764 bound_to 10752
  154.2076  135.6473  153.5158 H   0  0  0  0  0  0  0  0  0  0  0  0  # atno 10765 bound_to 10752
  139.9306  134.9641  156.8239 H   0  0  0  0  0  0  0  0  0  0  0  0  # atno 11005 bound_to 11000
  145.4028  139.1594  143.4168 LP  0  0  0  0  0  0  0  0  0  0  0  0  # atno 17320 bound_to 7965
  146.2968  140.4127  142.8719 LP  0  0  0  0  0  0  0  0  0  0  0  0  # atno 17321 bound_to 7965
  139.4992  144.6664  151.6347 LP  0  0  0  0  0  0  0  0  0  0  0  0  # atno 17342 bound_to 10162
  140.5898  143.9799  150.6318 LP  0  0  0  0  0  0  0  0  0  0  0  0  # atno 17343 bound_to 10162
  155.9926  130.4984  150.7346 LP  0  0  0  0  0  0  0  0  0  0  0  0  # atno 17370 bound_to 10713
  157.4807  131.0902  151.0539 LP  0  0  0  0  0  0  0  0  0  0  0  0  # atno 17371 bound_to 10713
  140.6212  133.9992  155.7619 LP  0  0  0  0  0  0  0  0  0  0  0  0  # atno 17394 bound_to 11000
  141.0893  133.9942  157.3263 LP  0  0  0  0  0  0  0  0  0  0  0  0  # atno 17395 bound_to 11000

$$$$
