AV-unprocessed.smi:2061|AV-procd|sdf|8365|dock1
  -GOLD-   2272011 33D 1   1.00000     0.00000
 Structure written by MMmdl.
 45 46  0  0  0  0  0  0  0  0  1 V2000
  138.3282  137.0396  153.4625 C   0  0  0  0  0  0  0  0  0  0  0  0
  139.7949  137.1057  153.7169 C   0  0  0  0  0  0  0  0  0  0  0  0
  140.7527  138.0289  153.4034 C   0  0  0  0  0  0  0  0  0  0  0  0
  141.9352  137.4600  153.9472 C   0  0  0  0  0  0  0  0  0  0  0  0
  143.1828  138.1244  153.8305 N   0  0  0  0  0  0  0  0  0  0  0  0
  144.3872  137.6807  154.2291 C   0  0  0  0  0  0  0  0  0  0  0  0
  144.5958  136.6029  154.7863 O   0  0  0  0  0  0  0  0  0  0  0  0
  145.3498  138.5718  153.9485 N   0  0  0  0  0  0  0  0  0  0  0  0
  146.7718  138.4111  154.2461 C   0  0  0  0  0  0  0  0  0  0  0  0
  147.5866  139.7211  154.0484 C   0  0  1  0  0  0  0  0  0  0  0  0
  146.6711  140.9357  154.3504 C   0  0  0  0  0  0  0  0  0  0  0  0
  148.8486  139.7514  154.8265 N   0  0  0  0  0  0  0  0  0  0  0  0
  149.3201  141.1190  155.0748 C   0  0  0  0  0  0  0  0  0  0  0  0
  150.6446  141.1881  155.8602 C   0  0  1  0  0  0  0  0  0  0  0  0
  150.4869  140.8546  157.3537 C   0  0  0  0  0  0  0  0  0  0  0  0
  151.6363  140.3776  155.2347 O   0  0  0  0  0  0  0  0  0  0  0  0
  151.2419  139.0305  154.9999 C   0  0  2  0  0  0  0  0  0  0  0  0
  152.3900  138.3225  154.2728 C   0  0  0  0  0  0  0  0  0  0  0  0
  149.9375  139.0103  154.1822 C   0  0  0  0  0  0  0  0  0  0  0  0
  141.7189  136.2950  154.5382 N   0  0  0  0  0  0  0  0  0  0  0  0
  140.3464  136.0615  154.3930 O   0  0  0  0  0  0  0  0  0  0  0  0
  137.9480  138.0039  153.1249 H   0  0  0  0  0  0  0  0  0  0  0  0
  137.7893  136.7626  154.3688 H   0  0  0  0  0  0  0  0  0  0  0  0
  138.1029  136.2992  152.6946 H   0  0  0  0  0  0  0  0  0  0  0  0
  140.6245  138.9595  152.8710 H   0  0  0  0  0  0  0  0  0  0  0  0
  143.1554  139.0336  153.3936 H   0  0  0  0  0  0  0  0  0  0  0  0
  145.0803  139.4307  153.4917 H   0  0  0  0  0  0  0  0  0  0  0  0
  146.9305  138.0211  155.2529 H   0  0  0  0  0  0  0  0  0  0  0  0
  147.1035  137.6336  153.5607 H   0  0  0  0  0  0  0  0  0  0  0  0
  147.8454  139.7750  152.9897 H   0  0  0  0  0  0  0  0  0  0  0  0
  145.7352  140.9008  153.7948 H   0  0  0  0  0  0  0  0  0  0  0  0
  147.1253  141.8835  154.0666 H   0  0  0  0  0  0  0  0  0  0  0  0
  146.4201  140.9852  155.4105 H   0  0  0  0  0  0  0  0  0  0  0  0
  149.4491  141.6329  154.1209 H   0  0  0  0  0  0  0  0  0  0  0  0
  148.5841  141.6892  155.6380 H   0  0  0  0  0  0  0  0  0  0  0  0
  151.0111  142.2135  155.8036 H   0  0  0  0  0  0  0  0  0  0  0  0
  149.8155  141.5630  157.8394 H   0  0  0  0  0  0  0  0  0  0  0  0
  151.4473  140.9060  157.8669 H   0  0  0  0  0  0  0  0  0  0  0  0
  150.0754  139.8579  157.5114 H   0  0  0  0  0  0  0  0  0  0  0  0
  151.0811  138.5264  155.9533 H   0  0  0  0  0  0  0  0  0  0  0  0
  152.1476  137.2773  154.0794 H   0  0  0  0  0  0  0  0  0  0  0  0
  153.3018  138.3463  154.8699 H   0  0  0  0  0  0  0  0  0  0  0  0
  152.6057  138.7998  153.3165 H   0  0  0  0  0  0  0  0  0  0  0  0
  149.6676  137.9639  154.0547 H   0  0  0  0  0  0  0  0  0  0  0  0
  150.1206  139.4155  153.1857 H   0  0  0  0  0  0  0  0  0  0  0  0
  1  2  1  0  0  0  0
  1 22  1  0  0  0  0
  1 23  1  0  0  0  0
  1 24  1  0  0  0  0
  2 21  1  0  0  0  0
  2  3  2  0  0  0  0
  3  4  1  0  0  0  0
  3 25  1  0  0  0  0
  4  5  1  0  0  0  0
  4 20  2  0  0  0  0
  5  6  1  0  0  0  0
  5 26  1  0  0  0  0
  6  7  2  0  0  0  0
  6  8  1  0  0  0  0
  8  9  1  0  0  0  0
  8 27  1  0  0  0  0
  9 10  1  0  0  0  0
  9 28  1  0  0  0  0
  9 29  1  0  0  0  0
 10 11  1  0  0  0  0
 10 12  1  0  0  0  0
 10 30  1  0  0  0  0
 11 31  1  0  0  0  0
 11 32  1  0  0  0  0
 11 33  1  0  0  0  0
 12 19  1  0  0  0  0
 12 13  1  0  0  0  0
 13 14  1  0  0  0  0
 13 34  1  0  0  0  0
 13 35  1  0  0  0  0
 14 15  1  0  0  0  0
 14 16  1  0  0  0  0
 14 36  1  0  0  0  0
 15 37  1  0  0  0  0
 15 38  1  0  0  0  0
 15 39  1  0  0  0  0
 16 17  1  0  0  0  0
 17 18  1  0  0  0  0
 17 19  1  0  0  0  0
 17 40  1  0  0  0  0
 18 41  1  0  0  0  0
 18 42  1  0  0  0  0
 18 43  1  0  0  0  0
 19 44  1  0  0  0  0
 19 45  1  0  0  0  0
 20 21  1  0  0  0  0
M  END
> <s_m_source_file>
AV-unprocessed.smi

> <i_m_source_file_index>
2061

> <i_lp_mmshare_version>
43012

> <i_f3d_flags>
0

> <s_epik_input>
W0NIM11jMVtjSF1jKG5vMSlbTkhdQyg9TylbTkhdW0NIMl1bQ0BIXShbQ0gzXSlOMltDSDJdW0NAQEhdKFtDSDNdKU9bQ0BASF0oW0NIM10pW0NIMl0y

> <s_epik_cmdline>
J2VwaWtfcHl0aG9uJywgJy1waCcsICc3LjAnLCAnLXRuJywgJzgnLCAnLW1hJywgJzIwMCcsICctbWV0YWxfYmluZGluZycsICctaW1hZScsICc8aW5maWxlLm1hZT4nLCAnLW9tYWUnLCAnPG91dGZpbGUubWFlPic=

> <r_epik_Ionization_Penalty>
0.214073

> <r_epik_Ionization_Penalty_Charging>
0

> <r_epik_Ionization_Penalty_Neutral>
0.214073

> <r_epik_State_Penalty>
0.204211

> <r_epik_Charging_Adjusted_Penalty>
0.204211

> <i_epik_Tot_Q>
0

> <i_epik_Tot_abs_Q>
0

> <r_epik_Metal_State_Penalty>
0.217067

> <b_epik_Metal_Only>
0

> <s_lp_Force_Field>
OPLS_2005

> <r_lp_Energy>
29.5026

> <b_lp_Chiralities_Consistent>
1

> <s_lp_Variant>
AV-unprocessed.smi:2061-6

> <Gold.Version>
5.8.1

> <Gold.Id.Protein>
6NUR|6NUR_protein|mol2

> <Gold.PLP.Fitness>
44.1701

> <Gold.PLP.PLP>
-34.8282

> <Gold.PLP.part.hbond>
-4.3009

> <Gold.PLP.part.metal>
0.0000

> <Gold.PLP.part.buried>
-6.6236

> <Gold.PLP.part.nonpolar>
-25.5273

> <Gold.PLP.part.repulsive>
0.1912

> <Gold.PLP.ligand.clash>
0.4426

> <Gold.PLP.ligand.torsion>
0.8822

> <Gold.PLP.Chemscore.Hbond>
3.8240

> <Gold.PLP.Chemscore.CHOScore>
0.0000

> <Gold.PLP.Chemscore.Metal>
0.0000

> <Gold.Chemscore.Hbonds>
donor molecule, donor type, donor heavy atom, donor atom, acceptor molecule, acceptor atom, score
      L1  H     5    26       P1 10175  1.00
      L1  H     8    27       P1 10175  0.96
      P1  H  7989  7998       L1    16  0.73
      P1  H 11000 11005       L1    21  0.84

> <Gold.PLP.Chemscore.Internal.Correction>
0.0768

> <Gold.Rescore>
     Score         DG    S(hbond)    S(metal)    S(lipo)     H(rot)  DE(clash)    DE(int)     intcor
     16.65     -19.10       2.37        0.00      82.51       1.55       0.27       2.17       ----

> <Gold.Chemscore.Fitness>
16.6536

> <Gold.Chemscore.DG>
-19.1015

> <Gold.Chemscore.ZeroCoef>
-5.4800

> <Gold.Chemscore.Hbond>
2.3739

> <Gold.Chemscore.Metal>
0.0000

> <Gold.Chemscore.Lipo>
82.5121

> <Gold.Chemscore.Internal_Hbond>
0.0000

> <Gold.Chemscore.DEClash>
0.2745

> <Gold.Chemscore.DEInternal>
2.1734

> <Gold.Chemscore.Rot>
1.5474

> <Gold.Chemscore.Internal.Correction>
   9.000000E+99

> <Gold.Chemscore.Hbonds>
donor molecule, donor type, donor heavy atom, donor atom, acceptor molecule, acceptor atom, score
      L1  H     5    26       P1 10175  1.00
      L1  H     8    27       P1 10175  0.87
      P1  H  7989  7998       L1    16  0.07
      P1  H 11000 11005       L1    21  0.24

> <Gold.Chemscore.Hbond.Weighted>
-7.9288

> <Gold.Chemscore.Metal.Weighted>
-0.0000

> <Gold.Chemscore.Lipo.Weighted>
-9.6539

> <Gold.Chemscore.Internal_Hbond.Weighted>
0.0000

> <Gold.Chemscore.DEClash.Weighted>
0.2745

> <Gold.Chemscore.DEInternal.Weighted>
2.1734

> <Gold.Chemscore.Rot.Weighted>
3.9612

> <Gold.Chemscore.Internal.Correction.Weighted>
   9.000000E+99

> <Gold.Protein.RotatedTorsions>
[ 6907 6896 6895 6894 ] final -174.79 input  -60.11 | X-H torsion
[ 7974 7965 7964 7962 ] final   37.37 input  175.53 | X-H torsion
[ 8008 7997 7996 7995 ] final   80.34 input   59.86 | X-H torsion
[ 10167 10162 10161 10158 ] final  -58.01 input  -65.29 | X-H torsion
[ 10718 10713 10712 10709 ] final  170.04 input   66.30 | X-H torsion
[ 10763 10752 10751 10750 ] final   72.90 input  -60.55 | X-H torsion
[ 11005 11000 10999 10996 ] final   63.35 input  -57.11 | X-H torsion

> <Gold.Protein.ActiveResidues>
 VAL166  LYS551  ARG553  GLY616  TRP617  ASP618  TYR619  PRO620  LYS621  CYS622 
 ASP623  PHE694  ASN695  SER759  ASP760  ASP761  ALA762  ILE779  LEU786  VAL792 
 PHE793  MET794  SER795  GLU796  ALA797  LYS798  CYS799  TRP800  GLU811  SER814 

> <Gold.Protein.RotatedAtoms>
  151.5781  133.3381  159.3002 H   0  0  0  0  0  0  0  0  0  0  0  0  # atno 6907 bound_to 6896
  150.8329  134.7593  159.6880 H   0  0  0  0  0  0  0  0  0  0  0  0  # atno 6908 bound_to 6896
  152.4410  134.5598  159.9942 H   0  0  0  0  0  0  0  0  0  0  0  0  # atno 6909 bound_to 6896
  146.1142  139.5902  142.9332 H   0  0  0  0  0  0  0  0  0  0  0  0  # atno 7974 bound_to 7965
  155.8822  140.3443  155.5895 H   0  0  0  0  0  0  0  0  0  0  0  0  # atno 8008 bound_to 7997
  155.7707  140.0845  157.2128 H   0  0  0  0  0  0  0  0  0  0  0  0  # atno 8009 bound_to 7997
  154.4025  140.1519  156.2926 H   0  0  0  0  0  0  0  0  0  0  0  0  # atno 8010 bound_to 7997
  140.6223  143.2424  151.5449 H   0  0  0  0  0  0  0  0  0  0  0  0  # atno 10167 bound_to 10162
  157.0139  131.0212  151.2795 H   0  0  0  0  0  0  0  0  0  0  0  0  # atno 10718 bound_to 10713
  153.0487  135.5083  154.7813 H   0  0  0  0  0  0  0  0  0  0  0  0  # atno 10763 bound_to 10752
  154.6692  135.2950  154.9767 H   0  0  0  0  0  0  0  0  0  0  0  0  # atno 10764 bound_to 10752
  154.0591  135.6693  153.4862 H   0  0  0  0  0  0  0  0  0  0  0  0  # atno 10765 bound_to 10752
  140.0031  134.6412  155.9899 H   0  0  0  0  0  0  0  0  0  0  0  0  # atno 11005 bound_to 11000
  145.5601  141.0405  143.2231 LP  0  0  0  0  0  0  0  0  0  0  0  0  # atno 17320 bound_to 7965
  144.7538  139.7125  143.7262 LP  0  0  0  0  0  0  0  0  0  0  0  0  # atno 17321 bound_to 7965
  139.5449  144.2547  152.1424 LP  0  0  0  0  0  0  0  0  0  0  0  0  # atno 17342 bound_to 10162
  140.1770  144.4881  150.6549 LP  0  0  0  0  0  0  0  0  0  0  0  0  # atno 17343 bound_to 10162
  157.5300  130.8052  149.7906 LP  0  0  0  0  0  0  0  0  0  0  0  0  # atno 17370 bound_to 10713
  156.0126  130.3827  150.2214 LP  0  0  0  0  0  0  0  0  0  0  0  0  # atno 17371 bound_to 10713
  141.1656  133.6537  156.4470 LP  0  0  0  0  0  0  0  0  0  0  0  0  # atno 17394 bound_to 11000
  140.4692  134.6769  157.5121 LP  0  0  0  0  0  0  0  0  0  0  0  0  # atno 17395 bound_to 11000

$$$$
