AV-unprocessed.smi:2237|AV-procd|sdf|9053|dock1
  -GOLD-   2272012253D 1   1.00000     0.00000
 Structure written by MMmdl.
 54 56  0  0  0  0  0  0  0  0  2 V2000
  153.7432  141.9891  161.3798 C   0  0  0  0  0  0  0  0  0  0  0  0
  152.9846  142.4627  160.1580 C   0  0  0  0  0  0  0  0  0  0  0  0
  152.9720  143.8235  159.7944 C   0  0  0  0  0  0  0  0  0  0  0  0
  152.2507  144.1956  158.6459 C   0  0  0  0  0  0  0  0  0  0  0  0
  151.5771  143.1991  157.9132 C   0  0  0  0  0  0  0  0  0  0  0  0
  151.6360  141.8566  158.3494 C   0  0  0  0  0  0  0  0  0  0  0  0
  150.9302  140.9267  157.5400 N   0  0  0  0  0  0  0  0  0  0  0  0
  149.8439  141.1488  156.7790 C   0  0  0  0  0  0  0  0  0  0  0  0
  149.3090  142.2441  156.6044 O   0  0  0  0  0  0  0  0  0  0  0  0
  149.4100  140.0164  156.2056 N   0  0  0  0  0  0  0  0  0  0  0  0
  148.2689  139.9188  155.2996 C   0  0  2  0  0  0  0  0  0  0  0  0
  148.4713  140.8524  154.0935 C   0  0  0  0  0  0  0  0  0  0  0  0
  147.2205  140.8600  153.1946 C   0  0  0  0  0  0  0  0  0  0  0  0
  146.0043  141.2822  153.9470 N   0  3  2  0  0  0  0  0  0  0  0  0
  145.9444  142.7355  154.3232 C   0  0  0  0  0  0  0  0  0  0  0  0
  144.6767  143.0630  155.1477 C   0  0  0  0  0  0  0  0  0  0  0  0
  144.5493  144.5668  155.4449 C   0  0  0  0  0  0  0  0  0  0  0  0
  144.5078  145.3226  154.1966 N   0  0  0  0  0  0  0  0  0  0  0  0
  144.3143  146.7349  154.4935 C   0  0  0  0  0  0  0  0  0  0  0  0
  145.7684  145.1490  153.4813 C   0  0  0  0  0  0  0  0  0  0  0  0
  145.9557  143.6732  153.0914 C   0  0  0  0  0  0  0  0  0  0  0  0
  145.7663  140.3307  155.0709 C   0  0  0  0  0  0  0  0  0  0  0  0
  146.9635  140.2678  156.0406 C   0  0  0  0  0  0  0  0  0  0  0  0
  152.3346  141.5075  159.4585 N   0  0  0  0  0  0  0  0  0  0  0  0
  154.3853  142.7763  161.7760 H   0  0  0  0  0  0  0  0  0  0  0  0
  154.3711  141.1330  161.1310 H   0  0  0  0  0  0  0  0  0  0  0  0
  153.0467  141.6886  162.1628 H   0  0  0  0  0  0  0  0  0  0  0  0
  153.5003  144.5639  160.3773 H   0  0  0  0  0  0  0  0  0  0  0  0
  152.2143  145.2279  158.3307 H   0  0  0  0  0  0  0  0  0  0  0  0
  151.0198  143.4689  157.0278 H   0  0  0  0  0  0  0  0  0  0  0  0
  151.2909  139.9842  157.5480 H   0  0  0  0  0  0  0  0  0  0  0  0
  149.9106  139.1622  156.4035 H   0  0  0  0  0  0  0  0  0  0  0  0
  148.1893  138.8991  154.9171 H   0  0  0  0  0  0  0  0  0  0  0  0
  148.6961  141.8653  154.4295 H   0  0  0  0  0  0  0  0  0  0  0  0
  149.3354  140.5246  153.5144 H   0  0  0  0  0  0  0  0  0  0  0  0
  147.3808  141.4585  152.3002 H   0  0  0  0  0  0  0  0  0  0  0  0
  147.0517  139.8501  152.8180 H   0  0  0  0  0  0  0  0  0  0  0  0
  146.8169  142.9802  154.9291 H   0  0  0  0  0  0  0  0  0  0  0  0
  143.7875  142.7208  154.6157 H   0  0  0  0  0  0  0  0  0  0  0  0
  144.6854  142.5456  156.1053 H   0  0  0  0  0  0  0  0  0  0  0  0
  143.6336  144.7475  156.0096 H   0  0  0  0  0  0  0  0  0  0  0  0
  145.3804  144.9044  156.0667 H   0  0  0  0  0  0  0  0  0  0  0  0
  144.2676  147.3161  153.5718 H   0  0  0  0  0  0  0  0  0  0  0  0
  145.1263  147.1299  155.1060 H   0  0  0  0  0  0  0  0  0  0  0  0
  143.3765  146.8885  155.0286 H   0  0  0  0  0  0  0  0  0  0  0  0
  145.7630  145.7635  152.5801 H   0  0  0  0  0  0  0  0  0  0  0  0
  146.6040  145.4895  154.0955 H   0  0  0  0  0  0  0  0  0  0  0  0
  146.9030  143.6028  152.5580 H   0  0  0  0  0  0  0  0  0  0  0  0
  145.1738  143.3800  152.3893 H   0  0  0  0  0  0  0  0  0  0  0  0
  144.8472  140.5516  155.6093 H   0  0  0  0  0  0  0  0  0  0  0  0
  145.6064  139.3389  154.6455 H   0  0  0  0  0  0  0  0  0  0  0  0
  146.7673  139.5219  156.8119 H   0  0  0  0  0  0  0  0  0  0  0  0
  147.0699  141.2187  156.5637 H   0  0  0  0  0  0  0  0  0  0  0  0
  145.2339  141.1500  153.3068 H   0  0  0  0  0  0  0  0  0  0  0  0
  1  2  1  0  0  0  0
  1 25  1  0  0  0  0
  1 26  1  0  0  0  0
  1 27  1  0  0  0  0
  2 24  1  0  0  0  0
  2  3  2  0  0  0  0
  3  4  1  0  0  0  0
  3 28  1  0  0  0  0
  4  5  2  0  0  0  0
  4 29  1  0  0  0  0
  5  6  1  0  0  0  0
  5 30  1  0  0  0  0
  6  7  1  0  0  0  0
  6 24  2  0  0  0  0
  7  8  1  0  0  0  0
  7 31  1  0  0  0  0
  8  9  2  0  0  0  0
  8 10  1  0  0  0  0
 10 11  1  0  0  0  0
 10 32  1  0  0  0  0
 11 23  1  0  0  0  0
 11 12  1  0  0  0  0
 11 33  1  0  0  0  0
 12 13  1  0  0  0  0
 12 34  1  0  0  0  0
 12 35  1  0  0  0  0
 13 14  1  0  0  0  0
 13 36  1  0  0  0  0
 13 37  1  0  0  0  0
 14 15  1  0  0  0  0
 14 22  1  0  0  0  0
 14 54  1  0  0  0  0
 15 21  1  0  0  0  0
 15 16  1  0  0  0  0
 15 38  1  0  0  0  0
 16 17  1  0  0  0  0
 16 39  1  0  0  0  0
 16 40  1  0  0  0  0
 17 18  1  0  0  0  0
 17 41  1  0  0  0  0
 17 42  1  0  0  0  0
 18 19  1  0  0  0  0
 18 20  1  0  0  0  0
 19 43  1  0  0  0  0
 19 44  1  0  0  0  0
 19 45  1  0  0  0  0
 20 21  1  0  0  0  0
 20 46  1  0  0  0  0
 20 47  1  0  0  0  0
 21 48  1  0  0  0  0
 21 49  1  0  0  0  0
 22 23  1  0  0  0  0
 22 50  1  0  0  0  0
 22 51  1  0  0  0  0
 23 52  1  0  0  0  0
 23 53  1  0  0  0  0
M  CHG  1  14   1
M  END
> <s_m_source_file>
AV-unprocessed.smi

> <i_m_source_file_index>
2237

> <i_lp_mmshare_version>
43012

> <i_f3d_flags>
0

> <s_epik_input>
W0NIM11jMVtjSF1bY0hdW2NIXWMobjEpW05IXUMoPU8pW05IXVtDSF0yW0NIMl1bQ0gyXU4oW0NIMl1bQ0gyXTIpW0NIXTNbQ0gyXVtDSDJdTihbQ0gzXSlbQ0gyXVtDSDJdMw==

> <s_epik_cmdline>
J2VwaWtfcHl0aG9uJywgJy1waCcsICc3LjAnLCAnLXRuJywgJzgnLCAnLW1hJywgJzIwMCcsICctbWV0YWxfYmluZGluZycsICctaW1hZScsICc8aW5maWxlLm1hZT4nLCAnLW9tYWUnLCAnPG91dGZpbGUubWFlPic=

> <r_epik_Ionization_Penalty>
1.37251

> <r_epik_Ionization_Penalty_Charging>
0.00081195

> <r_epik_Ionization_Penalty_Neutral>
1.3717

> <r_epik_State_Penalty>
1.55149

> <r_epik_Charging_Adjusted_Penalty>
1.5523

> <i_epik_Tot_Q>
1

> <i_epik_Tot_abs_Q>
1

> <r_epik_Metal_State_Penalty>
1.55149

> <b_epik_Metal_Only>
0

> <s_lp_Force_Field>
OPLS_2005

> <r_lp_Energy>
34.5276

> <b_lp_Chiralities_Consistent>
1

> <s_lp_Variant>
AV-unprocessed.smi:2237-8

> <Gold.Version>
5.8.1

> <Gold.Id.Protein>
6NUR|6NUR_protein|mol2

> <Gold.PLP.Fitness>
45.2540

> <Gold.PLP.PLP>
-39.6790

> <Gold.PLP.part.hbond>
-1.0000

> <Gold.PLP.part.metal>
0.0000

> <Gold.PLP.part.buried>
-7.5852

> <Gold.PLP.part.nonpolar>
-33.1840

> <Gold.PLP.part.repulsive>
1.6782

> <Gold.PLP.ligand.clash>
0.0000

> <Gold.PLP.ligand.torsion>
0.2392

> <Gold.PLP.Chemscore.Hbond>
2.0000

> <Gold.PLP.Chemscore.CHOScore>
0.0000

> <Gold.PLP.Chemscore.Metal>
0.0000

> <Gold.Chemscore.Hbonds>
donor molecule, donor type, donor heavy atom, donor atom, acceptor molecule, acceptor atom, score
      L1  H    14    54       P1 10175  2.00

> <Gold.PLP.Chemscore.Internal.Correction>
0.0534

> <Gold.Rescore>
     Score         DG    S(hbond)    S(metal)    S(lipo)     H(rot)  DE(clash)    DE(int)     intcor
     14.68     -18.10       0.98        0.00     106.39       1.21       0.38       3.03       ----

> <Gold.Chemscore.Fitness>
14.6840

> <Gold.Chemscore.DG>
-18.1020

> <Gold.Chemscore.ZeroCoef>
-5.4800

> <Gold.Chemscore.Hbond>
0.9804

> <Gold.Chemscore.Metal>
0.0000

> <Gold.Chemscore.Lipo>
106.3944

> <Gold.Chemscore.Internal_Hbond>
0.0000

> <Gold.Chemscore.DEClash>
0.3850

> <Gold.Chemscore.DEInternal>
3.0330

> <Gold.Chemscore.Rot>
1.2113

> <Gold.Chemscore.Internal.Correction>
   9.000000E+99

> <Gold.Chemscore.Hbonds>
donor molecule, donor type, donor heavy atom, donor atom, acceptor molecule, acceptor atom, score
      L1  H    14    54       P1 10175  0.30

> <Gold.Chemscore.Hbond.Weighted>
-3.2747

> <Gold.Chemscore.Metal.Weighted>
-0.0000

> <Gold.Chemscore.Lipo.Weighted>
-12.4481

> <Gold.Chemscore.Internal_Hbond.Weighted>
0.0000

> <Gold.Chemscore.DEClash.Weighted>
0.3850

> <Gold.Chemscore.DEInternal.Weighted>
3.0330

> <Gold.Chemscore.Rot.Weighted>
3.1009

> <Gold.Chemscore.Internal.Correction.Weighted>
   9.000000E+99

> <Gold.Protein.RotatedTorsions>
[ 6907 6896 6895 6894 ] final -110.23 input  -60.11 | X-H torsion
[ 7974 7965 7964 7962 ] final   74.39 input  175.53 | X-H torsion
[ 8008 7997 7996 7995 ] final   51.71 input   59.86 | X-H torsion
[ 10167 10162 10161 10158 ] final  -85.37 input  -65.29 | X-H torsion
[ 10718 10713 10712 10709 ] final  -88.22 input   66.30 | X-H torsion
[ 10763 10752 10751 10750 ] final  -15.31 input  -60.55 | X-H torsion
[ 11005 11000 10999 10996 ] final  -70.01 input  -57.11 | X-H torsion

> <Gold.Protein.ActiveResidues>
 VAL166  LYS551  ARG553  GLY616  TRP617  ASP618  TYR619  PRO620  LYS621  CYS622 
 ASP623  PHE694  ASN695  SER759  ASP760  ASP761  ALA762  ILE779  LEU786  VAL792 
 PHE793  MET794  SER795  GLU796  ALA797  LYS798  CYS799  TRP800  GLU811  SER814 

> <Gold.Protein.RotatedAtoms>
  150.7611  133.9413  159.3456 H   0  0  0  0  0  0  0  0  0  0  0  0  # atno 6907 bound_to 6896
  151.7321  135.0870  160.0311 H   0  0  0  0  0  0  0  0  0  0  0  0  # atno 6908 bound_to 6896
  152.3583  133.6227  159.6032 H   0  0  0  0  0  0  0  0  0  0  0  0  # atno 6909 bound_to 6896
  145.7289  139.2676  143.1553 H   0  0  0  0  0  0  0  0  0  0  0  0  # atno 7974 bound_to 7965
  155.4397  140.3454  155.4288 H   0  0  0  0  0  0  0  0  0  0  0  0  # atno 8008 bound_to 7997
  156.1286  140.1507  156.9129 H   0  0  0  0  0  0  0  0  0  0  0  0  # atno 8009 bound_to 7997
  154.4877  140.0850  156.7504 H   0  0  0  0  0  0  0  0  0  0  0  0  # atno 8010 bound_to 7997
  140.4044  143.2649  151.9100 H   0  0  0  0  0  0  0  0  0  0  0  0  # atno 10167 bound_to 10162
  155.9984  130.4828  150.4986 H   0  0  0  0  0  0  0  0  0  0  0  0  # atno 10718 bound_to 10713
  153.5415  135.7013  153.5634 H   0  0  0  0  0  0  0  0  0  0  0  0  # atno 10763 bound_to 10752
  153.3598  135.3973  155.1710 H   0  0  0  0  0  0  0  0  0  0  0  0  # atno 10764 bound_to 10752
  154.8673  135.3786  154.4919 H   0  0  0  0  0  0  0  0  0  0  0  0  # atno 10765 bound_to 10752
  141.1565  133.6779  156.6687 H   0  0  0  0  0  0  0  0  0  0  0  0  # atno 11005 bound_to 11000
  146.0556  140.8024  142.9760 LP  0  0  0  0  0  0  0  0  0  0  0  0  # atno 17320 bound_to 7965
  144.6898  140.3119  143.7246 LP  0  0  0  0  0  0  0  0  0  0  0  0  # atno 17321 bound_to 7965
  139.4784  144.5601  151.8253 LP  0  0  0  0  0  0  0  0  0  0  0  0  # atno 17342 bound_to 10162
  140.4705  144.1593  150.5917 LP  0  0  0  0  0  0  0  0  0  0  0  0  # atno 17343 bound_to 10162
  157.2972  131.0638  151.2093 LP  0  0  0  0  0  0  0  0  0  0  0  0  # atno 17370 bound_to 10713
  157.3085  130.6878  149.6202 LP  0  0  0  0  0  0  0  0  0  0  0  0  # atno 17371 bound_to 10713
  140.3191  134.8022  157.4238 LP  0  0  0  0  0  0  0  0  0  0  0  0  # atno 17394 bound_to 11000
  140.1112  134.5343  155.8264 LP  0  0  0  0  0  0  0  0  0  0  0  0  # atno 17395 bound_to 11000

$$$$
