AV-unprocessed.smi:3274|AV-procd|sdf|12525|dock5
  -GOLD-   2272018443D 1   1.00000     0.00000
 Structure written by MMmdl.
 43 44  0  0  0  0  0  0  0  0  2 V2000
  153.7779  141.0115  161.1854 C   0  0  0  0  0  0  0  0  0  0  0  0
  153.0674  142.3315  160.9363 C   0  0  0  0  0  0  0  0  0  0  0  0
  152.8530  143.2021  161.9426 C   0  0  0  0  0  0  0  0  0  0  0  0
  152.2017  144.5653  161.7848 C   0  0  0  0  0  0  0  0  0  0  0  0
  151.6285  144.8034  160.3774 C   0  0  0  0  0  0  0  0  0  0  0  0
  152.5249  144.1813  159.2933 C   0  0  2  0  0  0  0  0  0  0  0  0
  152.1059  144.6079  157.8749 C   0  0  0  0  0  0  0  0  0  0  0  0
  152.6517  142.6448  159.4935 C   0  0  2  0  0  0  0  0  0  0  0  0
  151.3755  141.8714  159.0743 C   0  0  0  0  0  0  0  0  0  0  0  0
  151.2820  141.6727  157.6124 N   0  3  0  0  0  0  0  0  0  0  0  0
  150.7392  140.3619  157.1883 C   0  0  2  0  0  0  0  0  0  0  0  0
  151.6437  139.2429  157.7210 C   0  0  0  0  0  0  0  0  0  0  0  0
  150.6150  140.2792  155.6514 C   0  0  0  0  0  0  0  0  0  0  0  0
  151.5275  139.3167  155.0618 N   0  0  0  0  0  0  0  0  0  0  0  0
  151.2932  138.1364  154.4861 C   0  0  0  0  0  0  0  0  0  0  0  0
  152.3847  137.5391  154.0291 N   0  0  0  0  0  0  0  0  0  0  0  0
  153.3222  138.4649  154.3909 C   0  0  0  0  0  0  0  0  0  0  0  0
  152.8602  139.5512  155.0105 N   0  0  0  0  0  0  0  0  0  0  0  0
  154.5818  140.8670  160.4631 H   0  0  0  0  0  0  0  0  0  0  0  0
  153.0914  140.1693  161.1179 H   0  0  0  0  0  0  0  0  0  0  0  0
  154.2208  140.9875  162.1819 H   0  0  0  0  0  0  0  0  0  0  0  0
  153.1828  142.9557  162.9416 H   0  0  0  0  0  0  0  0  0  0  0  0
  151.4195  144.6844  162.5349 H   0  0  0  0  0  0  0  0  0  0  0  0
  152.9620  145.3161  162.0019 H   0  0  0  0  0  0  0  0  0  0  0  0
  150.6255  144.3807  160.3130 H   0  0  0  0  0  0  0  0  0  0  0  0
  151.5147  145.8753  160.2114 H   0  0  0  0  0  0  0  0  0  0  0  0
  153.5246  144.5957  159.4376 H   0  0  0  0  0  0  0  0  0  0  0  0
  151.0595  144.3825  157.6695 H   0  0  0  0  0  0  0  0  0  0  0  0
  152.7149  144.1133  157.1177 H   0  0  0  0  0  0  0  0  0  0  0  0
  152.2313  145.6830  157.7436 H   0  0  0  0  0  0  0  0  0  0  0  0
  153.4661  142.3174  158.8452 H   0  0  0  0  0  0  0  0  0  0  0  0
  151.3396  140.8983  159.5652 H   0  0  0  0  0  0  0  0  0  0  0  0
  150.4866  142.4111  159.3905 H   0  0  0  0  0  0  0  0  0  0  0  0
  150.7021  142.3997  157.2176 H   0  0  0  0  0  0  0  0  0  0  0  0
  149.7530  140.2199  157.6337 H   0  0  0  0  0  0  0  0  0  0  0  0
  151.2577  138.2610  157.4452 H   0  0  0  0  0  0  0  0  0  0  0  0
  151.7084  139.2749  158.8092 H   0  0  0  0  0  0  0  0  0  0  0  0
  152.6563  139.3254  157.3246 H   0  0  0  0  0  0  0  0  0  0  0  0
  149.5944  140.0234  155.3616 H   0  0  0  0  0  0  0  0  0  0  0  0
  150.8272  141.2526  155.2071 H   0  0  0  0  0  0  0  0  0  0  0  0
  150.3049  137.7109  154.3891 H   0  0  0  0  0  0  0  0  0  0  0  0
  154.3749  138.3377  154.1857 H   0  0  0  0  0  0  0  0  0  0  0  0
  152.2140  141.7672  157.2349 H   0  0  0  0  0  0  0  0  0  0  0  0
  1  2  1  0  0  0  0
  1 19  1  0  0  0  0
  1 20  1  0  0  0  0
  1 21  1  0  0  0  0
  2  8  1  0  0  0  0
  2  3  2  0  0  0  0
  3  4  1  0  0  0  0
  3 22  1  0  0  0  0
  4  5  1  0  0  0  0
  4 23  1  0  0  0  0
  4 24  1  0  0  0  0
  5  6  1  0  0  0  0
  5 25  1  0  0  0  0
  5 26  1  0  0  0  0
  6  7  1  0  0  0  0
  6  8  1  0  0  0  0
  6 27  1  0  0  0  0
  7 28  1  0  0  0  0
  7 29  1  0  0  0  0
  7 30  1  0  0  0  0
  8  9  1  0  0  0  0
  8 31  1  0  0  0  0
  9 10  1  0  0  0  0
  9 32  1  0  0  0  0
  9 33  1  0  0  0  0
 10 11  1  0  0  0  0
 10 34  1  0  0  0  0
 10 43  1  0  0  0  0
 11 12  1  0  0  0  0
 11 13  1  0  0  0  0
 11 35  1  0  0  0  0
 12 36  1  0  0  0  0
 12 37  1  0  0  0  0
 12 38  1  0  0  0  0
 13 14  1  0  0  0  0
 13 39  1  0  0  0  0
 13 40  1  0  0  0  0
 14 18  1  0  0  0  0
 14 15  1  0  0  0  0
 15 16  2  0  0  0  0
 15 41  1  0  0  0  0
 16 17  1  0  0  0  0
 17 18  2  0  0  0  0
 17 42  1  0  0  0  0
M  CHG  1  10   1
M  END
> <s_m_source_file>
AV-unprocessed.smi

> <i_m_source_file_index>
3274

> <i_lp_mmshare_version>
43012

> <i_f3d_flags>
0

> <s_epik_input>
W0NIM11DMT1bQ0hdW0NIMl1bQ0gyXVtDQEBIXShbQ0gzXSlbQ0BIXTFbQ0gyXVtOSF1bQ0BIXShbQ0gzXSlbQ0gyXW4yW2NIXW5bY0hdbjI=

> <s_epik_cmdline>
J2VwaWtfcHl0aG9uJywgJy1waCcsICc3LjAnLCAnLXRuJywgJzgnLCAnLW1hJywgJzIwMCcsICctbWV0YWxfYmluZGluZycsICctaW1hZScsICc8aW5maWxlLm1hZT4nLCAnLW9tYWUnLCAnPG91dGZpbGUubWFlPic=

> <r_lp_tautomer_probability>
1

> <r_epik_Ionization_Penalty>
0.0017527

> <r_epik_Ionization_Penalty_Charging>
0.00175191

> <r_epik_Ionization_Penalty_Neutral>
7.94565e-07

> <r_epik_State_Penalty>
0.00118605

> <r_epik_Charging_Adjusted_Penalty>
0.00293796

> <i_epik_Tot_Q>
1

> <i_epik_Tot_abs_Q>
1

> <r_epik_Metal_State_Penalty>
-0

> <b_epik_Metal_Only>
0

> <s_lp_Force_Field>
OPLS_2005

> <r_lp_Energy>
18.1701

> <b_lp_Chiralities_Consistent>
1

> <s_lp_Variant>
AV-unprocessed.smi:3274-4

> <Gold.Version>
5.8.1

> <Gold.Id.Protein>
6NUR|6NUR_protein|mol2

> <Gold.PLP.Fitness>
51.7784

> <Gold.PLP.PLP>
-49.2812

> <Gold.PLP.part.hbond>
-2.9641

> <Gold.PLP.part.metal>
0.0000

> <Gold.PLP.part.buried>
-3.7388

> <Gold.PLP.part.nonpolar>
-42.6339

> <Gold.PLP.part.repulsive>
0.2155

> <Gold.PLP.ligand.clash>
0.0000

> <Gold.PLP.ligand.torsion>
1.3220

> <Gold.PLP.Chemscore.Hbond>
1.7040

> <Gold.PLP.Chemscore.CHOScore>
0.0000

> <Gold.PLP.Chemscore.Metal>
0.0000

> <Gold.Chemscore.Hbonds>
donor molecule, donor type, donor heavy atom, donor atom, acceptor molecule, acceptor atom, score
      P1  H  7997  8008       L1    18  0.95
      P1  H 10752 10763       L1    16  0.70

> <Gold.PLP.Chemscore.Internal.Correction>
0.0291

> <Gold.Rescore>
     Score         DG    S(hbond)    S(metal)    S(lipo)     H(rot)  DE(clash)    DE(int)     intcor
     14.13     -17.16       1.16        0.00     118.31       2.36       0.47       2.56       ----

> <Gold.Chemscore.Fitness>
14.1317

> <Gold.Chemscore.DG>
-17.1637

> <Gold.Chemscore.ZeroCoef>
-5.4800

> <Gold.Chemscore.Hbond>
1.1637

> <Gold.Chemscore.Metal>
0.0000

> <Gold.Chemscore.Lipo>
118.3111

> <Gold.Chemscore.Internal_Hbond>
0.0000

> <Gold.Chemscore.DEClash>
0.4749

> <Gold.Chemscore.DEInternal>
2.5571

> <Gold.Chemscore.Rot>
2.3615

> <Gold.Chemscore.Internal.Correction>
   9.000000E+99

> <Gold.Chemscore.Hbonds>
donor molecule, donor type, donor heavy atom, donor atom, acceptor molecule, acceptor atom, score
      P1  H  7997  8008       L1    18  0.21
      P1  H 10752 10763       L1    16  0.57

> <Gold.Chemscore.Hbond.Weighted>
-3.8867

> <Gold.Chemscore.Metal.Weighted>
-0.0000

> <Gold.Chemscore.Lipo.Weighted>
-13.8424

> <Gold.Chemscore.Internal_Hbond.Weighted>
0.0000

> <Gold.Chemscore.DEClash.Weighted>
0.4749

> <Gold.Chemscore.DEInternal.Weighted>
2.5571

> <Gold.Chemscore.Rot.Weighted>
6.0454

> <Gold.Chemscore.Internal.Correction.Weighted>
   9.000000E+99

> <Gold.Protein.RotatedTorsions>
[ 6907 6896 6895 6894 ] final -113.20 input  -60.11 | X-H torsion
[ 7974 7965 7964 7962 ] final  -35.45 input  175.53 | X-H torsion
[ 8008 7997 7996 7995 ] final   -7.12 input   59.86 | X-H torsion
[ 10167 10162 10161 10158 ] final -150.98 input  -65.29 | X-H torsion
[ 10718 10713 10712 10709 ] final  163.08 input   66.30 | X-H torsion
[ 10763 10752 10751 10750 ] final   14.44 input  -60.55 | X-H torsion
[ 11005 11000 10999 10996 ] final  -31.59 input  -57.11 | X-H torsion

> <Gold.Protein.ActiveResidues>
 VAL166  LYS551  ARG553  GLY616  TRP617  ASP618  TYR619  PRO620  LYS621  CYS622 
 ASP623  PHE694  ASN695  SER759  ASP760  ASP761  ALA762  ILE779  LEU786  VAL792 
 PHE793  MET794  SER795  GLU796  ALA797  LYS798  CYS799  TRP800  GLU811  SER814 

> <Gold.Protein.RotatedAtoms>
  150.7812  133.8980  159.3332 H   0  0  0  0  0  0  0  0  0  0  0  0  # atno 6907 bound_to 6896
  151.6842  135.0955  160.0231 H   0  0  0  0  0  0  0  0  0  0  0  0  # atno 6908 bound_to 6896
  152.3863  133.6578  159.6237 H   0  0  0  0  0  0  0  0  0  0  0  0  # atno 6909 bound_to 6896
  146.0745  140.6161  142.8937 H   0  0  0  0  0  0  0  0  0  0  0  0  # atno 7974 bound_to 7965
  154.5870  140.2415  155.7974 H   0  0  0  0  0  0  0  0  0  0  0  0  # atno 8008 bound_to 7997
  156.2220  140.2994  155.9930 H   0  0  0  0  0  0  0  0  0  0  0  0  # atno 8009 bound_to 7997
  155.2441  140.0408  157.2969 H   0  0  0  0  0  0  0  0  0  0  0  0  # atno 8010 bound_to 7997
  139.7307  143.8813  152.2534 H   0  0  0  0  0  0  0  0  0  0  0  0  # atno 10167 bound_to 10162
  157.1136  131.0474  151.2446 H   0  0  0  0  0  0  0  0  0  0  0  0  # atno 10718 bound_to 10713
  153.1622  135.6798  153.8726 H   0  0  0  0  0  0  0  0  0  0  0  0  # atno 10763 bound_to 10752
  153.8118  135.3142  155.3402 H   0  0  0  0  0  0  0  0  0  0  0  0  # atno 10764 bound_to 10752
  154.7940  135.4818  154.0208 H   0  0  0  0  0  0  0  0  0  0  0  0  # atno 10765 bound_to 10752
  140.9481  133.7238  156.1177 H   0  0  0  0  0  0  0  0  0  0  0  0  # atno 11005 bound_to 11000
  144.7253  140.4504  143.6978 LP  0  0  0  0  0  0  0  0  0  0  0  0  # atno 17320 bound_to 7965
  145.6331  139.1539  143.2958 LP  0  0  0  0  0  0  0  0  0  0  0  0  # atno 17321 bound_to 7965
  139.8735  144.7056  150.8960 LP  0  0  0  0  0  0  0  0  0  0  0  0  # atno 17342 bound_to 10162
  140.7770  143.3719  151.1634 LP  0  0  0  0  0  0  0  0  0  0  0  0  # atno 17343 bound_to 10162
  157.4538  130.7613  149.7174 LP  0  0  0  0  0  0  0  0  0  0  0  0  # atno 17370 bound_to 10713
  155.9845  130.3991  150.3310 LP  0  0  0  0  0  0  0  0  0  0  0  0  # atno 17371 bound_to 10713
  140.7641  134.3906  157.5520 LP  0  0  0  0  0  0  0  0  0  0  0  0  # atno 17394 bound_to 11000
  139.8839  134.8980  156.2736 LP  0  0  0  0  0  0  0  0  0  0  0  0  # atno 17395 bound_to 11000

$$$$
