AV-unprocessed.smi:140|AV-procd|sdf|1186|dock6
  -GOLD-   2262018343D 1   1.00000     0.00000
 Structure written by MMmdl.
 52 55  0  0  0  0  0  0  0  0  1 V2000
  150.2155  142.3067  157.0538 C   0  0  0  0  0  0  0  0  0  0  0  0
  150.4914  141.0172  157.7588 C   0  0  0  0  0  0  0  0  0  0  0  0
  149.7097  139.9054  157.8679 C   0  0  0  0  0  0  0  0  0  0  0  0
  150.4073  138.9343  158.6383 C   0  0  0  0  0  0  0  0  0  0  0  0
  149.9559  137.5773  159.0379 C   0  0  0  0  0  0  0  0  0  0  0  0
  150.5075  136.9142  159.9177 O   0  0  0  0  0  0  0  0  0  0  0  0
  148.7300  137.0316  158.2816 C   0  0  0  0  0  0  0  0  0  0  0  0
  148.0886  135.9152  158.9643 N   0  0  0  0  0  0  0  0  0  0  0  0
  148.1391  134.6413  158.3449 C   0  0  0  0  0  0  0  0  0  0  0  0
  148.7029  134.4597  157.2643 O   0  0  0  0  0  0  0  0  0  0  0  0
  147.4633  133.5814  159.0849 C   0  0  0  0  0  0  0  0  0  0  0  0
  147.4594  132.3292  158.5968 F   0  0  0  0  0  0  0  0  0  0  0  0
  146.8394  133.8350  160.2558 C   0  0  0  0  0  0  0  0  0  0  0  0
  146.7920  135.0953  160.8296 N   0  0  0  0  0  0  0  0  0  0  0  0
  146.0774  135.3570  162.1379 C   0  0  1  0  0  0  0  0  0  0  0  0
  144.9217  136.3538  161.9334 C   0  0  0  0  0  0  0  0  0  0  0  0
  143.7556  135.6517  162.5997 C   0  0  0  0  0  0  0  0  0  0  0  0
  144.1127  134.1876  162.3928 C   0  0  0  0  0  0  0  0  0  0  0  0
  145.5163  134.1688  162.6194 O   0  0  0  0  0  0  0  0  0  0  0  0
  147.4252  136.1806  160.1862 C   0  0  0  0  0  0  0  0  0  0  0  0
  147.3845  137.3131  160.6734 O   0  0  0  0  0  0  0  0  0  0  0  0
  151.6248  139.4777  158.9785 C   0  0  0  0  0  0  0  0  0  0  0  0
  152.7682  138.9021  159.7677 C   0  0  0  0  0  0  0  0  0  0  0  0
  151.6716  140.7696  158.4503 N   0  0  0  0  0  0  0  0  0  0  0  0
  152.7777  141.7128  158.5887 C   0  0  0  0  0  0  0  0  0  0  0  0
  152.4500  142.8738  159.4748 C   0  0  0  0  0  0  0  0  0  0  0  0
  152.1551  144.1636  159.1090 C   0  0  0  0  0  0  0  0  0  0  0  0
  151.8917  145.0168  160.2201 C   0  0  0  0  0  0  0  0  0  0  0  0
  151.9861  144.3674  161.4217 C   0  0  0  0  0  0  0  0  0  0  0  0
  152.4005  142.6887  161.2102 S   0  0  0  0  0  0  0  0  0  0  0  0
  149.2944  142.2420  156.4742 H   0  0  0  0  0  0  0  0  0  0  0  0
  151.0221  142.5602  156.3657 H   0  0  0  0  0  0  0  0  0  0  0  0
  150.1032  143.1236  157.7667 H   0  0  0  0  0  0  0  0  0  0  0  0
  148.7250  139.8044  157.4359 H   0  0  0  0  0  0  0  0  0  0  0  0
  147.9831  137.8127  158.1331 H   0  0  0  0  0  0  0  0  0  0  0  0
  149.0043  136.7007  157.2788 H   0  0  0  0  0  0  0  0  0  0  0  0
  146.3621  133.0029  160.7500 H   0  0  0  0  0  0  0  0  0  0  0  0
  146.8452  135.6990  162.8342 H   0  0  0  0  0  0  0  0  0  0  0  0
  145.1548  137.3218  162.3778 H   0  0  0  0  0  0  0  0  0  0  0  0
  144.7250  136.4902  160.8686 H   0  0  0  0  0  0  0  0  0  0  0  0
  143.7351  135.8847  163.6650 H   0  0  0  0  0  0  0  0  0  0  0  0
  142.7906  135.9212  162.1699 H   0  0  0  0  0  0  0  0  0  0  0  0
  143.5869  133.5226  163.0781 H   0  0  0  0  0  0  0  0  0  0  0  0
  143.8912  133.8761  161.3711 H   0  0  0  0  0  0  0  0  0  0  0  0
  152.9862  137.8835  159.4472 H   0  0  0  0  0  0  0  0  0  0  0  0
  152.5256  138.8761  160.8300 H   0  0  0  0  0  0  0  0  0  0  0  0
  153.6929  139.4635  159.6509 H   0  0  0  0  0  0  0  0  0  0  0  0
  153.6550  141.1958  158.9754 H   0  0  0  0  0  0  0  0  0  0  0  0
  153.0656  142.0583  157.5955 H   0  0  0  0  0  0  0  0  0  0  0  0
  152.1232  144.5226  158.0910 H   0  0  0  0  0  0  0  0  0  0  0  0
  151.6464  146.0619  160.1000 H   0  0  0  0  0  0  0  0  0  0  0  0
  151.8384  144.7697  162.4131 H   0  0  0  0  0  0  0  0  0  0  0  0
  1  2  1  0  0  0  0
  1 31  1  0  0  0  0
  1 32  1  0  0  0  0
  1 33  1  0  0  0  0
  2 24  1  0  0  0  0
  2  3  2  0  0  0  0
  3  4  1  0  0  0  0
  3 34  1  0  0  0  0
  4  5  1  0  0  0  0
  4 22  2  0  0  0  0
  5  6  2  0  0  0  0
  5  7  1  0  0  0  0
  7  8  1  0  0  0  0
  7 35  1  0  0  0  0
  7 36  1  0  0  0  0
  8 20  1  0  0  0  0
  8  9  1  0  0  0  0
  9 10  2  0  0  0  0
  9 11  1  0  0  0  0
 11 12  1  0  0  0  0
 11 13  2  0  0  0  0
 13 14  1  0  0  0  0
 13 37  1  0  0  0  0
 14 15  1  0  0  0  0
 14 20  1  0  0  0  0
 15 19  1  0  0  0  0
 15 16  1  0  0  0  0
 15 38  1  0  0  0  0
 16 17  1  0  0  0  0
 16 39  1  0  0  0  0
 16 40  1  0  0  0  0
 17 18  1  0  0  0  0
 17 41  1  0  0  0  0
 17 42  1  0  0  0  0
 18 19  1  0  0  0  0
 18 43  1  0  0  0  0
 18 44  1  0  0  0  0
 20 21  2  0  0  0  0
 22 23  1  0  0  0  0
 22 24  1  0  0  0  0
 23 45  1  0  0  0  0
 23 46  1  0  0  0  0
 23 47  1  0  0  0  0
 24 25  1  0  0  0  0
 25 26  1  0  0  0  0
 25 48  1  0  0  0  0
 25 49  1  0  0  0  0
 26 30  1  0  0  0  0
 26 27  2  0  0  0  0
 27 28  1  0  0  0  0
 27 50  1  0  0  0  0
 28 29  2  0  0  0  0
 28 51  1  0  0  0  0
 29 30  1  0  0  0  0
 29 52  1  0  0  0  0
M  END
> <s_m_source_file>
AV-unprocessed.smi

> <i_m_source_file_index>
140

> <i_lp_mmshare_version>
43012

> <i_f3d_flags>
0

> <s_epik_input>
czFbY0hdW2NIXVtjSF1jMVtDSDJdbjJjKFtDSDNdKWMoW2NIXWMyW0NIM10pQyg9TylbQ0gyXW4zYyg9TyljKEYpW2NIXW4oYzM9TylbQ0BASF00W0NIMl1bQ0gyXVtDSDJdTzQ=

> <s_epik_cmdline>
J2VwaWtfcHl0aG9uJywgJy1waCcsICc3LjAnLCAnLXRuJywgJzgnLCAnLW1hJywgJzIwMCcsICctbWV0YWxfYmluZGluZycsICctaW1hZScsICc8aW5maWxlLm1hZT4nLCAnLW9tYWUnLCAnPG91dGZpbGUubWFlPic=

> <r_lp_tautomer_probability>
1

> <r_epik_Ionization_Penalty>
5.024e-09

> <r_epik_Ionization_Penalty_Charging>
5.01743e-09

> <r_epik_Ionization_Penalty_Neutral>
6.5712e-12

> <r_epik_State_Penalty>
-0

> <r_epik_Charging_Adjusted_Penalty>
5.01743e-09

> <i_epik_Tot_Q>
0

> <i_epik_Tot_abs_Q>
0

> <r_epik_Metal_State_Penalty>
-0

> <b_epik_Metal_Only>
0

> <s_epik_Chemistry_Notes>
This compound contains an acetal/aminal-like group ( X-CH(R)-Y where X, Y are N, S, or O) that may be acid/base labile, releasing an aldehyde.

> <s_lp_Force_Field>
OPLS_2005

> <r_lp_Energy>
38.6163

> <b_lp_Chiralities_Consistent>
1

> <s_lp_Variant>
AV-unprocessed.smi:140-2

> <Gold.Version>
5.8.1

> <Gold.Id.Protein>
6NUR|6NUR_protein|mol2

> <Gold.PLP.Fitness>
62.7907

> <Gold.PLP.PLP>
-55.8637

> <Gold.PLP.part.hbond>
-3.7614

> <Gold.PLP.part.metal>
0.0000

> <Gold.PLP.part.buried>
-5.6778

> <Gold.PLP.part.nonpolar>
-45.9403

> <Gold.PLP.part.repulsive>
0.0279

> <Gold.PLP.ligand.clash>
0.0000

> <Gold.PLP.ligand.torsion>
0.6876

> <Gold.PLP.Chemscore.Hbond>
2.7440

> <Gold.PLP.Chemscore.CHOScore>
0.0000

> <Gold.PLP.Chemscore.Metal>
0.0000

> <Gold.Chemscore.Hbonds>
donor molecule, donor type, donor heavy atom, donor atom, acceptor molecule, acceptor atom, score
      P1  H  6896  6907       L1     6  1.00
      P1  H  6931  6943       L1    21  0.32
      P1  H  6934  6947       L1    21  1.00

> <Gold.PLP.Chemscore.Internal.Correction>
0.0702

> <Gold.Rescore>
     Score         DG    S(hbond)    S(metal)    S(lipo)     H(rot)  DE(clash)    DE(int)     intcor
     21.33     -24.66       2.68        0.00     128.46       1.87       0.39       2.95       ----

> <Gold.Chemscore.Fitness>
21.3290

> <Gold.Chemscore.DG>
-24.6626

> <Gold.Chemscore.ZeroCoef>
-5.4800

> <Gold.Chemscore.Hbond>
2.6776

> <Gold.Chemscore.Metal>
0.0000

> <Gold.Chemscore.Lipo>
128.4595

> <Gold.Chemscore.Internal_Hbond>
0.0000

> <Gold.Chemscore.DEClash>
0.3879

> <Gold.Chemscore.DEInternal>
2.9457

> <Gold.Chemscore.Rot>
1.8713

> <Gold.Chemscore.Internal.Correction>
   9.000000E+99

> <Gold.Chemscore.Hbonds>
donor molecule, donor type, donor heavy atom, donor atom, acceptor molecule, acceptor atom, score
      P1  H  6896  6907       L1     6  1.00
      P1  H  6931  6943       L1    21  0.31
      P1  H  6934  6947       L1    21  0.98

> <Gold.Chemscore.Hbond.Weighted>
-8.9433

> <Gold.Chemscore.Metal.Weighted>
-0.0000

> <Gold.Chemscore.Lipo.Weighted>
-15.0298

> <Gold.Chemscore.Internal_Hbond.Weighted>
0.0000

> <Gold.Chemscore.DEClash.Weighted>
0.3879

> <Gold.Chemscore.DEInternal.Weighted>
2.9457

> <Gold.Chemscore.Rot.Weighted>
4.7905

> <Gold.Chemscore.Internal.Correction.Weighted>
   9.000000E+99

> <Gold.Protein.RotatedTorsions>
[ 6907 6896 6895 6894 ] final  -24.72 input  -60.11 | X-H torsion
[ 7974 7965 7964 7962 ] final -161.56 input  175.53 | X-H torsion
[ 8008 7997 7996 7995 ] final -140.71 input   59.86 | X-H torsion
[ 10167 10162 10161 10158 ] final  -60.22 input  -65.29 | X-H torsion
[ 10718 10713 10712 10709 ] final  -90.00 input   66.30 | X-H torsion
[ 10763 10752 10751 10750 ] final  -57.38 input  -60.55 | X-H torsion
[ 11005 11000 10999 10996 ] final  169.64 input  -57.11 | X-H torsion

> <Gold.Protein.ActiveResidues>
 VAL166  LYS551  ARG553  GLY616  TRP617  ASP618  TYR619  PRO620  LYS621  CYS622 
 ASP623  PHE694  ASN695  SER759  ASP760  ASP761  ALA762  ILE779  LEU786  VAL792 
 PHE793  MET794  SER795  GLU796  ALA797  LYS798  CYS799  TRP800  GLU811  SER814 

> <Gold.Protein.RotatedAtoms>
  151.1855  135.0379  159.8810 H   0  0  0  0  0  0  0  0  0  0  0  0  # atno 6907 bound_to 6896
  152.5442  134.1015  159.8330 H   0  0  0  0  0  0  0  0  0  0  0  0  # atno 6908 bound_to 6896
  151.1137  133.5107  159.2637 H   0  0  0  0  0  0  0  0  0  0  0  0  # atno 6909 bound_to 6896
  144.7387  140.3380  143.6140 H   0  0  0  0  0  0  0  0  0  0  0  0  # atno 7974 bound_to 7965
  155.4658  140.0549  157.2985 H   0  0  0  0  0  0  0  0  0  0  0  0  # atno 8008 bound_to 7997
  154.4718  140.2044  155.9929 H   0  0  0  0  0  0  0  0  0  0  0  0  # atno 8009 bound_to 7997
  156.1069  140.3210  155.8023 H   0  0  0  0  0  0  0  0  0  0  0  0  # atno 8010 bound_to 7997
  140.6085  143.2380  151.5764 H   0  0  0  0  0  0  0  0  0  0  0  0  # atno 10167 bound_to 10162
  155.9986  130.4893  150.5257 H   0  0  0  0  0  0  0  0  0  0  0  0  # atno 10718 bound_to 10713
  154.2216  135.6377  153.5146 H   0  0  0  0  0  0  0  0  0  0  0  0  # atno 10763 bound_to 10752
  152.9968  135.5498  154.6108 H   0  0  0  0  0  0  0  0  0  0  0  0  # atno 10764 bound_to 10752
  154.5570  135.2906  155.0929 H   0  0  0  0  0  0  0  0  0  0  0  0  # atno 10765 bound_to 10752
  140.2999  134.7604  157.3908 H   0  0  0  0  0  0  0  0  0  0  0  0  # atno 11005 bound_to 11000
  145.7404  139.1762  143.2379 LP  0  0  0  0  0  0  0  0  0  0  0  0  # atno 17320 bound_to 7965
  146.1139  140.7394  142.9490 LP  0  0  0  0  0  0  0  0  0  0  0  0  # atno 17321 bound_to 7965
  139.5343  144.2825  152.1217 LP  0  0  0  0  0  0  0  0  0  0  0  0  # atno 17342 bound_to 10162
  140.2020  144.4649  150.6427 LP  0  0  0  0  0  0  0  0  0  0  0  0  # atno 17343 bound_to 10162
  157.3213  131.0682  151.1930 LP  0  0  0  0  0  0  0  0  0  0  0  0  # atno 17370 bound_to 10713
  157.2842  130.6765  149.6081 LP  0  0  0  0  0  0  0  0  0  0  0  0  # atno 17371 bound_to 10713
  140.1118  134.5335  155.8259 LP  0  0  0  0  0  0  0  0  0  0  0  0  # atno 17394 bound_to 11000
  141.2130  133.6727  156.6704 LP  0  0  0  0  0  0  0  0  0  0  0  0  # atno 17395 bound_to 11000

$$$$
