#       Name:                AV-unprocessed.smi:36
#       Creating user name   scv26
#       Creation time:       Thu Mar 26 16:08:46 2020


#       File generated by GOLD software.
#

@<TRIPOS>MOLECULE
AV-unprocessed.smi:36
    73    76     1
SMALL
NO_CHARGES


@<TRIPOS>ATOM
      1 ****        -3.5331   3.4852  -0.7513 C.3            1 S1                 0.0000
      2 ****        -3.0720   2.8105   0.5512 C.3            1 S1                 0.0000
      3 ****        -4.2201   2.8079   1.5741 C.3            1 S1                 0.0000
      4 ****        -2.6299   1.3644   0.2658 C.3            1 S1                 0.0000
      5 ****        -1.5901   3.7743   1.2761 Si             1 S1                 0.0000
      6 ****        -0.1573   3.8321   0.0256 C.3            1 S1                 0.0000
      7 ****        -2.0861   5.5452   1.7501 C.3            1 S1                 0.0000
      8 ****        -1.1106   2.9736   2.6909 O.3            1 S1                 0.0000
      9 ****         0.1817   3.0341   3.2604 C.3            1 S1                 0.0000
     10 ****         0.8994   1.7089   2.9754 C.3            1 S1                 0.0000
     11 ****         1.3526   1.6816   1.6240 O.3            1 S1                 0.0000
     12 ****         2.5661   1.0007   1.5314 C.3            1 S1                 0.0000
     13 ****         2.4191  -0.1091   0.5406 N.pl3          1 S1                 0.0000
     14 ****         3.3029  -0.4345  -0.4206 C.2            1 S1                 0.0000
     15 ****         2.9513  -1.4543  -1.1990 N.2            1 S1                 0.0000
     16 ****         1.7115  -1.8167  -0.6832 C.2            1 S1                 0.0000
     17 ****         0.7783  -2.8845  -1.1037 C.2            1 S1                 0.0000
     18 ****         1.1315  -3.6335  -2.1038 N.2            1 S1                 0.0000
     19 ****         0.3011  -4.6601  -2.5352 C.2            1 S1                 0.0000
     20 ****        -0.8073  -4.9895  -2.1036 O.2            1 S1                 0.0000
     21 ****         0.8349  -5.3924  -3.7243 C.ar           1 S1                 0.0000
     22 ****         1.9691  -6.2229  -3.5969 C.ar           1 S1                 0.0000
     23 ****         2.4728  -6.9085  -4.7196 C.ar           1 S1                 0.0000
     24 ****         1.8445  -6.7678  -5.9720 C.ar           1 S1                 0.0000
     25 ****         0.7126  -5.9403  -6.1025 C.ar           1 S1                 0.0000
     26 ****         0.2090  -5.2521  -4.9813 C.ar           1 S1                 0.0000
     27 ****        -0.3607  -2.8697  -0.2885 N.pl3          1 S1                 0.0000
     28 ****        -0.5989  -1.9873   0.7760 C.2            1 S1                 0.0000
     29 ****         0.2195  -1.0453   1.1611 N.2            1 S1                 0.0000
     30 ****         1.3671  -1.0106   0.3809 C.2            1 S1                 0.0000
     31 ****         2.8915   0.4644   2.9240 C.3            1 S1                 0.0000
     32 ****         2.1740   1.4790   3.7901 C.3            1 S1                 0.0000
     33 ****         1.9081   0.9506   5.0727 O.3            1 S1                 0.0000
     34 ****        -4.3796   2.9577  -1.1921 H              1 S1                 0.0000
     35 ****        -2.7351   3.5024  -1.4941 H              1 S1                 0.0000
     36 ****        -3.8428   4.5159  -0.5764 H              1 S1                 0.0000
     37 ****        -4.5632   3.8200   1.7900 H              1 S1                 0.0000
     38 ****        -3.9088   2.3579   2.5173 H              1 S1                 0.0000
     39 ****        -5.0774   2.2430   1.2066 H              1 S1                 0.0000
     40 ****        -3.4506   0.7696  -0.1363 H              1 S1                 0.0000
     41 ****        -2.2802   0.8714   1.1736 H              1 S1                 0.0000
     42 ****        -1.8155   1.3299  -0.4582 H              1 S1                 0.0000
     43 ****        -0.4213   4.4204  -0.8527 H              1 S1                 0.0000
     44 ****         0.1130   2.8373  -0.3268 H              1 S1                 0.0000
     45 ****         0.7377   4.2808   0.4555 H              1 S1                 0.0000
     46 ****        -2.4420   6.1067   0.8867 H              1 S1                 0.0000
     47 ****        -1.2445   6.0951   2.1707 H              1 S1                 0.0000
     48 ****        -2.8815   5.5531   2.4948 H              1 S1                 0.0000
     49 ****         0.7480   3.8872   2.8857 H              1 S1                 0.0000
     50 ****         0.0634   3.1733   4.3352 H              1 S1                 0.0000
     51 ****         0.2160   0.8728   3.1321 H              1 S1                 0.0000
     52 ****         3.3354   1.6599   1.1266 H              1 S1                 0.0000
     53 ****         4.2344   0.0952  -0.5554 H              1 S1                 0.0000
     54 ****         2.4577  -6.3356  -2.6397 H              1 S1                 0.0000
     55 ****         3.3414  -7.5424  -4.6200 H              1 S1                 0.0000
     56 ****         2.2309  -7.2946  -6.8319 H              1 S1                 0.0000
     57 ****         0.2310  -5.8319  -7.0631 H              1 S1                 0.0000
     58 ****        -0.6591  -4.6181  -5.0904 H              1 S1                 0.0000
     59 ****        -1.5528  -2.1475   1.2807 H              1 S1                 0.0000
     60 ****         2.4626  -0.5318   3.0482 H              1 S1                 0.0000
     61 ****         3.9678   0.4168   3.0914 H              1 S1                 0.0000
     62 ****         2.7592   2.3966   3.8682 H              1 S1                 0.0000
     63 ****         1.3970   0.1620   4.9720 H              1 S1                 0.0000
     64 ****        -1.0740  -3.5569  -0.4861 H              1 S1                 0.0000
     65 ****         1.4753   2.6192   1.2987 LP             1 S1                 0.0000
     66 ****         0.6710   1.2187   1.0573 LP             1 S1                 0.0000
     67 ****         3.4528  -1.8591  -1.9636 LP             1 S1                 0.0000
     68 ****         2.0039  -3.4708  -2.5648 LP             1 S1                 0.0000
     69 ****        -1.2163  -4.4879  -1.3412 LP             1 S1                 0.0000
     70 ****        -1.2964  -5.7580  -2.5162 LP             1 S1                 0.0000
     71 ****         0.0412  -0.4248   1.9248 LP             1 S1                 0.0000
     72 ****         1.3956   1.6181   5.6130 LP             1 S1                 0.0000
     73 ****         2.7689   0.7380   5.5351 LP             1 S1                 0.0000
@<TRIPOS>BOND
    1    1    2 1     
    2    1   34 1     
    3    1   35 1     
    4    1   36 1     
    5    2    3 1     
    6    2    4 1     
    7    2    5 1     
    8    3   37 1     
    9    3   38 1     
   10    3   39 1     
   11    4   40 1     
   12    4   41 1     
   13    4   42 1     
   14    5    6 1     
   15    5    7 1     
   16    5    8 1     
   17    6   43 1     
   18    6   44 1     
   19    6   45 1     
   20    7   46 1     
   21    7   47 1     
   22    7   48 1     
   23    8    9 1     
   24    9   10 1     
   25    9   49 1     
   26    9   50 1     
   27   10   32 1     
   28   10   11 1     
   29   10   51 1     
   30   11   12 1     
   31   12   13 1     
   32   12   31 1     
   33   12   52 1     
   34   13   30 1     
   35   13   14 1     
   36   14   15 2     
   37   14   53 1     
   38   15   16 1     
   39   16   30 2     
   40   16   17 1     
   41   17   18 2     
   42   17   27 1     
   43   18   19 1     
   44   19   20 2     
   45   19   21 1     
   46   21   26 ar    
   47   21   22 ar    
   48   22   23 ar    
   49   22   54 1     
   50   23   24 ar    
   51   23   55 1     
   52   24   25 ar    
   53   24   56 1     
   54   25   26 ar    
   55   25   57 1     
   56   26   58 1     
   57   27   28 1     
   58   27   64 1     
   59   28   29 2     
   60   28   59 1     
   61   29   30 1     
   62   31   32 1     
   63   31   60 1     
   64   31   61 1     
   65   32   33 1     
   66   32   62 1     
   67   33   63 1     
   68   11   65 1     
   69   11   66 1     
   70   15   67 1     
   71   18   68 1     
   72   20   69 1     
   73   20   70 1     
   74   29   71 1     
   75   33   72 1     
   76   33   73 1     
@<TRIPOS>SUBSTRUCTURE
      1 S1             1
@<TRIPOS>SET
LONE_PAIRS      STATIC     ATOMS    <user>   **** ""
9 65 66 67 68 69 70 71 72 73
DONOR_HYDROGENS      STATIC     ATOMS    <user>   **** ""
2 64 63
ATOM$BLUE        STATIC     ATOMS    COLORGROUP SYSTEM
9 65 66 67 68 69 70 71 72 73
ATOM$RED        STATIC     ATOMS    COLORGROUP SYSTEM
2 64 63
