AV-unprocessed.smi:1800|AV-procd|sdf|7263|dock1
  -GOLD-   22720 8513D 1   1.00000     0.00000
 Structure written by MMmdl.
 36 37  0  0  0  0  0  0  0  0  1 V2000
  151.2417  143.7066  158.0379 C   0  0  0  0  0  0  0  0  0  0  0  0
  151.3756  142.1923  158.2420 C   0  0  2  0  0  0  0  0  0  0  0  0
  152.6968  141.8098  158.9360 C   0  0  0  0  0  0  0  0  0  0  0  0
  152.7820  142.3304  160.2897 N   0  0  0  0  0  0  0  0  0  0  0  0
  153.3027  141.7185  161.4105 C   0  0  0  0  0  0  0  0  0  0  0  0
  153.1759  142.5958  162.4489 C   0  0  0  0  0  0  0  0  0  0  0  0
  152.5531  143.7303  161.8581 C   0  0  0  0  0  0  0  0  0  0  0  0
  152.3157  143.5676  160.5665 N   0  0  0  0  0  0  0  0  0  0  0  0
  151.2747  141.5201  156.9429 N   0  0  0  0  0  0  0  0  0  0  0  0
  151.5892  139.8269  156.8523 S   0  0  0  0  0  0  0  0  0  0  0  0
  152.9754  139.6126  157.2968 O   0  0  0  0  0  0  0  0  0  0  0  0
  150.4842  139.1455  157.5437 O   0  0  0  0  0  0  0  0  0  0  0  0
  151.4717  139.5090  155.0268 C   0  0  0  0  0  0  0  0  0  0  0  0
  150.0336  139.6775  154.5290 C   0  0  0  0  0  0  0  0  0  0  0  0
  149.3491  138.3526  154.8734 C   0  0  0  0  0  0  0  0  0  0  0  0
  150.4535  137.2862  154.8114 C   0  0  0  0  0  0  0  0  0  0  0  0
  151.7833  138.0462  154.6886 C   0  0  0  0  0  0  0  0  0  0  0  0
  151.2811  144.2347  158.9909 H   0  0  0  0  0  0  0  0  0  0  0  0
  150.2923  143.9564  157.5630 H   0  0  0  0  0  0  0  0  0  0  0  0
  152.0432  144.0955  157.4090 H   0  0  0  0  0  0  0  0  0  0  0  0
  150.5464  141.8700  158.8734 H   0  0  0  0  0  0  0  0  0  0  0  0
  152.8210  140.7256  158.9574 H   0  0  0  0  0  0  0  0  0  0  0  0
  153.5422  142.2079  158.3735 H   0  0  0  0  0  0  0  0  0  0  0  0
  153.7219  140.7238  161.3739 H   0  0  0  0  0  0  0  0  0  0  0  0
  153.4829  142.4499  163.4738 H   0  0  0  0  0  0  0  0  0  0  0  0
  152.2693  144.6616  162.3257 H   0  0  0  0  0  0  0  0  0  0  0  0
  150.4079  141.7636  156.4645 H   0  0  0  0  0  0  0  0  0  0  0  0
  152.1446  140.2030  154.5224 H   0  0  0  0  0  0  0  0  0  0  0  0
  149.5216  140.5403  154.9549 H   0  0  0  0  0  0  0  0  0  0  0  0
  150.0411  139.8088  153.4461 H   0  0  0  0  0  0  0  0  0  0  0  0
  148.9445  138.4011  155.8852 H   0  0  0  0  0  0  0  0  0  0  0  0
  148.5203  138.1321  154.1999 H   0  0  0  0  0  0  0  0  0  0  0  0
  150.4368  136.6693  155.7108 H   0  0  0  0  0  0  0  0  0  0  0  0
  150.3141  136.6209  153.9588 H   0  0  0  0  0  0  0  0  0  0  0  0
  152.1364  137.9855  153.6585 H   0  0  0  0  0  0  0  0  0  0  0  0
  152.5667  137.6248  155.3180 H   0  0  0  0  0  0  0  0  0  0  0  0
  1  2  1  0  0  0  0
  1 18  1  0  0  0  0
  1 19  1  0  0  0  0
  1 20  1  0  0  0  0
  2  3  1  0  0  0  0
  2  9  1  0  0  0  0
  2 21  1  0  0  0  0
  3  4  1  0  0  0  0
  3 22  1  0  0  0  0
  3 23  1  0  0  0  0
  4  8  1  0  0  0  0
  4  5  1  0  0  0  0
  5  6  2  0  0  0  0
  5 24  1  0  0  0  0
  6  7  1  0  0  0  0
  6 25  1  0  0  0  0
  7  8  2  0  0  0  0
  7 26  1  0  0  0  0
  9 10  1  0  0  0  0
  9 27  1  0  0  0  0
 10 11  2  0  0  0  0
 10 12  2  0  0  0  0
 10 13  1  0  0  0  0
 13 17  1  0  0  0  0
 13 14  1  0  0  0  0
 13 28  1  0  0  0  0
 14 15  1  0  0  0  0
 14 29  1  0  0  0  0
 14 30  1  0  0  0  0
 15 16  1  0  0  0  0
 15 31  1  0  0  0  0
 15 32  1  0  0  0  0
 16 17  1  0  0  0  0
 16 33  1  0  0  0  0
 16 34  1  0  0  0  0
 17 35  1  0  0  0  0
 17 36  1  0  0  0  0
M  END
> <s_m_source_file>
AV-unprocessed.smi

> <i_m_source_file_index>
1800

> <i_lp_mmshare_version>
43012

> <i_f3d_flags>
0

> <s_epik_input>
bjFbY0hdW2NIXVtjSF1uMVtDSDJdW0NAQEhdKFtDSDNdKVtOSF1TKD1PKSg9TylbQ0hdMltDSDJdW0NIMl1bQ0gyXVtDSDJdMg==

> <s_epik_cmdline>
J2VwaWtfcHl0aG9uJywgJy1waCcsICc3LjAnLCAnLXRuJywgJzgnLCAnLW1hJywgJzIwMCcsICctbWV0YWxfYmluZGluZycsICctaW1hZScsICc8aW5maWxlLm1hZT4nLCAnLW9tYWUnLCAnPG91dGZpbGUubWFlPic=

> <r_lp_tautomer_probability>
1

> <r_epik_Ionization_Penalty>
1.44925e-05

> <r_epik_Ionization_Penalty_Charging>
0

> <r_epik_Ionization_Penalty_Neutral>
1.44925e-05

> <r_epik_State_Penalty>
-0

> <r_epik_Charging_Adjusted_Penalty>
0

> <i_epik_Tot_Q>
0

> <i_epik_Tot_abs_Q>
0

> <r_epik_Metal_State_Penalty>
0.00862991

> <b_epik_Metal_Only>
0

> <s_lp_Force_Field>
OPLS_2005

> <r_lp_Energy>
14.2601

> <b_lp_Chiralities_Consistent>
1

> <s_lp_Variant>
AV-unprocessed.smi:1800-1

> <Gold.Version>
5.8.1

> <Gold.Id.Protein>
6NUR|6NUR_protein|mol2

> <Gold.PLP.Fitness>
41.8100

> <Gold.PLP.PLP>
-39.6950

> <Gold.PLP.part.hbond>
-1.0000

> <Gold.PLP.part.metal>
0.0000

> <Gold.PLP.part.buried>
-2.3389

> <Gold.PLP.part.nonpolar>
-35.4462

> <Gold.PLP.part.repulsive>
0.0599

> <Gold.PLP.ligand.clash>
0.0000

> <Gold.PLP.ligand.torsion>
0.5919

> <Gold.PLP.Chemscore.Hbond>
1.0000

> <Gold.PLP.Chemscore.CHOScore>
0.0000

> <Gold.PLP.Chemscore.Metal>
0.0000

> <Gold.Chemscore.Hbonds>
donor molecule, donor type, donor heavy atom, donor atom, acceptor molecule, acceptor atom, score
      P1  H  7997  8008       L1    11  1.00

> <Gold.PLP.Chemscore.Internal.Correction>
0.2988

> <Gold.Rescore>
     Score         DG    S(hbond)    S(metal)    S(lipo)     H(rot)  DE(clash)    DE(int)     intcor
     11.55     -15.85       1.00        0.00      98.57       1.76       0.02       4.27       ----

> <Gold.Chemscore.Fitness>
11.5514

> <Gold.Chemscore.DG>
-15.8472

> <Gold.Chemscore.ZeroCoef>
-5.4800

> <Gold.Chemscore.Hbond>
0.9988

> <Gold.Chemscore.Metal>
0.0000

> <Gold.Chemscore.Lipo>
98.5742

> <Gold.Chemscore.Internal_Hbond>
0.0000

> <Gold.Chemscore.DEClash>
0.0217

> <Gold.Chemscore.DEInternal>
4.2740

> <Gold.Chemscore.Rot>
1.7585

> <Gold.Chemscore.Internal.Correction>
   9.000000E+99

> <Gold.Chemscore.Hbonds>
donor molecule, donor type, donor heavy atom, donor atom, acceptor molecule, acceptor atom, score
      P1  H  7997  8008       L1    11  0.99

> <Gold.Chemscore.Hbond.Weighted>
-3.3359

> <Gold.Chemscore.Metal.Weighted>
-0.0000

> <Gold.Chemscore.Lipo.Weighted>
-11.5332

> <Gold.Chemscore.Internal_Hbond.Weighted>
0.0000

> <Gold.Chemscore.DEClash.Weighted>
0.0217

> <Gold.Chemscore.DEInternal.Weighted>
4.2740

> <Gold.Chemscore.Rot.Weighted>
4.5019

> <Gold.Chemscore.Internal.Correction.Weighted>
   9.000000E+99

> <Gold.Protein.RotatedTorsions>
[ 6907 6896 6895 6894 ] final -113.25 input  -60.11 | X-H torsion
[ 7974 7965 7964 7962 ] final  -42.57 input  175.53 | X-H torsion
[ 8008 7997 7996 7995 ] final  -77.73 input   59.86 | X-H torsion
[ 10167 10162 10161 10158 ] final  -35.68 input  -65.29 | X-H torsion
[ 10718 10713 10712 10709 ] final  149.49 input   66.30 | X-H torsion
[ 10763 10752 10751 10750 ] final  -39.43 input  -60.55 | X-H torsion
[ 11005 11000 10999 10996 ] final   96.42 input  -57.11 | X-H torsion

> <Gold.Protein.ActiveResidues>
 VAL166  LYS551  ARG553  GLY616  TRP617  ASP618  TYR619  PRO620  LYS621  CYS622 
 ASP623  PHE694  ASN695  SER759  ASP760  ASP761  ALA762  ILE779  LEU786  VAL792 
 PHE793  MET794  SER795  GLU796  ALA797  LYS798  CYS799  TRP800  GLU811  SER814 

> <Gold.Protein.RotatedAtoms>
  150.7816  133.8971  159.3330 H   0  0  0  0  0  0  0  0  0  0  0  0  # atno 6907 bound_to 6896
  151.6833  135.0956  160.0229 H   0  0  0  0  0  0  0  0  0  0  0  0  # atno 6908 bound_to 6896
  152.3869  133.6585  159.6241 H   0  0  0  0  0  0  0  0  0  0  0  0  # atno 6909 bound_to 6896
  146.0103  140.6972  142.9227 H   0  0  0  0  0  0  0  0  0  0  0  0  # atno 7974 bound_to 7965
  154.5623  140.0706  156.8838 H   0  0  0  0  0  0  0  0  0  0  0  0  # atno 8008 bound_to 7997
  155.2788  140.3370  155.4241 H   0  0  0  0  0  0  0  0  0  0  0  0  # atno 8009 bound_to 7997
  156.2052  140.1737  156.7800 H   0  0  0  0  0  0  0  0  0  0  0  0  # atno 8010 bound_to 7997
  140.7159  143.3460  151.2255 H   0  0  0  0  0  0  0  0  0  0  0  0  # atno 10167 bound_to 10162
  157.2954  131.0861  151.1430 H   0  0  0  0  0  0  0  0  0  0  0  0  # atno 10718 bound_to 10713
  153.9292  135.6774  153.4746 H   0  0  0  0  0  0  0  0  0  0  0  0  # atno 10763 bound_to 10752
  153.0988  135.4838  154.8826 H   0  0  0  0  0  0  0  0  0  0  0  0  # atno 10764 bound_to 10752
  154.7437  135.3167  154.8640 H   0  0  0  0  0  0  0  0  0  0  0  0  # atno 10765 bound_to 10752
  139.8782  134.8950  156.4156 H   0  0  0  0  0  0  0  0  0  0  0  0  # atno 11005 bound_to 11000
  144.6950  140.3387  143.7203 LP  0  0  0  0  0  0  0  0  0  0  0  0  # atno 17320 bound_to 7965
  145.7352  139.1748  143.2407 LP  0  0  0  0  0  0  0  0  0  0  0  0  # atno 17321 bound_to 7965
  139.6980  143.9581  152.2892 LP  0  0  0  0  0  0  0  0  0  0  0  0  # atno 17342 bound_to 10162
  139.9265  144.6768  150.8407 LP  0  0  0  0  0  0  0  0  0  0  0  0  # atno 17343 bound_to 10162
  157.2810  130.6750  149.6066 LP  0  0  0  0  0  0  0  0  0  0  0  0  # atno 17370 bound_to 10713
  155.9669  130.4450  150.5483 LP  0  0  0  0  0  0  0  0  0  0  0  0  # atno 17371 bound_to 10713
  140.9170  133.7672  155.9860 LP  0  0  0  0  0  0  0  0  0  0  0  0  # atno 17394 bound_to 11000
  140.8483  134.2985  157.5286 LP  0  0  0  0  0  0  0  0  0  0  0  0  # atno 17395 bound_to 11000

$$$$
