AV-unprocessed.smi:34|AV-procd|sdf|241|dock7
  -GOLD-   2262015593D 1   1.00000     0.00000
 Structure written by MMmdl.
 54 58  0  0  0  0  0  0  0  0  2 V2000
  152.8893  140.5291  158.3011 O   0  0  0  0  0  0  0  0  0  0  0  0
  153.0947  140.8412  159.4761 C   0  0  0  0  0  0  0  0  0  0  0  0
  153.6279  140.0725  160.4596 N   0  5  0  0  0  0  0  0  0  0  0  0
  153.7236  138.7448  160.2925 C   0  0  0  0  0  0  0  0  0  0  0  0
  153.3950  138.1795  159.1026 N   0  0  0  0  0  0  0  0  0  0  0  0
  153.4879  136.8551  158.9336 C   0  0  0  0  0  0  0  0  0  0  0  0
  153.8783  135.9212  159.8073 N   0  0  0  0  0  0  0  0  0  0  0  0
  154.2020  136.4786  161.0101 C   0  0  0  0  0  0  0  0  0  0  0  0
  154.1461  137.8658  161.3278 C   0  0  0  0  0  0  0  0  0  0  0  0
  154.5385  138.0833  162.6404 N   0  0  0  0  0  0  0  0  0  0  0  0
  154.8140  136.8460  163.0486 C   0  0  0  0  0  0  0  0  0  0  0  0
  154.6557  135.8476  162.1544 N   0  0  0  0  0  0  0  0  0  0  0  0
  154.8732  134.3748  162.3216 C   0  0  2  0  0  0  0  0  0  0  0  0
  155.3337  134.1269  163.6205 O   0  0  0  0  0  0  0  0  0  0  0  0
  156.6719  133.6370  163.6032 C   0  0  2  0  0  0  0  0  0  0  0  0
  157.6552  134.7979  163.8261 C   0  0  0  0  0  0  0  0  0  0  0  0
  158.0309  134.8412  165.1930 O   0  0  0  0  0  0  0  0  0  0  0  0
  158.7388  135.8844  165.6667 C   0  0  0  0  0  0  0  0  0  0  0  0
  159.1459  136.8095  164.9611 O   0  0  0  0  0  0  0  0  0  0  0  0
  158.9803  135.8007  167.1362 C   0  0  0  0  0  0  0  0  0  0  0  0
  159.5655  136.9005  167.8065 C   0  0  0  0  0  0  0  0  0  0  0  0
  159.8095  136.8486  169.1927 C   0  0  0  0  0  0  0  0  0  0  0  0
  159.4713  135.6963  169.9260 C   0  0  0  0  0  0  0  0  0  0  0  0
  158.8884  134.5957  169.2710 C   0  0  0  0  0  0  0  0  0  0  0  0
  158.6437  134.6456  167.8847 C   0  0  0  0  0  0  0  0  0  0  0  0
  156.8018  132.9658  162.2347 C   0  0  1  0  0  0  0  0  0  0  0  0
  156.3138  131.7261  162.3039 F   0  0  0  0  0  0  0  0  0  0  0  0
  155.9169  133.8076  161.3326 C   0  0  2  0  0  0  0  0  0  0  0  0
  156.6873  134.7838  160.6527 O   0  0  0  0  0  0  0  0  0  0  0  0
  152.6641  142.2042  159.9501 C   0  0  0  0  0  0  0  0  0  0  0  0
  152.1124  143.1235  159.0287 C   0  0  0  0  0  0  0  0  0  0  0  0
  151.7291  144.4133  159.4448 C   0  0  0  0  0  0  0  0  0  0  0  0
  151.9006  144.8013  160.7866 C   0  0  0  0  0  0  0  0  0  0  0  0
  152.4602  143.8997  161.7108 C   0  0  0  0  0  0  0  0  0  0  0  0
  152.8451  142.6102  161.2952 C   0  0  0  0  0  0  0  0  0  0  0  0
  153.2109  136.4909  157.9555 H   0  0  0  0  0  0  0  0  0  0  0  0
  155.1494  136.6605  164.0579 H   0  0  0  0  0  0  0  0  0  0  0  0
  153.8810  133.9392  162.1965 H   0  0  0  0  0  0  0  0  0  0  0  0
  156.7975  132.9112  164.4077 H   0  0  0  0  0  0  0  0  0  0  0  0
  158.5396  134.6863  163.1984 H   0  0  0  0  0  0  0  0  0  0  0  0
  157.1801  135.7415  163.5549 H   0  0  0  0  0  0  0  0  0  0  0  0
  159.8347  137.7956  167.2642 H   0  0  0  0  0  0  0  0  0  0  0  0
  160.2575  137.6943  169.6934 H   0  0  0  0  0  0  0  0  0  0  0  0
  159.6590  135.6566  170.9887 H   0  0  0  0  0  0  0  0  0  0  0  0
  158.6286  133.7103  169.8324 H   0  0  0  0  0  0  0  0  0  0  0  0
  158.1965  133.7827  167.4132 H   0  0  0  0  0  0  0  0  0  0  0  0
  157.8310  132.8763  161.8839 H   0  0  0  0  0  0  0  0  0  0  0  0
  155.4110  133.1986  160.5825 H   0  0  0  0  0  0  0  0  0  0  0  0
  156.4008  134.8177  159.7522 H   0  0  0  0  0  0  0  0  0  0  0  0
  151.9759  142.8427  157.9944 H   0  0  0  0  0  0  0  0  0  0  0  0
  151.3051  145.1054  158.7327 H   0  0  0  0  0  0  0  0  0  0  0  0
  151.6074  145.7904  161.1056 H   0  0  0  0  0  0  0  0  0  0  0  0
  152.5991  144.1978  162.7396 H   0  0  0  0  0  0  0  0  0  0  0  0
  153.2838  141.9385  162.0189 H   0  0  0  0  0  0  0  0  0  0  0  0
  1  2  2  0  0  0  0
  2  3  1  0  0  0  0
  2 30  1  0  0  0  0
  3  4  1  0  0  0  0
  4  9  1  0  0  0  0
  4  5  2  0  0  0  0
  5  6  1  0  0  0  0
  6  7  2  0  0  0  0
  6 36  1  0  0  0  0
  7  8  1  0  0  0  0
  8 12  1  0  0  0  0
  8  9  2  0  0  0  0
  9 10  1  0  0  0  0
 10 11  2  0  0  0  0
 11 12  1  0  0  0  0
 11 37  1  0  0  0  0
 12 13  1  0  0  0  0
 13 28  1  0  0  0  0
 13 14  1  0  0  0  0
 13 38  1  0  0  0  0
 14 15  1  0  0  0  0
 15 16  1  0  0  0  0
 15 26  1  0  0  0  0
 15 39  1  0  0  0  0
 16 17  1  0  0  0  0
 16 40  1  0  0  0  0
 16 41  1  0  0  0  0
 17 18  1  0  0  0  0
 18 19  2  0  0  0  0
 18 20  1  0  0  0  0
 20 25  1  0  0  0  0
 20 21  2  0  0  0  0
 21 22  1  0  0  0  0
 21 42  1  0  0  0  0
 22 23  2  0  0  0  0
 22 43  1  0  0  0  0
 23 24  1  0  0  0  0
 23 44  1  0  0  0  0
 24 25  2  0  0  0  0
 24 45  1  0  0  0  0
 25 46  1  0  0  0  0
 26 27  1  0  0  0  0
 26 28  1  0  0  0  0
 26 47  1  0  0  0  0
 28 29  1  0  0  0  0
 28 48  1  0  0  0  0
 29 49  1  0  0  0  0
 30 35  1  0  0  0  0
 30 31  2  0  0  0  0
 31 32  1  0  0  0  0
 31 50  1  0  0  0  0
 32 33  2  0  0  0  0
 32 51  1  0  0  0  0
 33 34  1  0  0  0  0
 33 52  1  0  0  0  0
 34 35  2  0  0  0  0
 34 53  1  0  0  0  0
 35 54  1  0  0  0  0
M  CHG  1   3  -1
M  END
> <s_m_source_file>
AV-unprocessed.smi

> <i_m_source_file_index>
34

> <i_lp_mmshare_version>
43012

> <i_f3d_flags>
0

> <s_epik_input>
W2NIXTFbY0hdW2NIXVtjSF1bY0hdYzFDKD1PKVtOSF1jKG5bY0hdbjIpYyhjMjMpbltjSF1uM1tDQEBIXTRPW0NASF0oW0NAQEhdKEYpW0NASF00W09IXSlbQ0gyXU9DKD1PKWM1W2NIXVtjSF1bY0hdW2NIXVtjSF01

> <s_epik_cmdline>
J2VwaWtfcHl0aG9uJywgJy1waCcsICc3LjAnLCAnLXRuJywgJzgnLCAnLW1hJywgJzIwMCcsICctbWV0YWxfYmluZGluZycsICctaW1hZScsICc8aW5maWxlLm1hZT4nLCAnLW9tYWUnLCAnPG91dGZpbGUubWFlPic=

> <r_lp_tautomer_probability>
1

> <r_epik_Ionization_Penalty>
4.33227

> <r_epik_Ionization_Penalty_Charging>
3.41027

> <r_epik_Ionization_Penalty_Neutral>
0.922001

> <r_epik_State_Penalty>
3.41358

> <r_epik_Charging_Adjusted_Penalty>
6.82385

> <i_epik_Tot_Q>
-1

> <i_epik_Tot_abs_Q>
1

> <r_epik_Metal_State_Penalty>
0.496292

> <b_epik_Metal_Only>
1

> <s_epik_Chemistry_Notes>
This compound has an ester and may undergo hydrolysis at high or low pH. This compound contains an acetal/aminal-like group ( X-CH(R)-Y where X, Y are N, S, or O) that may be acid/base labile, releasing an aldehyde.

> <s_lp_Force_Field>
OPLS_2005

> <r_lp_Energy>
50.7645

> <b_lp_Chiralities_Consistent>
1

> <s_lp_Variant>
AV-unprocessed.smi:34-27

> <Gold.Version>
5.8.1

> <Gold.Id.Protein>
6NUR|6NUR_protein|mol2

> <Gold.PLP.Fitness>
52.5671

> <Gold.PLP.PLP>
-48.3132

> <Gold.PLP.part.hbond>
-2.0000

> <Gold.PLP.part.metal>
0.0000

> <Gold.PLP.part.buried>
-6.1707

> <Gold.PLP.part.nonpolar>
-39.6782

> <Gold.PLP.part.repulsive>
0.0828

> <Gold.PLP.ligand.clash>
0.0000

> <Gold.PLP.ligand.torsion>
0.6115

> <Gold.PLP.Chemscore.Hbond>
1.7840

> <Gold.PLP.Chemscore.CHOScore>
0.0000

> <Gold.PLP.Chemscore.Metal>
0.0000

> <Gold.Chemscore.Hbonds>
donor molecule, donor type, donor heavy atom, donor atom, acceptor molecule, acceptor atom, score
      P1  H  6896  6909       L1     7  1.00
      P1  H  7997  8010       L1     1  0.53

> <Gold.PLP.Chemscore.Internal.Correction>
0.1250

> <Gold.Rescore>
     Score         DG    S(hbond)    S(metal)    S(lipo)     H(rot)  DE(clash)    DE(int)     intcor
     13.07     -16.52       1.61        0.00     107.43       2.69       0.22       3.23       ----

> <Gold.Chemscore.Fitness>
13.0721

> <Gold.Chemscore.DG>
-16.5210

> <Gold.Chemscore.ZeroCoef>
-5.4800

> <Gold.Chemscore.Hbond>
1.6074

> <Gold.Chemscore.Metal>
0.0000

> <Gold.Chemscore.Lipo>
107.4349

> <Gold.Chemscore.Internal_Hbond>
0.0000

> <Gold.Chemscore.DEClash>
0.2152

> <Gold.Chemscore.DEInternal>
3.2337

> <Gold.Chemscore.Rot>
2.6944

> <Gold.Chemscore.Internal.Correction>
   9.000000E+99

> <Gold.Chemscore.Hbonds>
donor molecule, donor type, donor heavy atom, donor atom, acceptor molecule, acceptor atom, score
      P1  H  6896  6909       L1     7  0.60
      P1  H  7997  8010       L1     1  0.52

> <Gold.Chemscore.Hbond.Weighted>
-5.3687

> <Gold.Chemscore.Metal.Weighted>
-0.0000

> <Gold.Chemscore.Lipo.Weighted>
-12.5699

> <Gold.Chemscore.Internal_Hbond.Weighted>
0.0000

> <Gold.Chemscore.DEClash.Weighted>
0.2152

> <Gold.Chemscore.DEInternal.Weighted>
3.2337

> <Gold.Chemscore.Rot.Weighted>
6.8975

> <Gold.Chemscore.Internal.Correction.Weighted>
   9.000000E+99

> <Gold.Protein.RotatedTorsions>
[ 6907 6896 6895 6894 ] final -170.75 input  -60.11 | X-H torsion
[ 7974 7965 7964 7962 ] final   24.06 input  175.53 | X-H torsion
[ 8008 7997 7996 7995 ] final   39.04 input   59.86 | X-H torsion
[ 10167 10162 10161 10158 ] final   92.27 input  -65.29 | X-H torsion
[ 10718 10713 10712 10709 ] final   87.48 input   66.30 | X-H torsion
[ 10763 10752 10751 10750 ] final  -67.53 input  -60.55 | X-H torsion
[ 11005 11000 10999 10996 ] final -143.04 input  -57.11 | X-H torsion

> <Gold.Protein.ActiveResidues>
 VAL166  LYS551  ARG553  GLY616  TRP617  ASP618  TYR619  PRO620  LYS621  CYS622 
 ASP623  PHE694  ASN695  SER759  ASP760  ASP761  ALA762  ILE779  LEU786  VAL792 
 PHE793  MET794  SER795  GLU796  ALA797  LYS798  CYS799  TRP800  GLU811  SER814 

> <Gold.Protein.RotatedAtoms>
  151.5127  133.3482  159.2887 H   0  0  0  0  0  0  0  0  0  0  0  0  # atno 6907 bound_to 6896
  150.8702  134.8076  159.7160 H   0  0  0  0  0  0  0  0  0  0  0  0  # atno 6908 bound_to 6896
  152.4693  134.5010  159.9776 H   0  0  0  0  0  0  0  0  0  0  0  0  # atno 6909 bound_to 6896
  146.1955  139.7658  142.8800 H   0  0  0  0  0  0  0  0  0  0  0  0  # atno 7974 bound_to 7965
  155.2301  140.3337  155.4304 H   0  0  0  0  0  0  0  0  0  0  0  0  # atno 8008 bound_to 7997
  156.2298  140.1845  156.7316 H   0  0  0  0  0  0  0  0  0  0  0  0  # atno 8009 bound_to 7997
  154.5959  140.0630  156.9288 H   0  0  0  0  0  0  0  0  0  0  0  0  # atno 8010 bound_to 7997
  139.8293  144.6694  150.9419 H   0  0  0  0  0  0  0  0  0  0  0  0  # atno 10167 bound_to 10162
  157.6940  131.0257  150.3129 H   0  0  0  0  0  0  0  0  0  0  0  0  # atno 10718 bound_to 10713
  154.3758  135.6085  153.5764 H   0  0  0  0  0  0  0  0  0  0  0  0  # atno 10763 bound_to 10752
  152.9789  135.5849  154.4469 H   0  0  0  0  0  0  0  0  0  0  0  0  # atno 10764 bound_to 10752
  154.4230  135.2846  155.1941 H   0  0  0  0  0  0  0  0  0  0  0  0  # atno 10765 bound_to 10752
  140.8165  134.2682  157.4919 H   0  0  0  0  0  0  0  0  0  0  0  0  # atno 11005 bound_to 11000
  145.3656  141.0333  143.3260 LP  0  0  0  0  0  0  0  0  0  0  0  0  # atno 17320 bound_to 7965
  144.8573  139.5231  143.6829 LP  0  0  0  0  0  0  0  0  0  0  0  0  # atno 17321 bound_to 7965
  140.7808  143.4016  151.1140 LP  0  0  0  0  0  0  0  0  0  0  0  0  # atno 17342 bound_to 10162
  139.7670  143.8550  152.3113 LP  0  0  0  0  0  0  0  0  0  0  0  0  # atno 17343 bound_to 10162
  156.3628  130.3850  149.7238 LP  0  0  0  0  0  0  0  0  0  0  0  0  # atno 17370 bound_to 10713
  156.4678  130.7982  151.3001 LP  0  0  0  0  0  0  0  0  0  0  0  0  # atno 17371 bound_to 10713
  139.8711  134.9512  156.4077 LP  0  0  0  0  0  0  0  0  0  0  0  0  # atno 17394 bound_to 11000
  140.9144  133.7689  155.9830 LP  0  0  0  0  0  0  0  0  0  0  0  0  # atno 17395 bound_to 11000

$$$$
