AV-unprocessed.smi:2493|AV-procd|sdf|9820|dock1
  -GOLD-   2272013453D 1   1.00000     0.00000
 Structure written by MMmdl.
 41 42  0  0  0  0  0  0  0  0  1 V2000
  151.8628  144.1215  157.5957 C   0  0  0  0  0  0  0  0  0  0  0  0
  151.3530  142.9765  158.5018 C   0  0  0  0  0  0  0  0  0  0  0  0
  149.8019  142.8996  158.4126 C   0  0  0  0  0  0  0  0  0  0  0  0
  149.3029  142.6338  157.0638 N   0  0  0  0  0  0  0  0  0  0  0  0
  149.0443  141.4225  156.5459 C   0  0  0  0  0  0  0  0  0  0  0  0
  149.2151  140.3685  157.1587 O   0  0  0  0  0  0  0  0  0  0  0  0
  148.5173  141.3949  155.1109 C   0  0  0  0  0  0  0  0  0  0  0  0
  147.1806  142.0824  155.0360 C   0  0  0  0  0  0  0  0  0  0  0  0
  146.3726  142.3059  153.8814 C   0  0  0  0  0  0  0  0  0  0  0  0
  145.2769  142.9635  154.3629 C   0  0  0  0  0  0  0  0  0  0  0  0
  145.4674  143.1019  155.7173 N   0  0  0  0  0  0  0  0  0  0  0  0
  146.6291  142.5694  156.1405 N   0  0  0  0  0  0  0  0  0  0  0  0
  151.9426  141.6483  157.9517 C   0  0  0  0  0  0  0  0  0  0  0  0
  151.9738  140.4544  158.9243 C   0  0  0  0  0  0  0  0  0  0  0  0
  153.2691  140.3951  159.7521 C   0  0  0  0  0  0  0  0  0  0  0  0
  153.3761  141.4633  160.8495 C   0  0  0  0  0  0  0  0  0  0  0  0
  153.2236  142.9115  160.3531 C   0  0  0  0  0  0  0  0  0  0  0  0
  151.7738  143.2645  159.9711 C   0  0  0  0  0  0  0  0  0  0  0  0
  144.8251  143.5512  156.3546 H   0  0  0  0  0  0  0  0  0  0  0  0
  151.5392  143.9820  156.5635 H   0  0  0  0  0  0  0  0  0  0  0  0
  152.9515  144.1758  157.5904 H   0  0  0  0  0  0  0  0  0  0  0  0
  151.5005  145.0963  157.9218 H   0  0  0  0  0  0  0  0  0  0  0  0
  149.4158  142.1561  159.1121 H   0  0  0  0  0  0  0  0  0  0  0  0
  149.3655  143.8476  158.7273 H   0  0  0  0  0  0  0  0  0  0  0  0
  149.1284  143.4393  156.4802 H   0  0  0  0  0  0  0  0  0  0  0  0
  149.2405  141.8683  154.4449 H   0  0  0  0  0  0  0  0  0  0  0  0
  148.4282  140.3590  154.7819 H   0  0  0  0  0  0  0  0  0  0  0  0
  146.5694  142.0227  152.8581 H   0  0  0  0  0  0  0  0  0  0  0  0
  144.3950  143.3379  153.8642 H   0  0  0  0  0  0  0  0  0  0  0  0
  151.3777  141.3572  157.0651 H   0  0  0  0  0  0  0  0  0  0  0  0
  152.9552  141.8128  157.5808 H   0  0  0  0  0  0  0  0  0  0  0  0
  151.0949  140.4380  159.5691 H   0  0  0  0  0  0  0  0  0  0  0  0
  151.9223  139.5396  158.3328 H   0  0  0  0  0  0  0  0  0  0  0  0
  153.3382  139.4142  160.2236 H   0  0  0  0  0  0  0  0  0  0  0  0
  154.1328  140.4630  159.0893 H   0  0  0  0  0  0  0  0  0  0  0  0
  152.6406  141.2623  161.6293 H   0  0  0  0  0  0  0  0  0  0  0  0
  154.3492  141.3601  161.3308 H   0  0  0  0  0  0  0  0  0  0  0  0
  153.5229  143.5691  161.1698 H   0  0  0  0  0  0  0  0  0  0  0  0
  153.9152  143.1222  159.5373 H   0  0  0  0  0  0  0  0  0  0  0  0
  151.6156  144.3237  160.1785 H   0  0  0  0  0  0  0  0  0  0  0  0
  151.1007  142.7491  160.6578 H   0  0  0  0  0  0  0  0  0  0  0  0
  1  2  1  0  0  0  0
  1 20  1  0  0  0  0
  1 21  1  0  0  0  0
  1 22  1  0  0  0  0
  2 18  1  0  0  0  0
  2  3  1  0  0  0  0
  2 13  1  0  0  0  0
  3  4  1  0  0  0  0
  3 23  1  0  0  0  0
  3 24  1  0  0  0  0
  4  5  1  0  0  0  0
  4 25  1  0  0  0  0
  5  6  2  0  0  0  0
  5  7  1  0  0  0  0
  7 26  1  0  0  0  0
  7 27  1  0  0  0  0
  7  8  1  0  0  0  0
  8 12  2  0  0  0  0
  8  9  1  0  0  0  0
  9 10  2  0  0  0  0
  9 28  1  0  0  0  0
 10 11  1  0  0  0  0
 10 29  1  0  0  0  0
 11 12  1  0  0  0  0
 11 19  1  0  0  0  0
 13 14  1  0  0  0  0
 13 30  1  0  0  0  0
 13 31  1  0  0  0  0
 14 15  1  0  0  0  0
 14 32  1  0  0  0  0
 14 33  1  0  0  0  0
 15 16  1  0  0  0  0
 15 34  1  0  0  0  0
 15 35  1  0  0  0  0
 16 17  1  0  0  0  0
 16 36  1  0  0  0  0
 16 37  1  0  0  0  0
 17 18  1  0  0  0  0
 17 38  1  0  0  0  0
 17 39  1  0  0  0  0
 18 40  1  0  0  0  0
 18 41  1  0  0  0  0
M  END
> <s_m_source_file>
AV-unprocessed.smi

> <i_m_source_file_index>
2493

> <i_lp_mmshare_version>
43012

> <i_f3d_flags>
0

> <s_epik_input>
W0NIMl0xW0NIMl1bQ0gyXVtDSDJdW0NIMl1bQ0gyXUMxKFtDSDNdKVtDSDJdW05IXUMoPU8pW0NIMl1jMltjSF1bY0hdbltuSF0y

> <s_epik_cmdline>
J2VwaWtfcHl0aG9uJywgJy1waCcsICc3LjAnLCAnLXRuJywgJzgnLCAnLW1hJywgJzIwMCcsICctbWV0YWxfYmluZGluZycsICctaW1hZScsICc8aW5maWxlLm1hZT4nLCAnLW9tYWUnLCAnPG91dGZpbGUubWFlPic=

> <r_lp_tautomer_probability>
0.5

> <r_epik_Ionization_Penalty>
1.58956e-05

> <r_epik_Ionization_Penalty_Charging>
0

> <r_epik_Ionization_Penalty_Neutral>
1.58956e-05

> <r_epik_State_Penalty>
0.41068

> <r_epik_Charging_Adjusted_Penalty>
0.41068

> <i_epik_Tot_Q>
0

> <i_epik_Tot_abs_Q>
0

> <r_epik_Metal_State_Penalty>
0.410685

> <b_epik_Metal_Only>
0

> <s_lp_Force_Field>
OPLS_2005

> <r_lp_Energy>
20.7964

> <b_lp_Chiralities_Consistent>
1

> <s_lp_Variant>
AV-unprocessed.smi:2493-2

> <Gold.Version>
5.8.1

> <Gold.Id.Protein>
6NUR|6NUR_protein|mol2

> <Gold.PLP.Fitness>
41.0773

> <Gold.PLP.PLP>
-36.4662

> <Gold.PLP.part.hbond>
-1.0000

> <Gold.PLP.part.metal>
0.0000

> <Gold.PLP.part.buried>
-4.8671

> <Gold.PLP.part.nonpolar>
-31.9082

> <Gold.PLP.part.repulsive>
0.4730

> <Gold.PLP.ligand.clash>
0.0000

> <Gold.PLP.ligand.torsion>
0.2040

> <Gold.PLP.Chemscore.Hbond>
1.0000

> <Gold.PLP.Chemscore.CHOScore>
0.6579

> <Gold.PLP.Chemscore.Metal>
0.0000

> <Gold.Chemscore.Hbonds>
donor molecule, donor type, donor heavy atom, donor atom, acceptor molecule, acceptor atom, score
      L1  H     4    25       P1  8028  1.00
      L1  C    10    29       P1 10174  0.68

> <Gold.PLP.Chemscore.Internal.Correction>
0.0455

> <Gold.Rescore>
     Score         DG    S(hbond)    S(metal)    S(lipo)     H(rot)  DE(clash)    DE(int)     intcor
     15.72     -17.28       0.99        0.00     108.89       1.66       0.02       1.54       ----

> <Gold.Chemscore.Fitness>
15.7241

> <Gold.Chemscore.DG>
-17.2820

> <Gold.Chemscore.ZeroCoef>
-5.4800

> <Gold.Chemscore.Hbond>
0.9907

> <Gold.Chemscore.Metal>
0.0000

> <Gold.Chemscore.Lipo>
108.8930

> <Gold.Chemscore.Internal_Hbond>
0.0000

> <Gold.Chemscore.DEClash>
0.0155

> <Gold.Chemscore.DEInternal>
1.5423

> <Gold.Chemscore.Rot>
1.6592

> <Gold.Chemscore.Internal.Correction>
   9.000000E+99

> <Gold.Chemscore.Hbonds>
donor molecule, donor type, donor heavy atom, donor atom, acceptor molecule, acceptor atom, score
      L1  H     4    25       P1  8028  0.92

> <Gold.Chemscore.Hbond.Weighted>
-3.3090

> <Gold.Chemscore.Metal.Weighted>
-0.0000

> <Gold.Chemscore.Lipo.Weighted>
-12.7405

> <Gold.Chemscore.Internal_Hbond.Weighted>
0.0000

> <Gold.Chemscore.DEClash.Weighted>
0.0155

> <Gold.Chemscore.DEInternal.Weighted>
1.5423

> <Gold.Chemscore.Rot.Weighted>
4.2475

> <Gold.Chemscore.Internal.Correction.Weighted>
   9.000000E+99

> <Gold.Protein.RotatedTorsions>
[ 6907 6896 6895 6894 ] final  -29.56 input  -60.11 | X-H torsion
[ 7974 7965 7964 7962 ] final  116.27 input  175.53 | X-H torsion
[ 8008 7997 7996 7995 ] final   82.77 input   59.86 | X-H torsion
[ 10167 10162 10161 10158 ] final  130.17 input  -65.29 | X-H torsion
[ 10718 10713 10712 10709 ] final -125.71 input   66.30 | X-H torsion
[ 10763 10752 10751 10750 ] final   65.72 input  -60.55 | X-H torsion
[ 11005 11000 10999 10996 ] final  151.67 input  -57.11 | X-H torsion

> <Gold.Protein.ActiveResidues>
 VAL166  LYS551  ARG553  GLY616  TRP617  ASP618  TYR619  PRO620  LYS621  CYS622 
 ASP623  PHE694  ASN695  SER759  ASP760  ASP761  ALA762  ILE779  LEU786  VAL792 
 PHE793  MET794  SER795  GLU796  ALA797  LYS798  CYS799  TRP800  GLU811  SER814 

> <Gold.Protein.RotatedAtoms>
  151.1175  135.0061  159.8522 H   0  0  0  0  0  0  0  0  0  0  0  0  # atno 6907 bound_to 6896
  152.5446  134.1762  159.8627 H   0  0  0  0  0  0  0  0  0  0  0  0  # atno 6908 bound_to 6896
  151.1817  133.4676  159.2627 H   0  0  0  0  0  0  0  0  0  0  0  0  # atno 6909 bound_to 6896
  145.1817  139.3046  143.4414 H   0  0  0  0  0  0  0  0  0  0  0  0  # atno 7974 bound_to 7965
  155.9150  140.3425  155.6128 H   0  0  0  0  0  0  0  0  0  0  0  0  # atno 8008 bound_to 7997
  155.7342  140.0799  157.2294 H   0  0  0  0  0  0  0  0  0  0  0  0  # atno 8009 bound_to 7997
  154.4061  140.1582  156.2530 H   0  0  0  0  0  0  0  0  0  0  0  0  # atno 8010 bound_to 7997
  139.5443  144.6759  151.4524 H   0  0  0  0  0  0  0  0  0  0  0  0  # atno 10167 bound_to 10162
  156.1700  130.6661  151.0167 H   0  0  0  0  0  0  0  0  0  0  0  0  # atno 10718 bound_to 10713
  153.0108  135.5346  154.6711 H   0  0  0  0  0  0  0  0  0  0  0  0  # atno 10763 bound_to 10752
  154.5895  135.2857  155.0652 H   0  0  0  0  0  0  0  0  0  0  0  0  # atno 10764 bound_to 10752
  154.1750  135.6525  153.5072 H   0  0  0  0  0  0  0  0  0  0  0  0  # atno 10765 bound_to 10752
  140.1239  134.8846  157.2111 H   0  0  0  0  0  0  0  0  0  0  0  0  # atno 11005 bound_to 11000
  146.3452  140.1998  142.8589 LP  0  0  0  0  0  0  0  0  0  0  0  0  # atno 17320 bound_to 7965
  145.0130  140.8730  143.5213 LP  0  0  0  0  0  0  0  0  0  0  0  0  # atno 17321 bound_to 7965
  140.6685  143.8346  150.6970 LP  0  0  0  0  0  0  0  0  0  0  0  0  # atno 17342 bound_to 10162
  140.1762  143.4153  152.1965 LP  0  0  0  0  0  0  0  0  0  0  0  0  # atno 17343 bound_to 10162
  157.6796  131.0841  150.7405 LP  0  0  0  0  0  0  0  0  0  0  0  0  # atno 17370 bound_to 10713
  156.7465  130.4755  149.5466 LP  0  0  0  0  0  0  0  0  0  0  0  0  # atno 17371 bound_to 10713
  140.2929  134.3220  155.7310 LP  0  0  0  0  0  0  0  0  0  0  0  0  # atno 17394 bound_to 11000
  141.2157  133.7545  156.9529 LP  0  0  0  0  0  0  0  0  0  0  0  0  # atno 17395 bound_to 11000

$$$$
