AV-unprocessed.smi:1703|AV-procd|sdf|6868|dock7
  -GOLD-   22720 8 63D 1   1.00000     0.00000
 Structure written by MMmdl.
 49 51  0  0  0  0  0  0  0  0  2 V2000
  144.2800  139.6628  159.6023 C   0  0  0  0  0  0  0  0  0  0  0  0
  144.8438  140.7625  158.6966 C   0  0  2  0  0  0  0  0  0  0  0  0
  145.8658  140.2152  157.6813 C   0  0  0  0  0  0  0  0  0  0  0  0
  146.4493  141.2742  156.8623 N   0  0  0  0  0  0  0  0  0  0  0  0
  147.4054  140.7243  155.8967 C   0  0  0  0  0  0  0  0  0  0  0  0
  148.5031  141.6911  155.3983 C   0  0  2  0  0  0  0  0  0  0  0  0
  147.8888  142.5517  154.4587 O   0  0  0  0  0  0  0  0  0  0  0  0
  149.7271  141.0250  154.7309 C   0  0  0  0  0  0  0  0  0  0  0  0
  150.6971  140.4875  155.6987 N   0  0  0  0  0  0  0  0  0  0  0  0
  151.2989  139.2647  155.7626 C   0  0  0  0  0  0  0  0  0  0  0  0
  151.1072  138.1284  154.8088 C   0  0  0  0  0  0  0  0  0  0  0  0
  151.8256  136.9678  155.1710 O   0  0  0  0  0  0  0  0  0  0  0  0
  152.1104  139.2753  156.8592 N   0  3  0  0  0  0  0  0  0  0  0  0
  152.0252  140.5111  157.5014 C   0  0  0  0  0  0  0  0  0  0  0  0
  152.6568  140.9916  158.6443 C   0  0  0  0  0  0  0  0  0  0  0  0
  152.3440  142.3112  159.0328 C   0  0  0  0  0  0  0  0  0  0  0  0
  151.4348  143.0979  158.2958 C   0  0  0  0  0  0  0  0  0  0  0  0
  150.8001  142.5995  157.1389 C   0  0  0  0  0  0  0  0  0  0  0  0
  151.1166  141.2947  156.7616 C   0  0  0  0  0  0  0  0  0  0  0  0
  147.0578  142.2533  157.7625 C   0  0  0  0  0  0  0  0  0  0  0  0
  146.0442  142.8151  158.7776 C   0  0  2  0  0  0  0  0  0  0  0  0
  146.6939  143.7892  159.7660 C   0  0  0  0  0  0  0  0  0  0  0  0
  145.4808  141.7365  159.5179 O   0  0  0  0  0  0  0  0  0  0  0  0
  143.7723  138.8954  159.0177 H   0  0  0  0  0  0  0  0  0  0  0  0
  143.5591  140.0731  160.3100 H   0  0  0  0  0  0  0  0  0  0  0  0
  145.0716  139.1794  160.1754 H   0  0  0  0  0  0  0  0  0  0  0  0
  144.0170  141.2357  158.1638 H   0  0  0  0  0  0  0  0  0  0  0  0
  146.6560  139.6801  158.2110 H   0  0  0  0  0  0  0  0  0  0  0  0
  145.3711  139.4840  157.0405 H   0  0  0  0  0  0  0  0  0  0  0  0
  147.8481  139.8039  156.2806 H   0  0  0  0  0  0  0  0  0  0  0  0
  146.8493  140.4206  155.0079 H   0  0  0  0  0  0  0  0  0  0  0  0
  148.8326  142.3132  156.2309 H   0  0  0  0  0  0  0  0  0  0  0  0
  148.2557  143.4165  154.5612 H   0  0  0  0  0  0  0  0  0  0  0  0
  149.4265  140.1983  154.0901 H   0  0  0  0  0  0  0  0  0  0  0  0
  150.2515  141.7419  154.0982 H   0  0  0  0  0  0  0  0  0  0  0  0
  150.0461  137.8839  154.7530 H   0  0  0  0  0  0  0  0  0  0  0  0
  151.4216  138.4402  153.8126 H   0  0  0  0  0  0  0  0  0  0  0  0
  151.3293  136.5001  155.8259 H   0  0  0  0  0  0  0  0  0  0  0  0
  153.3529  140.3908  159.2111 H   0  0  0  0  0  0  0  0  0  0  0  0
  152.8102  142.7281  159.9138 H   0  0  0  0  0  0  0  0  0  0  0  0
  151.2194  144.1044  158.6244 H   0  0  0  0  0  0  0  0  0  0  0  0
  150.1053  143.2098  156.5810 H   0  0  0  0  0  0  0  0  0  0  0  0
  147.8870  141.7912  158.3006 H   0  0  0  0  0  0  0  0  0  0  0  0
  147.4827  143.0835  157.2078 H   0  0  0  0  0  0  0  0  0  0  0  0
  145.2456  143.3356  158.2460 H   0  0  0  0  0  0  0  0  0  0  0  0
  147.1372  144.6388  159.2459 H   0  0  0  0  0  0  0  0  0  0  0  0
  147.4805  143.3008  160.3420 H   0  0  0  0  0  0  0  0  0  0  0  0
  145.9579  144.1776  160.4702 H   0  0  0  0  0  0  0  0  0  0  0  0
  152.6795  138.4874  157.1418 H   0  0  0  0  0  0  0  0  0  0  0  0
  1  2  1  0  0  0  0
  1 24  1  0  0  0  0
  1 25  1  0  0  0  0
  1 26  1  0  0  0  0
  2 23  1  0  0  0  0
  2  3  1  0  0  0  0
  2 27  1  0  0  0  0
  3  4  1  0  0  0  0
  3 28  1  0  0  0  0
  3 29  1  0  0  0  0
  4  5  1  0  0  0  0
  4 20  1  0  0  0  0
  5  6  1  0  0  0  0
  5 30  1  0  0  0  0
  5 31  1  0  0  0  0
  6  7  1  0  0  0  0
  6  8  1  0  0  0  0
  6 32  1  0  0  0  0
  7 33  1  0  0  0  0
  8  9  1  0  0  0  0
  8 34  1  0  0  0  0
  8 35  1  0  0  0  0
  9 19  1  0  0  0  0
  9 10  1  0  0  0  0
 10 11  1  0  0  0  0
 10 13  2  0  0  0  0
 11 12  1  0  0  0  0
 11 36  1  0  0  0  0
 11 37  1  0  0  0  0
 12 38  1  0  0  0  0
 13 14  1  0  0  0  0
 13 49  1  0  0  0  0
 14 19  2  0  0  0  0
 14 15  1  0  0  0  0
 15 16  2  0  0  0  0
 15 39  1  0  0  0  0
 16 17  1  0  0  0  0
 16 40  1  0  0  0  0
 17 18  2  0  0  0  0
 17 41  1  0  0  0  0
 18 19  1  0  0  0  0
 18 42  1  0  0  0  0
 20 21  1  0  0  0  0
 20 43  1  0  0  0  0
 20 44  1  0  0  0  0
 21 22  1  0  0  0  0
 21 23  1  0  0  0  0
 21 45  1  0  0  0  0
 22 46  1  0  0  0  0
 22 47  1  0  0  0  0
 22 48  1  0  0  0  0
M  CHG  1  13   1
M  END
> <s_m_source_file>
AV-unprocessed.smi

> <i_m_source_file_index>
1703

> <i_lp_mmshare_version>
43012

> <i_f3d_flags>
0

> <s_epik_input>
W0NIM11bQ0BASF0xW0NIMl1OKFtDSDJdW0NASF0oTzEpW0NIM10pW0NIMl1bQ0BIXShbT0hdKVtDSDJdbihjKG4yKVtDSDJdW09IXSljKGMyMylbY0hdW2NIXVtjSF1bY0hdMw==

> <s_epik_cmdline>
J2VwaWtfcHl0aG9uJywgJy1waCcsICc3LjAnLCAnLXRuJywgJzgnLCAnLW1hJywgJzIwMCcsICctbWV0YWxfYmluZGluZycsICctaW1hZScsICc8aW5maWxlLm1hZT4nLCAnLW9tYWUnLCAnPG91dGZpbGUubWFlPic=

> <r_epik_Ionization_Penalty>
1.7682

> <r_epik_Ionization_Penalty_Charging>
1.55298

> <r_epik_Ionization_Penalty_Neutral>
0.215215

> <r_epik_State_Penalty>
1.83821

> <r_epik_Charging_Adjusted_Penalty>
3.39119

> <i_epik_Tot_Q>
1

> <i_epik_Tot_abs_Q>
1

> <r_epik_Metal_State_Penalty>
5.89206

> <b_epik_Metal_Only>
0

> <s_lp_Force_Field>
OPLS_2005

> <r_lp_Energy>
30.4523

> <b_lp_Chiralities_Consistent>
1

> <s_lp_Variant>
AV-unprocessed.smi:1703-16

> <Gold.Version>
5.8.1

> <Gold.Id.Protein>
6NUR|6NUR_protein|mol2

> <Gold.PLP.Fitness>
41.4623

> <Gold.PLP.PLP>
-33.8552

> <Gold.PLP.part.hbond>
-3.0804

> <Gold.PLP.part.metal>
0.0000

> <Gold.PLP.part.buried>
-2.7001

> <Gold.PLP.part.nonpolar>
-28.1369

> <Gold.PLP.part.repulsive>
0.1433

> <Gold.PLP.ligand.clash>
0.0000

> <Gold.PLP.ligand.torsion>
0.7330

> <Gold.PLP.Chemscore.Hbond>
3.0000

> <Gold.PLP.Chemscore.CHOScore>
0.0000

> <Gold.PLP.Chemscore.Metal>
0.0000

> <Gold.Chemscore.Hbonds>
donor molecule, donor type, donor heavy atom, donor atom, acceptor molecule, acceptor atom, score
      L1  H     7    33       P1  8028  1.00
      P1  H  6934  6946       L1    23  0.96
      P1  H 10752 10765       L1    12  1.00

> <Gold.PLP.Chemscore.Internal.Correction>
0.0731

> <Gold.Rescore>
     Score         DG    S(hbond)    S(metal)    S(lipo)     H(rot)  DE(clash)    DE(int)     intcor
     14.13     -16.10       2.63        0.00      80.26       2.96       0.07       1.89       ----

> <Gold.Chemscore.Fitness>
14.1306

> <Gold.Chemscore.DG>
-16.0984

> <Gold.Chemscore.ZeroCoef>
-5.4800

> <Gold.Chemscore.Hbond>
2.6329

> <Gold.Chemscore.Metal>
0.0000

> <Gold.Chemscore.Lipo>
80.2598

> <Gold.Chemscore.Internal_Hbond>
0.0000

> <Gold.Chemscore.DEClash>
0.0746

> <Gold.Chemscore.DEInternal>
1.8933

> <Gold.Chemscore.Rot>
2.9555

> <Gold.Chemscore.Internal.Correction>
   9.000000E+99

> <Gold.Chemscore.Hbonds>
donor molecule, donor type, donor heavy atom, donor atom, acceptor molecule, acceptor atom, score
      L1  H     7    33       P1  8028  0.91
      P1  H  6934  6946       L1    23  0.51
      P1  H 10752 10765       L1    12  0.38

> <Gold.Chemscore.Hbond.Weighted>
-8.7940

> <Gold.Chemscore.Metal.Weighted>
-0.0000

> <Gold.Chemscore.Lipo.Weighted>
-9.3904

> <Gold.Chemscore.Internal_Hbond.Weighted>
0.0000

> <Gold.Chemscore.DEClash.Weighted>
0.0746

> <Gold.Chemscore.DEInternal.Weighted>
1.8933

> <Gold.Chemscore.Rot.Weighted>
7.5660

> <Gold.Chemscore.Internal.Correction.Weighted>
   9.000000E+99

> <Gold.Protein.RotatedTorsions>
[ 6907 6896 6895 6894 ] final  -86.68 input  -60.11 | X-H torsion
[ 7974 7965 7964 7962 ] final  -87.97 input  175.53 | X-H torsion
[ 8008 7997 7996 7995 ] final  100.82 input   59.86 | X-H torsion
[ 10167 10162 10161 10158 ] final  179.36 input  -65.29 | X-H torsion
[ 10718 10713 10712 10709 ] final  168.45 input   66.30 | X-H torsion
[ 10763 10752 10751 10750 ] final  171.48 input  -60.55 | X-H torsion
[ 11005 11000 10999 10996 ] final  -36.04 input  -57.11 | X-H torsion

> <Gold.Protein.ActiveResidues>
 VAL166  LYS551  ARG553  GLY616  TRP617  ASP618  TYR619  PRO620  LYS621  CYS622 
 ASP623  PHE694  ASN695  SER759  ASP760  ASP761  ALA762  ILE779  LEU786  VAL792 
 PHE793  MET794  SER795  GLU796  ALA797  LYS798  CYS799  TRP800  GLU811  SER814 

> <Gold.Protein.RotatedAtoms>
  150.6866  134.3014  159.4707 H   0  0  0  0  0  0  0  0  0  0  0  0  # atno 6907 bound_to 6896
  152.0909  134.9405  160.0581 H   0  0  0  0  0  0  0  0  0  0  0  0  # atno 6908 bound_to 6896
  152.0721  133.4077  159.4501 H   0  0  0  0  0  0  0  0  0  0  0  0  # atno 6909 bound_to 6896
  145.4594  140.9561  143.1978 H   0  0  0  0  0  0  0  0  0  0  0  0  # atno 7974 bound_to 7965
  156.1240  140.3207  155.8250 H   0  0  0  0  0  0  0  0  0  0  0  0  # atno 8008 bound_to 7997
  155.4453  140.0528  157.3023 H   0  0  0  0  0  0  0  0  0  0  0  0  # atno 8009 bound_to 7997
  154.4848  140.2068  155.9693 H   0  0  0  0  0  0  0  0  0  0  0  0  # atno 8010 bound_to 7997
  139.5333  144.2570  152.0738 H   0  0  0  0  0  0  0  0  0  0  0  0  # atno 10167 bound_to 10162
  157.0369  131.0275  151.2726 H   0  0  0  0  0  0  0  0  0  0  0  0  # atno 10718 bound_to 10713
  154.4124  135.2756  155.2028 H   0  0  0  0  0  0  0  0  0  0  0  0  # atno 10763 bound_to 10752
  154.4008  135.6045  153.5899 H   0  0  0  0  0  0  0  0  0  0  0  0  # atno 10764 bound_to 10752
  152.9831  135.5926  154.4408 H   0  0  0  0  0  0  0  0  0  0  0  0  # atno 10765 bound_to 10752
  140.9843  133.7039  156.1738 H   0  0  0  0  0  0  0  0  0  0  0  0  # atno 11005 bound_to 11000
  144.8012  139.6137  143.7071 LP  0  0  0  0  0  0  0  0  0  0  0  0  # atno 17320 bound_to 7965
  146.2459  139.6098  142.9460 LP  0  0  0  0  0  0  0  0  0  0  0  0  # atno 17321 bound_to 7965
  140.2036  144.4633  150.6419 LP  0  0  0  0  0  0  0  0  0  0  0  0  # atno 17342 bound_to 10162
  140.6525  143.2228  151.6045 LP  0  0  0  0  0  0  0  0  0  0  0  0  # atno 17343 bound_to 10162
  157.5135  130.7953  149.7730 LP  0  0  0  0  0  0  0  0  0  0  0  0  # atno 17370 bound_to 10713
  156.0051  130.3860  150.2462 LP  0  0  0  0  0  0  0  0  0  0  0  0  # atno 17371 bound_to 10713
  140.7138  134.4432  157.5580 LP  0  0  0  0  0  0  0  0  0  0  0  0  # atno 17394 bound_to 11000
  139.8964  134.8661  156.2091 LP  0  0  0  0  0  0  0  0  0  0  0  0  # atno 17395 bound_to 11000

$$$$
