AV-unprocessed.smi:2618|AV-procd|sdf|10218|dock3
  -GOLD-   2272014223D 1   1.00000     0.00000
 Structure written by MMmdl.
 39 40  0  0  0  0  0  0  0  0  1 V2000
  146.4639  142.7501  154.0750 C   0  0  0  0  0  0  0  0  0  0  0  0
  146.6642  141.5524  154.8045 O   0  0  0  0  0  0  0  0  0  0  0  0
  147.7300  140.7713  154.2870 C   0  0  0  0  0  0  0  0  0  0  0  0
  149.0200  141.6052  154.2357 C   0  0  0  0  0  0  0  0  0  0  0  0
  150.0130  141.1900  155.2879 C   0  0  0  0  0  0  0  0  0  0  0  0
  150.3807  141.9633  156.2404 N   0  0  0  0  0  0  0  0  0  0  0  0
  151.2592  141.3528  157.0357 N   0  0  0  0  0  0  0  0  0  0  0  0
  151.8738  141.9861  158.1216 C   0  0  0  0  0  0  0  0  0  0  0  0
  152.6688  141.2527  158.9110 N   0  0  0  0  0  0  0  0  0  0  0  0
  153.2602  141.8701  159.9562 C   0  0  0  0  0  0  0  0  0  0  0  0
  154.1519  141.0193  160.8349 C   0  0  0  0  0  0  0  0  0  0  0  0
  153.0638  143.2409  160.2163 C   0  0  0  0  0  0  0  0  0  0  0  0
  152.2136  143.9226  159.3228 C   0  0  0  0  0  0  0  0  0  0  0  0
  151.9118  145.3967  159.4878 C   0  0  0  0  0  0  0  0  0  0  0  0
  151.6234  143.2939  158.2834 N   0  0  0  0  0  0  0  0  0  0  0  0
  151.4671  139.9506  156.6431 C   0  0  1  0  0  0  0  0  0  0  0  0
  152.8046  139.5895  156.3377 O   0  0  0  0  0  0  0  0  0  0  0  0
  150.9095  138.9470  157.6916 C   0  0  0  0  0  0  0  0  0  0  0  0
  149.6404  139.2404  157.9813 F   0  0  0  0  0  0  0  0  0  0  0  0
  150.9428  137.7068  157.2010 F   0  0  0  0  0  0  0  0  0  0  0  0
  151.6048  138.9671  158.8280 F   0  0  0  0  0  0  0  0  0  0  0  0
  150.6817  139.8623  155.3276 C   0  0  0  0  0  0  0  0  0  0  0  0
  145.6427  143.3145  154.5166 H   0  0  0  0  0  0  0  0  0  0  0  0
  146.2073  142.5402  153.0357 H   0  0  0  0  0  0  0  0  0  0  0  0
  147.3547  143.3792  154.0966 H   0  0  0  0  0  0  0  0  0  0  0  0
  147.8778  139.8722  154.8885 H   0  0  0  0  0  0  0  0  0  0  0  0
  147.4731  140.4438  153.2786 H   0  0  0  0  0  0  0  0  0  0  0  0
  149.4708  141.4858  153.2494 H   0  0  0  0  0  0  0  0  0  0  0  0
  148.7899  142.6660  154.3375 H   0  0  0  0  0  0  0  0  0  0  0  0
  154.2470  141.4551  161.8296 H   0  0  0  0  0  0  0  0  0  0  0  0
  155.1469  140.9417  160.3964 H   0  0  0  0  0  0  0  0  0  0  0  0
  153.7435  140.0136  160.9435 H   0  0  0  0  0  0  0  0  0  0  0  0
  153.5368  143.7388  161.0501 H   0  0  0  0  0  0  0  0  0  0  0  0
  152.6622  145.8813  160.1133 H   0  0  0  0  0  0  0  0  0  0  0  0
  150.9361  145.5302  159.9555 H   0  0  0  0  0  0  0  0  0  0  0  0
  151.9017  145.8991  158.5199 H   0  0  0  0  0  0  0  0  0  0  0  0
  152.7877  138.8780  155.7165 H   0  0  0  0  0  0  0  0  0  0  0  0
  149.9490  139.0550  155.3211 H   0  0  0  0  0  0  0  0  0  0  0  0
  151.3273  139.7409  154.4567 H   0  0  0  0  0  0  0  0  0  0  0  0
  1  2  1  0  0  0  0
  1 23  1  0  0  0  0
  1 24  1  0  0  0  0
  1 25  1  0  0  0  0
  2  3  1  0  0  0  0
  3  4  1  0  0  0  0
  3 26  1  0  0  0  0
  3 27  1  0  0  0  0
  4  5  1  0  0  0  0
  4 28  1  0  0  0  0
  4 29  1  0  0  0  0
  5 22  1  0  0  0  0
  5  6  2  0  0  0  0
  6  7  1  0  0  0  0
  7  8  1  0  0  0  0
  7 16  1  0  0  0  0
  8 15  1  0  0  0  0
  8  9  2  0  0  0  0
  9 10  1  0  0  0  0
 10 11  1  0  0  0  0
 10 12  2  0  0  0  0
 11 30  1  0  0  0  0
 11 31  1  0  0  0  0
 11 32  1  0  0  0  0
 12 13  1  0  0  0  0
 12 33  1  0  0  0  0
 13 14  1  0  0  0  0
 13 15  2  0  0  0  0
 14 34  1  0  0  0  0
 14 35  1  0  0  0  0
 14 36  1  0  0  0  0
 16 17  1  0  0  0  0
 16 18  1  0  0  0  0
 16 22  1  0  0  0  0
 17 37  1  0  0  0  0
 18 19  1  0  0  0  0
 18 20  1  0  0  0  0
 18 21  1  0  0  0  0
 22 38  1  0  0  0  0
 22 39  1  0  0  0  0
M  END
> <s_m_source_file>
AV-unprocessed.smi

> <i_m_source_file_index>
2618

> <i_lp_mmshare_version>
43012

> <i_f3d_flags>
0

> <s_epik_input>
W0NIM11PW0NIMl1bQ0gyXUMoW0NIMl0xKT1OTihbQ0BAXTEoW09IXSlDKEYpKEYpRiljMm5jKFtDSDNdKVtjSF1jKG4yKVtDSDNd

> <s_epik_cmdline>
J2VwaWtfcHl0aG9uJywgJy1waCcsICc3LjAnLCAnLXRuJywgJzgnLCAnLW1hJywgJzIwMCcsICctbWV0YWxfYmluZGluZycsICctaW1hZScsICc8aW5maWxlLm1hZT4nLCAnLW9tYWUnLCAnPG91dGZpbGUubWFlPic=

> <r_lp_tautomer_probability>
1

> <r_epik_Ionization_Penalty>
0.0648608

> <r_epik_Ionization_Penalty_Charging>
0

> <r_epik_Ionization_Penalty_Neutral>
0.0648608

> <r_epik_State_Penalty>
0.0551477

> <r_epik_Charging_Adjusted_Penalty>
0.0551477

> <i_epik_Tot_Q>
0

> <i_epik_Tot_abs_Q>
0

> <r_epik_Metal_State_Penalty>
0.0550619

> <b_epik_Metal_Only>
0

> <s_epik_Chemistry_Notes>
This compound has an imine and may undergo hydrolysis.

> <s_lp_Force_Field>
OPLS_2005

> <r_lp_Energy>
16.027

> <b_lp_Chiralities_Consistent>
1

> <s_lp_Variant>
AV-unprocessed.smi:2618-1

> <Gold.Version>
5.8.1

> <Gold.Id.Protein>
6NUR|6NUR_protein|mol2

> <Gold.PLP.Fitness>
47.6652

> <Gold.PLP.PLP>
-45.4444

> <Gold.PLP.part.hbond>
-1.0000

> <Gold.PLP.part.metal>
0.0000

> <Gold.PLP.part.buried>
-4.9847

> <Gold.PLP.part.nonpolar>
-39.1205

> <Gold.PLP.part.repulsive>
0.2841

> <Gold.PLP.ligand.clash>
0.0000

> <Gold.PLP.ligand.torsion>
0.4354

> <Gold.PLP.Chemscore.Hbond>
1.0000

> <Gold.PLP.Chemscore.CHOScore>
0.0000

> <Gold.PLP.Chemscore.Metal>
0.0000

> <Gold.Chemscore.Hbonds>
donor molecule, donor type, donor heavy atom, donor atom, acceptor molecule, acceptor atom, score
      P1  H  7997  8010       L1    17  1.00

> <Gold.PLP.Chemscore.Internal.Correction>
0.0916

> <Gold.Rescore>
     Score         DG    S(hbond)    S(metal)    S(lipo)     H(rot)  DE(clash)    DE(int)     intcor
     12.86     -14.72       0.99        0.00      95.13       2.03       0.03       1.83       ----

> <Gold.Chemscore.Fitness>
12.8594

> <Gold.Chemscore.DG>
-14.7196

> <Gold.Chemscore.ZeroCoef>
-5.4800

> <Gold.Chemscore.Hbond>
0.9931

> <Gold.Chemscore.Metal>
0.0000

> <Gold.Chemscore.Lipo>
95.1260

> <Gold.Chemscore.Internal_Hbond>
0.0000

> <Gold.Chemscore.DEClash>
0.0321

> <Gold.Chemscore.DEInternal>
1.8281

> <Gold.Chemscore.Rot>
2.0340

> <Gold.Chemscore.Internal.Correction>
   9.000000E+99

> <Gold.Chemscore.Hbonds>
donor molecule, donor type, donor heavy atom, donor atom, acceptor molecule, acceptor atom, score
      P1  H  7997  8010       L1    17  0.50

> <Gold.Chemscore.Hbond.Weighted>
-3.3170

> <Gold.Chemscore.Metal.Weighted>
-0.0000

> <Gold.Chemscore.Lipo.Weighted>
-11.1297

> <Gold.Chemscore.Internal_Hbond.Weighted>
0.0000

> <Gold.Chemscore.DEClash.Weighted>
0.0321

> <Gold.Chemscore.DEInternal.Weighted>
1.8281

> <Gold.Chemscore.Rot.Weighted>
5.2071

> <Gold.Chemscore.Internal.Correction.Weighted>
   9.000000E+99

> <Gold.Protein.RotatedTorsions>
[ 6907 6896 6895 6894 ] final -143.92 input  -60.11 | X-H torsion
[ 7974 7965 7964 7962 ] final   80.15 input  175.53 | X-H torsion
[ 8008 7997 7996 7995 ] final   79.13 input   59.86 | X-H torsion
[ 10167 10162 10161 10158 ] final   14.21 input  -65.29 | X-H torsion
[ 10718 10713 10712 10709 ] final  -70.04 input   66.30 | X-H torsion
[ 10763 10752 10751 10750 ] final   82.05 input  -60.55 | X-H torsion
[ 11005 11000 10999 10996 ] final   17.01 input  -57.11 | X-H torsion

> <Gold.Protein.ActiveResidues>
 VAL166  LYS551  ARG553  GLY616  TRP617  ASP618  TYR619  PRO620  LYS621  CYS622 
 ASP623  PHE694  ASN695  SER759  ASP760  ASP761  ALA762  ILE779  LEU786  VAL792 
 PHE793  MET794  SER795  GLU796  ALA797  LYS798  CYS799  TRP800  GLU811  SER814 

> <Gold.Protein.RotatedAtoms>
  151.1069  133.5201  159.2607 H   0  0  0  0  0  0  0  0  0  0  0  0  # atno 6907 bound_to 6896
  151.2010  135.0442  159.8882 H   0  0  0  0  0  0  0  0  0  0  0  0  # atno 6908 bound_to 6896
  152.5447  134.0898  159.8325 H   0  0  0  0  0  0  0  0  0  0  0  0  # atno 6909 bound_to 6896
  145.6549  139.2457  143.1955 H   0  0  0  0  0  0  0  0  0  0  0  0  # atno 7974 bound_to 7965
  155.8654  140.3451  155.5785 H   0  0  0  0  0  0  0  0  0  0  0  0  # atno 8008 bound_to 7997
  155.7887  140.0868  157.2040 H   0  0  0  0  0  0  0  0  0  0  0  0  # atno 8009 bound_to 7997
  154.4014  140.1487  156.3124 H   0  0  0  0  0  0  0  0  0  0  0  0  # atno 8010 bound_to 7997
  140.5951  143.8718  150.6910 H   0  0  0  0  0  0  0  0  0  0  0  0  # atno 10167 bound_to 10162
  156.0426  130.4324  150.2237 H   0  0  0  0  0  0  0  0  0  0  0  0  # atno 10718 bound_to 10713
  153.1169  135.4743  154.9130 H   0  0  0  0  0  0  0  0  0  0  0  0  # atno 10763 bound_to 10752
  154.7537  135.3113  154.8512 H   0  0  0  0  0  0  0  0  0  0  0  0  # atno 10764 bound_to 10752
  153.9087  135.6867  153.4805 H   0  0  0  0  0  0  0  0  0  0  0  0  # atno 10765 bound_to 10752
  140.4407  134.1324  155.7690 H   0  0  0  0  0  0  0  0  0  0  0  0  # atno 11005 bound_to 11000
  146.1173  140.7353  142.9474 LP  0  0  0  0  0  0  0  0  0  0  0  0  # atno 17320 bound_to 7965
  144.7109  140.4035  143.7081 LP  0  0  0  0  0  0  0  0  0  0  0  0  # atno 17321 bound_to 7965
  140.2250  143.3779  152.1612 LP  0  0  0  0  0  0  0  0  0  0  0  0  # atno 17342 bound_to 10162
  139.5253  144.7094  151.5254 LP  0  0  0  0  0  0  0  0  0  0  0  0  # atno 17343 bound_to 10162
  157.0330  131.0013  151.3306 LP  0  0  0  0  0  0  0  0  0  0  0  0  # atno 17370 bound_to 10713
  157.5264  130.8030  149.7866 LP  0  0  0  0  0  0  0  0  0  0  0  0  # atno 17371 bound_to 10713
  141.1706  133.8615  157.1580 LP  0  0  0  0  0  0  0  0  0  0  0  0  # atno 17394 bound_to 11000
  140.0072  135.0003  157.0317 LP  0  0  0  0  0  0  0  0  0  0  0  0  # atno 17395 bound_to 11000

$$$$
