AV-unprocessed.smi:1006|AV-procd|sdf|4392|dock4
  -GOLD-   22720 2323D 1   1.00000     0.00000
 Structure written by MMmdl.
 46 48  0  0  0  0  0  0  0  0  2 V2000
  145.4824  135.5383  151.9860 C   0  0  0  0  0  0  0  0  0  0  0  0
  146.0739  134.8130  153.1761 C   0  0  0  0  0  0  0  0  0  0  0  0
  145.2978  133.9766  154.0042 C   0  0  0  0  0  0  0  0  0  0  0  0
  145.9600  133.3559  155.0777 C   0  0  0  0  0  0  0  0  0  0  0  0
  145.2768  132.5099  155.9473 N   0  0  0  0  0  0  0  0  0  0  0  0
  147.2738  133.5537  155.3036 N   0  0  0  0  0  0  0  0  0  0  0  0
  147.9526  134.3617  154.4785 C   0  0  0  0  0  0  0  0  0  0  0  0
  149.6970  134.6250  154.7434 S   0  0  0  0  0  0  0  0  0  0  0  0
  149.7116  135.9511  155.9904 C   0  0  0  0  0  0  0  0  0  0  0  0
  151.0835  136.6380  156.0845 C   0  0  2  0  0  0  0  0  0  0  0  0
  152.0710  135.6588  156.3460 O   0  0  0  0  0  0  0  0  0  0  0  0
  151.1144  137.7141  157.1869 C   0  0  0  0  0  0  0  0  0  0  0  0
  150.9911  139.0602  156.6555 N   0  0  0  0  0  0  0  0  0  0  0  0
  150.5589  139.4111  155.4291 C   0  0  0  0  0  0  0  0  0  0  0  0
  150.5246  140.7094  155.1433 N   0  0  0  0  0  0  0  0  0  0  0  0
  150.9872  141.2666  156.3233 C   0  0  0  0  0  0  0  0  0  0  0  0
  151.1900  142.6175  156.6811 C   0  0  0  0  0  0  0  0  0  0  0  0
  151.6763  142.9632  157.9621 C   0  0  0  0  0  0  0  0  0  0  0  0
  151.8772  144.4288  158.3053 C   0  0  0  0  0  0  0  0  0  0  0  0
  151.9691  141.9482  158.9082 C   0  0  0  0  0  0  0  0  0  0  0  0
  152.4911  142.2955  160.2912 C   0  0  0  0  0  0  0  0  0  0  0  0
  151.7739  140.5934  158.5665 C   0  0  0  0  0  0  0  0  0  0  0  0
  151.2874  140.2622  157.2896 C   0  0  0  0  0  0  0  0  0  0  0  0
  147.3951  134.9864  153.4314 N   0  3  0  0  0  0  0  0  0  0  0  0
  144.3941  135.4715  151.9875 H   0  0  0  0  0  0  0  0  0  0  0  0
  145.8505  135.1030  151.0565 H   0  0  0  0  0  0  0  0  0  0  0  0
  145.7570  136.5934  152.0052 H   0  0  0  0  0  0  0  0  0  0  0  0
  144.2442  133.8193  153.8215 H   0  0  0  0  0  0  0  0  0  0  0  0
  144.2919  132.3169  155.8355 H   0  0  0  0  0  0  0  0  0  0  0  0
  145.7490  132.0458  156.7101 H   0  0  0  0  0  0  0  0  0  0  0  0
  148.9510  136.6826  155.7147 H   0  0  0  0  0  0  0  0  0  0  0  0
  149.4301  135.5456  156.9629 H   0  0  0  0  0  0  0  0  0  0  0  0
  151.3166  137.1065  155.1273 H   0  0  0  0  0  0  0  0  0  0  0  0
  151.6454  134.8208  156.4450 H   0  0  0  0  0  0  0  0  0  0  0  0
  150.2999  137.5522  157.8938 H   0  0  0  0  0  0  0  0  0  0  0  0
  152.0403  137.6471  157.7597 H   0  0  0  0  0  0  0  0  0  0  0  0
  150.2536  138.6706  154.7044 H   0  0  0  0  0  0  0  0  0  0  0  0
  150.9668  143.3901  155.9600 H   0  0  0  0  0  0  0  0  0  0  0  0
  151.2449  144.7130  159.1466 H   0  0  0  0  0  0  0  0  0  0  0  0
  151.6241  145.0735  157.4632 H   0  0  0  0  0  0  0  0  0  0  0  0
  152.9168  144.6206  158.5720 H   0  0  0  0  0  0  0  0  0  0  0  0
  152.6693  141.3990  160.8857 H   0  0  0  0  0  0  0  0  0  0  0  0
  151.7706  142.9144  160.8265 H   0  0  0  0  0  0  0  0  0  0  0  0
  153.4320  142.8413  160.2194 H   0  0  0  0  0  0  0  0  0  0  0  0
  151.9957  139.8106  159.2767 H   0  0  0  0  0  0  0  0  0  0  0  0
  147.9530  135.5899  152.8270 H   0  0  0  0  0  0  0  0  0  0  0  0
  1  2  1  0  0  0  0
  1 25  1  0  0  0  0
  1 26  1  0  0  0  0
  1 27  1  0  0  0  0
  2 24  1  0  0  0  0
  2  3  2  0  0  0  0
  3  4  1  0  0  0  0
  3 28  1  0  0  0  0
  4  5  1  0  0  0  0
  4  6  2  0  0  0  0
  5 29  1  0  0  0  0
  5 30  1  0  0  0  0
  6  7  1  0  0  0  0
  7  8  1  0  0  0  0
  7 24  2  0  0  0  0
  8  9  1  0  0  0  0
  9 10  1  0  0  0  0
  9 31  1  0  0  0  0
  9 32  1  0  0  0  0
 10 11  1  0  0  0  0
 10 12  1  0  0  0  0
 10 33  1  0  0  0  0
 11 34  1  0  0  0  0
 12 13  1  0  0  0  0
 12 35  1  0  0  0  0
 12 36  1  0  0  0  0
 13 23  1  0  0  0  0
 13 14  1  0  0  0  0
 14 15  2  0  0  0  0
 14 37  1  0  0  0  0
 15 16  1  0  0  0  0
 16 23  2  0  0  0  0
 16 17  1  0  0  0  0
 17 18  2  0  0  0  0
 17 38  1  0  0  0  0
 18 19  1  0  0  0  0
 18 20  1  0  0  0  0
 19 39  1  0  0  0  0
 19 40  1  0  0  0  0
 19 41  1  0  0  0  0
 20 21  1  0  0  0  0
 20 22  2  0  0  0  0
 21 42  1  0  0  0  0
 21 43  1  0  0  0  0
 21 44  1  0  0  0  0
 22 23  1  0  0  0  0
 22 45  1  0  0  0  0
 24 46  1  0  0  0  0
M  CHG  1  24   1
M  END
> <s_m_source_file>
AV-unprocessed.smi

> <i_m_source_file_index>
1006

> <i_lp_mmshare_version>
43012

> <i_f3d_flags>
0

> <s_epik_input>
W0NIM11jMVtjSF1jKFtOSDJdKW5jKG4xKVNbQ0gyXVtDQEhdKFtPSF0pW0NIMl1uKFtjSF1uMiljKGMyMylbY0hdYyhbQ0gzXSljKFtjSF0zKVtDSDNd

> <s_epik_cmdline>
J2VwaWtfcHl0aG9uJywgJy1waCcsICc3LjAnLCAnLXRuJywgJzgnLCAnLW1hJywgJzIwMCcsICctbWV0YWxfYmluZGluZycsICctaW1hZScsICc8aW5maWxlLm1hZT4nLCAnLW9tYWUnLCAnPG91dGZpbGUubWFlPic=

> <r_lp_tautomer_probability>
0.999762

> <r_epik_Ionization_Penalty>
0.549885

> <r_epik_Ionization_Penalty_Charging>
0.440405

> <r_epik_Ionization_Penalty_Neutral>
0.10948

> <r_epik_State_Penalty>
0.546419

> <r_epik_Charging_Adjusted_Penalty>
0.986823

> <i_epik_Tot_Q>
1

> <i_epik_Tot_abs_Q>
1

> <r_epik_Metal_State_Penalty>
0.699827

> <b_epik_Metal_Only>
0

> <s_lp_Force_Field>
OPLS_2005

> <r_lp_Energy>
10.4004

> <b_lp_Chiralities_Consistent>
1

> <s_lp_Variant>
AV-unprocessed.smi:1006-3

> <Gold.Version>
5.8.1

> <Gold.Id.Protein>
6NUR|6NUR_protein|mol2

> <Gold.PLP.Fitness>
49.3541

> <Gold.PLP.PLP>
-36.9798

> <Gold.PLP.part.hbond>
-4.0000

> <Gold.PLP.part.metal>
0.0000

> <Gold.PLP.part.buried>
-5.9688

> <Gold.PLP.part.nonpolar>
-28.5117

> <Gold.PLP.part.repulsive>
0.0905

> <Gold.PLP.ligand.clash>
0.0000

> <Gold.PLP.ligand.torsion>
1.2253

> <Gold.PLP.Chemscore.Hbond>
4.8960

> <Gold.PLP.Chemscore.CHOScore>
0.0000

> <Gold.PLP.Chemscore.Metal>
0.0000

> <Gold.Chemscore.Hbonds>
donor molecule, donor type, donor heavy atom, donor atom, acceptor molecule, acceptor atom, score
      L1  H     5    29       P1 10957  1.00
      L1  H    24    46       P1  7948  1.92
      P1  H  7989  7998       L1    15  0.88
      P1  H 10752 10765       L1    11  1.00

> <Gold.PLP.Chemscore.Internal.Correction>
0.1368

> <Gold.Rescore>
     Score         DG    S(hbond)    S(metal)    S(lipo)     H(rot)  DE(clash)    DE(int)     intcor
     18.23     -19.83       3.21        0.00      94.18       2.89       0.39       1.22       ----

> <Gold.Chemscore.Fitness>
18.2269

> <Gold.Chemscore.DG>
-19.8326

> <Gold.Chemscore.ZeroCoef>
-5.4800

> <Gold.Chemscore.Hbond>
3.2134

> <Gold.Chemscore.Metal>
0.0000

> <Gold.Chemscore.Lipo>
94.1762

> <Gold.Chemscore.Internal_Hbond>
0.0000

> <Gold.Chemscore.DEClash>
0.3899

> <Gold.Chemscore.DEInternal>
1.2158

> <Gold.Chemscore.Rot>
2.8901

> <Gold.Chemscore.Internal.Correction>
   9.000000E+99

> <Gold.Chemscore.Hbonds>
donor molecule, donor type, donor heavy atom, donor atom, acceptor molecule, acceptor atom, score
      L1  H     5    29       P1 10957  0.94
      L1  H    24    46       P1  7948  0.91
      P1  H  7989  7998       L1    15  0.41
      P1  H 10752 10765       L1    11  0.37

> <Gold.Chemscore.Hbond.Weighted>
-10.7326

> <Gold.Chemscore.Metal.Weighted>
-0.0000

> <Gold.Chemscore.Lipo.Weighted>
-11.0186

> <Gold.Chemscore.Internal_Hbond.Weighted>
0.0000

> <Gold.Chemscore.DEClash.Weighted>
0.3899

> <Gold.Chemscore.DEInternal.Weighted>
1.2158

> <Gold.Chemscore.Rot.Weighted>
7.3986

> <Gold.Chemscore.Internal.Correction.Weighted>
   9.000000E+99

> <Gold.Protein.RotatedTorsions>
[ 6907 6896 6895 6894 ] final  -16.70 input  -60.11 | X-H torsion
[ 7974 7965 7964 7962 ] final  140.98 input  175.53 | X-H torsion
[ 8008 7997 7996 7995 ] final   60.90 input   59.86 | X-H torsion
[ 10167 10162 10161 10158 ] final  -82.27 input  -65.29 | X-H torsion
[ 10718 10713 10712 10709 ] final   98.74 input   66.30 | X-H torsion
[ 10763 10752 10751 10750 ] final -156.28 input  -60.55 | X-H torsion
[ 11005 11000 10999 10996 ] final   28.10 input  -57.11 | X-H torsion

> <Gold.Protein.ActiveResidues>
 VAL166  LYS551  ARG553  GLY616  TRP617  ASP618  TYR619  PRO620  LYS621  CYS622 
 ASP623  PHE694  ASN695  SER759  ASP760  ASP761  ALA762  ILE779  LEU786  VAL792 
 PHE793  MET794  SER795  GLU796  ALA797  LYS798  CYS799  TRP800  GLU811  SER814 

> <Gold.Protein.RotatedAtoms>
  151.3046  135.0778  159.9250 H   0  0  0  0  0  0  0  0  0  0  0  0  # atno 6907 bound_to 6896
  152.5290  133.9798  159.7812 H   0  0  0  0  0  0  0  0  0  0  0  0  # atno 6908 bound_to 6896
  151.0091  133.5931  159.2715 H   0  0  0  0  0  0  0  0  0  0  0  0  # atno 6909 bound_to 6896
  144.9137  139.5258  143.5696 H   0  0  0  0  0  0  0  0  0  0  0  0  # atno 7974 bound_to 7965
  155.5897  140.3492  155.4563 H   0  0  0  0  0  0  0  0  0  0  0  0  # atno 8008 bound_to 7997
  156.0311  140.1274  157.0282 H   0  0  0  0  0  0  0  0  0  0  0  0  # atno 8009 bound_to 7997
  154.4352  140.1043  156.6086 H   0  0  0  0  0  0  0  0  0  0  0  0  # atno 8010 bound_to 7997
  140.4336  143.2540  151.8725 H   0  0  0  0  0  0  0  0  0  0  0  0  # atno 10167 bound_to 10162
  157.6890  131.0649  150.4842 H   0  0  0  0  0  0  0  0  0  0  0  0  # atno 10718 bound_to 10713
  154.7724  135.3149  154.8162 H   0  0  0  0  0  0  0  0  0  0  0  0  # atno 10763 bound_to 10752
  153.8894  135.6827  153.4766 H   0  0  0  0  0  0  0  0  0  0  0  0  # atno 10764 bound_to 10752
  153.1341  135.4767  154.9329 H   0  0  0  0  0  0  0  0  0  0  0  0  # atno 10765 bound_to 10752
  140.3192  134.2563  155.7720 H   0  0  0  0  0  0  0  0  0  0  0  0  # atno 11005 bound_to 11000
  146.3171  139.7964  142.8974 LP  0  0  0  0  0  0  0  0  0  0  0  0  # atno 17320 bound_to 7965
  145.3411  141.0288  143.3392 LP  0  0  0  0  0  0  0  0  0  0  0  0  # atno 17321 bound_to 7965
  139.4786  144.5308  151.8669 LP  0  0  0  0  0  0  0  0  0  0  0  0  # atno 17342 bound_to 10162
  140.4399  144.2000  150.5891 LP  0  0  0  0  0  0  0  0  0  0  0  0  # atno 17343 bound_to 10162
  156.5172  130.4153  149.6269 LP  0  0  0  0  0  0  0  0  0  0  0  0  # atno 17370 bound_to 10713
  156.3187  130.7268  151.2176 LP  0  0  0  0  0  0  0  0  0  0  0  0  # atno 17371 bound_to 10713
  141.2090  133.7760  157.0021 LP  0  0  0  0  0  0  0  0  0  0  0  0  # atno 17394 bound_to 11000
  140.0957  134.9566  157.1845 LP  0  0  0  0  0  0  0  0  0  0  0  0  # atno 17395 bound_to 11000

$$$$
