AV-unprocessed.smi:2021|AV-procd|sdf|8180|dock9
  -GOLD-   2272010433D 1   1.00000     0.00000
 Structure written by MMmdl.
 41 42  0  0  0  0  0  0  0  0  1 V2000
  150.0136  141.6564  155.6917 C   0  0  0  0  0  0  0  0  0  0  0  0
  149.1463  141.2542  154.4884 C   0  0  0  0  0  0  0  0  0  0  0  0
  147.8858  142.1345  154.4350 C   0  0  0  0  0  0  0  0  0  0  0  0
  148.7936  139.7488  154.5358 C   0  0  0  0  0  0  0  0  0  0  0  0
  149.8654  138.8626  154.9923 N   0  0  0  0  0  0  0  0  0  0  0  0
  151.0746  138.9677  154.1798 C   0  0  0  0  0  0  0  0  0  0  0  0
  152.1725  138.0017  154.6560 C   0  0  0  0  0  0  0  0  0  0  0  0
  151.6682  136.6708  154.6614 O   0  0  0  0  0  0  0  0  0  0  0  0
  150.5240  136.5145  155.4977 C   0  0  2  0  0  0  0  0  0  0  0  0
  150.0760  135.0437  155.4443 C   0  0  0  0  0  0  0  0  0  0  0  0
  149.2540  134.7730  154.2698 N   0  0  0  0  0  0  0  0  0  0  0  0
  148.5727  133.6393  154.0522 C   0  0  0  0  0  0  0  0  0  0  0  0
  148.5448  132.7016  154.8491 O   0  0  0  0  0  0  0  0  0  0  0  0
  147.9432  133.6710  152.8667 N   0  0  0  0  0  0  0  0  0  0  0  0
  147.1543  132.6551  152.2712 C   0  0  0  0  0  0  0  0  0  0  0  0
  147.0907  131.4679  152.8856 N   0  0  0  0  0  0  0  0  0  0  0  0
  146.2825  130.5695  152.1997 N   0  0  0  0  0  0  0  0  0  0  0  0
  145.7681  131.1149  151.0933 C   0  0  0  0  0  0  0  0  0  0  0  0
  146.2196  132.7808  150.7776 S   0  0  0  0  0  0  0  0  0  0  0  0
  149.4217  137.4724  155.0054 C   0  0  0  0  0  0  0  0  0  0  0  0
  149.4920  141.4833  156.6335 H   0  0  0  0  0  0  0  0  0  0  0  0
  150.2821  142.7123  155.6485 H   0  0  0  0  0  0  0  0  0  0  0  0
  150.9421  141.0850  155.7149 H   0  0  0  0  0  0  0  0  0  0  0  0
  149.7401  141.4502  153.5945 H   0  0  0  0  0  0  0  0  0  0  0  0
  147.2778  142.0077  155.3311 H   0  0  0  0  0  0  0  0  0  0  0  0
  147.2596  141.8945  153.5768 H   0  0  0  0  0  0  0  0  0  0  0  0
  148.1481  143.1901  154.3604 H   0  0  0  0  0  0  0  0  0  0  0  0
  147.9499  139.6238  155.2159 H   0  0  0  0  0  0  0  0  0  0  0  0
  148.4238  139.4189  153.5636 H   0  0  0  0  0  0  0  0  0  0  0  0
  150.8384  138.7610  153.1349 H   0  0  0  0  0  0  0  0  0  0  0  0
  151.4679  139.9827  154.2204 H   0  0  0  0  0  0  0  0  0  0  0  0
  153.0367  138.0532  153.9938 H   0  0  0  0  0  0  0  0  0  0  0  0
  152.5176  138.2714  155.6553 H   0  0  0  0  0  0  0  0  0  0  0  0
  150.7918  136.7756  156.5233 H   0  0  0  0  0  0  0  0  0  0  0  0
  150.9436  134.3815  155.4472 H   0  0  0  0  0  0  0  0  0  0  0  0
  149.4963  134.7966  156.3340 H   0  0  0  0  0  0  0  0  0  0  0  0
  149.2246  135.4915  153.5615 H   0  0  0  0  0  0  0  0  0  0  0  0
  148.0515  134.5123  152.3199 H   0  0  0  0  0  0  0  0  0  0  0  0
  145.1171  130.5318  150.4588 H   0  0  0  0  0  0  0  0  0  0  0  0
  148.5471  137.3723  155.6494 H   0  0  0  0  0  0  0  0  0  0  0  0
  149.1053  137.1771  154.0034 H   0  0  0  0  0  0  0  0  0  0  0  0
  1  2  1  0  0  0  0
  1 21  1  0  0  0  0
  1 22  1  0  0  0  0
  1 23  1  0  0  0  0
  2  3  1  0  0  0  0
  2  4  1  0  0  0  0
  2 24  1  0  0  0  0
  3 25  1  0  0  0  0
  3 26  1  0  0  0  0
  3 27  1  0  0  0  0
  4  5  1  0  0  0  0
  4 28  1  0  0  0  0
  4 29  1  0  0  0  0
  5 20  1  0  0  0  0
  5  6  1  0  0  0  0
  6  7  1  0  0  0  0
  6 30  1  0  0  0  0
  6 31  1  0  0  0  0
  7  8  1  0  0  0  0
  7 32  1  0  0  0  0
  7 33  1  0  0  0  0
  8  9  1  0  0  0  0
  9 10  1  0  0  0  0
  9 20  1  0  0  0  0
  9 34  1  0  0  0  0
 10 11  1  0  0  0  0
 10 35  1  0  0  0  0
 10 36  1  0  0  0  0
 11 12  1  0  0  0  0
 11 37  1  0  0  0  0
 12 13  2  0  0  0  0
 12 14  1  0  0  0  0
 14 15  1  0  0  0  0
 14 38  1  0  0  0  0
 15 19  1  0  0  0  0
 15 16  2  0  0  0  0
 16 17  1  0  0  0  0
 17 18  2  0  0  0  0
 18 19  1  0  0  0  0
 18 39  1  0  0  0  0
 20 40  1  0  0  0  0
 20 41  1  0  0  0  0
M  END
> <s_m_source_file>
AV-unprocessed.smi

> <i_m_source_file_index>
2021

> <i_lp_mmshare_version>
43012

> <i_f3d_flags>
0

> <s_epik_input>
W0NIM11bQ0hdKFtDSDNdKVtDSDJdTjFbQ0gyXVtDSDJdT1tDQEhdKFtDSDJdMSlbQ0gyXVtOSF1DKD1PKVtOSF1jMm5uW2NIXXMy

> <s_epik_cmdline>
J2VwaWtfcHl0aG9uJywgJy1waCcsICc3LjAnLCAnLXRuJywgJzgnLCAnLW1hJywgJzIwMCcsICctbWV0YWxfYmluZGluZycsICctaW1hZScsICc8aW5maWxlLm1hZT4nLCAnLW9tYWUnLCAnPG91dGZpbGUubWFlPic=

> <r_lp_tautomer_probability>
1

> <r_epik_Ionization_Penalty>
1.11451

> <r_epik_Ionization_Penalty_Charging>
0

> <r_epik_Ionization_Penalty_Neutral>
1.11451

> <r_epik_State_Penalty>
1.17021

> <r_epik_Charging_Adjusted_Penalty>
1.17021

> <i_epik_Tot_Q>
0

> <i_epik_Tot_abs_Q>
0

> <r_epik_Metal_State_Penalty>
1.53642

> <b_epik_Metal_Only>
0

> <s_lp_Force_Field>
OPLS_2005

> <r_lp_Energy>
23.4775

> <b_lp_Chiralities_Consistent>
1

> <s_lp_Variant>
AV-unprocessed.smi:2021-6

> <Gold.Version>
5.8.1

> <Gold.Id.Protein>
6NUR|6NUR_protein|mol2

> <Gold.PLP.Fitness>
40.7261

> <Gold.PLP.PLP>
-32.5995

> <Gold.PLP.part.hbond>
-3.0000

> <Gold.PLP.part.metal>
0.0000

> <Gold.PLP.part.buried>
-1.3365

> <Gold.PLP.part.nonpolar>
-27.6146

> <Gold.PLP.part.repulsive>
0.5713

> <Gold.PLP.ligand.clash>
0.0000

> <Gold.PLP.ligand.torsion>
0.4632

> <Gold.PLP.Chemscore.Hbond>
3.0000

> <Gold.PLP.Chemscore.CHOScore>
0.0000

> <Gold.PLP.Chemscore.Metal>
0.0000

> <Gold.Chemscore.Hbonds>
donor molecule, donor type, donor heavy atom, donor atom, acceptor molecule, acceptor atom, score
      L1  H    11    37       P1  7948  1.00
      L1  H    14    38       P1  7948  1.00
      P1  H 10752 10764       L1     8  1.00

> <Gold.PLP.Chemscore.Internal.Correction>
0.0530

> <Gold.Rescore>
     Score         DG    S(hbond)    S(metal)    S(lipo)     H(rot)  DE(clash)    DE(int)     intcor
     13.46     -16.67       2.21        0.00      72.66       1.84       1.21       2.00       ----

> <Gold.Chemscore.Fitness>
13.4559

> <Gold.Chemscore.DG>
-16.6653

> <Gold.Chemscore.ZeroCoef>
-5.4800

> <Gold.Chemscore.Hbond>
2.2149

> <Gold.Chemscore.Metal>
0.0000

> <Gold.Chemscore.Lipo>
72.6604

> <Gold.Chemscore.Internal_Hbond>
0.0000

> <Gold.Chemscore.DEClash>
1.2097

> <Gold.Chemscore.DEInternal>
1.9997

> <Gold.Chemscore.Rot>
1.8413

> <Gold.Chemscore.Internal.Correction>
   9.000000E+99

> <Gold.Chemscore.Hbonds>
donor molecule, donor type, donor heavy atom, donor atom, acceptor molecule, acceptor atom, score
      L1  H    11    37       P1  7948  0.44
      L1  H    14    38       P1  7948  0.29
      P1  H 10752 10764       L1     8  0.69

> <Gold.Chemscore.Hbond.Weighted>
-7.3979

> <Gold.Chemscore.Metal.Weighted>
-0.0000

> <Gold.Chemscore.Lipo.Weighted>
-8.5013

> <Gold.Chemscore.Internal_Hbond.Weighted>
0.0000

> <Gold.Chemscore.DEClash.Weighted>
1.2097

> <Gold.Chemscore.DEInternal.Weighted>
1.9997

> <Gold.Chemscore.Rot.Weighted>
4.7138

> <Gold.Chemscore.Internal.Correction.Weighted>
   9.000000E+99

> <Gold.Protein.RotatedTorsions>
[ 6907 6896 6895 6894 ] final  158.19 input  -60.11 | X-H torsion
[ 7974 7965 7964 7962 ] final   -6.96 input  175.53 | X-H torsion
[ 8008 7997 7996 7995 ] final  -47.57 input   59.86 | X-H torsion
[ 10167 10162 10161 10158 ] final -114.25 input  -65.29 | X-H torsion
[ 10718 10713 10712 10709 ] final  166.28 input   66.30 | X-H torsion
[ 10763 10752 10751 10750 ] final  -57.62 input  -60.55 | X-H torsion
[ 11005 11000 10999 10996 ] final -132.16 input  -57.11 | X-H torsion

> <Gold.Protein.ActiveResidues>
 VAL166  LYS551  ARG553  GLY616  TRP617  ASP618  TYR619  PRO620  LYS621  CYS622 
 ASP623  PHE694  ASN695  SER759  ASP760  ASP761  ALA762  ILE779  LEU786  VAL792 
 PHE793  MET794  SER795  GLU796  ALA797  LYS798  CYS799  TRP800  GLU811  SER814 

> <Gold.Protein.RotatedAtoms>
  152.0041  133.3836  159.4193 H   0  0  0  0  0  0  0  0  0  0  0  0  # atno 6907 bound_to 6896
  150.6906  134.3802  159.5040 H   0  0  0  0  0  0  0  0  0  0  0  0  # atno 6908 bound_to 6896
  152.1553  134.8955  160.0596 H   0  0  0  0  0  0  0  0  0  0  0  0  # atno 6909 bound_to 6896
  146.2318  140.2248  142.8338 H   0  0  0  0  0  0  0  0  0  0  0  0  # atno 7974 bound_to 7965
  154.4018  140.1343  156.4198 H   0  0  0  0  0  0  0  0  0  0  0  0  # atno 8008 bound_to 7997
  155.7654  140.3485  155.5199 H   0  0  0  0  0  0  0  0  0  0  0  0  # atno 8009 bound_to 7997
  155.8819  140.0988  157.1470 H   0  0  0  0  0  0  0  0  0  0  0  0  # atno 8010 bound_to 7997
  140.1030  143.4596  152.1800 H   0  0  0  0  0  0  0  0  0  0  0  0  # atno 10167 bound_to 10162
  157.0681  131.0358  151.2622 H   0  0  0  0  0  0  0  0  0  0  0  0  # atno 10718 bound_to 10713
  154.2253  135.6370  153.5158 H   0  0  0  0  0  0  0  0  0  0  0  0  # atno 10763 bound_to 10752
  152.9960  135.5506  154.6070 H   0  0  0  0  0  0  0  0  0  0  0  0  # atno 10764 bound_to 10752
  154.5540  135.2904  155.0956 H   0  0  0  0  0  0  0  0  0  0  0  0  # atno 10765 bound_to 10752
  140.9194  134.1464  157.4326 H   0  0  0  0  0  0  0  0  0  0  0  0  # atno 11005 bound_to 11000
  144.9604  140.8269  143.5517 LP  0  0  0  0  0  0  0  0  0  0  0  0  # atno 17320 bound_to 7965
  145.2218  139.2155  143.5089 LP  0  0  0  0  0  0  0  0  0  0  0  0  # atno 17321 bound_to 7965
  139.5661  144.7436  151.4019 LP  0  0  0  0  0  0  0  0  0  0  0  0  # atno 17342 bound_to 10162
  140.6967  143.7731  150.7338 LP  0  0  0  0  0  0  0  0  0  0  0  0  # atno 17343 bound_to 10162
  157.4900  130.7816  149.7498 LP  0  0  0  0  0  0  0  0  0  0  0  0  # atno 17370 bound_to 10713
  155.9958  130.3909  150.2802 LP  0  0  0  0  0  0  0  0  0  0  0  0  # atno 17371 bound_to 10713
  139.8772  134.9966  156.5802 LP  0  0  0  0  0  0  0  0  0  0  0  0  # atno 17394 bound_to 11000
  140.8007  133.8508  155.8724 LP  0  0  0  0  0  0  0  0  0  0  0  0  # atno 17395 bound_to 11000

$$$$
