AV-unprocessed.smi:1542|AV-procd|sdf|6203|dock3
  -GOLD-   22720 6373D 1   1.00000     0.00000
 Structure written by MMmdl.
 45 47  0  0  0  0  0  0  0  0  1 V2000
  150.9908  137.5451  153.8779 O   0  0  0  0  0  0  0  0  0  0  0  0
  152.2898  137.8815  154.3150 C   0  0  0  0  0  0  0  0  0  0  0  0
  152.2526  139.1996  155.0990 C   0  0  0  0  0  0  0  0  0  0  0  0
  151.7733  139.0061  156.5447 C   0  0  0  0  0  0  0  0  0  0  0  0
  151.8093  140.2796  157.3371 C   0  0  0  0  0  0  0  0  0  0  0  0
  152.4454  140.3447  158.5071 N   0  0  0  0  0  0  0  0  0  0  0  0
  152.3106  141.6732  158.8547 C   0  0  0  0  0  0  0  0  0  0  0  0
  152.7774  142.3748  159.9892 C   0  0  0  0  0  0  0  0  0  0  0  0
  152.5311  143.7565  160.1254 C   0  0  0  0  0  0  0  0  0  0  0  0
  151.8202  144.4552  159.1288 C   0  0  0  0  0  0  0  0  0  0  0  0
  151.3461  143.7744  157.9911 C   0  0  0  0  0  0  0  0  0  0  0  0
  151.5849  142.3921  157.8633 C   0  0  0  0  0  0  0  0  0  0  0  0
  151.2549  141.4409  156.8994 N   0  0  0  0  0  0  0  0  0  0  0  0
  150.5050  141.6826  155.6683 C   0  0  0  0  0  0  0  0  0  0  0  0
  149.0082  141.2673  155.7204 C   0  0  0  0  0  0  0  0  0  0  0  0
  148.9409  139.8630  155.8879 O   0  0  0  0  0  0  0  0  0  0  0  0
  148.2472  141.9185  156.9022 C   0  0  0  0  0  0  0  0  0  0  0  0
  146.7351  141.6303  156.8816 C   0  0  0  0  0  0  0  0  0  0  0  0
  146.1063  142.0343  155.5415 C   0  0  0  0  0  0  0  0  0  0  0  0
  146.8120  141.3335  154.3730 C   0  0  0  0  0  0  0  0  0  0  0  0
  148.3243  141.6217  154.3786 C   0  0  0  0  0  0  0  0  0  0  0  0
  151.0623  137.0335  153.0865 H   0  0  0  0  0  0  0  0  0  0  0  0
  152.6758  137.0733  154.9369 H   0  0  0  0  0  0  0  0  0  0  0  0
  152.9445  137.9688  153.4473 H   0  0  0  0  0  0  0  0  0  0  0  0
  153.2475  139.6471  155.1033 H   0  0  0  0  0  0  0  0  0  0  0  0
  151.5963  139.9081  154.5917 H   0  0  0  0  0  0  0  0  0  0  0  0
  150.7718  138.5815  156.5485 H   0  0  0  0  0  0  0  0  0  0  0  0
  152.4078  138.2737  157.0457 H   0  0  0  0  0  0  0  0  0  0  0  0
  153.3294  141.8492  160.7541 H   0  0  0  0  0  0  0  0  0  0  0  0
  152.8932  144.2832  160.9962 H   0  0  0  0  0  0  0  0  0  0  0  0
  151.6393  145.5144  159.2378 H   0  0  0  0  0  0  0  0  0  0  0  0
  150.8056  144.3112  157.2265 H   0  0  0  0  0  0  0  0  0  0  0  0
  150.5788  142.7461  155.4384 H   0  0  0  0  0  0  0  0  0  0  0  0
  151.0106  141.1772  154.8451 H   0  0  0  0  0  0  0  0  0  0  0  0
  148.6147  139.6818  156.7562 H   0  0  0  0  0  0  0  0  0  0  0  0
  148.6587  141.5859  157.8556 H   0  0  0  0  0  0  0  0  0  0  0  0
  148.3894  142.9987  156.8653 H   0  0  0  0  0  0  0  0  0  0  0  0
  146.5568  140.5701  157.0655 H   0  0  0  0  0  0  0  0  0  0  0  0
  146.2467  142.1673  157.6951 H   0  0  0  0  0  0  0  0  0  0  0  0
  145.0444  141.7865  155.5384 H   0  0  0  0  0  0  0  0  0  0  0  0
  146.1727  143.1158  155.4158 H   0  0  0  0  0  0  0  0  0  0  0  0
  146.6383  140.2585  154.4315 H   0  0  0  0  0  0  0  0  0  0  0  0
  146.3778  141.6619  153.4284 H   0  0  0  0  0  0  0  0  0  0  0  0
  148.4750  142.6818  154.1700 H   0  0  0  0  0  0  0  0  0  0  0  0
  148.8015  141.0836  153.5580 H   0  0  0  0  0  0  0  0  0  0  0  0
  1  2  1  0  0  0  0
  1 22  1  0  0  0  0
  2  3  1  0  0  0  0
  2 23  1  0  0  0  0
  2 24  1  0  0  0  0
  3  4  1  0  0  0  0
  3 25  1  0  0  0  0
  3 26  1  0  0  0  0
  4  5  1  0  0  0  0
  4 27  1  0  0  0  0
  4 28  1  0  0  0  0
  5 13  1  0  0  0  0
  5  6  2  0  0  0  0
  6  7  1  0  0  0  0
  7 12  2  0  0  0  0
  7  8  1  0  0  0  0
  8  9  2  0  0  0  0
  8 29  1  0  0  0  0
  9 10  1  0  0  0  0
  9 30  1  0  0  0  0
 10 11  2  0  0  0  0
 10 31  1  0  0  0  0
 11 12  1  0  0  0  0
 11 32  1  0  0  0  0
 12 13  1  0  0  0  0
 13 14  1  0  0  0  0
 14 15  1  0  0  0  0
 14 33  1  0  0  0  0
 14 34  1  0  0  0  0
 15 21  1  0  0  0  0
 15 16  1  0  0  0  0
 15 17  1  0  0  0  0
 16 35  1  0  0  0  0
 17 18  1  0  0  0  0
 17 36  1  0  0  0  0
 17 37  1  0  0  0  0
 18 19  1  0  0  0  0
 18 38  1  0  0  0  0
 18 39  1  0  0  0  0
 19 20  1  0  0  0  0
 19 40  1  0  0  0  0
 19 41  1  0  0  0  0
 20 21  1  0  0  0  0
 20 42  1  0  0  0  0
 20 43  1  0  0  0  0
 21 44  1  0  0  0  0
 21 45  1  0  0  0  0
M  END
> <s_m_source_file>
AV-unprocessed.smi

> <i_m_source_file_index>
1542

> <i_lp_mmshare_version>
43012

> <i_f3d_flags>
0

> <s_epik_input>
W09IXVtDSDJdW0NIMl1bQ0gyXWMobjEpbihjKGMxMilbY0hdW2NIXVtjSF1bY0hdMilbQ0gyXUMzKFtPSF0pW0NIMl1bQ0gyXVtDSDJdW0NIMl1bQ0gyXTM=

> <s_epik_cmdline>
J2VwaWtfcHl0aG9uJywgJy1waCcsICc3LjAnLCAnLXRuJywgJzgnLCAnLW1hJywgJzIwMCcsICctbWV0YWxfYmluZGluZycsICctaW1hZScsICc8aW5maWxlLm1hZT4nLCAnLW9tYWUnLCAnPG91dGZpbGUubWFlPic=

> <r_epik_Ionization_Penalty>
0.294093

> <r_epik_Ionization_Penalty_Charging>
0

> <r_epik_Ionization_Penalty_Neutral>
0.294093

> <r_epik_State_Penalty>
0.287281

> <r_epik_Charging_Adjusted_Penalty>
0.287281

> <i_epik_Tot_Q>
0

> <i_epik_Tot_abs_Q>
0

> <r_epik_Metal_State_Penalty>
0.000369578

> <b_epik_Metal_Only>
0

> <s_lp_Force_Field>
OPLS_2005

> <r_lp_Energy>
13.7601

> <b_lp_Chiralities_Consistent>
1

> <s_lp_Variant>
AV-unprocessed.smi:1542-1

> <Gold.Version>
5.8.1

> <Gold.Id.Protein>
6NUR|6NUR_protein|mol2

> <Gold.PLP.Fitness>
47.0339

> <Gold.PLP.PLP>
-44.5441

> <Gold.PLP.part.hbond>
-1.9604

> <Gold.PLP.part.metal>
0.0000

> <Gold.PLP.part.buried>
-3.3338

> <Gold.PLP.part.nonpolar>
-38.7879

> <Gold.PLP.part.repulsive>
0.0000

> <Gold.PLP.ligand.clash>
0.0000

> <Gold.PLP.ligand.torsion>
0.4548

> <Gold.PLP.Chemscore.Hbond>
1.0000

> <Gold.PLP.Chemscore.CHOScore>
0.0000

> <Gold.PLP.Chemscore.Metal>
0.0000

> <Gold.Chemscore.Hbonds>
donor molecule, donor type, donor heavy atom, donor atom, acceptor molecule, acceptor atom, score
      L1  H     1    22       P1  7949  1.00

> <Gold.PLP.Chemscore.Internal.Correction>
0.3995

> <Gold.Rescore>
     Score         DG    S(hbond)    S(metal)    S(lipo)     H(rot)  DE(clash)    DE(int)     intcor
     15.07     -16.04       0.95        0.00     123.34       2.74       0.49       0.49       ----

> <Gold.Chemscore.Fitness>
15.0654

> <Gold.Chemscore.DG>
-16.0424

> <Gold.Chemscore.ZeroCoef>
-5.4800

> <Gold.Chemscore.Hbond>
0.9456

> <Gold.Chemscore.Metal>
0.0000

> <Gold.Chemscore.Lipo>
123.3419

> <Gold.Chemscore.Internal_Hbond>
0.0000

> <Gold.Chemscore.DEClash>
0.4911

> <Gold.Chemscore.DEInternal>
0.4858

> <Gold.Chemscore.Rot>
2.7449

> <Gold.Chemscore.Internal.Correction>
   9.000000E+99

> <Gold.Chemscore.Hbonds>
donor molecule, donor type, donor heavy atom, donor atom, acceptor molecule, acceptor atom, score
      L1  H     1    22       P1  7949  0.35

> <Gold.Chemscore.Hbond.Weighted>
-3.1583

> <Gold.Chemscore.Metal.Weighted>
-0.0000

> <Gold.Chemscore.Lipo.Weighted>
-14.4310

> <Gold.Chemscore.Internal_Hbond.Weighted>
0.0000

> <Gold.Chemscore.DEClash.Weighted>
0.4911

> <Gold.Chemscore.DEInternal.Weighted>
0.4858

> <Gold.Chemscore.Rot.Weighted>
7.0269

> <Gold.Chemscore.Internal.Correction.Weighted>
   9.000000E+99

> <Gold.Protein.RotatedTorsions>
[ 6907 6896 6895 6894 ] final   75.63 input  -60.11 | X-H torsion
[ 7974 7965 7964 7962 ] final  139.71 input  175.53 | X-H torsion
[ 8008 7997 7996 7995 ] final   73.35 input   59.86 | X-H torsion
[ 10167 10162 10161 10158 ] final  -49.40 input  -65.29 | X-H torsion
[ 10718 10713 10712 10709 ] final  147.92 input   66.30 | X-H torsion
[ 10763 10752 10751 10750 ] final  135.82 input  -60.55 | X-H torsion
[ 11005 11000 10999 10996 ] final  -21.52 input  -57.11 | X-H torsion

> <Gold.Protein.ActiveResidues>
 VAL166  LYS551  ARG553  GLY616  TRP617  ASP618  TYR619  PRO620  LYS621  CYS622 
 ASP623  PHE694  ASN695  SER759  ASP760  ASP761  ALA762  ILE779  LEU786  VAL792 
 PHE793  MET794  SER795  GLU796  ALA797  LYS798  CYS799  TRP800  GLU811  SER814 

> <Gold.Protein.RotatedAtoms>
  152.5035  134.4090  159.9442 H   0  0  0  0  0  0  0  0  0  0  0  0  # atno 6907 bound_to 6896
  151.4058  133.3737  159.2745 H   0  0  0  0  0  0  0  0  0  0  0  0  # atno 6908 bound_to 6896
  150.9328  134.8764  159.7621 H   0  0  0  0  0  0  0  0  0  0  0  0  # atno 6909 bound_to 6896
  144.9253  139.5115  143.5643 H   0  0  0  0  0  0  0  0  0  0  0  0  # atno 7974 bound_to 7965
  155.7824  140.3481  155.5304 H   0  0  0  0  0  0  0  0  0  0  0  0  # atno 8008 bound_to 7997
  155.8716  140.0987  157.1567 H   0  0  0  0  0  0  0  0  0  0  0  0  # atno 8009 bound_to 7997
  154.4018  140.1339  156.4072 H   0  0  0  0  0  0  0  0  0  0  0  0  # atno 8010 bound_to 7997
  140.6687  143.2699  151.4209 H   0  0  0  0  0  0  0  0  0  0  0  0  # atno 10167 bound_to 10162
  157.3150  131.0894  151.1286 H   0  0  0  0  0  0  0  0  0  0  0  0  # atno 10718 bound_to 10713
  153.8463  135.3085  155.3429 H   0  0  0  0  0  0  0  0  0  0  0  0  # atno 10763 bound_to 10752
  154.7911  135.4782  154.0057 H   0  0  0  0  0  0  0  0  0  0  0  0  # atno 10764 bound_to 10752
  153.1545  135.6849  153.8925 H   0  0  0  0  0  0  0  0  0  0  0  0  # atno 10765 bound_to 10752
  140.8569  133.7816  156.0029 H   0  0  0  0  0  0  0  0  0  0  0  0  # atno 11005 bound_to 11000
  146.3223  139.8164  142.8935 LP  0  0  0  0  0  0  0  0  0  0  0  0  # atno 17320 bound_to 7965
  145.3229  141.0248  143.3490 LP  0  0  0  0  0  0  0  0  0  0  0  0  # atno 17321 bound_to 7965
  139.5946  144.1426  152.2128 LP  0  0  0  0  0  0  0  0  0  0  0  0  # atno 17342 bound_to 10162
  140.0791  144.5716  150.7135 LP  0  0  0  0  0  0  0  0  0  0  0  0  # atno 17343 bound_to 10162
  157.2593  130.6651  149.5967 LP  0  0  0  0  0  0  0  0  0  0  0  0  # atno 17370 bound_to 10713
  155.9681  130.4513  150.5733 LP  0  0  0  0  0  0  0  0  0  0  0  0  # atno 17371 bound_to 10713
  140.8727  134.2707  157.5183 LP  0  0  0  0  0  0  0  0  0  0  0  0  # atno 17394 bound_to 11000
  139.8705  134.9575  156.4272 LP  0  0  0  0  0  0  0  0  0  0  0  0  # atno 17395 bound_to 11000

$$$$
