#       Name:                AV-unprocessed.smi:39
#       Creating user name   scv26
#       Creation time:       Thu Mar 26 16:20:16 2020


#       File generated by GOLD software.
#

@<TRIPOS>MOLECULE
AV-unprocessed.smi:39
    42    43     1
SMALL
NO_CHARGES


@<TRIPOS>ATOM
      1 ****        -3.7397   1.6360  -0.6955 C.3            1 S1                 0.0000
      2 ****        -3.0548   0.3360  -0.3118 C.2            1 S1                 0.0000
      3 ****        -1.7240   0.1513  -0.4598 C.2            1 S1                 0.0000
      4 ****        -1.1026  -1.0363  -0.1086 N.am           1 S1                 0.0000
      5 ****         0.3895  -1.2431  -0.2880 C.3            1 S1                 0.0000
      6 ****         1.1076  -1.2635   1.0753 C.3            1 S1                 0.0000
      7 ****         2.2327  -0.2555   0.8854 C.3            1 S1                 0.0000
      8 ****         3.4353  -0.8957   0.3335 N.2            1 S1                 0.0000
      9 ****         4.1972  -1.4364   1.1455 N.1            1 S1                 1.0000
     10 ****         4.9825  -1.8457   1.8602 N.1            1 S1                -1.0000
     11 ****         1.5847   0.7126  -0.1114 C.3            1 S1                 0.0000
     12 ****         2.5609   1.6387  -0.8571 C.3            1 S1                 0.0000
     13 ****         1.8690   2.7526  -1.3806 O.3            1 S1                 0.0000
     14 ****         0.9372  -0.1787  -1.0121 O.3            1 S1                 0.0000
     15 ****        -1.8819  -2.1062   0.4053 C.2            1 S1                 0.0000
     16 ****        -1.3041  -3.1553   0.6921 O.2            1 S1                 0.0000
     17 ****        -3.2247  -1.9282   0.5603 N.pl3          1 S1                -1.0000
     18 ****        -3.8575  -0.7651   0.2338 C.2            1 S1                 0.0000
     19 ****        -5.0703  -0.6164   0.3819 O.2            1 S1                 0.0000
     20 ****         0.4921  -2.1650  -0.8628 H              1 S1                 0.0000
     21 ****         2.4625   0.2618   1.8189 H              1 S1                 0.0000
     22 ****         0.8381   1.3063   0.4203 H              1 S1                 0.0000
     23 ****        -3.0225   2.3668  -1.0703 H              1 S1                 0.0000
     24 ****        -4.2441   2.0706   0.1682 H              1 S1                 0.0000
     25 ****        -4.4809   1.4586  -1.4753 H              1 S1                 0.0000
     26 ****        -1.1425   0.9635  -0.8678 H              1 S1                 0.0000
     27 ****         0.4288  -0.9233   1.8592 H              1 S1                 0.0000
     28 ****         1.4454  -2.2702   1.3245 H              1 S1                 0.0000
     29 ****         3.3171   2.0176  -0.1690 H              1 S1                 0.0000
     30 ****         3.0820   1.1089  -1.6552 H              1 S1                 0.0000
     31 ****         2.4869   3.3019  -1.8382 H              1 S1                 0.0000
     32 ****         3.6281  -0.8944  -0.6478 LP             1 S1                 0.0000
     33 ****         5.6726  -2.2053   2.4882 LP             1 S1                 0.0000
     34 ****         1.4470   3.2684  -0.6350 LP             1 S1                 0.0000
     35 ****         1.1602   2.4421  -2.0141 LP             1 S1                 0.0000
     36 ****         0.2094   0.3059  -1.4975 LP             1 S1                 0.0000
     37 ****         1.6018  -0.5293  -1.6720 LP             1 S1                 0.0000
     38 ****        -0.3159  -3.2339   0.5607 LP             1 S1                 0.0000
     39 ****        -1.8231  -3.9285   1.0563 LP             1 S1                 0.0000
     40 ****        -3.7684  -2.6821   0.9289 LP             1 S1                 0.0000
     41 ****        -5.5021   0.2500   0.1311 LP             1 S1                 0.0000
     42 ****        -5.6238  -1.3619   0.7530 LP             1 S1                 0.0000
@<TRIPOS>BOND
    1    1    2 1     
    2    1   23 1     
    3    1   24 1     
    4    1   25 1     
    5    2   18 1     
    6    2    3 2     
    7    3    4 1     
    8    3   26 1     
    9    4    5 1     
   10    4   15 am    
   11    5   20 1     
   12    5   14 1     
   13    5    6 1     
   14    6    7 1     
   15    6   27 1     
   16    6   28 1     
   17    7   21 1     
   18    7    8 1     
   19    7   11 1     
   20    8    9 2     
   21    9   10 2     
   22   11   22 1     
   23   11   12 1     
   24   11   14 1     
   25   12   13 1     
   26   12   29 1     
   27   12   30 1     
   28   13   31 1     
   29   15   16 2     
   30   15   17 1     
   31   17   18 1     
   32   18   19 2     
   33    8   32 1     
   34   10   33 1     
   35   13   34 1     
   36   13   35 1     
   37   14   36 1     
   38   14   37 1     
   39   16   38 1     
   40   16   39 1     
   41   17   40 1     
   42   19   41 1     
   43   19   42 1     
@<TRIPOS>SUBSTRUCTURE
      1 S1             1
@<TRIPOS>SET
LONE_PAIRS      STATIC     ATOMS    <user>   **** ""
11 32 33 34 35 36 37 38 39 40 41 42
DONOR_HYDROGENS      STATIC     ATOMS    <user>   **** ""
1 31
ATOM$BLUE        STATIC     ATOMS    COLORGROUP SYSTEM
11 32 33 34 35 36 37 38 39 40 41 42
ATOM$RED        STATIC     ATOMS    COLORGROUP SYSTEM
1 31
