AV-unprocessed.smi:2229|AV-procd|sdf|9028|dock9
  -GOLD-   2272012233D 1   1.00000     0.00000
 Structure written by MMmdl.
 44 45  0  0  0  0  0  0  0  0  1 V2000
  151.8854  144.7909  159.3924 C   0  0  0  0  0  0  0  0  0  0  0  0
  151.4332  143.3542  159.7070 C   0  0  0  0  0  0  0  0  0  0  0  0
  152.0623  142.8724  161.0230 C   0  0  0  0  0  0  0  0  0  0  0  0
  151.7418  142.3676  158.5610 C   0  0  0  0  0  0  0  0  0  0  0  0
  150.7219  142.4202  157.4107 C   0  0  0  0  0  0  0  0  0  0  0  0
  151.0189  141.4371  156.2560 C   0  0  1  0  0  0  0  0  0  0  0  0
  151.0422  139.9640  156.6773 C   0  0  0  0  0  0  0  0  0  0  0  0
  150.9204  139.1999  155.3630 C   0  0  0  0  0  0  0  0  0  0  0  0
  149.9577  140.0348  154.5158 C   0  0  0  0  0  0  0  0  0  0  0  0
  150.0481  141.4808  155.0449 C   0  0  1  0  0  0  0  0  0  0  0  0
  148.7148  141.9713  155.3991 N   0  0  0  0  0  0  0  0  0  0  0  0
  147.6593  142.0303  154.5721 C   0  0  0  0  0  0  0  0  0  0  0  0
  147.6775  141.6071  153.4158 O   0  0  0  0  0  0  0  0  0  0  0  0
  146.3867  142.6696  155.1369 C   0  0  0  0  0  0  0  0  0  0  0  0
  145.8751  143.7225  154.2584 N   0  0  0  0  0  0  0  0  0  0  0  0
  146.4779  144.0856  153.0728 C   0  0  0  0  0  0  0  0  0  0  0  0
  145.8520  145.0513  152.4910 N   0  0  0  0  0  0  0  0  0  0  0  0
  144.8294  145.2965  153.3450 N   0  0  0  0  0  0  0  0  0  0  0  0
  144.8160  144.5112  154.4228 C   0  0  0  0  0  0  0  0  0  0  0  0
  144.0082  144.5193  155.3499 O   0  0  0  0  0  0  0  0  0  0  0  0
  144.1674  146.0272  153.1260 H   0  0  0  0  0  0  0  0  0  0  0  0
  152.9557  144.8343  159.1889 H   0  0  0  0  0  0  0  0  0  0  0  0
  151.6806  145.4568  160.2310 H   0  0  0  0  0  0  0  0  0  0  0  0
  151.3640  145.2010  158.5281 H   0  0  0  0  0  0  0  0  0  0  0  0
  150.3523  143.3711  159.8544 H   0  0  0  0  0  0  0  0  0  0  0  0
  153.1495  142.8295  160.9498 H   0  0  0  0  0  0  0  0  0  0  0  0
  151.7068  141.8767  161.2901 H   0  0  0  0  0  0  0  0  0  0  0  0
  151.8104  143.5404  161.8474 H   0  0  0  0  0  0  0  0  0  0  0  0
  152.7443  142.5523  158.1733 H   0  0  0  0  0  0  0  0  0  0  0  0
  151.7564  141.3568  158.9689 H   0  0  0  0  0  0  0  0  0  0  0  0
  149.7245  142.2309  157.8087 H   0  0  0  0  0  0  0  0  0  0  0  0
  150.7089  143.4311  157.0052 H   0  0  0  0  0  0  0  0  0  0  0  0
  152.0108  141.6748  155.8678 H   0  0  0  0  0  0  0  0  0  0  0  0
  151.9455  139.6960  157.2262 H   0  0  0  0  0  0  0  0  0  0  0  0
  150.1848  139.7410  157.3140 H   0  0  0  0  0  0  0  0  0  0  0  0
  151.8949  139.1564  154.8750 H   0  0  0  0  0  0  0  0  0  0  0  0
  150.5742  138.1755  155.5041 H   0  0  0  0  0  0  0  0  0  0  0  0
  150.2060  139.9741  153.4556 H   0  0  0  0  0  0  0  0  0  0  0  0
  148.9462  139.6404  154.6274 H   0  0  0  0  0  0  0  0  0  0  0  0
  150.4788  142.1156  154.2683 H   0  0  0  0  0  0  0  0  0  0  0  0
  148.6027  142.3414  156.3319 H   0  0  0  0  0  0  0  0  0  0  0  0
  145.6382  141.8888  155.2812 H   0  0  0  0  0  0  0  0  0  0  0  0
  146.5833  143.0953  156.1227 H   0  0  0  0  0  0  0  0  0  0  0  0
  147.3785  143.5651  152.7423 H   0  0  0  0  0  0  0  0  0  0  0  0
  1  2  1  0  0  0  0
  1 22  1  0  0  0  0
  1 23  1  0  0  0  0
  1 24  1  0  0  0  0
  2  3  1  0  0  0  0
  2  4  1  0  0  0  0
  2 25  1  0  0  0  0
  3 26  1  0  0  0  0
  3 27  1  0  0  0  0
  3 28  1  0  0  0  0
  4  5  1  0  0  0  0
  4 29  1  0  0  0  0
  4 30  1  0  0  0  0
  5  6  1  0  0  0  0
  5 31  1  0  0  0  0
  5 32  1  0  0  0  0
  6 10  1  0  0  0  0
  6  7  1  0  0  0  0
  6 33  1  0  0  0  0
  7  8  1  0  0  0  0
  7 34  1  0  0  0  0
  7 35  1  0  0  0  0
  8  9  1  0  0  0  0
  8 36  1  0  0  0  0
  8 37  1  0  0  0  0
  9 10  1  0  0  0  0
  9 38  1  0  0  0  0
  9 39  1  0  0  0  0
 10 11  1  0  0  0  0
 10 40  1  0  0  0  0
 11 12  1  0  0  0  0
 11 41  1  0  0  0  0
 12 13  2  0  0  0  0
 12 14  1  0  0  0  0
 14 15  1  0  0  0  0
 14 42  1  0  0  0  0
 14 43  1  0  0  0  0
 15 19  1  0  0  0  0
 15 16  1  0  0  0  0
 16 17  2  0  0  0  0
 16 44  1  0  0  0  0
 17 18  1  0  0  0  0
 18 21  1  0  0  0  0
 18 19  1  0  0  0  0
 19 20  2  0  0  0  0
M  END
> <s_m_source_file>
AV-unprocessed.smi

> <i_m_source_file_index>
2229

> <i_lp_mmshare_version>
43012

> <i_f3d_flags>
0

> <s_epik_input>
W0NIM11bQ0hdKFtDSDNdKVtDSDJdW0NIMl1bQ0BASF0xW0NIMl1bQ0gyXVtDSDJdW0NASF0xW05IXUMoPU8pW0NIMl1uMltjSF1uW25IXWMyPU8=

> <s_epik_cmdline>
J2VwaWtfcHl0aG9uJywgJy1waCcsICc3LjAnLCAnLXRuJywgJzgnLCAnLW1hJywgJzIwMCcsICctbWV0YWxfYmluZGluZycsICctaW1hZScsICc8aW5maWxlLm1hZT4nLCAnLW9tYWUnLCAnPG91dGZpbGUubWFlPic=

> <r_lp_tautomer_probability>
1

> <r_epik_Ionization_Penalty>
4.14174e-05

> <r_epik_Ionization_Penalty_Charging>
4.13165e-05

> <r_epik_Ionization_Penalty_Neutral>
1.00911e-07

> <r_epik_State_Penalty>
-0

> <r_epik_Charging_Adjusted_Penalty>
4.13165e-05

> <i_epik_Tot_Q>
0

> <i_epik_Tot_abs_Q>
0

> <r_epik_Metal_State_Penalty>
0.0399369

> <b_epik_Metal_Only>
0

> <s_lp_Force_Field>
OPLS_2005

> <r_lp_Energy>
36.1569

> <b_lp_Chiralities_Consistent>
1

> <s_lp_Variant>
AV-unprocessed.smi:2229-2

> <Gold.Version>
5.8.1

> <Gold.Id.Protein>
6NUR|6NUR_protein|mol2

> <Gold.PLP.Fitness>
42.3023

> <Gold.PLP.PLP>
-42.8720

> <Gold.PLP.part.hbond>
-1.5457

> <Gold.PLP.part.metal>
0.0000

> <Gold.PLP.part.buried>
-6.9641

> <Gold.PLP.part.nonpolar>
-35.6810

> <Gold.PLP.part.repulsive>
0.6022

> <Gold.PLP.ligand.clash>
0.0000

> <Gold.PLP.ligand.torsion>
0.3053

> <Gold.PLP.Chemscore.Hbond>
0.0000

> <Gold.PLP.Chemscore.CHOScore>
0.0000

> <Gold.PLP.Chemscore.Metal>
0.0000

> <Gold.PLP.Chemscore.Internal.Correction>
0.0409

> <Gold.Rescore>
     Score         DG    S(hbond)    S(metal)    S(lipo)     H(rot)  DE(clash)    DE(int)     intcor
      7.89      -9.49       0.00        0.00      91.93       2.64       0.48       1.12       ----

> <Gold.Chemscore.Fitness>
7.8932

> <Gold.Chemscore.DG>
-9.4857

> <Gold.Chemscore.ZeroCoef>
-5.4800

> <Gold.Chemscore.Hbond>
0.0000

> <Gold.Chemscore.Metal>
0.0000

> <Gold.Chemscore.Lipo>
91.9294

> <Gold.Chemscore.Internal_Hbond>
0.0000

> <Gold.Chemscore.DEClash>
0.4754

> <Gold.Chemscore.DEInternal>
1.1170

> <Gold.Chemscore.Rot>
2.6368

> <Gold.Chemscore.Internal.Correction>
   9.000000E+99

> <Gold.Chemscore.Hbonds>
donor molecule, donor type, donor heavy atom, donor atom, acceptor molecule, acceptor atom, score
      P1  H  8011  8017       L1    13  0.01

> <Gold.Chemscore.Hbond.Weighted>
-0.0000

> <Gold.Chemscore.Metal.Weighted>
-0.0000

> <Gold.Chemscore.Lipo.Weighted>
-10.7557

> <Gold.Chemscore.Internal_Hbond.Weighted>
0.0000

> <Gold.Chemscore.DEClash.Weighted>
0.4754

> <Gold.Chemscore.DEInternal.Weighted>
1.1170

> <Gold.Chemscore.Rot.Weighted>
6.7501

> <Gold.Chemscore.Internal.Correction.Weighted>
   9.000000E+99

> <Gold.Protein.RotatedTorsions>
[ 6907 6896 6895 6894 ] final -123.19 input  -60.11 | X-H torsion
[ 7974 7965 7964 7962 ] final  -65.12 input  175.53 | X-H torsion
[ 8008 7997 7996 7995 ] final  -66.35 input   59.86 | X-H torsion
[ 10167 10162 10161 10158 ] final -153.27 input  -65.29 | X-H torsion
[ 10718 10713 10712 10709 ] final -163.43 input   66.30 | X-H torsion
[ 10763 10752 10751 10750 ] final   23.70 input  -60.55 | X-H torsion
[ 11005 11000 10999 10996 ] final  -74.15 input  -57.11 | X-H torsion

> <Gold.Protein.ActiveResidues>
 VAL166  LYS551  ARG553  GLY616  TRP617  ASP618  TYR619  PRO620  LYS621  CYS622 
 ASP623  PHE694  ASN695  SER759  ASP760  ASP761  ALA762  ILE779  LEU786  VAL792 
 PHE793  MET794  SER795  GLU796  ALA797  LYS798  CYS799  TRP800  GLU811  SER814 

> <Gold.Protein.RotatedAtoms>
  150.8647  133.7592  159.2980 H   0  0  0  0  0  0  0  0  0  0  0  0  # atno 6907 bound_to 6896
  151.5223  135.1066  159.9891 H   0  0  0  0  0  0  0  0  0  0  0  0  # atno 6908 bound_to 6896
  152.4652  133.7863  159.6933 H   0  0  0  0  0  0  0  0  0  0  0  0  # atno 6909 bound_to 6896
  145.7583  140.8874  143.0443 H   0  0  0  0  0  0  0  0  0  0  0  0  # atno 7974 bound_to 7965
  154.4729  140.0914  156.7189 H   0  0  0  0  0  0  0  0  0  0  0  0  # atno 8008 bound_to 7997
  155.4675  140.3463  155.4303 H   0  0  0  0  0  0  0  0  0  0  0  0  # atno 8009 bound_to 7997
  156.1068  140.1437  156.9381 H   0  0  0  0  0  0  0  0  0  0  0  0  # atno 8010 bound_to 7997
  139.7111  143.9107  152.2468 H   0  0  0  0  0  0  0  0  0  0  0  0  # atno 10167 bound_to 10162
  156.6246  130.8904  151.2965 H   0  0  0  0  0  0  0  0  0  0  0  0  # atno 10718 bound_to 10713
  153.0819  135.6621  154.0028 H   0  0  0  0  0  0  0  0  0  0  0  0  # atno 10763 bound_to 10752
  153.9648  135.2970  155.3432 H   0  0  0  0  0  0  0  0  0  0  0  0  # atno 10764 bound_to 10752
  154.7220  135.5161  153.8898 H   0  0  0  0  0  0  0  0  0  0  0  0  # atno 10765 bound_to 10752
  141.1631  133.6902  156.7320 H   0  0  0  0  0  0  0  0  0  0  0  0  # atno 11005 bound_to 11000
  144.6835  139.9687  143.7481 LP  0  0  0  0  0  0  0  0  0  0  0  0  # atno 17320 bound_to 7965
  146.0289  139.3317  143.0767 LP  0  0  0  0  0  0  0  0  0  0  0  0  # atno 17321 bound_to 7965
  139.8976  144.6930  150.8700 LP  0  0  0  0  0  0  0  0  0  0  0  0  # atno 17342 bound_to 10162
  140.7733  143.3538  151.1962 LP  0  0  0  0  0  0  0  0  0  0  0  0  # atno 17343 bound_to 10162
  157.7218  130.9568  150.1469 LP  0  0  0  0  0  0  0  0  0  0  0  0  # atno 17370 bound_to 10713
  156.2284  130.3680  149.8473 LP  0  0  0  0  0  0  0  0  0  0  0  0  # atno 17371 bound_to 10713
  140.2738  134.8371  157.3871 LP  0  0  0  0  0  0  0  0  0  0  0  0  # atno 17394 bound_to 11000
  140.1497  134.4866  155.7970 LP  0  0  0  0  0  0  0  0  0  0  0  0  # atno 17395 bound_to 11000

$$$$
