AV-unprocessed.smi:283|AV-procd|sdf|2150|dock10
  -GOLD-   2262021493D 1   1.00000     0.00000
 Structure written by MMmdl.
 48 51  0  0  0  0  0  0  0  0  1 V2000
  145.8647  133.6036  154.7956 C   0  0  0  0  0  0  0  0  0  0  0  0
  146.6414  133.8644  153.4979 C   0  0  1  0  0  0  0  0  0  0  0  0
  148.0220  133.4116  153.6532 N   0  0  0  0  0  0  0  0  0  0  0  0
  148.8649  133.9964  154.5336 C   0  0  0  0  0  0  0  0  0  0  0  0
  149.8428  133.1955  155.0191 N   0  0  0  0  0  0  0  0  0  0  0  0
  150.7406  133.6804  155.8796 C   0  0  0  0  0  0  0  0  0  0  0  0
  150.8369  134.9142  156.3752 N   0  0  0  0  0  0  0  0  0  0  0  0
  149.8468  135.7286  155.9069 C   0  0  0  0  0  0  0  0  0  0  0  0
  148.8232  135.3477  154.9903 C   0  0  0  0  0  0  0  0  0  0  0  0
  147.9910  136.4356  154.7555 N   0  0  0  0  0  0  0  0  0  0  0  0
  148.5034  137.3977  155.4711 C   0  0  0  0  0  0  0  0  0  0  0  0
  149.6224  137.0621  156.1979 N   0  0  0  0  0  0  0  0  0  0  0  0
  150.4090  137.9632  157.1049 C   0  0  2  0  0  0  0  0  0  0  0  0
  149.7082  139.1587  157.2708 O   0  0  0  0  0  0  0  0  0  0  0  0
  150.5851  140.2704  157.1150 C   0  0  2  0  0  0  0  0  0  0  0  0
  149.8149  141.5301  156.6794 C   0  0  0  0  0  0  0  0  0  0  0  0
  150.7042  142.6142  156.5147 O   0  0  0  0  0  0  0  0  0  0  0  0
  151.6515  139.7708  156.1293 C   0  0  2  0  0  0  0  0  0  0  0  0
  151.2326  139.9213  154.7835 O   0  0  0  0  0  0  0  0  0  0  0  0
  151.8014  138.3104  156.5389 C   0  0  2  0  0  0  0  0  0  0  0  0
  152.2728  137.4732  155.4958 O   0  0  0  0  0  0  0  0  0  0  0  0
  145.8967  133.2618  152.3025 C   0  0  0  0  0  0  0  0  0  0  0  0
  145.6993  131.8631  152.2242 C   0  0  0  0  0  0  0  0  0  0  0  0
  145.0246  131.2927  151.1287 C   0  0  0  0  0  0  0  0  0  0  0  0
  144.5297  132.1163  150.1020 C   0  0  0  0  0  0  0  0  0  0  0  0
  144.7053  133.5102  150.1766 C   0  0  0  0  0  0  0  0  0  0  0  0
  145.3802  134.0868  151.2713 C   0  0  0  0  0  0  0  0  0  0  0  0
  145.5528  135.8067  151.3163 Cl  0  0  0  0  0  0  0  0  0  0  0  0
  150.4599  137.4142  158.0461 H   0  0  0  0  0  0  0  0  0  0  0  0
  151.0760  140.4466  158.0741 H   0  0  0  0  0  0  0  0  0  0  0  0
  152.5880  140.3169  156.2474 H   0  0  0  0  0  0  0  0  0  0  0  0
  152.5055  138.2521  157.3699 H   0  0  0  0  0  0  0  0  0  0  0  0
  144.8565  134.0156  154.7401 H   0  0  0  0  0  0  0  0  0  0  0  0
  146.3606  134.0650  155.6500 H   0  0  0  0  0  0  0  0  0  0  0  0
  145.7768  132.5354  154.9977 H   0  0  0  0  0  0  0  0  0  0  0  0
  146.6943  134.9448  153.3743 H   0  0  0  0  0  0  0  0  0  0  0  0
  148.3603  132.8277  152.9023 H   0  0  0  0  0  0  0  0  0  0  0  0
  151.4910  132.9814  156.2180 H   0  0  0  0  0  0  0  0  0  0  0  0
  148.0705  138.3869  155.4949 H   0  0  0  0  0  0  0  0  0  0  0  0
  149.3303  141.3606  155.7174 H   0  0  0  0  0  0  0  0  0  0  0  0
  149.0348  141.7881  157.3963 H   0  0  0  0  0  0  0  0  0  0  0  0
  150.2199  143.3539  156.1813 H   0  0  0  0  0  0  0  0  0  0  0  0
  150.2989  139.7848  154.7395 H   0  0  0  0  0  0  0  0  0  0  0  0
  152.5527  136.6532  155.8725 H   0  0  0  0  0  0  0  0  0  0  0  0
  146.0700  131.2150  153.0047 H   0  0  0  0  0  0  0  0  0  0  0  0
  144.8878  130.2227  151.0763 H   0  0  0  0  0  0  0  0  0  0  0  0
  144.0124  131.6803  149.2601 H   0  0  0  0  0  0  0  0  0  0  0  0
  144.3183  134.1401  149.3893 H   0  0  0  0  0  0  0  0  0  0  0  0
  1  2  1  0  0  0  0
  1 33  1  0  0  0  0
  1 34  1  0  0  0  0
  1 35  1  0  0  0  0
  2  3  1  0  0  0  0
  2 22  1  0  0  0  0
  2 36  1  0  0  0  0
  3  4  1  0  0  0  0
  3 37  1  0  0  0  0
  4  9  1  0  0  0  0
  4  5  2  0  0  0  0
  5  6  1  0  0  0  0
  6  7  2  0  0  0  0
  6 38  1  0  0  0  0
  7  8  1  0  0  0  0
  8 12  1  0  0  0  0
  8  9  2  0  0  0  0
  9 10  1  0  0  0  0
 10 11  2  0  0  0  0
 11 12  1  0  0  0  0
 11 39  1  0  0  0  0
 12 13  1  0  0  0  0
 13 29  1  0  0  0  0
 13 20  1  0  0  0  0
 13 14  1  0  0  0  0
 14 15  1  0  0  0  0
 15 30  1  0  0  0  0
 15 16  1  0  0  0  0
 15 18  1  0  0  0  0
 16 17  1  0  0  0  0
 16 40  1  0  0  0  0
 16 41  1  0  0  0  0
 17 42  1  0  0  0  0
 18 31  1  0  0  0  0
 18 19  1  0  0  0  0
 18 20  1  0  0  0  0
 19 43  1  0  0  0  0
 20 32  1  0  0  0  0
 20 21  1  0  0  0  0
 21 44  1  0  0  0  0
 22 27  1  0  0  0  0
 22 23  2  0  0  0  0
 23 24  1  0  0  0  0
 23 45  1  0  0  0  0
 24 25  2  0  0  0  0
 24 46  1  0  0  0  0
 25 26  1  0  0  0  0
 25 47  1  0  0  0  0
 26 27  2  0  0  0  0
 26 48  1  0  0  0  0
 27 28  1  0  0  0  0
M  END
> <s_m_source_file>
AV-unprocessed.smi

> <i_m_source_file_index>
283

> <i_lp_mmshare_version>
43012

> <i_f3d_flags>
0

> <s_epik_input>
Q2xjMVtjSF1bY0hdW2NIXVtjSF1jMVtDQEhdKFtDSDNdKVtOSF1jKG5bY0hdbjIpYyhjMjMpbltjSF1uM1tDQEBIXTRPW0NASF0oW0NIMl1bT0hdKVtDQEBIXShbT0hdKVtDQEhdNFtPSF0=

> <s_epik_cmdline>
J2VwaWtfcHl0aG9uJywgJy1waCcsICc3LjAnLCAnLXRuJywgJzgnLCAnLW1hJywgJzIwMCcsICctbWV0YWxfYmluZGluZycsICctaW1hZScsICc8aW5maWxlLm1hZT4nLCAnLW9tYWUnLCAnPG91dGZpbGUubWFlPic=

> <r_lp_tautomer_probability>
1

> <r_epik_Ionization_Penalty>
0.000266407

> <r_epik_Ionization_Penalty_Charging>
0

> <r_epik_Ionization_Penalty_Neutral>
0.000266407

> <r_epik_State_Penalty>
-0

> <r_epik_Charging_Adjusted_Penalty>
0

> <i_epik_Tot_Q>
0

> <i_epik_Tot_abs_Q>
0

> <r_epik_Metal_State_Penalty>
-0

> <b_epik_Metal_Only>
0

> <s_epik_Chemistry_Notes>
This compound contains an acetal/aminal-like group ( X-CH(R)-Y where X, Y are N, S, or O) that may be acid/base labile, releasing an aldehyde.

> <s_lp_Force_Field>
OPLS_2005

> <r_lp_Energy>
56.8802

> <b_lp_Chiralities_Consistent>
1

> <s_lp_Variant>
AV-unprocessed.smi:283-26

> <Gold.Version>
5.8.1

> <Gold.Id.Protein>
6NUR|6NUR_protein|mol2

> <Gold.PLP.Fitness>
42.8372

> <Gold.PLP.PLP>
-37.6156

> <Gold.PLP.part.hbond>
-3.0000

> <Gold.PLP.part.metal>
0.0000

> <Gold.PLP.part.buried>
-8.5857

> <Gold.PLP.part.nonpolar>
-26.4366

> <Gold.PLP.part.repulsive>
1.0672

> <Gold.PLP.ligand.clash>
0.0000

> <Gold.PLP.ligand.torsion>
0.4126

> <Gold.PLP.Chemscore.Hbond>
2.0000

> <Gold.PLP.Chemscore.CHOScore>
0.0000

> <Gold.PLP.Chemscore.Metal>
0.0000

> <Gold.Chemscore.Hbonds>
donor molecule, donor type, donor heavy atom, donor atom, acceptor molecule, acceptor atom, score
      L1  H    17    42       P1  8028  1.00
      P1  H  7989  7998       L1    19  1.00

> <Gold.PLP.Chemscore.Internal.Correction>
0.0469

> <Gold.Rescore>
     Score         DG    S(hbond)    S(metal)    S(lipo)     H(rot)  DE(clash)    DE(int)     intcor
     10.18     -11.07       1.99        0.00      80.57       4.10       0.22       0.68       ----

> <Gold.Chemscore.Fitness>
10.1772

> <Gold.Chemscore.DG>
-11.0742

> <Gold.Chemscore.ZeroCoef>
-5.4800

> <Gold.Chemscore.Hbond>
1.9928

> <Gold.Chemscore.Metal>
0.0000

> <Gold.Chemscore.Lipo>
80.5653

> <Gold.Chemscore.Internal_Hbond>
0.0000

> <Gold.Chemscore.DEClash>
0.2196

> <Gold.Chemscore.DEInternal>
0.6774

> <Gold.Chemscore.Rot>
4.0968

> <Gold.Chemscore.Internal.Correction>
   9.000000E+99

> <Gold.Chemscore.Hbonds>
donor molecule, donor type, donor heavy atom, donor atom, acceptor molecule, acceptor atom, score
      L1  H    17    42       P1  8028  0.98
      P1  H  7989  7998       L1    19  0.60

> <Gold.Chemscore.Hbond.Weighted>
-6.6560

> <Gold.Chemscore.Metal.Weighted>
-0.0000

> <Gold.Chemscore.Lipo.Weighted>
-9.4261

> <Gold.Chemscore.Internal_Hbond.Weighted>
0.0000

> <Gold.Chemscore.DEClash.Weighted>
0.2196

> <Gold.Chemscore.DEInternal.Weighted>
0.6774

> <Gold.Chemscore.Rot.Weighted>
10.4879

> <Gold.Chemscore.Internal.Correction.Weighted>
   9.000000E+99

> <Gold.Protein.RotatedTorsions>
[ 6907 6896 6895 6894 ] final   -3.93 input  -60.11 | X-H torsion
[ 7974 7965 7964 7962 ] final -159.33 input  175.53 | X-H torsion
[ 8008 7997 7996 7995 ] final -165.91 input   59.86 | X-H torsion
[ 10167 10162 10161 10158 ] final   42.25 input  -65.29 | X-H torsion
[ 10718 10713 10712 10709 ] final  114.68 input   66.30 | X-H torsion
[ 10763 10752 10751 10750 ] final -167.99 input  -60.55 | X-H torsion
[ 11005 11000 10999 10996 ] final   45.71 input  -57.11 | X-H torsion

> <Gold.Protein.ActiveResidues>
 VAL166  LYS551  ARG553  GLY616  TRP617  ASP618  TYR619  PRO620  LYS621  CYS622 
 ASP623  PHE694  ASN695  SER759  ASP760  ASP761  ALA762  ILE779  LEU786  VAL792 
 PHE793  MET794  SER795  GLU796  ALA797  LYS798  CYS799  TRP800  GLU811  SER814 

> <Gold.Protein.RotatedAtoms>
  151.5059  135.1063  159.9840 H   0  0  0  0  0  0  0  0  0  0  0  0  # atno 6907 bound_to 6896
  152.4682  133.7966  159.6941 H   0  0  0  0  0  0  0  0  0  0  0  0  # atno 6908 bound_to 6896
  150.8677  133.7487  159.2997 H   0  0  0  0  0  0  0  0  0  0  0  0  # atno 6909 bound_to 6896
  144.7469  140.3700  143.6078 H   0  0  0  0  0  0  0  0  0  0  0  0  # atno 7974 bound_to 7965
  155.8564  140.0971  157.1641 H   0  0  0  0  0  0  0  0  0  0  0  0  # atno 8008 bound_to 7997
  154.3988  140.1373  156.3970 H   0  0  0  0  0  0  0  0  0  0  0  0  # atno 8009 bound_to 7997
  155.7904  140.3456  155.5349 H   0  0  0  0  0  0  0  0  0  0  0  0  # atno 8010 bound_to 7997
  140.3562  144.2287  150.6141 H   0  0  0  0  0  0  0  0  0  0  0  0  # atno 10167 bound_to 10162
  157.6267  131.1002  150.7221 H   0  0  0  0  0  0  0  0  0  0  0  0  # atno 10718 bound_to 10713
  154.6675  135.2934  154.9786 H   0  0  0  0  0  0  0  0  0  0  0  0  # atno 10763 bound_to 10752
  154.0825  135.6602  153.4844 H   0  0  0  0  0  0  0  0  0  0  0  0  # atno 10764 bound_to 10752
  153.0466  135.5201  154.7654 H   0  0  0  0  0  0  0  0  0  0  0  0  # atno 10765 bound_to 10752
  140.1435  134.4552  155.8432 H   0  0  0  0  0  0  0  0  0  0  0  0  # atno 11005 bound_to 11000
  145.7087  139.1679  143.2551 LP  0  0  0  0  0  0  0  0  0  0  0  0  # atno 17320 bound_to 7965
  146.1362  140.7119  142.9388 LP  0  0  0  0  0  0  0  0  0  0  0  0  # atno 17321 bound_to 7965
  140.5171  143.2275  151.8446 LP  0  0  0  0  0  0  0  0  0  0  0  0  # atno 17342 bound_to 10162
  139.4820  144.4881  151.9221 LP  0  0  0  0  0  0  0  0  0  0  0  0  # atno 17343 bound_to 10162
  156.7568  130.4786  149.5445 LP  0  0  0  0  0  0  0  0  0  0  0  0  # atno 17370 bound_to 10713
  156.1443  130.6266  151.0510 LP  0  0  0  0  0  0  0  0  0  0  0  0  # atno 17371 bound_to 10713
  141.2189  133.6843  156.7291 LP  0  0  0  0  0  0  0  0  0  0  0  0  # atno 17394 bound_to 11000
  140.2692  134.8405  157.3831 LP  0  0  0  0  0  0  0  0  0  0  0  0  # atno 17395 bound_to 11000

$$$$
