AV-unprocessed.smi:3172|AV-procd|sdf|12114|dock1
  -GOLD-   2272017553D 1   1.00000     0.00000
 Structure written by MMmdl.
 44 45  0  0  0  0  0  0  0  0  3 V2000
  150.8069  135.5017  155.2770 C   0  0  0  0  0  0  0  0  0  0  0  0
  150.7823  136.9890  155.1590 C   0  0  0  0  0  0  0  0  0  0  0  0
  150.0825  137.6320  154.1726 N   0  3  0  0  0  0  0  0  0  0  0  0
  150.2184  138.9538  154.2868 C   0  0  0  0  0  0  0  0  0  0  0  0
  151.0129  139.1720  155.3415 N   0  0  0  0  0  0  0  0  0  0  0  0
  151.3768  140.5321  155.7688 C   0  0  0  0  0  0  0  0  0  0  0  0
  150.1614  141.4558  155.9948 C   0  0  1  0  0  0  0  0  0  0  0  0
  149.1957  140.9245  157.0681 C   0  0  0  0  0  0  0  0  0  0  0  0
  150.6322  142.8104  156.3655 N   0  3  0  0  0  0  0  0  0  0  0  0
  150.9312  143.0267  157.7999 C   0  0  0  0  0  0  0  0  0  0  0  0
  151.5017  144.4433  158.0034 C   0  0  0  0  0  0  0  0  0  0  0  0
  151.8437  144.7084  159.4783 C   0  0  0  0  0  0  0  0  0  0  0  0
  152.8150  143.6500  160.0234 C   0  0  0  0  0  0  0  0  0  0  0  0
  152.2583  142.2325  159.8231 C   0  0  0  0  0  0  0  0  0  0  0  0
  151.9148  141.9695  158.3479 C   0  0  0  0  0  0  0  0  0  0  0  0
  151.3798  137.9730  155.9131 C   0  0  0  0  0  0  0  0  0  0  0  0
  152.2598  137.8709  157.1171 C   0  0  0  0  0  0  0  0  0  0  0  0
  150.7292  135.2042  156.3229 H   0  0  0  0  0  0  0  0  0  0  0  0
  151.7393  135.1090  154.8717 H   0  0  0  0  0  0  0  0  0  0  0  0
  149.9746  135.0569  154.7305 H   0  0  0  0  0  0  0  0  0  0  0  0
  149.7751  139.6971  153.6480 H   0  0  0  0  0  0  0  0  0  0  0  0
  151.9677  140.4535  156.6833 H   0  0  0  0  0  0  0  0  0  0  0  0
  152.0391  140.9511  155.0105 H   0  0  0  0  0  0  0  0  0  0  0  0
  149.6127  141.5168  155.0548 H   0  0  0  0  0  0  0  0  0  0  0  0
  148.7614  139.9678  156.7774 H   0  0  0  0  0  0  0  0  0  0  0  0
  148.3677  141.6142  157.2333 H   0  0  0  0  0  0  0  0  0  0  0  0
  149.7037  140.7841  158.0228 H   0  0  0  0  0  0  0  0  0  0  0  0
  151.4522  143.0374  155.8208 H   0  0  0  0  0  0  0  0  0  0  0  0
  149.9923  142.9616  158.3526 H   0  0  0  0  0  0  0  0  0  0  0  0
  152.3988  144.5726  157.3958 H   0  0  0  0  0  0  0  0  0  0  0  0
  150.7848  145.1886  157.6569 H   0  0  0  0  0  0  0  0  0  0  0  0
  152.2799  145.7020  159.5860 H   0  0  0  0  0  0  0  0  0  0  0  0
  150.9290  144.7065  160.0723 H   0  0  0  0  0  0  0  0  0  0  0  0
  153.7770  143.7397  159.5168 H   0  0  0  0  0  0  0  0  0  0  0  0
  153.0056  143.8293  161.0819 H   0  0  0  0  0  0  0  0  0  0  0  0
  152.9830  141.4967  160.1732 H   0  0  0  0  0  0  0  0  0  0  0  0
  151.3651  142.1010  160.4352 H   0  0  0  0  0  0  0  0  0  0  0  0
  151.4939  140.9681  158.2567 H   0  0  0  0  0  0  0  0  0  0  0  0
  152.8314  141.9750  157.7563 H   0  0  0  0  0  0  0  0  0  0  0  0
  152.2679  136.8487  157.4960 H   0  0  0  0  0  0  0  0  0  0  0  0
  151.9021  138.5252  157.9121 H   0  0  0  0  0  0  0  0  0  0  0  0
  153.2830  138.1474  156.8643 H   0  0  0  0  0  0  0  0  0  0  0  0
  149.9000  143.4602  156.1162 H   0  0  0  0  0  0  0  0  0  0  0  0
  149.5340  137.1708  153.4573 H   0  0  0  0  0  0  0  0  0  0  0  0
  1  2  1  0  0  0  0
  1 18  1  0  0  0  0
  1 19  1  0  0  0  0
  1 20  1  0  0  0  0
  2 16  2  0  0  0  0
  2  3  1  0  0  0  0
  3  4  2  0  0  0  0
  3 44  1  0  0  0  0
  4  5  1  0  0  0  0
  4 21  1  0  0  0  0
  5  6  1  0  0  0  0
  5 16  1  0  0  0  0
  6  7  1  0  0  0  0
  6 22  1  0  0  0  0
  6 23  1  0  0  0  0
  7  8  1  0  0  0  0
  7  9  1  0  0  0  0
  7 24  1  0  0  0  0
  8 25  1  0  0  0  0
  8 26  1  0  0  0  0
  8 27  1  0  0  0  0
  9 10  1  0  0  0  0
  9 28  1  0  0  0  0
  9 43  1  0  0  0  0
 10 15  1  0  0  0  0
 10 11  1  0  0  0  0
 10 29  1  0  0  0  0
 11 12  1  0  0  0  0
 11 30  1  0  0  0  0
 11 31  1  0  0  0  0
 12 13  1  0  0  0  0
 12 32  1  0  0  0  0
 12 33  1  0  0  0  0
 13 14  1  0  0  0  0
 13 34  1  0  0  0  0
 13 35  1  0  0  0  0
 14 15  1  0  0  0  0
 14 36  1  0  0  0  0
 14 37  1  0  0  0  0
 15 38  1  0  0  0  0
 15 39  1  0  0  0  0
 16 17  1  0  0  0  0
 17 40  1  0  0  0  0
 17 41  1  0  0  0  0
 17 42  1  0  0  0  0
M  CHG  1   3   1
M  CHG  1   9   1
M  END
> <s_m_source_file>
AV-unprocessed.smi

> <i_m_source_file_index>
3172

> <i_lp_mmshare_version>
43012

> <i_f3d_flags>
0

> <s_epik_input>
W0NIM11jMW5bY0hdbihjMVtDSDNdKVtDSDJdW0NASF0oW0NIM10pW05IXVtDSF0yW0NIMl1bQ0gyXVtDSDJdW0NIMl1bQ0gyXTI=

> <s_epik_cmdline>
J2VwaWtfcHl0aG9uJywgJy1waCcsICc3LjAnLCAnLXRuJywgJzgnLCAnLW1hJywgJzIwMCcsICctbWV0YWxfYmluZGluZycsICctaW1hZScsICc8aW5maWxlLm1hZT4nLCAnLW9tYWUnLCAnPG91dGZpbGUubWFlPic=

> <r_lp_tautomer_probability>
1

> <r_epik_Ionization_Penalty>
0.509043

> <r_epik_Ionization_Penalty_Charging>
0.00159961

> <r_epik_Ionization_Penalty_Neutral>
0.507444

> <r_epik_State_Penalty>
0.272352

> <r_epik_Charging_Adjusted_Penalty>
0.273952

> <i_epik_Tot_Q>
2

> <i_epik_Tot_abs_Q>
2

> <r_epik_Metal_State_Penalty>
3.76994

> <b_epik_Metal_Only>
0

> <s_lp_Force_Field>
OPLS_2005

> <r_lp_Energy>
25.4391

> <b_lp_Chiralities_Consistent>
1

> <s_lp_Variant>
AV-unprocessed.smi:3172-2

> <Gold.Version>
5.8.1

> <Gold.Id.Protein>
6NUR|6NUR_protein|mol2

> <Gold.PLP.Fitness>
54.3044

> <Gold.PLP.PLP>
-39.8158

> <Gold.PLP.part.hbond>
-2.5417

> <Gold.PLP.part.metal>
0.0000

> <Gold.PLP.part.buried>
-1.9763

> <Gold.PLP.part.nonpolar>
-34.8235

> <Gold.PLP.part.repulsive>
0.1478

> <Gold.PLP.ligand.clash>
0.0000

> <Gold.PLP.ligand.torsion>
0.2896

> <Gold.PLP.Chemscore.Hbond>
4.0000

> <Gold.PLP.Chemscore.CHOScore>
1.0000

> <Gold.PLP.Chemscore.Metal>
0.0000

> <Gold.Chemscore.Hbonds>
donor molecule, donor type, donor heavy atom, donor atom, acceptor molecule, acceptor atom, score
      L1  H     3    44       P1  7948  2.00
      L1  H     9    43       P1  8028  2.00
      L1  C     4    21       P1  7957  1.00

> <Gold.PLP.Chemscore.Internal.Correction>
0.0677

> <Gold.Rescore>
     Score         DG    S(hbond)    S(metal)    S(lipo)     H(rot)  DE(clash)    DE(int)     intcor
     19.90     -20.34       1.93        0.00     105.99       1.56       0.02       0.41       ----

> <Gold.Chemscore.Fitness>
19.9013

> <Gold.Chemscore.DG>
-20.3351

> <Gold.Chemscore.ZeroCoef>
-5.4800

> <Gold.Chemscore.Hbond>
1.9278

> <Gold.Chemscore.Metal>
0.0000

> <Gold.Chemscore.Lipo>
105.9944

> <Gold.Chemscore.Internal_Hbond>
0.0000

> <Gold.Chemscore.DEClash>
0.0222

> <Gold.Chemscore.DEInternal>
0.4116

> <Gold.Chemscore.Rot>
1.5567

> <Gold.Chemscore.Internal.Correction>
   9.000000E+99

> <Gold.Chemscore.Hbonds>
donor molecule, donor type, donor heavy atom, donor atom, acceptor molecule, acceptor atom, score
      L1  H     3    44       P1  7948  0.85
      L1  H     9    43       P1  8028  1.00

> <Gold.Chemscore.Hbond.Weighted>
-6.4389

> <Gold.Chemscore.Metal.Weighted>
-0.0000

> <Gold.Chemscore.Lipo.Weighted>
-12.4013

> <Gold.Chemscore.Internal_Hbond.Weighted>
0.0000

> <Gold.Chemscore.DEClash.Weighted>
0.0222

> <Gold.Chemscore.DEInternal.Weighted>
0.4116

> <Gold.Chemscore.Rot.Weighted>
3.9852

> <Gold.Chemscore.Internal.Correction.Weighted>
   9.000000E+99

> <Gold.Protein.RotatedTorsions>
[ 6907 6896 6895 6894 ] final  -77.93 input  -60.11 | X-H torsion
[ 7974 7965 7964 7962 ] final  131.75 input  175.53 | X-H torsion
[ 8008 7997 7996 7995 ] final -138.88 input   59.86 | X-H torsion
[ 10167 10162 10161 10158 ] final  110.49 input  -65.29 | X-H torsion
[ 10718 10713 10712 10709 ] final  -75.78 input   66.30 | X-H torsion
[ 10763 10752 10751 10750 ] final   66.71 input  -60.55 | X-H torsion
[ 11005 11000 10999 10996 ] final  -96.68 input  -57.11 | X-H torsion

> <Gold.Protein.ActiveResidues>
 VAL166  LYS551  ARG553  GLY616  TRP617  ASP618  TYR619  PRO620  LYS621  CYS622 
 ASP623  PHE694  ASN695  SER759  ASP760  ASP761  ALA762  ILE779  LEU786  VAL792 
 PHE793  MET794  SER795  GLU796  ALA797  LYS798  CYS799  TRP800  GLU811  SER814 

> <Gold.Protein.RotatedAtoms>
  150.6985  134.4348  159.5264 H   0  0  0  0  0  0  0  0  0  0  0  0  # atno 6907 bound_to 6896
  152.2068  134.8535  160.0511 H   0  0  0  0  0  0  0  0  0  0  0  0  # atno 6908 bound_to 6896
  151.9435  133.3610  159.4010 H   0  0  0  0  0  0  0  0  0  0  0  0  # atno 6909 bound_to 6896
  145.0040  139.4284  143.5278 H   0  0  0  0  0  0  0  0  0  0  0  0  # atno 7974 bound_to 7965
  155.4356  140.0528  157.3015 H   0  0  0  0  0  0  0  0  0  0  0  0  # atno 8008 bound_to 7997
  154.4840  140.2093  155.9654 H   0  0  0  0  0  0  0  0  0  0  0  0  # atno 8009 bound_to 7997
  156.1248  140.3182  155.8266 H   0  0  0  0  0  0  0  0  0  0  0  0  # atno 8010 bound_to 7997
  139.6684  144.7126  151.1733 H   0  0  0  0  0  0  0  0  0  0  0  0  # atno 10167 bound_to 10162
  156.0196  130.4449  150.3094 H   0  0  0  0  0  0  0  0  0  0  0  0  # atno 10718 bound_to 10713
  153.0152  135.5310  154.6866 H   0  0  0  0  0  0  0  0  0  0  0  0  # atno 10763 bound_to 10752
  154.6012  135.2868  155.0535 H   0  0  0  0  0  0  0  0  0  0  0  0  # atno 10764 bound_to 10752
  154.1592  135.6550  153.5034 H   0  0  0  0  0  0  0  0  0  0  0  0  # atno 10765 bound_to 10752
  141.1403  133.8115  157.0604 H   0  0  0  0  0  0  0  0  0  0  0  0  # atno 11005 bound_to 11000
  146.3457  139.9445  142.8736 LP  0  0  0  0  0  0  0  0  0  0  0  0  # atno 17320 bound_to 7965
  145.2114  140.9897  143.4098 LP  0  0  0  0  0  0  0  0  0  0  0  0  # atno 17321 bound_to 7965
  140.7608  143.5882  150.8824 LP  0  0  0  0  0  0  0  0  0  0  0  0  # atno 17342 bound_to 10162
  139.9545  143.6234  152.3020 LP  0  0  0  0  0  0  0  0  0  0  0  0  # atno 17343 bound_to 10162
  157.1196  131.0243  151.3015 LP  0  0  0  0  0  0  0  0  0  0  0  0  # atno 17370 bound_to 10713
  157.4639  130.7669  149.7261 LP  0  0  0  0  0  0  0  0  0  0  0  0  # atno 17371 bound_to 10713
  140.0575  134.9773  157.1246 LP  0  0  0  0  0  0  0  0  0  0  0  0  # atno 17394 bound_to 11000
  140.3898  134.2197  155.7166 LP  0  0  0  0  0  0  0  0  0  0  0  0  # atno 17395 bound_to 11000

$$$$
