AV-unprocessed.smi:2015|AV-procd|sdf|8163|dock2
  -GOLD-   2272010413D 1   1.00000     0.00000
 Structure written by MMmdl.
 47 48  0  0  0  0  0  0  0  0  1 V2000
  144.6524  134.0409  150.9999 C   0  0  0  0  0  0  0  0  0  0  0  0
  145.2743  134.9208  151.9196 O   0  0  0  0  0  0  0  0  0  0  0  0
  145.4867  136.2142  151.3779 C   0  0  0  0  0  0  0  0  0  0  0  0
  146.1496  137.1073  152.4341 C   0  0  0  0  0  0  0  0  0  0  0  0
  146.6388  138.4502  151.8586 C   0  0  0  0  0  0  0  0  0  0  0  0
  147.3034  139.3527  152.9039 C   0  0  0  0  0  0  0  0  0  0  0  0
  146.7538  140.3952  153.2593 O   0  0  0  0  0  0  0  0  0  0  0  0
  148.4932  138.9219  153.3620 N   0  0  0  0  0  0  0  0  0  0  0  0
  149.3538  139.5317  154.3146 C   0  0  0  0  0  0  0  0  0  0  0  0
  150.6428  139.0562  154.6490 C   0  0  0  0  0  0  0  0  0  0  0  0
  151.4021  139.7588  155.6043 C   0  0  0  0  0  0  0  0  0  0  0  0
  150.8620  140.9229  156.1997 C   0  0  0  0  0  0  0  0  0  0  0  0
  151.6029  141.6322  157.1696 N   0  0  0  0  0  0  0  0  0  0  0  0
  152.0836  140.8341  158.2940 C   0  0  0  0  0  0  0  0  0  0  0  0
  153.1166  141.6274  159.1166 C   0  0  2  0  0  0  0  0  0  0  0  0
  153.5521  140.8703  160.3756 C   0  0  0  0  0  0  0  0  0  0  0  0
  152.5442  142.8692  159.5177 O   0  0  0  0  0  0  0  0  0  0  0  0
  152.1821  143.6855  158.4074 C   0  0  2  0  0  0  0  0  0  0  0  0
  151.6677  145.0256  158.9432 C   0  0  0  0  0  0  0  0  0  0  0  0
  151.1193  142.9527  157.5677 C   0  0  0  0  0  0  0  0  0  0  0  0
  149.6360  141.3892  155.8577 N   0  0  0  0  0  0  0  0  0  0  0  0
  148.9114  140.7125  154.9428 C   0  0  0  0  0  0  0  0  0  0  0  0
  144.5136  133.0645  151.4641 H   0  0  0  0  0  0  0  0  0  0  0  0
  145.2648  133.9054  150.1076 H   0  0  0  0  0  0  0  0  0  0  0  0
  143.6722  134.4131  150.6996 H   0  0  0  0  0  0  0  0  0  0  0  0
  146.1335  136.1424  150.5020 H   0  0  0  0  0  0  0  0  0  0  0  0
  144.5421  136.6522  151.0513 H   0  0  0  0  0  0  0  0  0  0  0  0
  145.4478  137.2808  153.2512 H   0  0  0  0  0  0  0  0  0  0  0  0
  146.9945  136.5672  152.8636 H   0  0  0  0  0  0  0  0  0  0  0  0
  147.3529  138.2722  151.0541 H   0  0  0  0  0  0  0  0  0  0  0  0
  145.7969  138.9847  151.4159 H   0  0  0  0  0  0  0  0  0  0  0  0
  148.8560  138.0868  152.9251 H   0  0  0  0  0  0  0  0  0  0  0  0
  151.0706  138.1810  154.1857 H   0  0  0  0  0  0  0  0  0  0  0  0
  152.3915  139.4070  155.8560 H   0  0  0  0  0  0  0  0  0  0  0  0
  151.2314  140.5652  158.9198 H   0  0  0  0  0  0  0  0  0  0  0  0
  152.5365  139.9017  157.9593 H   0  0  0  0  0  0  0  0  0  0  0  0
  154.0004  141.8212  158.5062 H   0  0  0  0  0  0  0  0  0  0  0  0
  154.0054  139.9122  160.1201 H   0  0  0  0  0  0  0  0  0  0  0  0
  152.7035  140.6752  161.0319 H   0  0  0  0  0  0  0  0  0  0  0  0
  154.2858  141.4447  160.9416 H   0  0  0  0  0  0  0  0  0  0  0  0
  153.0674  143.8729  157.7969 H   0  0  0  0  0  0  0  0  0  0  0  0
  151.3906  145.6937  158.1275 H   0  0  0  0  0  0  0  0  0  0  0  0
  152.4314  145.5264  159.5384 H   0  0  0  0  0  0  0  0  0  0  0  0
  150.7902  144.8869  159.5755 H   0  0  0  0  0  0  0  0  0  0  0  0
  150.8824  143.5471  156.6842 H   0  0  0  0  0  0  0  0  0  0  0  0
  150.1985  142.8400  158.1422 H   0  0  0  0  0  0  0  0  0  0  0  0
  147.9415  141.1274  154.7103 H   0  0  0  0  0  0  0  0  0  0  0  0
  1  2  1  0  0  0  0
  1 23  1  0  0  0  0
  1 24  1  0  0  0  0
  1 25  1  0  0  0  0
  2  3  1  0  0  0  0
  3  4  1  0  0  0  0
  3 26  1  0  0  0  0
  3 27  1  0  0  0  0
  4  5  1  0  0  0  0
  4 28  1  0  0  0  0
  4 29  1  0  0  0  0
  5  6  1  0  0  0  0
  5 30  1  0  0  0  0
  5 31  1  0  0  0  0
  6  7  2  0  0  0  0
  6  8  1  0  0  0  0
  8  9  1  0  0  0  0
  8 32  1  0  0  0  0
  9 22  1  0  0  0  0
  9 10  2  0  0  0  0
 10 11  1  0  0  0  0
 10 33  1  0  0  0  0
 11 12  2  0  0  0  0
 11 34  1  0  0  0  0
 12 13  1  0  0  0  0
 12 21  1  0  0  0  0
 13 20  1  0  0  0  0
 13 14  1  0  0  0  0
 14 15  1  0  0  0  0
 14 35  1  0  0  0  0
 14 36  1  0  0  0  0
 15 16  1  0  0  0  0
 15 17  1  0  0  0  0
 15 37  1  0  0  0  0
 16 38  1  0  0  0  0
 16 39  1  0  0  0  0
 16 40  1  0  0  0  0
 17 18  1  0  0  0  0
 18 19  1  0  0  0  0
 18 20  1  0  0  0  0
 18 41  1  0  0  0  0
 19 42  1  0  0  0  0
 19 43  1  0  0  0  0
 19 44  1  0  0  0  0
 20 45  1  0  0  0  0
 20 46  1  0  0  0  0
 21 22  2  0  0  0  0
 22 47  1  0  0  0  0
M  END
> <s_m_source_file>
AV-unprocessed.smi

> <i_m_source_file_index>
2015

> <i_lp_mmshare_version>
43012

> <i_f3d_flags>
0

> <s_epik_input>
W0NIM11PW0NIMl1bQ0gyXVtDSDJdQyg9TylbTkhdYzFbY0hdW2NIXWMobltjSF0xKU4yW0NIMl1bQ0BASF0oW0NIM10pT1tDQEBIXShbQ0gzXSlbQ0gyXTI=

> <s_epik_cmdline>
J2VwaWtfcHl0aG9uJywgJy1waCcsICc3LjAnLCAnLXRuJywgJzgnLCAnLW1hJywgJzIwMCcsICctbWV0YWxfYmluZGluZycsICctaW1hZScsICc8aW5maWxlLm1hZT4nLCAnLW9tYWUnLCAnPG91dGZpbGUubWFlPic=

> <r_lp_tautomer_probability>
1

> <r_epik_Ionization_Penalty>
0.000816358

> <r_epik_Ionization_Penalty_Charging>
0

> <r_epik_Ionization_Penalty_Neutral>
0.000816358

> <r_epik_State_Penalty>
0.000521115

> <r_epik_Charging_Adjusted_Penalty>
0.000521115

> <i_epik_Tot_Q>
0

> <i_epik_Tot_abs_Q>
0

> <r_epik_Metal_State_Penalty>
-0

> <b_epik_Metal_Only>
0

> <s_lp_Force_Field>
OPLS_2005

> <r_lp_Energy>
22.1268

> <b_lp_Chiralities_Consistent>
1

> <s_lp_Variant>
AV-unprocessed.smi:2015-1

> <Gold.Version>
5.8.1

> <Gold.Id.Protein>
6NUR|6NUR_protein|mol2

> <Gold.PLP.Fitness>
47.4970

> <Gold.PLP.PLP>
-45.3573

> <Gold.PLP.part.hbond>
-1.7366

> <Gold.PLP.part.metal>
0.0000

> <Gold.PLP.part.buried>
-1.7236

> <Gold.PLP.part.nonpolar>
-43.2855

> <Gold.PLP.part.repulsive>
0.5022

> <Gold.PLP.ligand.clash>
0.0000

> <Gold.PLP.ligand.torsion>
0.2660

> <Gold.PLP.Chemscore.Hbond>
0.7638

> <Gold.PLP.Chemscore.CHOScore>
0.0000

> <Gold.PLP.Chemscore.Metal>
0.0000

> <Gold.Chemscore.Hbonds>
donor molecule, donor type, donor heavy atom, donor atom, acceptor molecule, acceptor atom, score
      L1  H     8    32       P1  7948  0.80

> <Gold.PLP.Chemscore.Internal.Correction>
0.3805

> <Gold.Rescore>
     Score         DG    S(hbond)    S(metal)    S(lipo)     H(rot)  DE(clash)    DE(int)     intcor
     15.07     -17.58       0.79        0.00     117.80       1.68       0.80       1.71       ----

> <Gold.Chemscore.Fitness>
15.0678

> <Gold.Chemscore.DG>
-17.5784

> <Gold.Chemscore.ZeroCoef>
-5.4800

> <Gold.Chemscore.Hbond>
0.7856

> <Gold.Chemscore.Metal>
0.0000

> <Gold.Chemscore.Lipo>
117.7974

> <Gold.Chemscore.Internal_Hbond>
0.0000

> <Gold.Chemscore.DEClash>
0.7985

> <Gold.Chemscore.DEInternal>
1.7121

> <Gold.Chemscore.Rot>
1.6827

> <Gold.Chemscore.Internal.Correction>
   9.000000E+99

> <Gold.Chemscore.Hbonds>
donor molecule, donor type, donor heavy atom, donor atom, acceptor molecule, acceptor atom, score
      L1  H     8    32       P1  7948  0.78

> <Gold.Chemscore.Hbond.Weighted>
-2.6239

> <Gold.Chemscore.Metal.Weighted>
-0.0000

> <Gold.Chemscore.Lipo.Weighted>
-13.7823

> <Gold.Chemscore.Internal_Hbond.Weighted>
0.0000

> <Gold.Chemscore.DEClash.Weighted>
0.7985

> <Gold.Chemscore.DEInternal.Weighted>
1.7121

> <Gold.Chemscore.Rot.Weighted>
4.3078

> <Gold.Chemscore.Internal.Correction.Weighted>
   9.000000E+99

> <Gold.Protein.RotatedTorsions>
[ 6907 6896 6895 6894 ] final   93.28 input  -60.11 | X-H torsion
[ 7974 7965 7964 7962 ] final -139.70 input  175.53 | X-H torsion
[ 8008 7997 7996 7995 ] final  105.48 input   59.86 | X-H torsion
[ 10167 10162 10161 10158 ] final -161.83 input  -65.29 | X-H torsion
[ 10718 10713 10712 10709 ] final  103.49 input   66.30 | X-H torsion
[ 10763 10752 10751 10750 ] final  -66.42 input  -60.55 | X-H torsion
[ 11005 11000 10999 10996 ] final  -51.61 input  -57.11 | X-H torsion

> <Gold.Protein.ActiveResidues>
 VAL166  LYS551  ARG553  GLY616  TRP617  ASP618  TYR619  PRO620  LYS621  CYS622 
 ASP623  PHE694  ASN695  SER759  ASP760  ASP761  ALA762  ILE779  LEU786  VAL792 
 PHE793  MET794  SER795  GLU796  ALA797  LYS798  CYS799  TRP800  GLU811  SER814 

> <Gold.Protein.RotatedAtoms>
  152.5452  134.1371  159.8463 H   0  0  0  0  0  0  0  0  0  0  0  0  # atno 6907 bound_to 6896
  151.1411  133.4963  159.2604 H   0  0  0  0  0  0  0  0  0  0  0  0  # atno 6908 bound_to 6896
  151.1572  135.0266  159.8749 H   0  0  0  0  0  0  0  0  0  0  0  0  # atno 6909 bound_to 6896
  144.8655  140.6287  143.5300 H   0  0  0  0  0  0  0  0  0  0  0  0  # atno 7974 bound_to 7965
  156.1663  140.3129  155.8894 H   0  0  0  0  0  0  0  0  0  0  0  0  # atno 8008 bound_to 7997
  155.3679  140.0480  157.3063 H   0  0  0  0  0  0  0  0  0  0  0  0  # atno 8009 bound_to 7997
  154.5196  140.2193  155.9012 H   0  0  0  0  0  0  0  0  0  0  0  0  # atno 8010 bound_to 7997
  139.6436  144.0213  152.2110 H   0  0  0  0  0  0  0  0  0  0  0  0  # atno 10167 bound_to 10162
  157.6771  131.0780  150.5562 H   0  0  0  0  0  0  0  0  0  0  0  0  # atno 10718 bound_to 10713
  154.3595  135.6119  153.5683 H   0  0  0  0  0  0  0  0  0  0  0  0  # atno 10763 bound_to 10752
  152.9794  135.5812  154.4649 H   0  0  0  0  0  0  0  0  0  0  0  0  # atno 10764 bound_to 10752
  154.4384  135.2849  155.1842 H   0  0  0  0  0  0  0  0  0  0  0  0  # atno 10765 bound_to 10752
  141.0880  133.6638  156.3903 H   0  0  0  0  0  0  0  0  0  0  0  0  # atno 11005 bound_to 11000
  145.4229  139.1561  143.4064 LP  0  0  0  0  0  0  0  0  0  0  0  0  # atno 17320 bound_to 7965
  146.2893  140.4341  142.8746 LP  0  0  0  0  0  0  0  0  0  0  0  0  # atno 17321 bound_to 7965
  139.9909  144.6362  150.7815 LP  0  0  0  0  0  0  0  0  0  0  0  0  # atno 17342 bound_to 10162
  140.7503  143.2954  151.3220 LP  0  0  0  0  0  0  0  0  0  0  0  0  # atno 17343 bound_to 10162
  156.5866  130.4318  149.5954 LP  0  0  0  0  0  0  0  0  0  0  0  0  # atno 17370 bound_to 10713
  156.2617  130.6966  151.1737 LP  0  0  0  0  0  0  0  0  0  0  0  0  # atno 17371 bound_to 10713
  140.5318  134.6205  157.5352 LP  0  0  0  0  0  0  0  0  0  0  0  0  # atno 17394 bound_to 11000
  139.9701  134.7307  156.0058 LP  0  0  0  0  0  0  0  0  0  0  0  0  # atno 17395 bound_to 11000

$$$$
