AV-unprocessed.smi:1553|AV-procd|sdf|6238|dock4
  -GOLD-   22720 6423D 1   1.00000     0.00000
 Structure written by MMmdl.
 37 38  0  0  0  0  0  0  0  0  1 V2000
  153.1220  138.0746  156.6609 C   0  0  0  0  0  0  0  0  0  0  0  0
  152.0097  138.4780  155.7555 C   0  0  0  0  0  0  0  0  0  0  0  0
  151.3257  139.6172  155.8872 N   0  0  0  0  0  0  0  0  0  0  0  0
  150.3210  139.7552  154.9250 C   0  0  0  0  0  0  0  0  0  0  0  0
  149.4066  140.9462  154.9605 C   0  0  0  0  0  0  0  0  0  0  0  0
  149.1224  141.4616  156.3863 C   0  0  0  0  0  0  0  0  0  0  0  0
  150.1666  142.3707  156.8558 N   0  0  0  0  0  0  0  0  0  0  0  0
  151.1734  142.0495  157.6897 C   0  0  0  0  0  0  0  0  0  0  0  0
  151.3626  140.8873  158.0466 O   0  0  0  0  0  0  0  0  0  0  0  0
  151.8604  143.1220  158.1720 N   0  0  0  0  0  0  0  0  0  0  0  0
  151.6567  144.5077  157.7148 C   0  0  0  0  0  0  0  0  0  0  0  0
  150.9956  145.2949  158.8575 C   0  0  0  0  0  0  0  0  0  0  0  0
  151.8527  145.2698  159.9948 O   0  0  0  0  0  0  0  0  0  0  0  0
  152.1579  143.9507  160.4417 C   0  0  0  0  0  0  0  0  0  0  0  0
  152.8156  143.1360  159.3056 C   0  0  1  0  0  0  0  0  0  0  0  0
  153.3063  141.7745  159.8407 C   0  0  0  0  0  0  0  0  0  0  0  0
  150.2711  138.7064  154.0402 C   0  0  0  0  0  0  0  0  0  0  0  0
  151.4645  137.4919  154.4048 S   0  0  0  0  0  0  0  0  0  0  0  0
  153.1780  138.7418  157.5216 H   0  0  0  0  0  0  0  0  0  0  0  0
  154.0704  138.1128  156.1250 H   0  0  0  0  0  0  0  0  0  0  0  0
  152.9608  137.0575  157.0182 H   0  0  0  0  0  0  0  0  0  0  0  0
  149.8270  141.7568  154.3645 H   0  0  0  0  0  0  0  0  0  0  0  0
  148.4598  140.6923  154.4826 H   0  0  0  0  0  0  0  0  0  0  0  0
  148.1460  141.9477  156.4175 H   0  0  0  0  0  0  0  0  0  0  0  0
  149.0618  140.6198  157.0759 H   0  0  0  0  0  0  0  0  0  0  0  0
  150.0596  143.3437  156.6092 H   0  0  0  0  0  0  0  0  0  0  0  0
  152.6190  144.9564  157.4637 H   0  0  0  0  0  0  0  0  0  0  0  0
  151.0634  144.5939  156.8042 H   0  0  0  0  0  0  0  0  0  0  0  0
  150.8330  146.3310  158.5606 H   0  0  0  0  0  0  0  0  0  0  0  0
  150.0210  144.8745  159.1111 H   0  0  0  0  0  0  0  0  0  0  0  0
  152.8313  144.0273  161.2957 H   0  0  0  0  0  0  0  0  0  0  0  0
  151.2491  143.4617  160.7964 H   0  0  0  0  0  0  0  0  0  0  0  0
  153.7101  143.6683  158.9780 H   0  0  0  0  0  0  0  0  0  0  0  0
  154.0378  141.9175  160.6364 H   0  0  0  0  0  0  0  0  0  0  0  0
  153.7965  141.1907  159.0612 H   0  0  0  0  0  0  0  0  0  0  0  0
  152.4912  141.1830  160.2597 H   0  0  0  0  0  0  0  0  0  0  0  0
  149.5909  138.5636  153.2139 H   0  0  0  0  0  0  0  0  0  0  0  0
  1  2  1  0  0  0  0
  1 19  1  0  0  0  0
  1 20  1  0  0  0  0
  1 21  1  0  0  0  0
  2 18  1  0  0  0  0
  2  3  2  0  0  0  0
  3  4  1  0  0  0  0
  4  5  1  0  0  0  0
  4 17  2  0  0  0  0
  5  6  1  0  0  0  0
  5 22  1  0  0  0  0
  5 23  1  0  0  0  0
  6  7  1  0  0  0  0
  6 24  1  0  0  0  0
  6 25  1  0  0  0  0
  7  8  1  0  0  0  0
  7 26  1  0  0  0  0
  8  9  2  0  0  0  0
  8 10  1  0  0  0  0
 10 15  1  0  0  0  0
 10 11  1  0  0  0  0
 11 12  1  0  0  0  0
 11 27  1  0  0  0  0
 11 28  1  0  0  0  0
 12 13  1  0  0  0  0
 12 29  1  0  0  0  0
 12 30  1  0  0  0  0
 13 14  1  0  0  0  0
 14 15  1  0  0  0  0
 14 31  1  0  0  0  0
 14 32  1  0  0  0  0
 15 16  1  0  0  0  0
 15 33  1  0  0  0  0
 16 34  1  0  0  0  0
 16 35  1  0  0  0  0
 16 36  1  0  0  0  0
 17 18  1  0  0  0  0
 17 37  1  0  0  0  0
M  END
> <s_m_source_file>
AV-unprocessed.smi

> <i_m_source_file_index>
1553

> <i_lp_mmshare_version>
43012

> <i_f3d_flags>
0

> <s_epik_input>
W0NIM11jMW5jKFtjSF1zMSlbQ0gyXVtDSDJdW05IXUMoPU8pTjJbQ0gyXVtDSDJdT1tDSDJdW0NASF0yW0NIM10=

> <s_epik_cmdline>
J2VwaWtfcHl0aG9uJywgJy1waCcsICc3LjAnLCAnLXRuJywgJzgnLCAnLW1hJywgJzIwMCcsICctbWV0YWxfYmluZGluZycsICctaW1hZScsICc8aW5maWxlLm1hZT4nLCAnLW9tYWUnLCAnPG91dGZpbGUubWFlPic=

> <r_epik_Ionization_Penalty>
0.0020768

> <r_epik_Ionization_Penalty_Charging>
0

> <r_epik_Ionization_Penalty_Neutral>
0.0020768

> <r_epik_State_Penalty>
0.00139904

> <r_epik_Charging_Adjusted_Penalty>
0.00139904

> <i_epik_Tot_Q>
0

> <i_epik_Tot_abs_Q>
0

> <r_epik_Metal_State_Penalty>
-0

> <b_epik_Metal_Only>
0

> <s_lp_Force_Field>
OPLS_2005

> <r_lp_Energy>
28.2448

> <b_lp_Chiralities_Consistent>
1

> <s_lp_Variant>
AV-unprocessed.smi:1553-1

> <Gold.Version>
5.8.1

> <Gold.Id.Protein>
6NUR|6NUR_protein|mol2

> <Gold.PLP.Fitness>
46.5150

> <Gold.PLP.PLP>
-41.1722

> <Gold.PLP.part.hbond>
-1.0000

> <Gold.PLP.part.metal>
0.0000

> <Gold.PLP.part.buried>
-4.7054

> <Gold.PLP.part.nonpolar>
-35.9076

> <Gold.PLP.part.repulsive>
0.1572

> <Gold.PLP.ligand.clash>
0.2485

> <Gold.PLP.ligand.torsion>
0.6694

> <Gold.PLP.Chemscore.Hbond>
0.9199

> <Gold.PLP.Chemscore.CHOScore>
1.3417

> <Gold.PLP.Chemscore.Metal>
0.0000

> <Gold.Chemscore.Hbonds>
donor molecule, donor type, donor heavy atom, donor atom, acceptor molecule, acceptor atom, score
      L1  H     7    26       P1  8028  0.90
      L1  C    17    37       P1  7948  0.49
      L1  C    17    37       P1  7957  0.86

> <Gold.PLP.Chemscore.Internal.Correction>
0.1453

> <Gold.Rescore>
     Score         DG    S(hbond)    S(metal)    S(lipo)     H(rot)  DE(clash)    DE(int)     intcor
     13.91     -17.43       0.95        0.00     104.27       1.33       0.05       3.47       ----

> <Gold.Chemscore.Fitness>
13.9057

> <Gold.Chemscore.DG>
-17.4280

> <Gold.Chemscore.ZeroCoef>
-5.4800

> <Gold.Chemscore.Hbond>
0.9459

> <Gold.Chemscore.Metal>
0.0000

> <Gold.Chemscore.Lipo>
104.2727

> <Gold.Chemscore.Internal_Hbond>
0.0000

> <Gold.Chemscore.DEClash>
0.0528

> <Gold.Chemscore.DEInternal>
3.4695

> <Gold.Chemscore.Rot>
1.3325

> <Gold.Chemscore.Internal.Correction>
   9.000000E+99

> <Gold.Chemscore.Hbonds>
donor molecule, donor type, donor heavy atom, donor atom, acceptor molecule, acceptor atom, score
      L1  H     7    26       P1  8028  0.83

> <Gold.Chemscore.Hbond.Weighted>
-3.1592

> <Gold.Chemscore.Metal.Weighted>
-0.0000

> <Gold.Chemscore.Lipo.Weighted>
-12.1999

> <Gold.Chemscore.Internal_Hbond.Weighted>
0.0000

> <Gold.Chemscore.DEClash.Weighted>
0.0528

> <Gold.Chemscore.DEInternal.Weighted>
3.4695

> <Gold.Chemscore.Rot.Weighted>
3.4111

> <Gold.Chemscore.Internal.Correction.Weighted>
   9.000000E+99

> <Gold.Protein.RotatedTorsions>
[ 6907 6896 6895 6894 ] final   89.47 input  -60.11 | X-H torsion
[ 7974 7965 7964 7962 ] final  -47.18 input  175.53 | X-H torsion
[ 8008 7997 7996 7995 ] final -130.30 input   59.86 | X-H torsion
[ 10167 10162 10161 10158 ] final   88.43 input  -65.29 | X-H torsion
[ 10718 10713 10712 10709 ] final   11.50 input   66.30 | X-H torsion
[ 10763 10752 10751 10750 ] final -105.36 input  -60.55 | X-H torsion
[ 11005 11000 10999 10996 ] final -167.89 input  -57.11 | X-H torsion

> <Gold.Protein.ActiveResidues>
 VAL166  LYS551  ARG553  GLY616  TRP617  ASP618  TYR619  PRO620  LYS621  CYS622 
 ASP623  PHE694  ASN695  SER759  ASP760  ASP761  ALA762  ILE779  LEU786  VAL792 
 PHE793  MET794  SER795  GLU796  ALA797  LYS798  CYS799  TRP800  GLU811  SER814 

> <Gold.Protein.RotatedAtoms>
  152.5436  134.1962  159.8693 H   0  0  0  0  0  0  0  0  0  0  0  0  # atno 6907 bound_to 6896
  151.1953  133.4636  159.2603 H   0  0  0  0  0  0  0  0  0  0  0  0  # atno 6908 bound_to 6896
  151.1042  135.0002  159.8519 H   0  0  0  0  0  0  0  0  0  0  0  0  # atno 6909 bound_to 6896
  145.9643  140.7448  142.9442 H   0  0  0  0  0  0  0  0  0  0  0  0  # atno 7974 bound_to 7965
  155.2935  140.0449  157.3024 H   0  0  0  0  0  0  0  0  0  0  0  0  # atno 8008 bound_to 7997
  154.5527  140.2322  155.8426 H   0  0  0  0  0  0  0  0  0  0  0  0  # atno 8009 bound_to 7997
  156.1981  140.3033  155.9476 H   0  0  0  0  0  0  0  0  0  0  0  0  # atno 8010 bound_to 7997
  139.8674  144.6511  150.8989 H   0  0  0  0  0  0  0  0  0  0  0  0  # atno 10167 bound_to 10162
  156.9965  130.6063  149.5691 H   0  0  0  0  0  0  0  0  0  0  0  0  # atno 10718 bound_to 10713
  154.7941  135.4752  154.0121 H   0  0  0  0  0  0  0  0  0  0  0  0  # atno 10763 bound_to 10752
  153.1677  135.6819  153.8659 H   0  0  0  0  0  0  0  0  0  0  0  0  # atno 10764 bound_to 10752
  153.8252  135.3199  155.3392 H   0  0  0  0  0  0  0  0  0  0  0  0  # atno 10765 bound_to 10752
  140.5481  134.5455  157.5116 H   0  0  0  0  0  0  0  0  0  0  0  0  # atno 11005 bound_to 11000
  144.6822  140.2643  143.7315 LP  0  0  0  0  0  0  0  0  0  0  0  0  # atno 17320 bound_to 7965
  145.7996  139.1959  143.2056 LP  0  0  0  0  0  0  0  0  0  0  0  0  # atno 17321 bound_to 7965
  140.7766  143.3693  151.1680 LP  0  0  0  0  0  0  0  0  0  0  0  0  # atno 17342 bound_to 10162
  139.7316  143.9063  152.3021 LP  0  0  0  0  0  0  0  0  0  0  0  0  # atno 17343 bound_to 10162
  156.0187  130.5282  150.8212 LP  0  0  0  0  0  0  0  0  0  0  0  0  # atno 17370 bound_to 10713
  157.5421  131.0941  150.9813 LP  0  0  0  0  0  0  0  0  0  0  0  0  # atno 17371 bound_to 10713
  139.9469  134.7686  156.0541 LP  0  0  0  0  0  0  0  0  0  0  0  0  # atno 17394 bound_to 11000
  141.1187  133.6619  156.3160 LP  0  0  0  0  0  0  0  0  0  0  0  0  # atno 17395 bound_to 11000

$$$$
