AV-unprocessed.smi:3094|AV-procd|sdf|11788|dock6
  -GOLD-   2272017163D 1   1.00000     0.00000
 Structure written by MMmdl.
 30 31  0  0  0  0  0  0  0  0  2 V2000
  151.1792  140.5991  155.8244 C   0  0  0  0  0  0  0  0  0  0  0  0
  149.9310  141.4440  156.1131 C   0  0  2  0  0  0  0  0  0  0  0  0
  149.1494  141.7466  154.8163 C   0  0  0  0  0  0  0  0  0  0  0  0
  148.4799  140.5645  154.2633 N   0  0  0  0  0  0  0  0  0  0  0  0
  147.1475  140.4279  153.9694 C   0  0  0  0  0  0  0  0  0  0  0  0
  146.9860  139.1634  153.4647 C   0  0  0  0  0  0  0  0  0  0  0  0
  148.2247  138.5800  153.4771 N   0  3  0  0  0  0  0  0  0  0  0  0
  149.1310  139.4318  153.9675 C   0  0  0  0  0  0  0  0  0  0  0  0
  150.3417  142.6776  156.7832 N   0  0  0  0  0  0  0  0  0  0  0  0
  151.1665  142.7627  157.8392 C   0  0  0  0  0  0  0  0  0  0  0  0
  151.6661  141.7769  158.3837 O   0  0  0  0  0  0  0  0  0  0  0  0
  151.4088  144.1601  158.3064 C   0  0  0  0  0  0  0  0  0  0  0  0
  152.8236  144.6962  158.2248 C   0  0  0  0  0  0  0  0  0  0  0  0
  152.2309  144.3426  159.5657 C   0  0  0  0  0  0  0  0  0  0  0  0
  150.9122  139.6515  155.3561 H   0  0  0  0  0  0  0  0  0  0  0  0
  151.7192  140.3691  156.7437 H   0  0  0  0  0  0  0  0  0  0  0  0
  151.8662  141.1184  155.1550 H   0  0  0  0  0  0  0  0  0  0  0  0
  149.2956  140.8583  156.7801 H   0  0  0  0  0  0  0  0  0  0  0  0
  148.4054  142.5278  154.9809 H   0  0  0  0  0  0  0  0  0  0  0  0
  149.8272  142.1154  154.0452 H   0  0  0  0  0  0  0  0  0  0  0  0
  146.4335  141.2228  154.1298 H   0  0  0  0  0  0  0  0  0  0  0  0
  146.1061  138.6492  153.1062 H   0  0  0  0  0  0  0  0  0  0  0  0
  150.1831  139.2450  154.0889 H   0  0  0  0  0  0  0  0  0  0  0  0
  149.9804  143.5402  156.4017 H   0  0  0  0  0  0  0  0  0  0  0  0
  150.6032  144.8749  158.1434 H   0  0  0  0  0  0  0  0  0  0  0  0
  153.6063  144.0462  157.8369 H   0  0  0  0  0  0  0  0  0  0  0  0
  152.9391  145.7499  157.9790 H   0  0  0  0  0  0  0  0  0  0  0  0
  151.9439  145.1570  160.2277 H   0  0  0  0  0  0  0  0  0  0  0  0
  152.6186  143.4574  160.0668 H   0  0  0  0  0  0  0  0  0  0  0  0
  148.4284  137.6406  153.1595 H   0  0  0  0  0  0  0  0  0  0  0  0
  1  2  1  0  0  0  0
  1 15  1  0  0  0  0
  1 16  1  0  0  0  0
  1 17  1  0  0  0  0
  2  3  1  0  0  0  0
  2  9  1  0  0  0  0
  2 18  1  0  0  0  0
  3  4  1  0  0  0  0
  3 19  1  0  0  0  0
  3 20  1  0  0  0  0
  4  8  1  0  0  0  0
  4  5  1  0  0  0  0
  5  6  2  0  0  0  0
  5 21  1  0  0  0  0
  6  7  1  0  0  0  0
  6 22  1  0  0  0  0
  7  8  2  0  0  0  0
  7 30  1  0  0  0  0
  8 23  1  0  0  0  0
  9 10  1  0  0  0  0
  9 24  1  0  0  0  0
 10 11  2  0  0  0  0
 10 12  1  0  0  0  0
 12 14  1  0  0  0  0
 12 13  1  0  0  0  0
 12 25  1  0  0  0  0
 13 14  1  0  0  0  0
 13 26  1  0  0  0  0
 13 27  1  0  0  0  0
 14 28  1  0  0  0  0
 14 29  1  0  0  0  0
M  CHG  1   7   1
M  END
> <s_m_source_file>
AV-unprocessed.smi

> <i_m_source_file_index>
3094

> <i_lp_mmshare_version>
43012

> <i_f3d_flags>
0

> <s_epik_input>
W0NIMl0xW0NIMl1bQ0hdMUMoPU8pW05IXVtDQEhdKFtDSDNdKVtDSDJdbjJbY0hdW2NIXW5bY0hdMg==

> <s_epik_cmdline>
J2VwaWtfcHl0aG9uJywgJy1waCcsICc3LjAnLCAnLXRuJywgJzgnLCAnLW1hJywgJzIwMCcsICctbWV0YWxfYmluZGluZycsICctaW1hZScsICc8aW5maWxlLm1hZT4nLCAnLW9tYWUnLCAnPG91dGZpbGUubWFlPic=

> <r_lp_tautomer_probability>
1

> <r_epik_Ionization_Penalty>
0.244425

> <r_epik_Ionization_Penalty_Charging>
0

> <r_epik_Ionization_Penalty_Neutral>
0.244425

> <r_epik_State_Penalty>
0.23553

> <r_epik_Charging_Adjusted_Penalty>
0.23553

> <i_epik_Tot_Q>
1

> <i_epik_Tot_abs_Q>
1

> <r_epik_Metal_State_Penalty>
0.528799

> <b_epik_Metal_Only>
0

> <s_lp_Force_Field>
OPLS_2005

> <r_lp_Energy>
8.8376

> <b_lp_Chiralities_Consistent>
1

> <s_lp_Variant>
AV-unprocessed.smi:3094-1

> <Gold.Version>
5.8.1

> <Gold.Id.Protein>
6NUR|6NUR_protein|mol2

> <Gold.PLP.Fitness>
43.4909

> <Gold.PLP.PLP>
-34.8292

> <Gold.PLP.part.hbond>
-3.0000

> <Gold.PLP.part.metal>
0.0000

> <Gold.PLP.part.buried>
1.2495

> <Gold.PLP.part.nonpolar>
-32.0253

> <Gold.PLP.part.repulsive>
0.1005

> <Gold.PLP.ligand.clash>
0.0000

> <Gold.PLP.ligand.torsion>
0.2121

> <Gold.PLP.Chemscore.Hbond>
3.0000

> <Gold.PLP.Chemscore.CHOScore>
0.0000

> <Gold.PLP.Chemscore.Metal>
0.0000

> <Gold.Chemscore.Hbonds>
donor molecule, donor type, donor heavy atom, donor atom, acceptor molecule, acceptor atom, score
      L1  H     7    30       P1  7948  2.00
      L1  H     9    24       P1  8028  1.00

> <Gold.PLP.Chemscore.Internal.Correction>
0.0861

> <Gold.Rescore>
     Score         DG    S(hbond)    S(metal)    S(lipo)     H(rot)  DE(clash)    DE(int)     intcor
     13.25     -15.62       1.95        0.00      72.57       1.90       0.78       1.59       ----

> <Gold.Chemscore.Fitness>
13.2450

> <Gold.Chemscore.DG>
-15.6215

> <Gold.Chemscore.ZeroCoef>
-5.4800

> <Gold.Chemscore.Hbond>
1.9520

> <Gold.Chemscore.Metal>
0.0000

> <Gold.Chemscore.Lipo>
72.5699

> <Gold.Chemscore.Internal_Hbond>
0.0000

> <Gold.Chemscore.DEClash>
0.7816

> <Gold.Chemscore.DEInternal>
1.5948

> <Gold.Chemscore.Rot>
1.9019

> <Gold.Chemscore.Internal.Correction>
   9.000000E+99

> <Gold.Chemscore.Hbonds>
donor molecule, donor type, donor heavy atom, donor atom, acceptor molecule, acceptor atom, score
      L1  H     7    30       P1  7948  0.96
      L1  H     9    24       P1  8028  1.00

> <Gold.Chemscore.Hbond.Weighted>
-6.5197

> <Gold.Chemscore.Metal.Weighted>
-0.0000

> <Gold.Chemscore.Lipo.Weighted>
-8.4907

> <Gold.Chemscore.Internal_Hbond.Weighted>
0.0000

> <Gold.Chemscore.DEClash.Weighted>
0.7816

> <Gold.Chemscore.DEInternal.Weighted>
1.5948

> <Gold.Chemscore.Rot.Weighted>
4.8689

> <Gold.Chemscore.Internal.Correction.Weighted>
   9.000000E+99

> <Gold.Protein.RotatedTorsions>
[ 6907 6896 6895 6894 ] final  177.82 input  -60.11 | X-H torsion
[ 7974 7965 7964 7962 ] final  -64.90 input  175.53 | X-H torsion
[ 8008 7997 7996 7995 ] final   24.55 input   59.86 | X-H torsion
[ 10167 10162 10161 10158 ] final   25.14 input  -65.29 | X-H torsion
[ 10718 10713 10712 10709 ] final   14.97 input   66.30 | X-H torsion
[ 10763 10752 10751 10750 ] final -178.51 input  -60.55 | X-H torsion
[ 11005 11000 10999 10996 ] final   57.98 input  -57.11 | X-H torsion

> <Gold.Protein.ActiveResidues>
 VAL166  LYS551  ARG553  GLY616  TRP617  ASP618  TYR619  PRO620  LYS621  CYS622 
 ASP623  PHE694  ASN695  SER759  ASP760  ASP761  ALA762  ILE779  LEU786  VAL792 
 PHE793  MET794  SER795  GLU796  ALA797  LYS798  CYS799  TRP800  GLU811  SER814 

> <Gold.Protein.RotatedAtoms>
  151.6978  133.3311  159.3258 H   0  0  0  0  0  0  0  0  0  0  0  0  # atno 6907 bound_to 6896
  150.7750  134.6642  159.6366 H   0  0  0  0  0  0  0  0  0  0  0  0  # atno 6908 bound_to 6896
  152.3788  134.6625  160.0202 H   0  0  0  0  0  0  0  0  0  0  0  0  # atno 6909 bound_to 6896
  145.7609  140.8862  143.0430 H   0  0  0  0  0  0  0  0  0  0  0  0  # atno 7974 bound_to 7965
  154.9981  140.3122  155.4878 H   0  0  0  0  0  0  0  0  0  0  0  0  # atno 8008 bound_to 7997
  156.2929  140.2237  156.5030 H   0  0  0  0  0  0  0  0  0  0  0  0  # atno 8009 bound_to 7997
  154.7643  140.0457  157.0987 H   0  0  0  0  0  0  0  0  0  0  0  0  # atno 8010 bound_to 7997
  140.5130  144.0128  150.6381 H   0  0  0  0  0  0  0  0  0  0  0  0  # atno 10167 bound_to 10162
  157.0468  130.6254  149.5760 H   0  0  0  0  0  0  0  0  0  0  0  0  # atno 10718 bound_to 10713
  154.5467  135.2810  155.1046 H   0  0  0  0  0  0  0  0  0  0  0  0  # atno 10763 bound_to 10752
  154.2507  135.6340  153.5243 H   0  0  0  0  0  0  0  0  0  0  0  0  # atno 10764 bound_to 10752
  152.9992  135.5582  154.6022 H   0  0  0  0  0  0  0  0  0  0  0  0  # atno 10765 bound_to 10752
  140.0412  134.5871  155.9380 H   0  0  0  0  0  0  0  0  0  0  0  0  # atno 11005 bound_to 11000
  144.6830  139.9722  143.7482 LP  0  0  0  0  0  0  0  0  0  0  0  0  # atno 17320 bound_to 7965
  146.0265  139.3296  143.0781 LP  0  0  0  0  0  0  0  0  0  0  0  0  # atno 17321 bound_to 7965
  140.3456  143.2993  152.0541 LP  0  0  0  0  0  0  0  0  0  0  0  0  # atno 17342 bound_to 10162
  139.4901  144.6411  151.6875 LP  0  0  0  0  0  0  0  0  0  0  0  0  # atno 17343 bound_to 10162
  156.0020  130.5101  150.7697 LP  0  0  0  0  0  0  0  0  0  0  0  0  # atno 17370 bound_to 10713
  157.5061  131.0922  151.0255 LP  0  0  0  0  0  0  0  0  0  0  0  0  # atno 17371 bound_to 10713
  141.1884  133.6562  156.5322 LP  0  0  0  0  0  0  0  0  0  0  0  0  # atno 17394 bound_to 11000
  140.4066  134.7309  157.4811 LP  0  0  0  0  0  0  0  0  0  0  0  0  # atno 17395 bound_to 11000

$$$$
