AV-unprocessed.smi:3029|AV-procd|sdf|11526|dock7
  -GOLD-   2272016473D 1   1.00000     0.00000
 Structure written by MMmdl.
 42 43  0  0  0  0  0  0  0  0  4 V2000
  150.8050  144.8223  160.5425 O   0  0  0  0  0  0  0  0  0  0  0  0
  151.7030  143.9928  160.3980 C   0  0  0  0  0  0  0  0  0  0  0  0
  152.6503  143.6732  161.4710 C   0  0  0  0  0  0  0  0  0  0  0  0
  153.6160  142.7470  161.3102 C   0  0  0  0  0  0  0  0  0  0  0  0
  153.7462  142.0302  160.0562 C   0  0  0  0  0  0  0  0  0  0  0  0
  154.7685  141.0230  159.8773 N   0  3  0  0  0  0  0  0  0  0  0  0
  154.7539  140.3347  158.8611 O   0  0  0  0  0  0  0  0  0  0  0  0
  155.6198  140.8873  160.7499 O   0  5  0  0  0  0  0  0  0  0  0  0
  152.8805  142.3331  159.0688 C   0  0  0  0  0  0  0  0  0  0  0  0
  151.8770  143.3078  159.2274 N   0  0  0  0  0  0  0  0  0  0  0  0
  150.9954  143.5513  158.0778 C   0  0  0  0  0  0  0  0  0  0  0  0
  151.1538  142.4607  157.0064 C   0  0  0  0  0  0  0  0  0  0  0  0
  150.0095  142.4758  156.0721 N   0  3  0  0  0  0  0  0  0  0  0  0
  148.9606  141.4592  156.3285 C   0  0  1  0  0  0  0  0  0  0  0  0
  147.5470  142.0822  156.2826 C   0  0  0  0  0  0  0  0  0  0  0  0
  147.1557  142.5231  154.8617 C   0  0  0  0  0  0  0  0  0  0  0  0
  147.2688  141.3585  153.8669 C   0  0  0  0  0  0  0  0  0  0  0  0
  148.6683  140.7235  153.8992 C   0  0  0  0  0  0  0  0  0  0  0  0
  149.0573  140.2775  155.3264 C   0  0  1  0  0  0  0  0  0  0  0  0
  150.4110  139.5313  155.3682 C   0  0  0  0  0  0  0  0  0  0  0  0
  150.3797  138.4183  154.6348 F   0  0  0  0  0  0  0  0  0  0  0  0
  151.3812  140.3220  154.9095 F   0  0  0  0  0  0  0  0  0  0  0  0
  150.7037  139.2017  156.6257 F   0  0  0  0  0  0  0  0  0  0  0  0
  152.5714  144.1954  162.4134 H   0  0  0  0  0  0  0  0  0  0  0  0
  154.2911  142.5459  162.1292 H   0  0  0  0  0  0  0  0  0  0  0  0
  152.8914  141.8538  158.1004 H   0  0  0  0  0  0  0  0  0  0  0  0
  149.9548  143.6097  158.4026 H   0  0  0  0  0  0  0  0  0  0  0  0
  151.2095  144.5287  157.6417 H   0  0  0  0  0  0  0  0  0  0  0  0
  152.0773  142.6213  156.4480 H   0  0  0  0  0  0  0  0  0  0  0  0
  151.2288  141.4821  157.4801 H   0  0  0  0  0  0  0  0  0  0  0  0
  149.5836  143.3918  156.0793 H   0  0  0  0  0  0  0  0  0  0  0  0
  149.1257  141.0612  157.3307 H   0  0  0  0  0  0  0  0  0  0  0  0
  146.8234  141.3448  156.6327 H   0  0  0  0  0  0  0  0  0  0  0  0
  147.4624  142.9228  156.9707 H   0  0  0  0  0  0  0  0  0  0  0  0
  146.1362  142.9102  154.8624 H   0  0  0  0  0  0  0  0  0  0  0  0
  147.7947  143.3458  154.5389 H   0  0  0  0  0  0  0  0  0  0  0  0
  146.5208  140.6019  154.1068 H   0  0  0  0  0  0  0  0  0  0  0  0
  147.0413  141.7063  152.8588 H   0  0  0  0  0  0  0  0  0  0  0  0
  148.6880  139.8696  153.2215 H   0  0  0  0  0  0  0  0  0  0  0  0
  149.4019  141.4328  153.5147 H   0  0  0  0  0  0  0  0  0  0  0  0
  148.3069  139.5488  155.6389 H   0  0  0  0  0  0  0  0  0  0  0  0
  150.3782  142.3042  155.1473 H   0  0  0  0  0  0  0  0  0  0  0  0
  1  2  2  0  0  0  0
  2 10  1  0  0  0  0
  2  3  1  0  0  0  0
  3  4  2  0  0  0  0
  3 24  1  0  0  0  0
  4  5  1  0  0  0  0
  4 25  1  0  0  0  0
  5  6  1  0  0  0  0
  5  9  2  0  0  0  0
  6  7  2  0  0  0  0
  6  8  1  0  0  0  0
  9 10  1  0  0  0  0
  9 26  1  0  0  0  0
 10 11  1  0  0  0  0
 11 12  1  0  0  0  0
 11 27  1  0  0  0  0
 11 28  1  0  0  0  0
 12 13  1  0  0  0  0
 12 29  1  0  0  0  0
 12 30  1  0  0  0  0
 13 14  1  0  0  0  0
 13 31  1  0  0  0  0
 13 42  1  0  0  0  0
 14 19  1  0  0  0  0
 14 15  1  0  0  0  0
 14 32  1  0  0  0  0
 15 16  1  0  0  0  0
 15 33  1  0  0  0  0
 15 34  1  0  0  0  0
 16 17  1  0  0  0  0
 16 35  1  0  0  0  0
 16 36  1  0  0  0  0
 17 18  1  0  0  0  0
 17 37  1  0  0  0  0
 17 38  1  0  0  0  0
 18 19  1  0  0  0  0
 18 39  1  0  0  0  0
 18 40  1  0  0  0  0
 19 20  1  0  0  0  0
 19 41  1  0  0  0  0
 20 21  1  0  0  0  0
 20 22  1  0  0  0  0
 20 23  1  0  0  0  0
M  CHG  1   6   1
M  CHG  1   8  -1
M  CHG  1  13   1
M  END
> <s_m_source_file>
AV-unprocessed.smi

> <i_m_source_file_index>
3029

> <i_lp_mmshare_version>
43012

> <i_f3d_flags>
0

> <s_epik_input>
Tz1jMVtjSF1bY0hdYyhbTitdKD1PKVtPLV0pW2NIXW4xW0NIMl1bQ0gyXVtOSF1bQ0BASF0yW0NIMl1bQ0gyXVtDSDJdW0NIMl1bQ0BIXTJDKEYpKEYpRg==

> <s_epik_cmdline>
J2VwaWtfcHl0aG9uJywgJy1waCcsICc3LjAnLCAnLXRuJywgJzgnLCAnLW1hJywgJzIwMCcsICctbWV0YWxfYmluZGluZycsICctaW1hZScsICc8aW5maWxlLm1hZT4nLCAnLW9tYWUnLCAnPG91dGZpbGUubWFlPic=

> <r_lp_tautomer_probability>
1

> <r_epik_Ionization_Penalty>
0.037386

> <r_epik_Ionization_Penalty_Charging>
0.037386

> <r_epik_Ionization_Penalty_Neutral>
0

> <r_epik_State_Penalty>
0.0312892

> <r_epik_Charging_Adjusted_Penalty>
0.0686752

> <i_epik_Tot_Q>
1

> <i_epik_Tot_abs_Q>
3

> <r_epik_Metal_State_Penalty>
0.0312892

> <b_epik_Metal_Only>
0

> <s_lp_Force_Field>
OPLS_2005

> <r_lp_Energy>
34.3569

> <b_lp_Chiralities_Consistent>
1

> <s_lp_Variant>
AV-unprocessed.smi:3029-2

> <Gold.Version>
5.8.1

> <Gold.Id.Protein>
6NUR|6NUR_protein|mol2

> <Gold.PLP.Fitness>
50.4464

> <Gold.PLP.PLP>
-45.8024

> <Gold.PLP.part.hbond>
-3.0000

> <Gold.PLP.part.metal>
0.0000

> <Gold.PLP.part.buried>
0.9488

> <Gold.PLP.part.nonpolar>
-42.9598

> <Gold.PLP.part.repulsive>
0.2875

> <Gold.PLP.ligand.clash>
2.0564

> <Gold.PLP.ligand.torsion>
1.2244

> <Gold.PLP.Chemscore.Hbond>
2.9920

> <Gold.PLP.Chemscore.CHOScore>
0.0000

> <Gold.PLP.Chemscore.Metal>
0.0000

> <Gold.Chemscore.Hbonds>
donor molecule, donor type, donor heavy atom, donor atom, acceptor molecule, acceptor atom, score
      L1  H    13    31       P1  8028  2.00
      P1  H  7997  8010       L1     7  0.78

> <Gold.PLP.Chemscore.Internal.Correction>
0.1731

> <Gold.Rescore>
     Score         DG    S(hbond)    S(metal)    S(lipo)     H(rot)  DE(clash)    DE(int)     intcor
     12.36     -14.91       0.98        0.00      94.36       1.90       0.06       2.50       ----

> <Gold.Chemscore.Fitness>
12.3594

> <Gold.Chemscore.DG>
-14.9135

> <Gold.Chemscore.ZeroCoef>
-5.4800

> <Gold.Chemscore.Hbond>
0.9780

> <Gold.Chemscore.Metal>
0.0000

> <Gold.Chemscore.Lipo>
94.3650

> <Gold.Chemscore.Internal_Hbond>
0.0000

> <Gold.Chemscore.DEClash>
0.0551

> <Gold.Chemscore.DEInternal>
2.4990

> <Gold.Chemscore.Rot>
1.9037

> <Gold.Chemscore.Internal.Correction>
   9.000000E+99

> <Gold.Chemscore.Hbonds>
donor molecule, donor type, donor heavy atom, donor atom, acceptor molecule, acceptor atom, score
      L1  H    13    31       P1  8028  0.96
      P1  H  7997  8010       L1     7  0.76

> <Gold.Chemscore.Hbond.Weighted>
-3.2664

> <Gold.Chemscore.Metal.Weighted>
-0.0000

> <Gold.Chemscore.Lipo.Weighted>
-11.0407

> <Gold.Chemscore.Internal_Hbond.Weighted>
0.0000

> <Gold.Chemscore.DEClash.Weighted>
0.0551

> <Gold.Chemscore.DEInternal.Weighted>
2.4990

> <Gold.Chemscore.Rot.Weighted>
4.8736

> <Gold.Chemscore.Internal.Correction.Weighted>
   9.000000E+99

> <Gold.Protein.RotatedTorsions>
[ 6907 6896 6895 6894 ] final  -72.98 input  -60.11 | X-H torsion
[ 7974 7965 7964 7962 ] final    2.92 input  175.53 | X-H torsion
[ 8008 7997 7996 7995 ] final   -7.19 input   59.86 | X-H torsion
[ 10167 10162 10161 10158 ] final  162.86 input  -65.29 | X-H torsion
[ 10718 10713 10712 10709 ] final -135.84 input   66.30 | X-H torsion
[ 10763 10752 10751 10750 ] final -156.95 input  -60.55 | X-H torsion
[ 11005 11000 10999 10996 ] final  177.44 input  -57.11 | X-H torsion

> <Gold.Protein.ActiveResidues>
 VAL166  LYS551  ARG553  GLY616  TRP617  ASP618  TYR619  PRO620  LYS621  CYS622 
 ASP623  PHE694  ASN695  SER759  ASP760  ASP761  ALA762  ILE779  LEU786  VAL792 
 PHE793  MET794  SER795  GLU796  ALA797  LYS798  CYS799  TRP800  GLU811  SER814 

> <Gold.Protein.RotatedAtoms>
  150.7148  134.5083  159.5594 H   0  0  0  0  0  0  0  0  0  0  0  0  # atno 6907 bound_to 6896
  152.2666  134.7975  160.0430 H   0  0  0  0  0  0  0  0  0  0  0  0  # atno 6908 bound_to 6896
  151.8670  133.3433  159.3759 H   0  0  0  0  0  0  0  0  0  0  0  0  # atno 6909 bound_to 6896
  146.2444  140.0763  142.8359 H   0  0  0  0  0  0  0  0  0  0  0  0  # atno 7974 bound_to 7965
  154.5863  140.2413  155.7983 H   0  0  0  0  0  0  0  0  0  0  0  0  # atno 8008 bound_to 7997
  156.2215  140.2996  155.9920 H   0  0  0  0  0  0  0  0  0  0  0  0  # atno 8009 bound_to 7997
  155.2453  140.0408  157.2970 H   0  0  0  0  0  0  0  0  0  0  0  0  # atno 8010 bound_to 7997
  139.4866  144.4395  151.8970 H   0  0  0  0  0  0  0  0  0  0  0  0  # atno 10167 bound_to 10162
  156.2705  130.7263  151.1228 H   0  0  0  0  0  0  0  0  0  0  0  0  # atno 10718 bound_to 10713
  154.7674  135.3135  154.8259 H   0  0  0  0  0  0  0  0  0  0  0  0  # atno 10763 bound_to 10752
  153.9003  135.6816  153.4760 H   0  0  0  0  0  0  0  0  0  0  0  0  # atno 10764 bound_to 10752
  153.1282  135.4792  154.9240 H   0  0  0  0  0  0  0  0  0  0  0  0  # atno 10765 bound_to 10752
  140.3841  134.6920  157.4468 H   0  0  0  0  0  0  0  0  0  0  0  0  # atno 11005 bound_to 11000
  145.0772  140.9196  143.4847 LP  0  0  0  0  0  0  0  0  0  0  0  0  # atno 17320 bound_to 7965
  145.0908  139.2891  143.5736 LP  0  0  0  0  0  0  0  0  0  0  0  0  # atno 17321 bound_to 7965
  140.3846  144.2693  150.5905 LP  0  0  0  0  0  0  0  0  0  0  0  0  # atno 17342 bound_to 10162
  140.5202  143.2268  151.8401 LP  0  0  0  0  0  0  0  0  0  0  0  0  # atno 17343 bound_to 10162
  157.7282  131.0633  150.5830 LP  0  0  0  0  0  0  0  0  0  0  0  0  # atno 17370 bound_to 10713
  156.5926  130.4333  149.5930 LP  0  0  0  0  0  0  0  0  0  0  0  0  # atno 17371 bound_to 10713
  140.0456  134.6204  155.8925 LP  0  0  0  0  0  0  0  0  0  0  0  0  # atno 17394 bound_to 11000
  141.1913  133.6571  156.5452 LP  0  0  0  0  0  0  0  0  0  0  0  0  # atno 17395 bound_to 11000

$$$$
