#       Name:                AV-unprocessed.smi:116
#       Creating user name   scv26
#       Creation time:       Thu Mar 26 18:25:35 2020


#       File generated by GOLD software.
#

@<TRIPOS>MOLECULE
AV-unprocessed.smi:116
    45    48     1
SMALL
NO_CHARGES


@<TRIPOS>ATOM
      1 ****         0.4466   3.1330   1.5997 O.2            1 S1                 0.0000
      2 ****        -0.1540   2.0635   1.4839 C.2            1 S1                 0.0000
      3 ****        -1.6084   1.9563   1.5191 C.2            1 S1                 0.0000
      4 ****        -2.3513   3.0597   1.7105 F              1 S1                 0.0000
      5 ****        -2.2245   0.7648   1.3650 C.2            1 S1                 0.0000
      6 ****        -1.5373  -0.4200   1.1626 N.am           1 S1                 0.0000
      7 ****        -2.2689  -1.7327   0.9917 C.3            1 S1                 0.0000
      8 ****        -2.4372  -2.4259   2.3483 C.3            1 S1                 0.0000
      9 ****        -3.8222  -1.9757   2.7592 C.3            1 S1                 0.0000
     10 ****        -4.5359  -1.9170   1.4137 C.3            1 S1                 0.0000
     11 ****        -3.5479  -1.4797   0.4844 O.3            1 S1                 0.0000
     12 ****        -0.1255  -0.4156   1.1366 C.2            1 S1                 0.0000
     13 ****         0.5055  -1.4631   0.9782 O.2            1 S1                 0.0000
     14 ****         0.5234   0.8322   1.2994 N.am           1 S1                 0.0000
     15 ****         1.9762   0.8565   1.2269 C.3            1 S1                 0.0000
     16 ****         2.4345   1.0091  -0.1920 C.2            1 S1                 0.0000
     17 ****         2.6889  -0.0482  -0.9741 N.2            1 S1                 0.0000
     18 ****         3.0861   0.3741  -2.2393 C.ar           1 S1                 0.0000
     19 ****         3.4302  -0.4452  -3.3398 C.ar           1 S1                 0.0000
     20 ****         3.8160   0.1161  -4.5735 C.ar           1 S1                 0.0000
     21 ****         3.8661   1.5141  -4.7315 C.ar           1 S1                 0.0000
     22 ****         3.5298   2.3532  -3.6536 C.ar           1 S1                 0.0000
     23 ****         3.1449   1.7869  -2.4242 C.ar           1 S1                 0.0000
     24 ****         2.6806   2.5974  -0.9322 S.3            1 S1                 0.0000
     25 ****        -3.3033   0.7501   1.4066 H              1 S1                 0.0000
     26 ****        -1.6966  -2.3118   0.2654 H              1 S1                 0.0000
     27 ****        -2.4173  -3.5050   2.1917 H              1 S1                 0.0000
     28 ****        -1.6520  -2.1559   3.0555 H              1 S1                 0.0000
     29 ****        -4.3011  -2.6527   3.4670 H              1 S1                 0.0000
     30 ****        -3.7798  -0.9835   3.2098 H              1 S1                 0.0000
     31 ****        -4.8755  -2.9115   1.1210 H              1 S1                 0.0000
     32 ****        -5.3994  -1.2516   1.4232 H              1 S1                 0.0000
     33 ****         2.3484   1.6720   1.8483 H              1 S1                 0.0000
     34 ****         2.3616  -0.0623   1.6721 H              1 S1                 0.0000
     35 ****         3.3960  -1.5192  -3.2325 H              1 S1                 0.0000
     36 ****         4.0742  -0.5287  -5.4006 H              1 S1                 0.0000
     37 ****         4.1624   1.9414  -5.6782 H              1 S1                 0.0000
     38 ****         3.5663   3.4264  -3.7682 H              1 S1                 0.0000
     39 ****         1.4458   3.1516   1.5647 LP             1 S1                 0.0000
     40 ****        -0.0651   3.9824   1.7286 LP             1 S1                 0.0000
     41 ****        -3.6649  -1.9707  -0.3789 LP             1 S1                 0.0000
     42 ****        -3.6533  -0.4979   0.3264 LP             1 S1                 0.0000
     43 ****         0.0175  -2.3288   0.8663 LP             1 S1                 0.0000
     44 ****         1.5052  -1.4470   0.9616 LP             1 S1                 0.0000
     45 ****         2.6055  -1.0033  -0.6898 LP             1 S1                 0.0000
@<TRIPOS>BOND
    1    1    2 2     
    2    2   14 am    
    3    2    3 1     
    4    3    4 1     
    5    3    5 2     
    6    5    6 1     
    7    5   25 1     
    8    6    7 1     
    9    6   12 am    
   10    7   11 1     
   11    7    8 1     
   12    7   26 1     
   13    8    9 1     
   14    8   27 1     
   15    8   28 1     
   16    9   10 1     
   17    9   29 1     
   18    9   30 1     
   19   10   11 1     
   20   10   31 1     
   21   10   32 1     
   22   12   13 2     
   23   12   14 am    
   24   14   15 1     
   25   15   16 1     
   26   15   33 1     
   27   15   34 1     
   28   16   24 1     
   29   16   17 2     
   30   17   18 1     
   31   18   23 ar    
   32   18   19 ar    
   33   19   20 ar    
   34   19   35 1     
   35   20   21 ar    
   36   20   36 1     
   37   21   22 ar    
   38   21   37 1     
   39   22   23 ar    
   40   22   38 1     
   41   23   24 1     
   42    1   39 1     
   43    1   40 1     
   44   11   41 1     
   45   11   42 1     
   46   13   43 1     
   47   13   44 1     
   48   17   45 1     
@<TRIPOS>SUBSTRUCTURE
      1 S1             1
@<TRIPOS>SET
LONE_PAIRS      STATIC     ATOMS    <user>   **** ""
7 39 40 41 42 43 44 45
ATOM$BLUE        STATIC     ATOMS    COLORGROUP SYSTEM
7 39 40 41 42 43 44 45
