AV-unprocessed.smi:543|AV-procd|sdf|2875|dock9
  -GOLD-   2262023363D 1   1.00000     0.00000
 Structure written by MMmdl.
 46 48  0  0  0  0  0  0  0  0  1 V2000
  144.0379  132.0534  149.0405 C   0  0  0  0  0  0  0  0  0  0  0  0
  144.6178  132.8621  150.0476 O   0  0  0  0  0  0  0  0  0  0  0  0
  145.7746  132.2744  150.6208 C   0  0  0  0  0  0  0  0  0  0  0  0
  145.4225  131.6726  151.9882 C   0  0  0  0  0  0  0  0  0  0  0  0
  146.6152  131.4296  152.7985 N   0  0  0  0  0  0  0  0  0  0  0  0
  147.1816  130.2462  153.1734 C   0  0  0  0  0  0  0  0  0  0  0  0
  146.6328  129.0033  152.8332 N   0  0  0  0  0  0  0  0  0  0  0  0
  145.4177  128.7942  152.0553 C   0  0  0  0  0  0  0  0  0  0  0  0
  147.1044  127.7253  153.3682 C   0  0  0  0  0  0  0  0  0  0  0  0
  148.0414  126.9429  152.4613 C   0  0  0  0  0  0  0  0  0  0  0  0
  148.2817  127.3900  151.1448 C   0  0  0  0  0  0  0  0  0  0  0  0
  149.1572  126.6774  150.3027 C   0  0  0  0  0  0  0  0  0  0  0  0
  149.7945  125.5128  150.7720 C   0  0  0  0  0  0  0  0  0  0  0  0
  149.5549  125.0603  152.0838 C   0  0  0  0  0  0  0  0  0  0  0  0
  148.6790  125.7723  152.9260 C   0  0  0  0  0  0  0  0  0  0  0  0
  148.3252  130.3785  153.8525 N   0  0  0  0  0  0  0  0  0  0  0  0
  148.4943  131.7491  153.9389 C   0  0  0  0  0  0  0  0  0  0  0  0
  147.4865  132.3978  153.3042 C   0  0  0  0  0  0  0  0  0  0  0  0
  147.4393  133.8632  153.2011 C   0  0  0  0  0  0  0  0  0  0  0  0
  146.5505  134.4746  152.6122 O   0  0  0  0  0  0  0  0  0  0  0  0
  148.4815  134.4741  153.8157 N   0  0  0  0  0  0  0  0  0  0  0  0
  149.5196  133.8802  154.4796 C   0  0  0  0  0  0  0  0  0  0  0  0
  150.3989  134.5724  154.9924 O   0  0  0  0  0  0  0  0  0  0  0  0
  149.5340  132.5106  154.5440 N   0  0  0  0  0  0  0  0  0  0  0  0
  150.6200  131.8205  155.2430 C   0  0  0  0  0  0  0  0  0  0  0  0
  148.4956  135.4827  153.7763 H   0  0  0  0  0  0  0  0  0  0  0  0
  143.1639  132.5563  148.6267 H   0  0  0  0  0  0  0  0  0  0  0  0
  143.7141  131.0937  149.4450 H   0  0  0  0  0  0  0  0  0  0  0  0
  144.7404  131.8722  148.2260 H   0  0  0  0  0  0  0  0  0  0  0  0
  146.1664  131.4984  149.9615 H   0  0  0  0  0  0  0  0  0  0  0  0
  146.5552  133.0273  150.7377 H   0  0  0  0  0  0  0  0  0  0  0  0
  144.7490  132.3334  152.5317 H   0  0  0  0  0  0  0  0  0  0  0  0
  144.8576  130.7565  151.8510 H   0  0  0  0  0  0  0  0  0  0  0  0
  144.8681  129.7286  151.9397 H   0  0  0  0  0  0  0  0  0  0  0  0
  144.7473  128.0872  152.5455 H   0  0  0  0  0  0  0  0  0  0  0  0
  145.6600  128.4068  151.0654 H   0  0  0  0  0  0  0  0  0  0  0  0
  147.5949  127.8554  154.3342 H   0  0  0  0  0  0  0  0  0  0  0  0
  146.2227  127.1160  153.5701 H   0  0  0  0  0  0  0  0  0  0  0  0
  147.8011  128.2850  150.7780 H   0  0  0  0  0  0  0  0  0  0  0  0
  149.3409  127.0256  149.2970 H   0  0  0  0  0  0  0  0  0  0  0  0
  150.4669  124.9670  150.1268 H   0  0  0  0  0  0  0  0  0  0  0  0
  150.0438  124.1676  152.4447 H   0  0  0  0  0  0  0  0  0  0  0  0
  148.5041  125.4202  153.9316 H   0  0  0  0  0  0  0  0  0  0  0  0
  151.5831  132.0683  154.7951 H   0  0  0  0  0  0  0  0  0  0  0  0
  150.5171  130.7359  155.2122 H   0  0  0  0  0  0  0  0  0  0  0  0
  150.6466  132.1150  156.2927 H   0  0  0  0  0  0  0  0  0  0  0  0
  1  2  1  0  0  0  0
  1 27  1  0  0  0  0
  1 28  1  0  0  0  0
  1 29  1  0  0  0  0
  2  3  1  0  0  0  0
  3  4  1  0  0  0  0
  3 30  1  0  0  0  0
  3 31  1  0  0  0  0
  4  5  1  0  0  0  0
  4 32  1  0  0  0  0
  4 33  1  0  0  0  0
  5 18  1  0  0  0  0
  5  6  1  0  0  0  0
  6  7  1  0  0  0  0
  6 16  2  0  0  0  0
  7  8  1  0  0  0  0
  7  9  1  0  0  0  0
  8 34  1  0  0  0  0
  8 35  1  0  0  0  0
  8 36  1  0  0  0  0
  9 10  1  0  0  0  0
  9 37  1  0  0  0  0
  9 38  1  0  0  0  0
 10 15  1  0  0  0  0
 10 11  2  0  0  0  0
 11 12  1  0  0  0  0
 11 39  1  0  0  0  0
 12 13  2  0  0  0  0
 12 40  1  0  0  0  0
 13 14  1  0  0  0  0
 13 41  1  0  0  0  0
 14 15  2  0  0  0  0
 14 42  1  0  0  0  0
 15 43  1  0  0  0  0
 16 17  1  0  0  0  0
 17 24  1  0  0  0  0
 17 18  2  0  0  0  0
 18 19  1  0  0  0  0
 19 20  2  0  0  0  0
 19 21  1  0  0  0  0
 21 26  1  0  0  0  0
 21 22  1  0  0  0  0
 22 23  2  0  0  0  0
 22 24  1  0  0  0  0
 24 25  1  0  0  0  0
 25 44  1  0  0  0  0
 25 45  1  0  0  0  0
 25 46  1  0  0  0  0
M  END
> <s_m_source_file>
AV-unprocessed.smi

> <i_m_source_file_index>
543

> <i_lp_mmshare_version>
43012

> <i_f3d_flags>
0

> <s_epik_input>
W0NIM11uMWMoPU8pW25IXWMoPU8pYyhjMTIpbihbQ0gyXVtDSDJdT1tDSDNdKWMobjIpTihbQ0gzXSlbQ0gyXWMzW2NIXVtjSF1bY0hdW2NIXVtjSF0z

> <s_epik_cmdline>
J2VwaWtfcHl0aG9uJywgJy1waCcsICc3LjAnLCAnLXRuJywgJzgnLCAnLW1hJywgJzIwMCcsICctbWV0YWxfYmluZGluZycsICctaW1hZScsICc8aW5maWxlLm1hZT4nLCAnLW9tYWUnLCAnPG91dGZpbGUubWFlPic=

> <r_lp_tautomer_probability>
1

> <r_epik_Ionization_Penalty>
3.94324e-05

> <r_epik_Ionization_Penalty_Charging>
1.70393e-05

> <r_epik_Ionization_Penalty_Neutral>
2.23931e-05

> <r_epik_State_Penalty>
-0

> <r_epik_Charging_Adjusted_Penalty>
1.70393e-05

> <i_epik_Tot_Q>
0

> <i_epik_Tot_abs_Q>
0

> <r_epik_Metal_State_Penalty>
0.0163311

> <b_epik_Metal_Only>
0

> <s_lp_Force_Field>
OPLS_2005

> <r_lp_Energy>
32.7304

> <b_lp_Chiralities_Consistent>
1

> <s_lp_Variant>
AV-unprocessed.smi:543-1

> <Gold.Version>
5.8.1

> <Gold.Id.Protein>
6NUR|6NUR_protein|mol2

> <Gold.PLP.Fitness>
44.3993

> <Gold.PLP.PLP>
-45.9078

> <Gold.PLP.part.hbond>
-1.0000

> <Gold.PLP.part.metal>
0.0000

> <Gold.PLP.part.buried>
-6.0824

> <Gold.PLP.part.nonpolar>
-40.1843

> <Gold.PLP.part.repulsive>
1.8330

> <Gold.PLP.ligand.clash>
3.9488

> <Gold.PLP.ligand.torsion>
0.8365

> <Gold.PLP.Chemscore.Hbond>
0.0052

> <Gold.PLP.Chemscore.CHOScore>
0.0000

> <Gold.PLP.Chemscore.Metal>
0.0000

> <Gold.Chemscore.Hbonds>
donor molecule, donor type, donor heavy atom, donor atom, acceptor molecule, acceptor atom, score
      L1  H    21    26       P1  7948  0.21

> <Gold.PLP.Chemscore.Internal.Correction>
4.0978

> <Gold.Rescore>
     Score         DG    S(hbond)    S(metal)    S(lipo)     H(rot)  DE(clash)    DE(int)     intcor
      9.05     -11.60       0.00        0.00      93.00       1.86       0.13       2.42       ----

> <Gold.Chemscore.Fitness>
9.0477

> <Gold.Chemscore.DG>
-11.6046

> <Gold.Chemscore.ZeroCoef>
-5.4800

> <Gold.Chemscore.Hbond>
0.0000

> <Gold.Chemscore.Metal>
0.0000

> <Gold.Chemscore.Lipo>
93.0003

> <Gold.Chemscore.Internal_Hbond>
0.0000

> <Gold.Chemscore.DEClash>
0.1321

> <Gold.Chemscore.DEInternal>
2.4249

> <Gold.Chemscore.Rot>
1.8580

> <Gold.Chemscore.Internal.Correction>
   9.000000E+99

> <Gold.Chemscore.Hbonds>
donor molecule, donor type, donor heavy atom, donor atom, acceptor molecule, acceptor atom, score
      L1  H    21    26       P1  7948  0.20

> <Gold.Chemscore.Hbond.Weighted>
-0.0000

> <Gold.Chemscore.Metal.Weighted>
-0.0000

> <Gold.Chemscore.Lipo.Weighted>
-10.8810

> <Gold.Chemscore.Internal_Hbond.Weighted>
0.0000

> <Gold.Chemscore.DEClash.Weighted>
0.1321

> <Gold.Chemscore.DEInternal.Weighted>
2.4249

> <Gold.Chemscore.Rot.Weighted>
4.7564

> <Gold.Chemscore.Internal.Correction.Weighted>
   9.000000E+99

> <Gold.Protein.RotatedTorsions>
[ 6907 6896 6895 6894 ] final   -2.29 input  -60.11 | X-H torsion
[ 7974 7965 7964 7962 ] final   65.17 input  175.53 | X-H torsion
[ 8008 7997 7996 7995 ] final   15.24 input   59.86 | X-H torsion
[ 10167 10162 10161 10158 ] final  -98.37 input  -65.29 | X-H torsion
[ 10718 10713 10712 10709 ] final  -27.43 input   66.30 | X-H torsion
[ 10763 10752 10751 10750 ] final  102.37 input  -60.55 | X-H torsion
[ 11005 11000 10999 10996 ] final  154.83 input  -57.11 | X-H torsion

> <Gold.Protein.ActiveResidues>
 VAL166  LYS551  ARG553  GLY616  TRP617  ASP618  TYR619  PRO620  LYS621  CYS622 
 ASP623  PHE694  ASN695  SER759  ASP760  ASP761  ALA762  ILE779  LEU786  VAL792 
 PHE793  MET794  SER795  GLU796  ALA797  LYS798  CYS799  TRP800  GLU811  SER814 

> <Gold.Protein.RotatedAtoms>
  151.5322  135.1068  159.9905 H   0  0  0  0  0  0  0  0  0  0  0  0  # atno 6907 bound_to 6896
  152.4573  133.7745  159.6828 H   0  0  0  0  0  0  0  0  0  0  0  0  # atno 6908 bound_to 6896
  150.8521  133.7705  159.3046 H   0  0  0  0  0  0  0  0  0  0  0  0  # atno 6909 bound_to 6896
  145.8416  139.3199  143.0928 H   0  0  0  0  0  0  0  0  0  0  0  0  # atno 7974 bound_to 7965
  154.8599  140.2942  155.5545 H   0  0  0  0  0  0  0  0  0  0  0  0  # atno 8008 bound_to 7997
  156.3019  140.2480  156.3504 H   0  0  0  0  0  0  0  0  0  0  0  0  # atno 8009 bound_to 7997
  154.8930  140.0394  157.1838 H   0  0  0  0  0  0  0  0  0  0  0  0  # atno 8010 bound_to 7997
  140.2737  143.3327  152.0510 H   0  0  0  0  0  0  0  0  0  0  0  0  # atno 10167 bound_to 10162
  156.4382  130.4459  149.7070 H   0  0  0  0  0  0  0  0  0  0  0  0  # atno 10718 bound_to 10713
  153.3387  135.4013  155.1554 H   0  0  0  0  0  0  0  0  0  0  0  0  # atno 10763 bound_to 10752
  154.8639  135.3628  154.5374 H   0  0  0  0  0  0  0  0  0  0  0  0  # atno 10764 bound_to 10752
  153.5818  135.7076  153.5520 H   0  0  0  0  0  0  0  0  0  0  0  0  # atno 10765 bound_to 10752
  140.1526  134.8665  157.2473 H   0  0  0  0  0  0  0  0  0  0  0  0  # atno 11005 bound_to 11000
  145.9459  140.8945  143.0284 LP  0  0  0  0  0  0  0  0  0  0  0  0  # atno 17320 bound_to 7965
  144.6733  140.1612  143.7422 LP  0  0  0  0  0  0  0  0  0  0  0  0  # atno 17321 bound_to 7965
  139.4982  144.6639  151.6401 LP  0  0  0  0  0  0  0  0  0  0  0  0  # atno 17342 bound_to 10162
  140.5869  143.9849  150.6301 LP  0  0  0  0  0  0  0  0  0  0  0  0  # atno 17343 bound_to 10162
  156.3946  130.7644  151.2648 LP  0  0  0  0  0  0  0  0  0  0  0  0  # atno 17370 bound_to 10713
  157.7507  131.0258  150.3933 LP  0  0  0  0  0  0  0  0  0  0  0  0  # atno 17371 bound_to 10713
  140.2587  134.3597  155.7415 LP  0  0  0  0  0  0  0  0  0  0  0  0  # atno 17394 bound_to 11000
  141.2200  133.7357  156.9046 LP  0  0  0  0  0  0  0  0  0  0  0  0  # atno 17395 bound_to 11000

$$$$
