AV-unprocessed.smi:1229|AV-procd|sdf|5151|dock7
  -GOLD-   22720 4223D 1   1.00000     0.00000
 Structure written by MMmdl.
 46 47  0  0  0  0  0  0  0  0  2 V2000
  153.7214  141.2876  159.8255 C   0  0  0  0  0  0  0  0  0  0  0  0
  152.6738  142.2390  159.2701 C   0  0  0  0  0  0  0  0  0  0  0  0
  152.5267  143.5177  159.8488 C   0  0  0  0  0  0  0  0  0  0  0  0
  151.5560  144.3953  159.3363 C   0  0  0  0  0  0  0  0  0  0  0  0
  150.7693  143.9547  158.2586 C   0  0  0  0  0  0  0  0  0  0  0  0
  150.9036  142.7350  157.6989 N   0  0  0  0  0  0  0  0  0  0  0  0
  151.8347  141.8747  158.1829 C   0  0  0  0  0  0  0  0  0  0  0  0
  152.0313  140.5725  157.6417 N   0  0  0  0  0  0  0  0  0  0  0  0
  151.7393  140.1285  156.4065 C   0  0  0  0  0  0  0  0  0  0  0  0
  151.2248  140.7968  155.5091 O   0  0  0  0  0  0  0  0  0  0  0  0
  152.0851  138.8413  156.2562 N   0  0  0  0  0  0  0  0  0  0  0  0
  151.8852  138.0612  155.0386 C   0  0  0  0  0  0  0  0  0  0  0  0
  150.4472  137.5117  154.9293 C   0  0  1  0  0  0  0  0  0  0  0  0
  149.9213  137.9028  153.6763 O   0  0  0  0  0  0  0  0  0  0  0  0
  150.4241  135.9710  154.9848 C   0  0  0  0  0  0  0  0  0  0  0  0
  149.1023  135.4082  154.6061 N   0  3  0  0  0  0  0  0  0  0  0  0
  149.1327  133.9274  154.4842 C   0  0  0  0  0  0  0  0  0  0  0  0
  147.7968  133.3853  153.9481 C   0  0  0  0  0  0  0  0  0  0  0  0
  146.6256  133.8360  154.8304 C   0  0  0  0  0  0  0  0  0  0  0  0
  146.6338  135.3636  154.9709 C   0  0  0  0  0  0  0  0  0  0  0  0
  147.9937  135.8617  155.4889 C   0  0  0  0  0  0  0  0  0  0  0  0
  154.2830  141.7473  160.6393 H   0  0  0  0  0  0  0  0  0  0  0  0
  154.4313  141.0027  159.0485 H   0  0  0  0  0  0  0  0  0  0  0  0
  153.2488  140.3843  160.2123 H   0  0  0  0  0  0  0  0  0  0  0  0
  153.1485  143.8253  160.6768 H   0  0  0  0  0  0  0  0  0  0  0  0
  151.4184  145.3801  159.7578 H   0  0  0  0  0  0  0  0  0  0  0  0
  150.0128  144.5975  157.8336 H   0  0  0  0  0  0  0  0  0  0  0  0
  152.4468  139.9029  158.2720 H   0  0  0  0  0  0  0  0  0  0  0  0
  152.5016  138.3629  157.0418 H   0  0  0  0  0  0  0  0  0  0  0  0
  152.1395  138.6707  154.1703 H   0  0  0  0  0  0  0  0  0  0  0  0
  152.6012  137.2372  155.0451 H   0  0  0  0  0  0  0  0  0  0  0  0
  149.8253  137.9261  155.7220 H   0  0  0  0  0  0  0  0  0  0  0  0
  149.4041  137.1898  153.3326 H   0  0  0  0  0  0  0  0  0  0  0  0
  151.1987  135.5898  154.3170 H   0  0  0  0  0  0  0  0  0  0  0  0
  150.6867  135.6177  155.9834 H   0  0  0  0  0  0  0  0  0  0  0  0
  149.9338  133.6295  153.8065 H   0  0  0  0  0  0  0  0  0  0  0  0
  149.3574  133.4858  155.4564 H   0  0  0  0  0  0  0  0  0  0  0  0
  147.6427  133.7362  152.9266 H   0  0  0  0  0  0  0  0  0  0  0  0
  147.8286  132.2964  153.8992 H   0  0  0  0  0  0  0  0  0  0  0  0
  145.6797  133.5006  154.4038 H   0  0  0  0  0  0  0  0  0  0  0  0
  146.7061  133.3741  155.8153 H   0  0  0  0  0  0  0  0  0  0  0  0
  146.4192  135.8225  154.0047 H   0  0  0  0  0  0  0  0  0  0  0  0
  145.8386  135.6794  155.6469 H   0  0  0  0  0  0  0  0  0  0  0  0
  148.1625  135.4973  156.5037 H   0  0  0  0  0  0  0  0  0  0  0  0
  147.9711  136.9491  155.5472 H   0  0  0  0  0  0  0  0  0  0  0  0
  148.9062  135.7610  153.6799 H   0  0  0  0  0  0  0  0  0  0  0  0
  1  2  1  0  0  0  0
  1 22  1  0  0  0  0
  1 23  1  0  0  0  0
  1 24  1  0  0  0  0
  2  7  1  0  0  0  0
  2  3  2  0  0  0  0
  3  4  1  0  0  0  0
  3 25  1  0  0  0  0
  4  5  2  0  0  0  0
  4 26  1  0  0  0  0
  5  6  1  0  0  0  0
  5 27  1  0  0  0  0
  6  7  2  0  0  0  0
  7  8  1  0  0  0  0
  8  9  1  0  0  0  0
  8 28  1  0  0  0  0
  9 10  2  0  0  0  0
  9 11  1  0  0  0  0
 11 12  1  0  0  0  0
 11 29  1  0  0  0  0
 12 13  1  0  0  0  0
 12 30  1  0  0  0  0
 12 31  1  0  0  0  0
 13 14  1  0  0  0  0
 13 15  1  0  0  0  0
 13 32  1  0  0  0  0
 14 33  1  0  0  0  0
 15 16  1  0  0  0  0
 15 34  1  0  0  0  0
 15 35  1  0  0  0  0
 16 21  1  0  0  0  0
 16 17  1  0  0  0  0
 16 46  1  0  0  0  0
 17 18  1  0  0  0  0
 17 36  1  0  0  0  0
 17 37  1  0  0  0  0
 18 19  1  0  0  0  0
 18 38  1  0  0  0  0
 18 39  1  0  0  0  0
 19 20  1  0  0  0  0
 19 40  1  0  0  0  0
 19 41  1  0  0  0  0
 20 21  1  0  0  0  0
 20 42  1  0  0  0  0
 20 43  1  0  0  0  0
 21 44  1  0  0  0  0
 21 45  1  0  0  0  0
M  CHG  1  16   1
M  END
> <s_m_source_file>
AV-unprocessed.smi

> <i_m_source_file_index>
1229

> <i_lp_mmshare_version>
43012

> <i_f3d_flags>
0

> <s_epik_input>
W0NIM11jMVtjSF1bY0hdW2NIXW5jMVtOSF1DKD1PKVtOSF1bQ0gyXVtDQEhdKFtPSF0pW0NIMl1OMltDSDJdW0NIMl1bQ0gyXVtDSDJdW0NIMl0y

> <s_epik_cmdline>
J2VwaWtfcHl0aG9uJywgJy1waCcsICc3LjAnLCAnLXRuJywgJzgnLCAnLW1hJywgJzIwMCcsICctbWV0YWxfYmluZGluZycsICctaW1hZScsICc8aW5maWxlLm1hZT4nLCAnLW9tYWUnLCAnPG91dGZpbGUubWFlPic=

> <r_epik_Ionization_Penalty>
0.00511007

> <r_epik_Ionization_Penalty_Charging>
0.00506051

> <r_epik_Ionization_Penalty_Neutral>
4.95577e-05

> <r_epik_State_Penalty>
0.00368188

> <r_epik_Charging_Adjusted_Penalty>
0.0087424

> <i_epik_Tot_Q>
1

> <i_epik_Tot_abs_Q>
1

> <r_epik_Metal_State_Penalty>
-0

> <b_epik_Metal_Only>
0

> <s_lp_Force_Field>
OPLS_2005

> <r_lp_Energy>
20.718

> <b_lp_Chiralities_Consistent>
1

> <s_lp_Variant>
AV-unprocessed.smi:1229-2

> <Gold.Version>
5.8.1

> <Gold.Id.Protein>
6NUR|6NUR_protein|mol2

> <Gold.PLP.Fitness>
51.0794

> <Gold.PLP.PLP>
-38.6572

> <Gold.PLP.part.hbond>
-4.4018

> <Gold.PLP.part.metal>
0.0000

> <Gold.PLP.part.buried>
-3.6686

> <Gold.PLP.part.nonpolar>
-31.0245

> <Gold.PLP.part.repulsive>
0.4129

> <Gold.PLP.ligand.clash>
0.0000

> <Gold.PLP.ligand.torsion>
1.0906

> <Gold.PLP.Chemscore.Hbond>
3.7040

> <Gold.PLP.Chemscore.CHOScore>
1.1384

> <Gold.PLP.Chemscore.Metal>
0.0000

> <Gold.Chemscore.Hbonds>
donor molecule, donor type, donor heavy atom, donor atom, acceptor molecule, acceptor atom, score
      L1  H    14    33       P1  7948  0.90
      L1  H    16    46       P1  7948  2.00
      P1  H  7989  7998       L1    10  0.73
      L1  C     5    27       P1  8028  0.72
      L1  C     5    27       P1  8029  0.37

> <Gold.PLP.Chemscore.Internal.Correction>
0.0762

> <Gold.Rescore>
     Score         DG    S(hbond)    S(metal)    S(lipo)     H(rot)  DE(clash)    DE(int)     intcor
     15.88     -18.31       2.51        0.00      88.65       2.31       0.21       2.22       ----

> <Gold.Chemscore.Fitness>
15.8803

> <Gold.Chemscore.DG>
-18.3092

> <Gold.Chemscore.ZeroCoef>
-5.4800

> <Gold.Chemscore.Hbond>
2.5060

> <Gold.Chemscore.Metal>
0.0000

> <Gold.Chemscore.Lipo>
88.6453

> <Gold.Chemscore.Internal_Hbond>
0.0000

> <Gold.Chemscore.DEClash>
0.2052

> <Gold.Chemscore.DEInternal>
2.2237

> <Gold.Chemscore.Rot>
2.3095

> <Gold.Chemscore.Internal.Correction>
   9.000000E+99

> <Gold.Chemscore.Hbonds>
donor molecule, donor type, donor heavy atom, donor atom, acceptor molecule, acceptor atom, score
      L1  H    14    33       P1  7948  0.83
      L1  H    16    46       P1  7948  0.94
      P1  H  7989  7998       L1    10  0.67

> <Gold.Chemscore.Hbond.Weighted>
-8.3702

> <Gold.Chemscore.Metal.Weighted>
-0.0000

> <Gold.Chemscore.Lipo.Weighted>
-10.3715

> <Gold.Chemscore.Internal_Hbond.Weighted>
0.0000

> <Gold.Chemscore.DEClash.Weighted>
0.2052

> <Gold.Chemscore.DEInternal.Weighted>
2.2237

> <Gold.Chemscore.Rot.Weighted>
5.9124

> <Gold.Chemscore.Internal.Correction.Weighted>
   9.000000E+99

> <Gold.Protein.RotatedTorsions>
[ 6907 6896 6895 6894 ] final   61.36 input  -60.11 | X-H torsion
[ 7974 7965 7964 7962 ] final -176.73 input  175.53 | X-H torsion
[ 8008 7997 7996 7995 ] final  -23.46 input   59.86 | X-H torsion
[ 10167 10162 10161 10158 ] final -165.77 input  -65.29 | X-H torsion
[ 10718 10713 10712 10709 ] final  -36.47 input   66.30 | X-H torsion
[ 10763 10752 10751 10750 ] final   -0.66 input  -60.55 | X-H torsion
[ 11005 11000 10999 10996 ] final  -45.75 input  -57.11 | X-H torsion

> <Gold.Protein.ActiveResidues>
 VAL166  LYS551  ARG553  GLY616  TRP617  ASP618  TYR619  PRO620  LYS621  CYS622 
 ASP623  PHE694  ASN695  SER759  ASP760  ASP761  ALA762  ILE779  LEU786  VAL792 
 PHE793  MET794  SER795  GLU796  ALA797  LYS798  CYS799  TRP800  GLU811  SER814 

> <Gold.Protein.RotatedAtoms>
  152.4082  134.6170  160.0040 H   0  0  0  0  0  0  0  0  0  0  0  0  # atno 6907 bound_to 6896
  151.6355  133.3323  159.3126 H   0  0  0  0  0  0  0  0  0  0  0  0  # atno 6908 bound_to 6896
  150.7975  134.7086  159.6635 H   0  0  0  0  0  0  0  0  0  0  0  0  # atno 6909 bound_to 6896
  144.7127  140.1126  143.6410 H   0  0  0  0  0  0  0  0  0  0  0  0  # atno 7974 bound_to 7965
  154.4584  140.1980  156.0314 H   0  0  0  0  0  0  0  0  0  0  0  0  # atno 8008 bound_to 7997
  156.0792  140.3274  155.7644 H   0  0  0  0  0  0  0  0  0  0  0  0  # atno 8009 bound_to 7997
  155.5139  140.0564  157.2909 H   0  0  0  0  0  0  0  0  0  0  0  0  # atno 8010 bound_to 7997
  139.6159  144.0720  152.1887 H   0  0  0  0  0  0  0  0  0  0  0  0  # atno 10167 bound_to 10162
  156.3265  130.4273  149.7911 H   0  0  0  0  0  0  0  0  0  0  0  0  # atno 10718 bound_to 10713
  153.3347  135.6977  153.6918 H   0  0  0  0  0  0  0  0  0  0  0  0  # atno 10763 bound_to 10752
  153.5706  135.3517  155.2837 H   0  0  0  0  0  0  0  0  0  0  0  0  # atno 10764 bound_to 10752
  154.8625  135.4271  154.2545 H   0  0  0  0  0  0  0  0  0  0  0  0  # atno 10765 bound_to 10752
  141.0535  133.6734  156.3057 H   0  0  0  0  0  0  0  0  0  0  0  0  # atno 11005 bound_to 11000
  145.9441  139.2689  143.1251 LP  0  0  0  0  0  0  0  0  0  0  0  0  # atno 17320 bound_to 7965
  145.9392  140.8992  143.0316 LP  0  0  0  0  0  0  0  0  0  0  0  0  # atno 17321 bound_to 7965
  140.0350  144.6051  150.7457 LP  0  0  0  0  0  0  0  0  0  0  0  0  # atno 17342 bound_to 10162
  140.7351  143.2736  151.3810 LP  0  0  0  0  0  0  0  0  0  0  0  0  # atno 17343 bound_to 10162
  156.5200  130.8210  151.3200 LP  0  0  0  0  0  0  0  0  0  0  0  0  # atno 17370 bound_to 10713
  157.7422  130.9886  150.2501 LP  0  0  0  0  0  0  0  0  0  0  0  0  # atno 17371 bound_to 10713
  140.6009  134.5556  157.5517 LP  0  0  0  0  0  0  0  0  0  0  0  0  # atno 17394 bound_to 11000
  139.9370  134.7856  156.0776 LP  0  0  0  0  0  0  0  0  0  0  0  0  # atno 17395 bound_to 11000

$$$$
