#       Name:                AV-unprocessed.smi:283
#       Creating user name   scv26
#       Creation time:       Thu Mar 26 21:49:49 2020


#       File generated by GOLD software.
#

@<TRIPOS>MOLECULE
AV-unprocessed.smi:283
    59    62     1
SMALL
NO_CHARGES


@<TRIPOS>ATOM
      1 ****        -5.4024  -0.2558  -0.7553 C.3            1 S1                 0.0000
      2 ****        -3.8923  -0.3582  -0.5019 C.3            1 S1                 0.0000
      3 ****        -3.2484   0.9074  -0.8473 N.pl3          1 S1                 0.0000
      4 ****        -1.9107   1.0668  -0.7366 C.ar           1 S1                 0.0000
      5 ****        -1.4882   2.3422  -0.5686 N.ar           1 S1                 0.0000
      6 ****        -0.1862   2.6045  -0.4294 C.ar           1 S1                 0.0000
      7 ****         0.8398   1.7528  -0.4314 N.ar           1 S1                 0.0000
      8 ****         0.4274   0.4652  -0.6144 C.ar           1 S1                 0.0000
      9 ****        -0.9222   0.0390  -0.7809 C.ar           1 S1                 0.0000
     10 ****        -0.9473  -1.3389  -0.9615 N.2            1 S1                 0.0000
     11 ****         0.3035  -1.7004  -0.8882 C.2            1 S1                 0.0000
     12 ****         1.2008  -0.6782  -0.6822 N.pl3          1 S1                 0.0000
     13 ****         2.6907  -0.7962  -0.5576 C.3            1 S1                 0.0000
     14 ****         3.1499   0.1033   0.4089 O.3            1 S1                 0.0000
     15 ****         4.1065   0.9988  -0.1555 C.3            1 S1                 0.0000
     16 ****         5.1311   1.3846   0.9232 C.3            1 S1                 0.0000
     17 ****         5.9582   2.4364   0.4733 O.3            1 S1                 0.0000
     18 ****         4.6749   0.2140  -1.3413 C.3            1 S1                 0.0000
     19 ****         5.2961   1.0259  -2.3194 O.3            1 S1                 0.0000
     20 ****         3.4413  -0.5032  -1.8711 C.3            1 S1                 0.0000
     21 ****         2.6989   0.2883  -2.7868 O.3            1 S1                 0.0000
     22 ****        -3.6246  -0.8449   0.9255 C.ar           1 S1                 0.0000
     23 ****        -3.5244   0.0898   1.9827 C.ar           1 S1                 0.0000
     24 ****        -3.2737  -0.3386   3.2996 C.ar           1 S1                 0.0000
     25 ****        -3.1282  -1.7095   3.5767 C.ar           1 S1                 0.0000
     26 ****        -3.2415  -2.6499   2.5363 C.ar           1 S1                 0.0000
     27 ****        -3.4936  -2.2267   1.2158 C.ar           1 S1                 0.0000
     28 ****        -3.6395  -3.4290  -0.0186 Cl             1 S1                 0.0000
     29 ****         2.8576  -1.8117  -0.1960 H              1 S1                 0.0000
     30 ****         3.5731   1.8833  -0.5076 H              1 S1                 0.0000
     31 ****         5.3943  -0.5240  -0.9828 H              1 S1                 0.0000
     32 ****         3.6984  -1.4423  -2.3619 H              1 S1                 0.0000
     33 ****        -5.8939  -1.2148  -0.5883 H              1 S1                 0.0000
     34 ****        -5.6097   0.0434  -1.7831 H              1 S1                 0.0000
     35 ****        -5.8678   0.4761  -0.0943 H              1 S1                 0.0000
     36 ****        -3.5063  -1.0931  -1.2061 H              1 S1                 0.0000
     37 ****        -3.8746   1.6983  -0.8900 H              1 S1                 0.0000
     38 ****         0.0706   3.6449  -0.2950 H              1 S1                 0.0000
     39 ****         0.6077  -2.7323  -0.9861 H              1 S1                 0.0000
     40 ****         4.6144   1.7239   1.8214 H              1 S1                 0.0000
     41 ****         5.7438   0.5290   1.2085 H              1 S1                 0.0000
     42 ****         6.5638   2.6593   1.1636 H              1 S1                 0.0000
     43 ****         4.6521   1.6336  -2.6505 H              1 S1                 0.0000
     44 ****         1.8835  -0.1526  -2.9705 H              1 S1                 0.0000
     45 ****        -3.6364   1.1465   1.7891 H              1 S1                 0.0000
     46 ****        -3.1934   0.3857   4.0969 H              1 S1                 0.0000
     47 ****        -2.9350  -2.0404   4.5865 H              1 S1                 0.0000
     48 ****        -3.1364  -3.7026   2.7541 H              1 S1                 0.0000
     49 ****        -2.1526   3.0893  -0.5488 LP             1 S1                 0.0000
     50 ****         1.7948   2.0246  -0.3132 LP             1 S1                 0.0000
     51 ****        -1.7453  -1.9221  -1.1135 LP             1 S1                 0.0000
     52 ****         3.5769  -0.4061   1.1559 LP             1 S1                 0.0000
     53 ****         2.3763   0.6288   0.7632 LP             1 S1                 0.0000
     54 ****         5.3974   3.2328   0.2467 LP             1 S1                 0.0000
     55 ****         6.4645   2.1436  -0.3378 LP             1 S1                 0.0000
     56 ****         5.6383   0.4551  -3.0658 LP             1 S1                 0.0000
     57 ****         6.0566   1.5288  -1.9088 LP             1 S1                 0.0000
     58 ****         3.2190   0.4025  -3.6333 LP             1 S1                 0.0000
     59 ****         2.5145   1.1854  -2.3853 LP             1 S1                 0.0000
@<TRIPOS>BOND
    1    1    2 1     
    2    1   33 1     
    3    1   34 1     
    4    1   35 1     
    5    2    3 1     
    6    2   22 1     
    7    2   36 1     
    8    3    4 1     
    9    3   37 1     
   10    4    9 ar    
   11    4    5 ar    
   12    5    6 ar    
   13    6    7 ar    
   14    6   38 1     
   15    7    8 ar    
   16    8   12 1     
   17    8    9 ar    
   18    9   10 1     
   19   10   11 2     
   20   11   12 1     
   21   11   39 1     
   22   12   13 1     
   23   13   29 1     
   24   13   20 1     
   25   13   14 1     
   26   14   15 1     
   27   15   30 1     
   28   15   16 1     
   29   15   18 1     
   30   16   17 1     
   31   16   40 1     
   32   16   41 1     
   33   17   42 1     
   34   18   31 1     
   35   18   19 1     
   36   18   20 1     
   37   19   43 1     
   38   20   32 1     
   39   20   21 1     
   40   21   44 1     
   41   22   27 ar    
   42   22   23 ar    
   43   23   24 ar    
   44   23   45 1     
   45   24   25 ar    
   46   24   46 1     
   47   25   26 ar    
   48   25   47 1     
   49   26   27 ar    
   50   26   48 1     
   51   27   28 1     
   52    5   49 1     
   53    7   50 1     
   54   10   51 1     
   55   14   52 1     
   56   14   53 1     
   57   17   54 1     
   58   17   55 1     
   59   19   56 1     
   60   19   57 1     
   61   21   58 1     
   62   21   59 1     
@<TRIPOS>SUBSTRUCTURE
      1 S1             1
@<TRIPOS>SET
LONE_PAIRS      STATIC     ATOMS    <user>   **** ""
11 49 50 51 52 53 54 55 56 57 58 59
DONOR_HYDROGENS      STATIC     ATOMS    <user>   **** ""
4 37 42 43 44
ATOM$BLUE        STATIC     ATOMS    COLORGROUP SYSTEM
11 49 50 51 52 53 54 55 56 57 58 59
ATOM$RED        STATIC     ATOMS    COLORGROUP SYSTEM
4 37 42 43 44
