AV-unprocessed.smi:2446|AV-procd|sdf|9643|dock2
  -GOLD-   2272013273D 1   1.00000     0.00000
 Structure written by MMmdl.
 39 40  0  0  0  0  0  0  0  0  1 V2000
  146.7360  142.7464  153.9537 C   0  0  0  0  0  0  0  0  0  0  0  0
  147.3347  141.3503  153.9265 C   0  0  0  0  0  0  0  0  0  0  0  0
  146.8305  140.3854  153.0283 C   0  0  0  0  0  0  0  0  0  0  0  0
  147.3077  139.1268  152.9399 N   0  0  0  0  0  0  0  0  0  0  0  0
  148.3260  138.7821  153.7542 C   0  0  0  0  0  0  0  0  0  0  0  0
  148.9051  139.6633  154.6878 C   0  0  0  0  0  0  0  0  0  0  0  0
  148.3935  140.9796  154.7908 C   0  0  0  0  0  0  0  0  0  0  0  0
  148.9125  141.9570  155.6853 N   0  0  0  0  0  0  0  0  0  0  0  0
  149.4817  141.7933  156.8960 C   0  0  0  0  0  0  0  0  0  0  0  0
  149.6771  140.7093  157.4410 O   0  0  0  0  0  0  0  0  0  0  0  0
  149.8210  142.9458  157.5033 N   0  0  0  0  0  0  0  0  0  0  0  0
  150.4522  143.1344  158.8119 C   0  0  2  0  0  0  0  0  0  0  0  0
  150.9305  144.5912  158.9450 C   0  0  0  0  0  0  0  0  0  0  0  0
  151.6530  144.8214  160.2810 C   0  0  0  0  0  0  0  0  0  0  0  0
  152.8227  143.8406  160.4598 C   0  0  0  0  0  0  0  0  0  0  0  0
  152.3573  142.3741  160.3405 C   0  0  2  0  0  0  0  0  0  0  0  0
  153.5185  141.3782  160.5382 C   0  0  0  0  0  0  0  0  0  0  0  0
  153.9441  141.3896  161.8019 F   0  0  0  0  0  0  0  0  0  0  0  0
  153.1195  140.1445  160.2287 F   0  0  0  0  0  0  0  0  0  0  0  0
  154.5353  141.6994  159.7379 F   0  0  0  0  0  0  0  0  0  0  0  0
  151.6334  142.1572  158.9948 C   0  0  0  0  0  0  0  0  0  0  0  0
  145.9484  142.8543  153.2074 H   0  0  0  0  0  0  0  0  0  0  0  0
  147.5018  143.4943  153.7458 H   0  0  0  0  0  0  0  0  0  0  0  0
  146.3040  142.9563  154.9325 H   0  0  0  0  0  0  0  0  0  0  0  0
  146.0200  140.6289  152.3570 H   0  0  0  0  0  0  0  0  0  0  0  0
  148.6966  137.7724  153.6551 H   0  0  0  0  0  0  0  0  0  0  0  0
  149.7299  139.3157  155.2899 H   0  0  0  0  0  0  0  0  0  0  0  0
  148.7624  142.9143  155.4032 H   0  0  0  0  0  0  0  0  0  0  0  0
  149.6206  143.7930  156.9916 H   0  0  0  0  0  0  0  0  0  0  0  0
  149.7170  142.9574  159.5991 H   0  0  0  0  0  0  0  0  0  0  0  0
  151.6039  144.8386  158.1230 H   0  0  0  0  0  0  0  0  0  0  0  0
  150.0820  145.2721  158.8656 H   0  0  0  0  0  0  0  0  0  0  0  0
  152.0182  145.8475  160.3327 H   0  0  0  0  0  0  0  0  0  0  0  0
  150.9471  144.7029  161.1038 H   0  0  0  0  0  0  0  0  0  0  0  0
  153.5876  144.0485  159.7107 H   0  0  0  0  0  0  0  0  0  0  0  0
  153.2891  144.0091  161.4307 H   0  0  0  0  0  0  0  0  0  0  0  0
  151.6345  142.1905  161.1374 H   0  0  0  0  0  0  0  0  0  0  0  0
  151.2768  141.1290  158.9347 H   0  0  0  0  0  0  0  0  0  0  0  0
  152.3415  142.2813  158.1743 H   0  0  0  0  0  0  0  0  0  0  0  0
  1  2  1  0  0  0  0
  1 22  1  0  0  0  0
  1 23  1  0  0  0  0
  1 24  1  0  0  0  0
  2  7  1  0  0  0  0
  2  3  2  0  0  0  0
  3  4  1  0  0  0  0
  3 25  1  0  0  0  0
  4  5  2  0  0  0  0
  5  6  1  0  0  0  0
  5 26  1  0  0  0  0
  6  7  2  0  0  0  0
  6 27  1  0  0  0  0
  7  8  1  0  0  0  0
  8  9  1  0  0  0  0
  8 28  1  0  0  0  0
  9 10  2  0  0  0  0
  9 11  1  0  0  0  0
 11 12  1  0  0  0  0
 11 29  1  0  0  0  0
 12 21  1  0  0  0  0
 12 13  1  0  0  0  0
 12 30  1  0  0  0  0
 13 14  1  0  0  0  0
 13 31  1  0  0  0  0
 13 32  1  0  0  0  0
 14 15  1  0  0  0  0
 14 33  1  0  0  0  0
 14 34  1  0  0  0  0
 15 16  1  0  0  0  0
 15 35  1  0  0  0  0
 15 36  1  0  0  0  0
 16 17  1  0  0  0  0
 16 21  1  0  0  0  0
 16 37  1  0  0  0  0
 17 18  1  0  0  0  0
 17 19  1  0  0  0  0
 17 20  1  0  0  0  0
 21 38  1  0  0  0  0
 21 39  1  0  0  0  0
M  END
> <s_m_source_file>
AV-unprocessed.smi

> <i_m_source_file_index>
2446

> <i_lp_mmshare_version>
43012

> <i_f3d_flags>
0

> <s_epik_input>
W0NIM11jMVtjSF1uW2NIXVtjSF1jMVtOSF1DKD1PKVtOSF1bQ0BASF0yW0NIMl1bQ0gyXVtDSDJdW0NAQEhdKEMoRikoRilGKVtDSDJdMg==

> <s_epik_cmdline>
J2VwaWtfcHl0aG9uJywgJy1waCcsICc3LjAnLCAnLXRuJywgJzgnLCAnLW1hJywgJzIwMCcsICctbWV0YWxfYmluZGluZycsICctaW1hZScsICc8aW5maWxlLm1hZT4nLCAnLW9tYWUnLCAnPG91dGZpbGUubWFlPic=

> <r_epik_Ionization_Penalty>
0.20168

> <r_epik_Ionization_Penalty_Charging>
0

> <r_epik_Ionization_Penalty_Neutral>
0.20168

> <r_epik_State_Penalty>
0.191514

> <r_epik_Charging_Adjusted_Penalty>
0.191514

> <i_epik_Tot_Q>
0

> <i_epik_Tot_abs_Q>
0

> <r_epik_Metal_State_Penalty>
0.142371

> <b_epik_Metal_Only>
0

> <s_lp_Force_Field>
OPLS_2005

> <r_lp_Energy>
26.2068

> <b_lp_Chiralities_Consistent>
1

> <s_lp_Variant>
AV-unprocessed.smi:2446-3

> <Gold.Version>
5.8.1

> <Gold.Id.Protein>
6NUR|6NUR_protein|mol2

> <Gold.PLP.Fitness>
53.0228

> <Gold.PLP.PLP>
-42.0814

> <Gold.PLP.part.hbond>
-2.0000

> <Gold.PLP.part.metal>
0.0000

> <Gold.PLP.part.buried>
-5.3107

> <Gold.PLP.part.nonpolar>
-36.4320

> <Gold.PLP.part.repulsive>
1.1342

> <Gold.PLP.ligand.clash>
0.0000

> <Gold.PLP.ligand.torsion>
0.5389

> <Gold.PLP.Chemscore.Hbond>
2.0000

> <Gold.PLP.Chemscore.CHOScore>
1.9997

> <Gold.PLP.Chemscore.Metal>
0.0000

> <Gold.Chemscore.Hbonds>
donor molecule, donor type, donor heavy atom, donor atom, acceptor molecule, acceptor atom, score
      L1  H     8    28       P1  8028  1.00
      L1  H    11    29       P1  8028  1.00
      L1  C     3    25       P1 10175  1.00
      L1  C     5    26       P1  7948  1.00

> <Gold.PLP.Chemscore.Internal.Correction>
0.0204

> <Gold.Rescore>
     Score         DG    S(hbond)    S(metal)    S(lipo)     H(rot)  DE(clash)    DE(int)     intcor
     19.14     -21.93       1.86        0.00     109.21       1.00       0.14       2.65       ----

> <Gold.Chemscore.Fitness>
19.1413

> <Gold.Chemscore.DG>
-21.9259

> <Gold.Chemscore.ZeroCoef>
-5.4800

> <Gold.Chemscore.Hbond>
1.8647

> <Gold.Chemscore.Metal>
0.0000

> <Gold.Chemscore.Lipo>
109.2132

> <Gold.Chemscore.Internal_Hbond>
0.0000

> <Gold.Chemscore.DEClash>
0.1374

> <Gold.Chemscore.DEInternal>
2.6472

> <Gold.Chemscore.Rot>
1.0000

> <Gold.Chemscore.Internal.Correction>
   9.000000E+99

> <Gold.Chemscore.Hbonds>
donor molecule, donor type, donor heavy atom, donor atom, acceptor molecule, acceptor atom, score
      L1  H     8    28       P1  8028  0.98
      L1  H    11    29       P1  8028  0.89

> <Gold.Chemscore.Hbond.Weighted>
-6.2280

> <Gold.Chemscore.Metal.Weighted>
-0.0000

> <Gold.Chemscore.Lipo.Weighted>
-12.7779

> <Gold.Chemscore.Internal_Hbond.Weighted>
0.0000

> <Gold.Chemscore.DEClash.Weighted>
0.1374

> <Gold.Chemscore.DEInternal.Weighted>
2.6472

> <Gold.Chemscore.Rot.Weighted>
2.5600

> <Gold.Chemscore.Internal.Correction.Weighted>
   9.000000E+99

> <Gold.Protein.RotatedTorsions>
[ 6907 6896 6895 6894 ] final  -90.69 input  -60.11 | X-H torsion
[ 7974 7965 7964 7962 ] final    6.62 input  175.53 | X-H torsion
[ 8008 7997 7996 7995 ] final -109.05 input   59.86 | X-H torsion
[ 10167 10162 10161 10158 ] final -123.88 input  -65.29 | X-H torsion
[ 10718 10713 10712 10709 ] final   85.95 input   66.30 | X-H torsion
[ 10763 10752 10751 10750 ] final  -20.56 input  -60.55 | X-H torsion
[ 11005 11000 10999 10996 ] final -100.97 input  -57.11 | X-H torsion

> <Gold.Protein.ActiveResidues>
 VAL166  LYS551  ARG553  GLY616  TRP617  ASP618  TYR619  PRO620  LYS621  CYS622 
 ASP623  PHE694  ASN695  SER759  ASP760  ASP761  ALA762  ILE779  LEU786  VAL792 
 PHE793  MET794  SER795  GLU796  ALA797  LYS798  CYS799  TRP800  GLU811  SER814 

> <Gold.Protein.RotatedAtoms>
  150.6884  134.2393  159.4465 H   0  0  0  0  0  0  0  0  0  0  0  0  # atno 6907 bound_to 6896
  152.0338  134.9749  160.0582 H   0  0  0  0  0  0  0  0  0  0  0  0  # atno 6908 bound_to 6896
  152.1278  133.4355  159.4743 H   0  0  0  0  0  0  0  0  0  0  0  0  # atno 6909 bound_to 6896
  146.2433  140.0206  142.8398 H   0  0  0  0  0  0  0  0  0  0  0  0  # atno 7974 bound_to 7965
  154.9535  140.0400  157.2156 H   0  0  0  0  0  0  0  0  0  0  0  0  # atno 8008 bound_to 7997
  154.7956  140.2843  155.5937 H   0  0  0  0  0  0  0  0  0  0  0  0  # atno 8009 bound_to 7997
  156.2955  140.2565  156.2813 H   0  0  0  0  0  0  0  0  0  0  0  0  # atno 8010 bound_to 7997
  139.9987  143.5563  152.2312 H   0  0  0  0  0  0  0  0  0  0  0  0  # atno 10167 bound_to 10162
  157.6922  131.0195  150.2899 H   0  0  0  0  0  0  0  0  0  0  0  0  # atno 10718 bound_to 10713
  153.6224  135.6992  153.5306 H   0  0  0  0  0  0  0  0  0  0  0  0  # atno 10763 bound_to 10752
  153.2927  135.4152  155.1181 H   0  0  0  0  0  0  0  0  0  0  0  0  # atno 10764 bound_to 10752
  154.8540  135.3629  154.5765 H   0  0  0  0  0  0  0  0  0  0  0  0  # atno 10765 bound_to 10752
  141.1250  133.8441  157.1171 H   0  0  0  0  0  0  0  0  0  0  0  0  # atno 11005 bound_to 11000
  145.1245  140.9482  143.4581 LP  0  0  0  0  0  0  0  0  0  0  0  0  # atno 17320 bound_to 7965
  145.0448  139.3230  143.5958 LP  0  0  0  0  0  0  0  0  0  0  0  0  # atno 17321 bound_to 7965
  139.6287  144.7641  151.2582 LP  0  0  0  0  0  0  0  0  0  0  0  0  # atno 17342 bound_to 10162
  140.7427  143.6518  150.8242 LP  0  0  0  0  0  0  0  0  0  0  0  0  # atno 17343 bound_to 10162
  156.3432  130.3819  149.7391 LP  0  0  0  0  0  0  0  0  0  0  0  0  # atno 17370 bound_to 10713
  156.4894  130.8078  151.3088 LP  0  0  0  0  0  0  0  0  0  0  0  0  # atno 17371 bound_to 10713
  140.0240  134.9933  157.0648 LP  0  0  0  0  0  0  0  0  0  0  0  0  # atno 17394 bound_to 11000
  140.4394  134.1697  155.7173 LP  0  0  0  0  0  0  0  0  0  0  0  0  # atno 17395 bound_to 11000

$$$$
