AV-unprocessed.smi:920|AV-procd|sdf|4168|dock3
  -GOLD-   22720 2 73D 1   1.00000     0.00000
 Structure written by MMmdl.
 37 38  0  0  0  0  0  0  0  0  1 V2000
  146.4902  138.7248  151.8200 C   0  0  0  0  0  0  0  0  0  0  0  0
  147.6287  138.3863  152.6046 O   0  0  0  0  0  0  0  0  0  0  0  0
  148.1506  139.3449  153.4487 C   0  0  0  0  0  0  0  0  0  0  0  0
  149.2964  139.0266  154.2047 C   0  0  0  0  0  0  0  0  0  0  0  0
  149.8340  139.9986  155.0700 C   0  0  0  0  0  0  0  0  0  0  0  0
  149.1997  141.2605  155.1583 C   0  0  0  0  0  0  0  0  0  0  0  0
  149.6571  142.3284  155.9764 N   0  0  0  0  0  0  0  0  0  0  0  0
  150.5951  142.3001  156.9385 C   0  0  0  0  0  0  0  0  0  0  0  0
  151.2031  141.2952  157.3068 O   0  0  0  0  0  0  0  0  0  0  0  0
  150.7746  143.5176  157.4710 N   0  0  0  0  0  0  0  0  0  0  0  0
  151.7033  143.8545  158.5470 C   0  0  0  0  0  0  0  0  0  0  0  0
  151.7153  142.7277  159.5978 C   0  0  0  0  0  0  0  0  0  0  0  0
  152.6106  143.0837  160.7959 C   0  0  0  0  0  0  0  0  0  0  0  0
  152.1944  144.4223  161.4259 C   0  0  0  0  0  0  0  0  0  0  0  0
  152.1929  145.5488  160.3807 C   0  0  0  0  0  0  0  0  0  0  0  0
  151.2953  145.1972  159.1831 C   0  0  0  0  0  0  0  0  0  0  0  0
  148.0670  141.4842  154.3489 C   0  0  0  0  0  0  0  0  0  0  0  0
  147.5471  140.5572  153.5174 N   0  0  0  0  0  0  0  0  0  0  0  0
  146.2007  137.8659  151.2149 H   0  0  0  0  0  0  0  0  0  0  0  0
  146.7066  139.5506  151.1405 H   0  0  0  0  0  0  0  0  0  0  0  0
  145.6374  138.9905  152.4462 H   0  0  0  0  0  0  0  0  0  0  0  0
  149.7588  138.0543  154.1189 H   0  0  0  0  0  0  0  0  0  0  0  0
  150.7239  139.7633  155.6327 H   0  0  0  0  0  0  0  0  0  0  0  0
  149.1773  143.2074  155.8490 H   0  0  0  0  0  0  0  0  0  0  0  0
  150.2213  144.2774  157.1027 H   0  0  0  0  0  0  0  0  0  0  0  0
  152.7159  143.9634  158.1542 H   0  0  0  0  0  0  0  0  0  0  0  0
  150.7002  142.5398  159.9510 H   0  0  0  0  0  0  0  0  0  0  0  0
  152.0619  141.7983  159.1444 H   0  0  0  0  0  0  0  0  0  0  0  0
  152.5646  142.2909  161.5432 H   0  0  0  0  0  0  0  0  0  0  0  0
  153.6499  143.1414  160.4701 H   0  0  0  0  0  0  0  0  0  0  0  0
  151.1998  144.3277  161.8638 H   0  0  0  0  0  0  0  0  0  0  0  0
  152.8698  144.6746  162.2438 H   0  0  0  0  0  0  0  0  0  0  0  0
  151.8560  146.4797  160.8374 H   0  0  0  0  0  0  0  0  0  0  0  0
  153.2117  145.7261  160.0335 H   0  0  0  0  0  0  0  0  0  0  0  0
  151.3474  145.9935  158.4396 H   0  0  0  0  0  0  0  0  0  0  0  0
  150.2565  145.1504  159.5136 H   0  0  0  0  0  0  0  0  0  0  0  0
  147.5569  142.4362  154.3710 H   0  0  0  0  0  0  0  0  0  0  0  0
  1  2  1  0  0  0  0
  1 19  1  0  0  0  0
  1 20  1  0  0  0  0
  1 21  1  0  0  0  0
  2  3  1  0  0  0  0
  3 18  1  0  0  0  0
  3  4  2  0  0  0  0
  4  5  1  0  0  0  0
  4 22  1  0  0  0  0
  5  6  2  0  0  0  0
  5 23  1  0  0  0  0
  6  7  1  0  0  0  0
  6 17  1  0  0  0  0
  7  8  1  0  0  0  0
  7 24  1  0  0  0  0
  8  9  2  0  0  0  0
  8 10  1  0  0  0  0
 10 11  1  0  0  0  0
 10 25  1  0  0  0  0
 11 16  1  0  0  0  0
 11 12  1  0  0  0  0
 11 26  1  0  0  0  0
 12 13  1  0  0  0  0
 12 27  1  0  0  0  0
 12 28  1  0  0  0  0
 13 14  1  0  0  0  0
 13 29  1  0  0  0  0
 13 30  1  0  0  0  0
 14 15  1  0  0  0  0
 14 31  1  0  0  0  0
 14 32  1  0  0  0  0
 15 16  1  0  0  0  0
 15 33  1  0  0  0  0
 15 34  1  0  0  0  0
 16 35  1  0  0  0  0
 16 36  1  0  0  0  0
 17 18  2  0  0  0  0
 17 37  1  0  0  0  0
M  END
> <s_m_source_file>
AV-unprocessed.smi

> <i_m_source_file_index>
920

> <i_lp_mmshare_version>
43012

> <i_f3d_flags>
0

> <s_epik_input>
W0NIM11PYzFbY0hdW2NIXWMoW2NIXW4xKVtOSF1DKD1PKVtOSF1bQ0hdMltDSDJdW0NIMl1bQ0gyXVtDSDJdW0NIMl0y

> <s_epik_cmdline>
J2VwaWtfcHl0aG9uJywgJy1waCcsICc3LjAnLCAnLXRuJywgJzgnLCAnLW1hJywgJzIwMCcsICctbWV0YWxfYmluZGluZycsICctaW1hZScsICc8aW5maWxlLm1hZT4nLCAnLW9tYWUnLCAnPG91dGZpbGUubWFlPic=

> <r_lp_tautomer_probability>
1

> <r_epik_Ionization_Penalty>
9.99378e-05

> <r_epik_Ionization_Penalty_Charging>
0

> <r_epik_Ionization_Penalty_Neutral>
9.99378e-05

> <r_epik_State_Penalty>
-0

> <r_epik_Charging_Adjusted_Penalty>
0

> <i_epik_Tot_Q>
0

> <i_epik_Tot_abs_Q>
0

> <r_epik_Metal_State_Penalty>
-0

> <b_epik_Metal_Only>
0

> <s_lp_Force_Field>
OPLS_2005

> <r_lp_Energy>
12.0005

> <b_lp_Chiralities_Consistent>
1

> <s_lp_Variant>
AV-unprocessed.smi:920-1

> <Gold.Version>
5.8.1

> <Gold.Id.Protein>
6NUR|6NUR_protein|mol2

> <Gold.PLP.Fitness>
41.8152

> <Gold.PLP.PLP>
-36.6082

> <Gold.PLP.part.hbond>
-2.0000

> <Gold.PLP.part.metal>
0.0000

> <Gold.PLP.part.buried>
-3.4286

> <Gold.PLP.part.nonpolar>
-36.6830

> <Gold.PLP.part.repulsive>
5.2003

> <Gold.PLP.ligand.clash>
0.0000

> <Gold.PLP.ligand.torsion>
0.3017

> <Gold.PLP.Chemscore.Hbond>
1.8800

> <Gold.PLP.Chemscore.CHOScore>
0.0553

> <Gold.PLP.Chemscore.Metal>
0.0000

> <Gold.Chemscore.Hbonds>
donor molecule, donor type, donor heavy atom, donor atom, acceptor molecule, acceptor atom, score
      L1  H     7    24       P1  8028  1.00
      L1  H    10    25       P1  8028  0.88
      L1  C    17    37       P1  8028  0.05

> <Gold.PLP.Chemscore.Internal.Correction>
0.0047

> <Gold.Rescore>
     Score         DG    S(hbond)    S(metal)    S(lipo)     H(rot)  DE(clash)    DE(int)     intcor
     14.45     -21.33       1.90        0.00     108.01       1.23       3.80       3.08       ----

> <Gold.Chemscore.Fitness>
14.4523

> <Gold.Chemscore.DG>
-21.3254

> <Gold.Chemscore.ZeroCoef>
-5.4800

> <Gold.Chemscore.Hbond>
1.8995

> <Gold.Chemscore.Metal>
0.0000

> <Gold.Chemscore.Lipo>
108.0087

> <Gold.Chemscore.Internal_Hbond>
0.0000

> <Gold.Chemscore.DEClash>
3.7975

> <Gold.Chemscore.DEInternal>
3.0756

> <Gold.Chemscore.Rot>
1.2250

> <Gold.Chemscore.Internal.Correction>
   9.000000E+99

> <Gold.Chemscore.Hbonds>
donor molecule, donor type, donor heavy atom, donor atom, acceptor molecule, acceptor atom, score
      L1  H     7    24       P1  8028  0.95
      L1  H    10    25       P1  8028  0.69

> <Gold.Chemscore.Hbond.Weighted>
-6.3444

> <Gold.Chemscore.Metal.Weighted>
-0.0000

> <Gold.Chemscore.Lipo.Weighted>
-12.6370

> <Gold.Chemscore.Internal_Hbond.Weighted>
0.0000

> <Gold.Chemscore.DEClash.Weighted>
3.7975

> <Gold.Chemscore.DEInternal.Weighted>
3.0756

> <Gold.Chemscore.Rot.Weighted>
3.1360

> <Gold.Chemscore.Internal.Correction.Weighted>
   9.000000E+99

> <Gold.Protein.RotatedTorsions>
[ 6907 6896 6895 6894 ] final  -53.08 input  -60.11 | X-H torsion
[ 7974 7965 7964 7962 ] final  -51.70 input  175.53 | X-H torsion
[ 8008 7997 7996 7995 ] final  110.79 input   59.86 | X-H torsion
[ 10167 10162 10161 10158 ] final -134.31 input  -65.29 | X-H torsion
[ 10718 10713 10712 10709 ] final -166.24 input   66.30 | X-H torsion
[ 10763 10752 10751 10750 ] final -127.39 input  -60.55 | X-H torsion
[ 11005 11000 10999 10996 ] final -118.50 input  -57.11 | X-H torsion

> <Gold.Protein.ActiveResidues>
 VAL166  LYS551  ARG553  GLY616  TRP617  ASP618  TYR619  PRO620  LYS621  CYS622 
 ASP623  PHE694  ASN695  SER759  ASP760  ASP761  ALA762  ILE779  LEU786  VAL792 
 PHE793  MET794  SER795  GLU796  ALA797  LYS798  CYS799  TRP800  GLU811  SER814 

> <Gold.Protein.RotatedAtoms>
  150.8459  134.7767  159.6969 H   0  0  0  0  0  0  0  0  0  0  0  0  # atno 6907 bound_to 6896
  152.4536  134.5338  159.9828 H   0  0  0  0  0  0  0  0  0  0  0  0  # atno 6908 bound_to 6896
  151.5468  133.3386  159.2981 H   0  0  0  0  0  0  0  0  0  0  0  0  # atno 6909 bound_to 6896
  145.9161  140.7874  142.9671 H   0  0  0  0  0  0  0  0  0  0  0  0  # atno 7974 bound_to 7965
  156.2078  140.3032  155.9666 H   0  0  0  0  0  0  0  0  0  0  0  0  # atno 8008 bound_to 7997
  155.2798  140.0437  157.3031 H   0  0  0  0  0  0  0  0  0  0  0  0  # atno 8009 bound_to 7997
  154.5657  140.2333  155.8275 H   0  0  0  0  0  0  0  0  0  0  0  0  # atno 8010 bound_to 7997
  139.8893  143.6742  152.2615 H   0  0  0  0  0  0  0  0  0  0  0  0  # atno 10167 bound_to 10162
  156.6649  130.9061  151.3035 H   0  0  0  0  0  0  0  0  0  0  0  0  # atno 10718 bound_to 10713
  154.8752  135.3963  154.3586 H   0  0  0  0  0  0  0  0  0  0  0  0  # atno 10763 bound_to 10752
  153.4362  135.7026  153.6204 H   0  0  0  0  0  0  0  0  0  0  0  0  # atno 10764 bound_to 10752
  153.4804  135.3770  155.2408 H   0  0  0  0  0  0  0  0  0  0  0  0  # atno 10765 bound_to 10752
  141.0281  134.0023  157.3184 H   0  0  0  0  0  0  0  0  0  0  0  0  # atno 11005 bound_to 11000
  144.6748  140.1902  143.7397 LP  0  0  0  0  0  0  0  0  0  0  0  0  # atno 17320 bound_to 7965
  145.8610  139.2223  143.1717 LP  0  0  0  0  0  0  0  0  0  0  0  0  # atno 17321 bound_to 7965
  139.7124  144.7618  151.1090 LP  0  0  0  0  0  0  0  0  0  0  0  0  # atno 17342 bound_to 10162
  140.7729  143.5313  150.9420 LP  0  0  0  0  0  0  0  0  0  0  0  0  # atno 17343 bound_to 10162
  157.7097  130.9426  150.1047 LP  0  0  0  0  0  0  0  0  0  0  0  0  # atno 17370 bound_to 10713
  156.1982  130.3658  149.8822 LP  0  0  0  0  0  0  0  0  0  0  0  0  # atno 17371 bound_to 10713
  139.9189  135.0199  156.7990 LP  0  0  0  0  0  0  0  0  0  0  0  0  # atno 17394 bound_to 11000
  140.6455  133.9779  155.7729 LP  0  0  0  0  0  0  0  0  0  0  0  0  # atno 17395 bound_to 11000

$$$$
