AV-unprocessed.smi:221|AV-procd|sdf|1692|dock10
  -GOLD-   2262020143D 1   1.00000     0.00000
 Structure written by MMmdl.
 50 53  0  0  0  0  0  0  0  0  1 V2000
  141.8795  134.3084  153.9401 N   0  0  0  0  0  0  0  0  0  0  0  0
  142.1384  135.4111  153.2305 C   0  0  0  0  0  0  0  0  0  0  0  0
  141.5891  136.4826  153.4793 O   0  0  0  0  0  0  0  0  0  0  0  0
  143.1639  135.2999  152.0826 C   0  0  2  0  0  0  0  0  0  0  0  0
  143.7260  133.8931  151.8383 C   0  0  0  0  0  0  0  0  0  0  0  0
  144.9423  134.1579  150.9482 C   0  0  2  0  0  0  0  0  0  0  0  0
  145.9631  133.3705  151.2873 F   0  0  0  0  0  0  0  0  0  0  0  0
  145.2774  135.6465  151.1460 C   0  0  0  0  0  0  0  0  0  0  0  0
  144.3465  136.1703  152.1438 N   0  0  0  0  0  0  0  0  0  0  0  0
  144.9423  136.3944  153.3434 C   0  0  0  0  0  0  0  0  0  0  0  0
  144.6060  135.6627  154.4392 N   0  0  0  0  0  0  0  0  0  0  0  0
  145.2059  135.8968  155.6103 C   0  0  0  0  0  0  0  0  0  0  0  0
  146.1532  136.7925  155.8990 N   0  0  0  0  0  0  0  0  0  0  0  0
  146.4943  137.5225  154.7987 C   0  0  0  0  0  0  0  0  0  0  0  0
  145.9435  137.3885  153.4943 C   0  0  0  0  0  0  0  0  0  0  0  0
  146.5320  138.3021  152.6295 N   0  0  0  0  0  0  0  0  0  0  0  0
  147.3880  138.9402  153.3810 C   0  0  0  0  0  0  0  0  0  0  0  0
  147.4339  138.5318  154.6954 N   0  0  0  0  0  0  0  0  0  0  0  0
  148.2884  139.0617  155.7430 C   0  0  0  0  0  0  0  0  0  0  0  0
  149.7325  138.5025  155.6997 C   0  0  1  0  0  0  0  0  0  0  0  0
  150.4516  138.7991  154.3615 C   0  0  0  0  0  0  0  0  0  0  0  0
  150.2011  140.1182  153.9217 O   0  0  0  0  0  0  0  0  0  0  0  0
  150.5528  138.9674  156.9294 C   0  0  2  0  0  0  0  0  0  0  0  0
  150.6000  140.4700  157.1428 C   0  0  0  0  0  0  0  0  0  0  0  0
  151.8012  140.6242  158.0686 C   0  0  0  0  0  0  0  0  0  0  0  0
  152.7064  139.5921  157.6950 O   0  0  0  0  0  0  0  0  0  0  0  0
  152.0504  138.6510  156.8507 C   0  0  0  0  0  0  0  0  0  0  0  0
  142.6222  135.6011  151.1844 H   0  0  0  0  0  0  0  0  0  0  0  0
  144.7136  133.9553  149.9015 H   0  0  0  0  0  0  0  0  0  0  0  0
  141.2126  134.3450  154.6974 H   0  0  0  0  0  0  0  0  0  0  0  0
  142.3497  133.4433  153.7162 H   0  0  0  0  0  0  0  0  0  0  0  0
  144.0334  133.4272  152.7757 H   0  0  0  0  0  0  0  0  0  0  0  0
  143.0031  133.2301  151.3621 H   0  0  0  0  0  0  0  0  0  0  0  0
  146.3247  135.7885  151.4227 H   0  0  0  0  0  0  0  0  0  0  0  0
  145.1240  136.1938  150.2153 H   0  0  0  0  0  0  0  0  0  0  0  0
  144.8811  135.2772  156.4331 H   0  0  0  0  0  0  0  0  0  0  0  0
  148.0196  139.7267  152.9935 H   0  0  0  0  0  0  0  0  0  0  0  0
  148.3038  140.1490  155.6569 H   0  0  0  0  0  0  0  0  0  0  0  0
  147.8175  138.8359  156.7000 H   0  0  0  0  0  0  0  0  0  0  0  0
  149.6518  137.4162  155.7630 H   0  0  0  0  0  0  0  0  0  0  0  0
  151.5280  138.6612  154.4594 H   0  0  0  0  0  0  0  0  0  0  0  0
  150.1339  138.1041  153.5840 H   0  0  0  0  0  0  0  0  0  0  0  0
  149.7285  140.0770  153.1041 H   0  0  0  0  0  0  0  0  0  0  0  0
  150.1504  138.5055  157.8328 H   0  0  0  0  0  0  0  0  0  0  0  0
  150.7857  140.9853  156.1993 H   0  0  0  0  0  0  0  0  0  0  0  0
  149.6858  140.8728  157.5797 H   0  0  0  0  0  0  0  0  0  0  0  0
  152.2633  141.6086  157.9936 H   0  0  0  0  0  0  0  0  0  0  0  0
  151.5039  140.4666  159.1060 H   0  0  0  0  0  0  0  0  0  0  0  0
  152.2768  137.6291  157.1553 H   0  0  0  0  0  0  0  0  0  0  0  0
  152.4232  138.7897  155.8348 H   0  0  0  0  0  0  0  0  0  0  0  0
  1  2  1  0  0  0  0
  1 30  1  0  0  0  0
  1 31  1  0  0  0  0
  2  3  2  0  0  0  0
  2  4  1  0  0  0  0
  4 28  1  0  0  0  0
  4  9  1  0  0  0  0
  4  5  1  0  0  0  0
  5  6  1  0  0  0  0
  5 32  1  0  0  0  0
  5 33  1  0  0  0  0
  6 29  1  0  0  0  0
  6  7  1  0  0  0  0
  6  8  1  0  0  0  0
  8  9  1  0  0  0  0
  8 34  1  0  0  0  0
  8 35  1  0  0  0  0
  9 10  1  0  0  0  0
 10 15  1  0  0  0  0
 10 11  2  0  0  0  0
 11 12  1  0  0  0  0
 12 13  2  0  0  0  0
 12 36  1  0  0  0  0
 13 14  1  0  0  0  0
 14 18  1  0  0  0  0
 14 15  2  0  0  0  0
 15 16  1  0  0  0  0
 16 17  2  0  0  0  0
 17 18  1  0  0  0  0
 17 37  1  0  0  0  0
 18 19  1  0  0  0  0
 19 20  1  0  0  0  0
 19 38  1  0  0  0  0
 19 39  1  0  0  0  0
 20 21  1  0  0  0  0
 20 23  1  0  0  0  0
 20 40  1  0  0  0  0
 21 22  1  0  0  0  0
 21 41  1  0  0  0  0
 21 42  1  0  0  0  0
 22 43  1  0  0  0  0
 23 27  1  0  0  0  0
 23 24  1  0  0  0  0
 23 44  1  0  0  0  0
 24 25  1  0  0  0  0
 24 45  1  0  0  0  0
 24 46  1  0  0  0  0
 25 26  1  0  0  0  0
 25 47  1  0  0  0  0
 25 48  1  0  0  0  0
 26 27  1  0  0  0  0
 27 49  1  0  0  0  0
 27 50  1  0  0  0  0
M  END
> <s_m_source_file>
AV-unprocessed.smi

> <i_m_source_file_index>
221

> <i_lp_mmshare_version>
43012

> <i_f3d_flags>
0

> <s_epik_input>
W05IMl1DKD1PKVtDQEBIXTFbQ0gyXVtDQEBIXShGKVtDSDJdTjFjKG5bY0hdbjIpYyhjMjMpbltjSF1uM1tDSDJdW0NASF0oW0NIMl1bT0hdKVtDQEBIXTRbQ0gyXVtDSDJdT1tDSDJdNA==

> <s_epik_cmdline>
J2VwaWtfcHl0aG9uJywgJy1waCcsICc3LjAnLCAnLXRuJywgJzgnLCAnLW1hJywgJzIwMCcsICctbWV0YWxfYmluZGluZycsICctaW1hZScsICc8aW5maWxlLm1hZT4nLCAnLW9tYWUnLCAnPG91dGZpbGUubWFlPic=

> <r_lp_tautomer_probability>
1

> <r_epik_Ionization_Penalty>
0.000818822

> <r_epik_Ionization_Penalty_Charging>
0

> <r_epik_Ionization_Penalty_Neutral>
0.000818822

> <r_epik_State_Penalty>
0.000440551

> <r_epik_Charging_Adjusted_Penalty>
0.000440551

> <i_epik_Tot_Q>
0

> <i_epik_Tot_abs_Q>
0

> <r_epik_Metal_State_Penalty>
-0

> <b_epik_Metal_Only>
0

> <s_lp_Force_Field>
OPLS_2005

> <r_lp_Energy>
53.4739

> <b_lp_Chiralities_Consistent>
1

> <s_lp_Variant>
AV-unprocessed.smi:221-7

> <Gold.Version>
5.8.1

> <Gold.Id.Protein>
6NUR|6NUR_protein|mol2

> <Gold.PLP.Fitness>
47.7766

> <Gold.PLP.PLP>
-32.7418

> <Gold.PLP.part.hbond>
-4.7758

> <Gold.PLP.part.metal>
0.0000

> <Gold.PLP.part.buried>
-8.0943

> <Gold.PLP.part.nonpolar>
-20.8816

> <Gold.PLP.part.repulsive>
0.6419

> <Gold.PLP.ligand.clash>
0.0000

> <Gold.PLP.ligand.torsion>
0.7994

> <Gold.PLP.Chemscore.Hbond>
4.4880

> <Gold.PLP.Chemscore.CHOScore>
1.0000

> <Gold.PLP.Chemscore.Metal>
0.0000

> <Gold.Chemscore.Hbonds>
donor molecule, donor type, donor heavy atom, donor atom, acceptor molecule, acceptor atom, score
      L1  H     1    30       P1 11000  0.71
      L1  H     1    31       P1 10957  0.64
      L1  H    22    43       P1  7957  1.00
      P1  H  7989  7998       L1    22  0.90
      P1  H  7997  8008       L1    26  1.00
      L1  C    17    37       P1  7957  1.00

> <Gold.PLP.Chemscore.Internal.Correction>
0.1696

> <Gold.Rescore>
     Score         DG    S(hbond)    S(metal)    S(lipo)     H(rot)  DE(clash)    DE(int)     intcor
     14.03     -16.43       4.16        0.00      56.16       3.72       0.05       2.35       ----

> <Gold.Chemscore.Fitness>
14.0279

> <Gold.Chemscore.DG>
-16.4270

> <Gold.Chemscore.ZeroCoef>
-5.4800

> <Gold.Chemscore.Hbond>
4.1615

> <Gold.Chemscore.Metal>
0.0000

> <Gold.Chemscore.Lipo>
56.1645

> <Gold.Chemscore.Internal_Hbond>
0.0000

> <Gold.Chemscore.DEClash>
0.0502

> <Gold.Chemscore.DEInternal>
2.3489

> <Gold.Chemscore.Rot>
3.7202

> <Gold.Chemscore.Internal.Correction>
   9.000000E+99

> <Gold.Chemscore.Hbonds>
donor molecule, donor type, donor heavy atom, donor atom, acceptor molecule, acceptor atom, score
      L1  H     1    30       P1 11000  0.31
      L1  H     1    31       P1 10957  0.61
      L1  H    22    43       P1  7957  0.96
      P1  H  7989  7998       L1    22  0.24
      P1  H  7997  8008       L1    26  0.61

> <Gold.Chemscore.Hbond.Weighted>
-13.8995

> <Gold.Chemscore.Metal.Weighted>
-0.0000

> <Gold.Chemscore.Lipo.Weighted>
-6.5712

> <Gold.Chemscore.Internal_Hbond.Weighted>
0.0000

> <Gold.Chemscore.DEClash.Weighted>
0.0502

> <Gold.Chemscore.DEInternal.Weighted>
2.3489

> <Gold.Chemscore.Rot.Weighted>
9.5237

> <Gold.Chemscore.Internal.Correction.Weighted>
   9.000000E+99

> <Gold.Protein.RotatedTorsions>
[ 6907 6896 6895 6894 ] final  106.80 input  -60.11 | X-H torsion
[ 7974 7965 7964 7962 ] final -166.90 input  175.53 | X-H torsion
[ 8008 7997 7996 7995 ] final  -73.94 input   59.86 | X-H torsion
[ 10167 10162 10161 10158 ] final  141.49 input  -65.29 | X-H torsion
[ 10718 10713 10712 10709 ] final  135.27 input   66.30 | X-H torsion
[ 10763 10752 10751 10750 ] final  142.37 input  -60.55 | X-H torsion
[ 11005 11000 10999 10996 ] final  129.03 input  -57.11 | X-H torsion

> <Gold.Protein.ActiveResidues>
 VAL166  LYS551  ARG553  GLY616  TRP617  ASP618  TYR619  PRO620  LYS621  CYS622 
 ASP623  PHE694  ASN695  SER759  ASP760  ASP761  ALA762  ILE779  LEU786  VAL792 
 PHE793  MET794  SER795  GLU796  ALA797  LYS798  CYS799  TRP800  GLU811  SER814 

> <Gold.Protein.RotatedAtoms>
  152.5180  133.9328  159.7588 H   0  0  0  0  0  0  0  0  0  0  0  0  # atno 6907 bound_to 6896
  150.9675  133.6371  159.2750 H   0  0  0  0  0  0  0  0  0  0  0  0  # atno 6908 bound_to 6896
  151.3594  135.0906  159.9482 H   0  0  0  0  0  0  0  0  0  0  0  0  # atno 6909 bound_to 6896
  144.7235  140.2598  143.6266 H   0  0  0  0  0  0  0  0  0  0  0  0  # atno 7974 bound_to 7965
  154.5289  140.0770  156.8309 H   0  0  0  0  0  0  0  0  0  0  0  0  # atno 8008 bound_to 7997
  155.3417  140.3407  155.4221 H   0  0  0  0  0  0  0  0  0  0  0  0  # atno 8009 bound_to 7997
  156.1761  140.1636  156.8347 H   0  0  0  0  0  0  0  0  0  0  0  0  # atno 8010 bound_to 7997
  139.5019  144.6168  151.6145 H   0  0  0  0  0  0  0  0  0  0  0  0  # atno 10167 bound_to 10162
  157.4588  131.1072  150.9945 H   0  0  0  0  0  0  0  0  0  0  0  0  # atno 10718 bound_to 10713
  153.9546  135.2966  155.3437 H   0  0  0  0  0  0  0  0  0  0  0  0  # atno 10763 bound_to 10752
  154.7408  135.5026  153.9122 H   0  0  0  0  0  0  0  0  0  0  0  0  # atno 10764 bound_to 10752
  153.0977  135.6725  153.9841 H   0  0  0  0  0  0  0  0  0  0  0  0  # atno 10765 bound_to 10752
  139.9593  134.9606  156.9088 H   0  0  0  0  0  0  0  0  0  0  0  0  # atno 11005 bound_to 11000
  145.8147  139.2018  143.1972 LP  0  0  0  0  0  0  0  0  0  0  0  0  # atno 17320 bound_to 7965
  146.0566  140.8015  142.9755 LP  0  0  0  0  0  0  0  0  0  0  0  0  # atno 17321 bound_to 7965
  140.5858  143.9866  150.6295 LP  0  0  0  0  0  0  0  0  0  0  0  0  # atno 17342 bound_to 10162
  140.3030  143.3248  152.0953 LP  0  0  0  0  0  0  0  0  0  0  0  0  # atno 17343 bound_to 10162
  157.0749  130.5879  149.5409 LP  0  0  0  0  0  0  0  0  0  0  0  0  # atno 17370 bound_to 10713
  156.0019  130.5100  150.7694 LP  0  0  0  0  0  0  0  0  0  0  0  0  # atno 17371 bound_to 10713
  140.5537  134.0602  155.7377 LP  0  0  0  0  0  0  0  0  0  0  0  0  # atno 17394 bound_to 11000
  141.1268  133.9369  157.2618 LP  0  0  0  0  0  0  0  0  0  0  0  0  # atno 17395 bound_to 11000

$$$$
