AV-unprocessed.smi:83|AV-procd|sdf|805|dock4
  -GOLD-   2262017193D 1   1.00000     0.00000
 Structure written by MMmdl.
 56 59  0  0  0  0  0  0  0  0  1 V2000
  153.5937  142.8073  163.0511 C   0  0  0  0  0  0  0  0  0  0  0  0
  152.7246  143.4863  161.9914 C   0  0  0  0  0  0  0  0  0  0  0  0
  152.1881  144.5615  162.2583 O   0  0  0  0  0  0  0  0  0  0  0  0
  152.5760  142.8774  160.7977 N   0  0  0  0  0  0  0  0  0  0  0  0
  153.1902  141.6109  160.4021 C   0  0  0  0  0  0  0  0  0  0  0  0
  152.8853  141.4573  158.9108 C   0  0  0  0  0  0  0  0  0  0  0  0
  151.6054  142.2612  158.7101 C   0  0  2  0  0  0  0  0  0  0  0  0
  151.3616  142.6970  157.2521 C   0  0  0  0  0  0  0  0  0  0  0  0
  151.0422  141.5701  156.3730 N   0  0  0  0  0  0  0  0  0  0  0  0
  152.0578  140.5437  156.1769 C   0  0  0  0  0  0  0  0  0  0  0  0
  149.7374  141.2890  156.1005 C   0  0  0  0  0  0  0  0  0  0  0  0
  148.7895  141.7955  156.9335 N   0  0  0  0  0  0  0  0  0  0  0  0
  147.4935  141.5507  156.7257 C   0  0  0  0  0  0  0  0  0  0  0  0
  146.9268  140.8312  155.7577 N   0  0  0  0  0  0  0  0  0  0  0  0
  147.8656  140.3144  154.9155 C   0  0  0  0  0  0  0  0  0  0  0  0
  149.2774  140.4918  155.0071 C   0  0  0  0  0  0  0  0  0  0  0  0
  149.8962  139.7992  153.9701 N   0  0  0  0  0  0  0  0  0  0  0  0
  148.9136  139.2572  153.3050 C   0  0  0  0  0  0  0  0  0  0  0  0
  147.6599  139.5157  153.8048 N   0  0  0  0  0  0  0  0  0  0  0  0
  146.3979  139.0411  153.2648 C   0  0  0  0  0  0  0  0  0  0  0  0
  146.5928  138.0164  152.1302 C   0  0  2  0  0  0  0  0  0  0  0  0
  146.6200  138.6929  150.8877 O   0  0  0  0  0  0  0  0  0  0  0  0
  145.4711  136.9619  152.0989 C   0  0  1  0  0  0  0  0  0  0  0  0
  145.6124  135.9170  150.9889 C   0  0  0  0  0  0  0  0  0  0  0  0
  144.8983  134.6933  151.5438 C   0  0  0  0  0  0  0  0  0  0  0  0
  144.6877  135.0226  153.0233 C   0  0  0  0  0  0  0  0  0  0  0  0
  145.5099  136.1545  153.2656 O   0  0  0  0  0  0  0  0  0  0  0  0
  151.7599  143.4115  159.7114 C   0  0  0  0  0  0  0  0  0  0  0  0
  153.2385  141.7969  163.2552 H   0  0  0  0  0  0  0  0  0  0  0  0
  153.5678  143.3677  163.9863 H   0  0  0  0  0  0  0  0  0  0  0  0
  154.6310  142.7539  162.7198 H   0  0  0  0  0  0  0  0  0  0  0  0
  154.2651  141.5960  160.5867 H   0  0  0  0  0  0  0  0  0  0  0  0
  152.7336  140.7993  160.9702 H   0  0  0  0  0  0  0  0  0  0  0  0
  153.6959  141.8955  158.3265 H   0  0  0  0  0  0  0  0  0  0  0  0
  152.7816  140.4149  158.6079 H   0  0  0  0  0  0  0  0  0  0  0  0
  150.7743  141.6355  159.0394 H   0  0  0  0  0  0  0  0  0  0  0  0
  150.5960  143.4718  157.2124 H   0  0  0  0  0  0  0  0  0  0  0  0
  152.2659  143.1706  156.8689 H   0  0  0  0  0  0  0  0  0  0  0  0
  151.9303  140.0469  155.2147 H   0  0  0  0  0  0  0  0  0  0  0  0
  152.0104  139.7968  156.9698 H   0  0  0  0  0  0  0  0  0  0  0  0
  153.0550  140.9842  156.1906 H   0  0  0  0  0  0  0  0  0  0  0  0
  146.8140  141.9931  157.4391 H   0  0  0  0  0  0  0  0  0  0  0  0
  149.0770  138.6501  152.4265 H   0  0  0  0  0  0  0  0  0  0  0  0
  145.8277  138.5975  154.0816 H   0  0  0  0  0  0  0  0  0  0  0  0
  145.8206  139.8971  152.9136 H   0  0  0  0  0  0  0  0  0  0  0  0
  147.5536  137.5162  152.2599 H   0  0  0  0  0  0  0  0  0  0  0  0
  145.7322  138.7847  150.5771 H   0  0  0  0  0  0  0  0  0  0  0  0
  144.4928  137.4432  152.0366 H   0  0  0  0  0  0  0  0  0  0  0  0
  145.1948  136.2560  150.0405 H   0  0  0  0  0  0  0  0  0  0  0  0
  146.6644  135.6791  150.8244 H   0  0  0  0  0  0  0  0  0  0  0  0
  143.9439  134.5203  151.0452 H   0  0  0  0  0  0  0  0  0  0  0  0
  145.5108  133.8001  151.4164 H   0  0  0  0  0  0  0  0  0  0  0  0
  143.6467  135.2885  153.2124 H   0  0  0  0  0  0  0  0  0  0  0  0
  144.9525  134.1942  153.6807 H   0  0  0  0  0  0  0  0  0  0  0  0
  150.7879  143.7634  160.0616 H   0  0  0  0  0  0  0  0  0  0  0  0
  152.2856  144.2561  159.2636 H   0  0  0  0  0  0  0  0  0  0  0  0
  1  2  1  0  0  0  0
  1 29  1  0  0  0  0
  1 30  1  0  0  0  0
  1 31  1  0  0  0  0
  2  3  2  0  0  0  0
  2  4  1  0  0  0  0
  4 28  1  0  0  0  0
  4  5  1  0  0  0  0
  5  6  1  0  0  0  0
  5 32  1  0  0  0  0
  5 33  1  0  0  0  0
  6  7  1  0  0  0  0
  6 34  1  0  0  0  0
  6 35  1  0  0  0  0
  7  8  1  0  0  0  0
  7 28  1  0  0  0  0
  7 36  1  0  0  0  0
  8  9  1  0  0  0  0
  8 37  1  0  0  0  0
  8 38  1  0  0  0  0
  9 10  1  0  0  0  0
  9 11  1  0  0  0  0
 10 39  1  0  0  0  0
 10 40  1  0  0  0  0
 10 41  1  0  0  0  0
 11 16  1  0  0  0  0
 11 12  2  0  0  0  0
 12 13  1  0  0  0  0
 13 14  2  0  0  0  0
 13 42  1  0  0  0  0
 14 15  1  0  0  0  0
 15 19  1  0  0  0  0
 15 16  2  0  0  0  0
 16 17  1  0  0  0  0
 17 18  2  0  0  0  0
 18 19  1  0  0  0  0
 18 43  1  0  0  0  0
 19 20  1  0  0  0  0
 20 21  1  0  0  0  0
 20 44  1  0  0  0  0
 20 45  1  0  0  0  0
 21 22  1  0  0  0  0
 21 23  1  0  0  0  0
 21 46  1  0  0  0  0
 22 47  1  0  0  0  0
 23 27  1  0  0  0  0
 23 24  1  0  0  0  0
 23 48  1  0  0  0  0
 24 25  1  0  0  0  0
 24 49  1  0  0  0  0
 24 50  1  0  0  0  0
 25 26  1  0  0  0  0
 25 51  1  0  0  0  0
 25 52  1  0  0  0  0
 26 27  1  0  0  0  0
 26 53  1  0  0  0  0
 26 54  1  0  0  0  0
 28 55  1  0  0  0  0
 28 56  1  0  0  0  0
M  END
> <s_m_source_file>
AV-unprocessed.smi

> <i_m_source_file_index>
83

> <i_lp_mmshare_version>
43012

> <i_f3d_flags>
0

> <s_epik_input>
W0NIM11DKD1PKU4xW0NIMl1bQ0gyXVtDQEhdKFtDSDJdMSlbQ0gyXU4oW0NIM10pYyhuW2NIXW4yKWMoYzIzKW5bY0hdbjNbQ0gyXVtDQEhdKFtPSF0pW0NAQEhdNFtDSDJdW0NIMl1bQ0gyXU80

> <s_epik_cmdline>
J2VwaWtfcHl0aG9uJywgJy1waCcsICc3LjAnLCAnLXRuJywgJzgnLCAnLW1hJywgJzIwMCcsICctbWV0YWxfYmluZGluZycsICctaW1hZScsICc8aW5maWxlLm1hZT4nLCAnLW9tYWUnLCAnPG91dGZpbGUubWFlPic=

> <r_lp_tautomer_probability>
1

> <r_epik_Ionization_Penalty>
0.00109752

> <r_epik_Ionization_Penalty_Charging>
0

> <r_epik_Ionization_Penalty_Neutral>
0.00109752

> <r_epik_State_Penalty>
0.000634803

> <r_epik_Charging_Adjusted_Penalty>
0.000634803

> <i_epik_Tot_Q>
0

> <i_epik_Tot_abs_Q>
0

> <r_epik_Metal_State_Penalty>
-0

> <b_epik_Metal_Only>
0

> <s_lp_Force_Field>
OPLS_2005

> <r_lp_Energy>
52.1459

> <b_lp_Chiralities_Consistent>
1

> <s_lp_Variant>
AV-unprocessed.smi:83-6

> <Gold.Version>
5.8.1

> <Gold.Id.Protein>
6NUR|6NUR_protein|mol2

> <Gold.PLP.Fitness>
54.6348

> <Gold.PLP.PLP>
-44.3249

> <Gold.PLP.part.hbond>
-3.5288

> <Gold.PLP.part.metal>
0.0000

> <Gold.PLP.part.buried>
1.4180

> <Gold.PLP.part.nonpolar>
-45.1233

> <Gold.PLP.part.repulsive>
4.2002

> <Gold.PLP.ligand.clash>
0.0379

> <Gold.PLP.ligand.torsion>
1.0743

> <Gold.PLP.Chemscore.Hbond>
2.7236

> <Gold.PLP.Chemscore.CHOScore>
1.2846

> <Gold.PLP.Chemscore.Metal>
0.0000

> <Gold.Chemscore.Hbonds>
donor molecule, donor type, donor heavy atom, donor atom, acceptor molecule, acceptor atom, score
      L1  H    22    47       P1 10171  1.00
      P1  H  7954  7966       L1    22  0.90
      P1  H  7989  7998       L1    17  0.80
      L1  C    18    43       P1  7948  1.00
      L1  C    18    43       P1  7957  0.32

> <Gold.PLP.Chemscore.Internal.Correction>
0.4719

> <Gold.Rescore>
     Score         DG    S(hbond)    S(metal)    S(lipo)     H(rot)  DE(clash)    DE(int)     intcor
     11.61     -17.86       2.11        0.00     102.95       2.62       4.20       2.05       ----

> <Gold.Chemscore.Fitness>
11.6097

> <Gold.Chemscore.DG>
-17.8611

> <Gold.Chemscore.ZeroCoef>
-5.4800

> <Gold.Chemscore.Hbond>
2.1051

> <Gold.Chemscore.Metal>
0.0000

> <Gold.Chemscore.Lipo>
102.9490

> <Gold.Chemscore.Internal_Hbond>
0.0000

> <Gold.Chemscore.DEClash>
4.2003

> <Gold.Chemscore.DEInternal>
2.0511

> <Gold.Chemscore.Rot>
2.6152

> <Gold.Chemscore.Internal.Correction>
   9.000000E+99

> <Gold.Chemscore.Hbonds>
donor molecule, donor type, donor heavy atom, donor atom, acceptor molecule, acceptor atom, score
      L1  H    22    47       P1 10171  0.96
      P1  H  7954  7966       L1    22  0.42
      P1  H  7989  7998       L1    17  0.46

> <Gold.Chemscore.Hbond.Weighted>
-7.0309

> <Gold.Chemscore.Metal.Weighted>
-0.0000

> <Gold.Chemscore.Lipo.Weighted>
-12.0450

> <Gold.Chemscore.Internal_Hbond.Weighted>
0.0000

> <Gold.Chemscore.DEClash.Weighted>
4.2003

> <Gold.Chemscore.DEInternal.Weighted>
2.0511

> <Gold.Chemscore.Rot.Weighted>
6.6949

> <Gold.Chemscore.Internal.Correction.Weighted>
   9.000000E+99

> <Gold.Protein.RotatedTorsions>
[ 6907 6896 6895 6894 ] final  -43.34 input  -60.11 | X-H torsion
[ 7974 7965 7964 7962 ] final   11.05 input  175.53 | X-H torsion
[ 8008 7997 7996 7995 ] final   63.13 input   59.86 | X-H torsion
[ 10167 10162 10161 10158 ] final  -38.55 input  -65.29 | X-H torsion
[ 10718 10713 10712 10709 ] final -136.33 input   66.30 | X-H torsion
[ 10763 10752 10751 10750 ] final  -92.20 input  -60.55 | X-H torsion
[ 11005 11000 10999 10996 ] final  -59.09 input  -57.11 | X-H torsion

> <Gold.Protein.ActiveResidues>
 VAL166  LYS551  ARG553  GLY616  TRP617  ASP618  TYR619  PRO620  LYS621  CYS622 
 ASP623  PHE694  ASN695  SER759  ASP760  ASP761  ALA762  ILE779  LEU786  VAL792 
 PHE793  MET794  SER795  GLU796  ALA797  LYS798  CYS799  TRP800  GLU811  SER814 

> <Gold.Protein.RotatedAtoms>
  150.9450  134.8856  159.7636 H   0  0  0  0  0  0  0  0  0  0  0  0  # atno 6907 bound_to 6896
  152.5096  134.3887  159.9386 H   0  0  0  0  0  0  0  0  0  0  0  0  # atno 6908 bound_to 6896
  151.3906  133.3750  159.2755 H   0  0  0  0  0  0  0  0  0  0  0  0  # atno 6909 bound_to 6896
  146.2378  139.9543  142.8466 H   0  0  0  0  0  0  0  0  0  0  0  0  # atno 7974 bound_to 7965
  155.6253  140.3496  155.4665 H   0  0  0  0  0  0  0  0  0  0  0  0  # atno 8008 bound_to 7997
  156.0046  140.1220  157.0538 H   0  0  0  0  0  0  0  0  0  0  0  0  # atno 8009 bound_to 7997
  154.4260  140.1093  156.5731 H   0  0  0  0  0  0  0  0  0  0  0  0  # atno 8010 bound_to 7997
  140.7089  143.3270  151.2656 H   0  0  0  0  0  0  0  0  0  0  0  0  # atno 10167 bound_to 10162
  156.2758  130.7292  151.1274 H   0  0  0  0  0  0  0  0  0  0  0  0  # atno 10718 bound_to 10713
  154.6837  135.5240  153.8297 H   0  0  0  0  0  0  0  0  0  0  0  0  # atno 10763 bound_to 10752
  153.0582  135.6558  154.0535 H   0  0  0  0  0  0  0  0  0  0  0  0  # atno 10764 bound_to 10752
  154.0419  135.2976  155.3333 H   0  0  0  0  0  0  0  0  0  0  0  0  # atno 10765 bound_to 10752
  141.1234  133.6615  156.5019 H   0  0  0  0  0  0  0  0  0  0  0  0  # atno 11005 bound_to 11000
  145.1832  140.9777  143.4254 LP  0  0  0  0  0  0  0  0  0  0  0  0  # atno 17320 bound_to 7965
  144.9923  139.3677  143.6208 LP  0  0  0  0  0  0  0  0  0  0  0  0  # atno 17321 bound_to 7965
  139.6741  143.9968  152.2771 LP  0  0  0  0  0  0  0  0  0  0  0  0  # atno 17342 bound_to 10162
  139.9576  144.6579  150.8110 LP  0  0  0  0  0  0  0  0  0  0  0  0  # atno 17343 bound_to 10162
  157.7299  131.0621  150.5753 LP  0  0  0  0  0  0  0  0  0  0  0  0  # atno 17370 bound_to 10713
  156.5854  130.4315  149.5959 LP  0  0  0  0  0  0  0  0  0  0  0  0  # atno 17371 bound_to 10713
  140.4438  134.6991  157.5005 LP  0  0  0  0  0  0  0  0  0  0  0  0  # atno 17394 bound_to 11000
  140.0211  134.6546  155.9239 LP  0  0  0  0  0  0  0  0  0  0  0  0  # atno 17395 bound_to 11000

$$$$
