AV-unprocessed.smi:710|AV-procd|sdf|3462|dock6
  -GOLD-   22720 0453D 1   1.00000     0.00000
 Structure written by MMmdl.
 40 41  0  0  0  0  0  0  0  0  1 V2000
  152.7779  139.8007  159.1532 C   0  0  0  0  0  0  0  0  0  0  0  0
  152.5965  141.2259  159.5914 C   0  0  0  0  0  0  0  0  0  0  0  0
  152.7992  141.5472  160.8583 N   0  0  0  0  0  0  0  0  0  0  0  0
  152.5666  142.8738  160.9184 N   0  0  0  0  0  0  0  0  0  0  0  0
  152.7091  143.5643  162.1853 C   0  0  0  0  0  0  0  0  0  0  0  0
  152.2091  143.3904  159.6883 C   0  0  0  0  0  0  0  0  0  0  0  0
  151.9064  144.8416  159.4924 C   0  0  0  0  0  0  0  0  0  0  0  0
  152.2183  142.3487  158.7984 C   0  0  0  0  0  0  0  0  0  0  0  0
  151.9132  142.3616  157.3206 C   0  0  0  0  0  0  0  0  0  0  0  0
  150.4128  142.1701  157.0943 C   0  0  0  0  0  0  0  0  0  0  0  0
  149.6411  142.1341  158.0520 O   0  0  0  0  0  0  0  0  0  0  0  0
  150.0145  142.0514  155.8201 N   0  0  0  0  0  0  0  0  0  0  0  0
  148.6406  141.8299  155.3896 C   0  0  0  0  0  0  0  0  0  0  0  0
  148.5525  140.7007  154.3406 C   0  0  1  0  0  0  0  0  0  0  0  0
  149.6767  140.8166  153.4854 O   0  0  0  0  0  0  0  0  0  0  0  0
  148.6078  139.3067  154.9868 C   0  0  0  0  0  0  0  0  0  0  0  0
  148.2163  138.2775  153.9209 C   0  0  0  0  0  0  0  0  0  0  0  0
  147.0044  139.0563  152.8234 S   0  0  0  0  0  0  0  0  0  0  0  0
  147.2645  140.7191  153.4972 C   0  0  0  0  0  0  0  0  0  0  0  0
  153.3553  139.7473  158.2301 H   0  0  0  0  0  0  0  0  0  0  0  0
  151.8143  139.3251  158.9699 H   0  0  0  0  0  0  0  0  0  0  0  0
  153.3034  139.2097  159.9044 H   0  0  0  0  0  0  0  0  0  0  0  0
  153.3698  144.4231  162.0633 H   0  0  0  0  0  0  0  0  0  0  0  0
  153.1324  142.9005  162.9408 H   0  0  0  0  0  0  0  0  0  0  0  0
  151.7326  143.9101  162.5251 H   0  0  0  0  0  0  0  0  0  0  0  0
  151.4678  145.0264  158.5123 H   0  0  0  0  0  0  0  0  0  0  0  0
  152.8161  145.4375  159.5684 H   0  0  0  0  0  0  0  0  0  0  0  0
  151.2021  145.1994  160.2435 H   0  0  0  0  0  0  0  0  0  0  0  0
  152.2258  143.3001  156.8613 H   0  0  0  0  0  0  0  0  0  0  0  0
  152.4533  141.5758  156.7916 H   0  0  0  0  0  0  0  0  0  0  0  0
  150.7189  142.0833  155.0976 H   0  0  0  0  0  0  0  0  0  0  0  0
  148.0078  141.6077  156.2510 H   0  0  0  0  0  0  0  0  0  0  0  0
  148.2704  142.7619  154.9593 H   0  0  0  0  0  0  0  0  0  0  0  0
  149.5924  140.1793  152.7926 H   0  0  0  0  0  0  0  0  0  0  0  0
  149.5840  139.0878  155.4220 H   0  0  0  0  0  0  0  0  0  0  0  0
  147.8824  139.2573  155.8002 H   0  0  0  0  0  0  0  0  0  0  0  0
  149.0874  138.0034  153.3250 H   0  0  0  0  0  0  0  0  0  0  0  0
  147.8157  137.3641  154.3610 H   0  0  0  0  0  0  0  0  0  0  0  0
  146.4079  140.9495  154.1315 H   0  0  0  0  0  0  0  0  0  0  0  0
  147.2898  141.4638  152.7007 H   0  0  0  0  0  0  0  0  0  0  0  0
  1  2  1  0  0  0  0
  1 20  1  0  0  0  0
  1 21  1  0  0  0  0
  1 22  1  0  0  0  0
  2  8  1  0  0  0  0
  2  3  2  0  0  0  0
  3  4  1  0  0  0  0
  4  5  1  0  0  0  0
  4  6  1  0  0  0  0
  5 23  1  0  0  0  0
  5 24  1  0  0  0  0
  5 25  1  0  0  0  0
  6  7  1  0  0  0  0
  6  8  2  0  0  0  0
  7 26  1  0  0  0  0
  7 27  1  0  0  0  0
  7 28  1  0  0  0  0
  8  9  1  0  0  0  0
  9 10  1  0  0  0  0
  9 29  1  0  0  0  0
  9 30  1  0  0  0  0
 10 11  2  0  0  0  0
 10 12  1  0  0  0  0
 12 13  1  0  0  0  0
 12 31  1  0  0  0  0
 13 14  1  0  0  0  0
 13 32  1  0  0  0  0
 13 33  1  0  0  0  0
 14 19  1  0  0  0  0
 14 15  1  0  0  0  0
 14 16  1  0  0  0  0
 15 34  1  0  0  0  0
 16 17  1  0  0  0  0
 16 35  1  0  0  0  0
 16 36  1  0  0  0  0
 17 18  1  0  0  0  0
 17 37  1  0  0  0  0
 17 38  1  0  0  0  0
 18 19  1  0  0  0  0
 19 39  1  0  0  0  0
 19 40  1  0  0  0  0
M  END
> <s_m_source_file>
AV-unprocessed.smi

> <i_m_source_file_index>
710

> <i_lp_mmshare_version>
43012

> <i_f3d_flags>
0

> <s_epik_input>
W0NIM11jMW5uKFtDSDNdKWMoW0NIM10pYzFbQ0gyXUMoPU8pW05IXVtDSDJdW0NAQF0yKFtPSF0pW0NIMl1bQ0gyXVNbQ0gyXTI=

> <s_epik_cmdline>
J2VwaWtfcHl0aG9uJywgJy1waCcsICc3LjAnLCAnLXRuJywgJzgnLCAnLW1hJywgJzIwMCcsICctbWV0YWxfYmluZGluZycsICctaW1hZScsICc8aW5maWxlLm1hZT4nLCAnLW9tYWUnLCAnPG91dGZpbGUubWFlPic=

> <r_lp_tautomer_probability>
1

> <r_epik_Ionization_Penalty>
0.00343686

> <r_epik_Ionization_Penalty_Charging>
0

> <r_epik_Ionization_Penalty_Neutral>
0.00343686

> <r_epik_State_Penalty>
0.00243544

> <r_epik_Charging_Adjusted_Penalty>
0.00243544

> <i_epik_Tot_Q>
0

> <i_epik_Tot_abs_Q>
0

> <r_epik_Metal_State_Penalty>
-0

> <b_epik_Metal_Only>
0

> <s_lp_Force_Field>
OPLS_2005

> <r_lp_Energy>
10.7161

> <b_lp_Chiralities_Consistent>
1

> <s_lp_Variant>
AV-unprocessed.smi:710-1

> <Gold.Version>
5.8.1

> <Gold.Id.Protein>
6NUR|6NUR_protein|mol2

> <Gold.PLP.Fitness>
42.3670

> <Gold.PLP.PLP>
-37.8678

> <Gold.PLP.part.hbond>
-3.7541

> <Gold.PLP.part.metal>
0.0000

> <Gold.PLP.part.buried>
-2.0701

> <Gold.PLP.part.nonpolar>
-31.7507

> <Gold.PLP.part.repulsive>
0.2826

> <Gold.PLP.ligand.clash>
0.0000

> <Gold.PLP.ligand.torsion>
0.7561

> <Gold.PLP.Chemscore.Hbond>
1.9996

> <Gold.PLP.Chemscore.CHOScore>
0.0000

> <Gold.PLP.Chemscore.Metal>
0.0000

> <Gold.Chemscore.Hbonds>
donor molecule, donor type, donor heavy atom, donor atom, acceptor molecule, acceptor atom, score
      L1  H    15    34       P1  7957  0.83
      P1  H  7989  7998       L1    15  0.27
      P1  H  8011  8017       L1    15  0.85

> <Gold.PLP.Chemscore.Internal.Correction>
0.0125

> <Gold.Rescore>
     Score         DG    S(hbond)    S(metal)    S(lipo)     H(rot)  DE(clash)    DE(int)     intcor
     13.09     -15.85       1.01        0.00     105.32       2.07       2.01       0.75       ----

> <Gold.Chemscore.Fitness>
13.0902

> <Gold.Chemscore.DG>
-15.8509

> <Gold.Chemscore.ZeroCoef>
-5.4800

> <Gold.Chemscore.Hbond>
1.0062

> <Gold.Chemscore.Metal>
0.0000

> <Gold.Chemscore.Lipo>
105.3183

> <Gold.Chemscore.Internal_Hbond>
0.0000

> <Gold.Chemscore.DEClash>
2.0065

> <Gold.Chemscore.DEInternal>
0.7543

> <Gold.Chemscore.Rot>
2.0750

> <Gold.Chemscore.Internal.Correction>
   9.000000E+99

> <Gold.Chemscore.Hbonds>
donor molecule, donor type, donor heavy atom, donor atom, acceptor molecule, acceptor atom, score
      L1  H    15    34       P1  7957  0.83
      P1  H  7989  7998       L1    15  0.04
      P1  H  8011  8017       L1    15  0.14

> <Gold.Chemscore.Hbond.Weighted>
-3.3607

> <Gold.Chemscore.Metal.Weighted>
-0.0000

> <Gold.Chemscore.Lipo.Weighted>
-12.3222

> <Gold.Chemscore.Internal_Hbond.Weighted>
0.0000

> <Gold.Chemscore.DEClash.Weighted>
2.0065

> <Gold.Chemscore.DEInternal.Weighted>
0.7543

> <Gold.Chemscore.Rot.Weighted>
5.3120

> <Gold.Chemscore.Internal.Correction.Weighted>
   9.000000E+99

> <Gold.Protein.RotatedTorsions>
[ 6907 6896 6895 6894 ] final   -4.90 input  -60.11 | X-H torsion
[ 7974 7965 7964 7962 ] final -121.29 input  175.53 | X-H torsion
[ 8008 7997 7996 7995 ] final   14.86 input   59.86 | X-H torsion
[ 10167 10162 10161 10158 ] final  168.99 input  -65.29 | X-H torsion
[ 10718 10713 10712 10709 ] final -141.13 input   66.30 | X-H torsion
[ 10763 10752 10751 10750 ] final  -57.08 input  -60.55 | X-H torsion
[ 11005 11000 10999 10996 ] final -142.34 input  -57.11 | X-H torsion

> <Gold.Protein.ActiveResidues>
 VAL166  LYS551  ARG553  GLY616  TRP617  ASP618  TYR619  PRO620  LYS621  CYS622 
 ASP623  PHE694  ASN695  SER759  ASP760  ASP761  ALA762  ILE779  LEU786  VAL792 
 PHE793  MET794  SER795  GLU796  ALA797  LYS798  CYS799  TRP800  GLU811  SER814 

> <Gold.Protein.RotatedAtoms>
  151.4902  135.1057  159.9801 H   0  0  0  0  0  0  0  0  0  0  0  0  # atno 6907 bound_to 6896
  152.4744  133.8099  159.7008 H   0  0  0  0  0  0  0  0  0  0  0  0  # atno 6908 bound_to 6896
  150.8772  133.7360  159.2969 H   0  0  0  0  0  0  0  0  0  0  0  0  # atno 6909 bound_to 6896
  145.0419  140.8151  143.4261 H   0  0  0  0  0  0  0  0  0  0  0  0  # atno 7974 bound_to 7965
  154.8544  140.2934  155.5578 H   0  0  0  0  0  0  0  0  0  0  0  0  # atno 8008 bound_to 7997
  156.3017  140.2490  156.3441 H   0  0  0  0  0  0  0  0  0  0  0  0  # atno 8009 bound_to 7997
  154.8986  140.0392  157.1869 H   0  0  0  0  0  0  0  0  0  0  0  0  # atno 8010 bound_to 7997
  139.4981  144.3754  151.9679 H   0  0  0  0  0  0  0  0  0  0  0  0  # atno 10167 bound_to 10162
  156.3305  130.7583  151.1700 H   0  0  0  0  0  0  0  0  0  0  0  0  # atno 10718 bound_to 10713
  154.2168  135.6385  153.5132 H   0  0  0  0  0  0  0  0  0  0  0  0  # atno 10763 bound_to 10752
  152.9977  135.5487  154.6156 H   0  0  0  0  0  0  0  0  0  0  0  0  # atno 10764 bound_to 10752
  154.5606  135.2908  155.0896 H   0  0  0  0  0  0  0  0  0  0  0  0  # atno 10765 bound_to 10752
  140.8235  134.2603  157.4890 H   0  0  0  0  0  0  0  0  0  0  0  0  # atno 11005 bound_to 11000
  145.1637  139.2444  143.5378 LP  0  0  0  0  0  0  0  0  0  0  0  0  # atno 17320 bound_to 7965
  146.3510  140.1370  142.8595 LP  0  0  0  0  0  0  0  0  0  0  0  0  # atno 17321 bound_to 7965
  140.3190  144.3449  150.6014 LP  0  0  0  0  0  0  0  0  0  0  0  0  # atno 17342 bound_to 10162
  140.5737  143.2178  151.7552 LP  0  0  0  0  0  0  0  0  0  0  0  0  # atno 17343 bound_to 10162
  157.7429  131.0482  150.4986 LP  0  0  0  0  0  0  0  0  0  0  0  0  # atno 17370 bound_to 10713
  156.5151  130.4148  149.6280 LP  0  0  0  0  0  0  0  0  0  0  0  0  # atno 17371 bound_to 10713
  139.8707  134.9548  156.4186 LP  0  0  0  0  0  0  0  0  0  0  0  0  # atno 17394 bound_to 11000
  140.9074  133.7736  155.9751 LP  0  0  0  0  0  0  0  0  0  0  0  0  # atno 17395 bound_to 11000

$$$$
