AV-unprocessed.smi:678|AV-procd|sdf|3313|dock5
  -GOLD-   22720 0273D 1   1.00000     0.00000
 Structure written by MMmdl.
 51 52  0  0  0  0  0  0  0  0  2 V2000
  150.7955  141.5657  157.9877 C   0  0  0  0  0  0  0  0  0  0  0  0
  150.1809  140.9349  156.7505 C   0  0  0  0  0  0  0  0  0  0  0  0
  149.1014  141.4758  156.1450 C   0  0  0  0  0  0  0  0  0  0  0  0
  148.5225  140.8685  154.9712 C   0  0  0  0  0  0  0  0  0  0  0  0
  149.0868  139.7507  154.4921 C   0  0  0  0  0  0  0  0  0  0  0  0
  150.2136  139.1687  155.1019 N   0  0  0  0  0  0  0  0  0  0  0  0
  150.7468  137.9392  154.4906 C   0  0  0  0  0  0  0  0  0  0  0  0
  150.4382  136.6839  155.3175 C   0  0  0  0  0  0  0  0  0  0  0  0
  151.0897  136.4264  156.3305 O   0  0  0  0  0  0  0  0  0  0  0  0
  149.4352  135.9129  154.8714 N   0  0  0  0  0  0  0  0  0  0  0  0
  149.0282  134.6422  155.4611 C   0  0  0  0  0  0  0  0  0  0  0  0
  148.6137  133.6288  154.3786 C   0  0  2  0  0  0  0  0  0  0  0  0
  147.1372  133.7939  153.9689 C   0  0  0  0  0  0  0  0  0  0  0  0
  146.7568  132.7702  152.9634 N   0  3  2  0  0  0  0  0  0  0  0  0
  145.3573  132.8969  152.4812 C   0  0  0  0  0  0  0  0  0  0  0  0
  145.0521  132.0085  151.2555 C   0  0  0  0  0  0  0  0  0  0  0  0
  146.0677  132.2706  150.1335 C   0  0  0  0  0  0  0  0  0  0  0  0
  143.6180  132.2139  150.7394 C   0  0  0  0  0  0  0  0  0  0  0  0
  147.0577  131.4107  153.4712 C   0  0  0  0  0  0  0  0  0  0  0  0
  148.5276  131.3128  153.9098 C   0  0  0  0  0  0  0  0  0  0  0  0
  148.7933  132.3101  154.8860 O   0  0  0  0  0  0  0  0  0  0  0  0
  150.7968  139.7045  156.2196 C   0  0  0  0  0  0  0  0  0  0  0  0
  151.7800  139.1789  156.7468 O   0  0  0  0  0  0  0  0  0  0  0  0
  150.2547  142.4642  158.2868 H   0  0  0  0  0  0  0  0  0  0  0  0
  151.8327  141.8445  157.7985 H   0  0  0  0  0  0  0  0  0  0  0  0
  150.7740  140.8661  158.8237 H   0  0  0  0  0  0  0  0  0  0  0  0
  148.6570  142.3770  156.5413 H   0  0  0  0  0  0  0  0  0  0  0  0
  147.6556  141.3007  154.4937 H   0  0  0  0  0  0  0  0  0  0  0  0
  148.7105  139.2314  153.6229 H   0  0  0  0  0  0  0  0  0  0  0  0
  150.3409  137.7919  153.4891 H   0  0  0  0  0  0  0  0  0  0  0  0
  151.8253  138.0366  154.3512 H   0  0  0  0  0  0  0  0  0  0  0  0
  148.9445  136.2087  154.0398 H   0  0  0  0  0  0  0  0  0  0  0  0
  149.8180  134.2335  156.0937 H   0  0  0  0  0  0  0  0  0  0  0  0
  148.1817  134.8447  156.1179 H   0  0  0  0  0  0  0  0  0  0  0  0
  149.2501  133.7709  153.5027 H   0  0  0  0  0  0  0  0  0  0  0  0
  146.4925  133.7032  154.8447 H   0  0  0  0  0  0  0  0  0  0  0  0
  146.9879  134.7946  153.5654 H   0  0  0  0  0  0  0  0  0  0  0  0
  144.6726  132.6174  153.2837 H   0  0  0  0  0  0  0  0  0  0  0  0
  145.1499  133.9447  152.2583 H   0  0  0  0  0  0  0  0  0  0  0  0
  145.1617  130.9614  151.5355 H   0  0  0  0  0  0  0  0  0  0  0  0
  146.0075  133.2985  149.7741 H   0  0  0  0  0  0  0  0  0  0  0  0
  145.8928  131.6107  149.2830 H   0  0  0  0  0  0  0  0  0  0  0  0
  147.0881  132.0969  150.4765 H   0  0  0  0  0  0  0  0  0  0  0  0
  143.4462  133.2502  150.4465 H   0  0  0  0  0  0  0  0  0  0  0  0
  142.8790  131.9548  151.4978 H   0  0  0  0  0  0  0  0  0  0  0  0
  143.4213  131.5871  149.8691 H   0  0  0  0  0  0  0  0  0  0  0  0
  146.4014  131.1805  154.3122 H   0  0  0  0  0  0  0  0  0  0  0  0
  146.8579  130.6710  152.6951 H   0  0  0  0  0  0  0  0  0  0  0  0
  148.7268  130.3326  154.3430 H   0  0  0  0  0  0  0  0  0  0  0  0
  149.2008  131.4283  153.0586 H   0  0  0  0  0  0  0  0  0  0  0  0
  147.3522  132.9081  152.1589 H   0  0  0  0  0  0  0  0  0  0  0  0
  1  2  1  0  0  0  0
  1 24  1  0  0  0  0
  1 25  1  0  0  0  0
  1 26  1  0  0  0  0
  2 22  1  0  0  0  0
  2  3  2  0  0  0  0
  3  4  1  0  0  0  0
  3 27  1  0  0  0  0
  4  5  2  0  0  0  0
  4 28  1  0  0  0  0
  5  6  1  0  0  0  0
  5 29  1  0  0  0  0
  6  7  1  0  0  0  0
  6 22  1  0  0  0  0
  7  8  1  0  0  0  0
  7 30  1  0  0  0  0
  7 31  1  0  0  0  0
  8  9  2  0  0  0  0
  8 10  1  0  0  0  0
 10 11  1  0  0  0  0
 10 32  1  0  0  0  0
 11 12  1  0  0  0  0
 11 33  1  0  0  0  0
 11 34  1  0  0  0  0
 12 21  1  0  0  0  0
 12 13  1  0  0  0  0
 12 35  1  0  0  0  0
 13 14  1  0  0  0  0
 13 36  1  0  0  0  0
 13 37  1  0  0  0  0
 14 15  1  0  0  0  0
 14 19  1  0  0  0  0
 14 51  1  0  0  0  0
 15 16  1  0  0  0  0
 15 38  1  0  0  0  0
 15 39  1  0  0  0  0
 16 17  1  0  0  0  0
 16 18  1  0  0  0  0
 16 40  1  0  0  0  0
 17 41  1  0  0  0  0
 17 42  1  0  0  0  0
 17 43  1  0  0  0  0
 18 44  1  0  0  0  0
 18 45  1  0  0  0  0
 18 46  1  0  0  0  0
 19 20  1  0  0  0  0
 19 47  1  0  0  0  0
 19 48  1  0  0  0  0
 20 21  1  0  0  0  0
 20 49  1  0  0  0  0
 20 50  1  0  0  0  0
 22 23  2  0  0  0  0
M  CHG  1  14   1
M  END
> <s_m_source_file>
AV-unprocessed.smi

> <i_m_source_file_index>
678

> <i_lp_mmshare_version>
43012

> <i_f3d_flags>
0

> <s_epik_input>
W0NIM11jMVtjSF1bY0hdW2NIXW4oYzE9TylbQ0gyXUMoPU8pW05IXVtDSDJdW0NAQEhdMltDSDJdTihbQ0gyXVtDSDJdTzIpW0NIMl1bQ0hdKFtDSDNdKVtDSDNd

> <s_epik_cmdline>
J2VwaWtfcHl0aG9uJywgJy1waCcsICc3LjAnLCAnLXRuJywgJzgnLCAnLW1hJywgJzIwMCcsICctbWV0YWxfYmluZGluZycsICctaW1hZScsICc8aW5maWxlLm1hZT4nLCAnLW9tYWUnLCAnPG91dGZpbGUubWFlPic=

> <r_lp_tautomer_probability>
1

> <r_epik_Ionization_Penalty>
0.0975937

> <r_epik_Ionization_Penalty_Charging>
0.0975937

> <r_epik_Ionization_Penalty_Neutral>
6.27044e-08

> <r_epik_State_Penalty>
0.0877056

> <r_epik_Charging_Adjusted_Penalty>
0.185299

> <i_epik_Tot_Q>
1

> <i_epik_Tot_abs_Q>
1

> <r_epik_Metal_State_Penalty>
0.0877109

> <b_epik_Metal_Only>
0

> <s_lp_Force_Field>
OPLS_2005

> <r_lp_Energy>
27.0363

> <b_lp_Chiralities_Consistent>
1

> <s_lp_Variant>
AV-unprocessed.smi:678-1

> <Gold.Version>
5.8.1

> <Gold.Id.Protein>
6NUR|6NUR_protein|mol2

> <Gold.PLP.Fitness>
55.1164

> <Gold.PLP.PLP>
-45.0403

> <Gold.PLP.part.hbond>
-3.2157

> <Gold.PLP.part.metal>
0.0000

> <Gold.PLP.part.buried>
-1.9604

> <Gold.PLP.part.nonpolar>
-37.9836

> <Gold.PLP.part.repulsive>
0.1248

> <Gold.PLP.ligand.clash>
0.0000

> <Gold.PLP.ligand.torsion>
0.8788

> <Gold.PLP.Chemscore.Hbond>
2.9600

> <Gold.PLP.Chemscore.CHOScore>
0.9369

> <Gold.PLP.Chemscore.Metal>
0.0000

> <Gold.Chemscore.Hbonds>
donor molecule, donor type, donor heavy atom, donor atom, acceptor molecule, acceptor atom, score
      L1  H    10    32       P1  7948  0.59
      L1  C     5    29       P1  7957  0.36

> <Gold.PLP.Chemscore.Internal.Correction>
0.1429

> <Gold.Rescore>
     Score         DG    S(hbond)    S(metal)    S(lipo)     H(rot)  DE(clash)    DE(int)     intcor
     16.27     -17.00       1.81        0.00      87.90       1.89       0.05       0.67       ----

> <Gold.Chemscore.Fitness>
16.2736

> <Gold.Chemscore.DG>
-16.9958

> <Gold.Chemscore.ZeroCoef>
-5.4800

> <Gold.Chemscore.Hbond>
1.8150

> <Gold.Chemscore.Metal>
0.0000

> <Gold.Chemscore.Lipo>
87.9046

> <Gold.Chemscore.Internal_Hbond>
0.0000

> <Gold.Chemscore.DEClash>
0.0474

> <Gold.Chemscore.DEInternal>
0.6749

> <Gold.Chemscore.Rot>
1.8871

> <Gold.Chemscore.Internal.Correction>
   9.000000E+99

> <Gold.Chemscore.Hbonds>
donor molecule, donor type, donor heavy atom, donor atom, acceptor molecule, acceptor atom, score
      L1  H    10    32       P1  7948  0.57

> <Gold.Chemscore.Hbond.Weighted>
-6.0619

> <Gold.Chemscore.Metal.Weighted>
-0.0000

> <Gold.Chemscore.Lipo.Weighted>
-10.2848

> <Gold.Chemscore.Internal_Hbond.Weighted>
0.0000

> <Gold.Chemscore.DEClash.Weighted>
0.0474

> <Gold.Chemscore.DEInternal.Weighted>
0.6749

> <Gold.Chemscore.Rot.Weighted>
4.8309

> <Gold.Chemscore.Internal.Correction.Weighted>
   9.000000E+99

> <Gold.Protein.RotatedTorsions>
[ 6907 6896 6895 6894 ] final  -58.90 input  -60.11 | X-H torsion
[ 7974 7965 7964 7962 ] final   -9.29 input  175.53 | X-H torsion
[ 8008 7997 7996 7995 ] final   61.81 input   59.86 | X-H torsion
[ 10167 10162 10161 10158 ] final  -98.83 input  -65.29 | X-H torsion
[ 10718 10713 10712 10709 ] final    6.86 input   66.30 | X-H torsion
[ 10763 10752 10751 10750 ] final  -30.95 input  -60.55 | X-H torsion
[ 11005 11000 10999 10996 ] final  -14.44 input  -57.11 | X-H torsion

> <Gold.Protein.ActiveResidues>
 VAL166  LYS551  ARG553  GLY616  TRP617  ASP618  TYR619  PRO620  LYS621  CYS622 
 ASP623  PHE694  ASN695  SER759  ASP760  ASP761  ALA762  ILE779  LEU786  VAL792 
 PHE793  MET794  SER795  GLU796  ALA797  LYS798  CYS799  TRP800  GLU811  SER814 

> <Gold.Protein.RotatedAtoms>
  150.7971  134.7039  159.6565 H   0  0  0  0  0  0  0  0  0  0  0  0  # atno 6907 bound_to 6896
  152.4085  134.6162  160.0048 H   0  0  0  0  0  0  0  0  0  0  0  0  # atno 6908 bound_to 6896
  151.6413  133.3289  159.3167 H   0  0  0  0  0  0  0  0  0  0  0  0  # atno 6909 bound_to 6896
  146.2256  140.2595  142.8351 H   0  0  0  0  0  0  0  0  0  0  0  0  # atno 7974 bound_to 7965
  155.6044  140.3494  155.4603 H   0  0  0  0  0  0  0  0  0  0  0  0  # atno 8008 bound_to 7997
  156.0203  140.1252  157.0388 H   0  0  0  0  0  0  0  0  0  0  0  0  # atno 8009 bound_to 7997
  154.4313  140.1064  156.5941 H   0  0  0  0  0  0  0  0  0  0  0  0  # atno 8010 bound_to 7997
  140.2688  143.3358  152.0555 H   0  0  0  0  0  0  0  0  0  0  0  0  # atno 10167 bound_to 10162
  156.9284  130.5817  149.5649 H   0  0  0  0  0  0  0  0  0  0  0  0  # atno 10718 bound_to 10713
  153.7894  135.6899  153.4874 H   0  0  0  0  0  0  0  0  0  0  0  0  # atno 10763 bound_to 10752
  153.1759  135.4524  154.9963 H   0  0  0  0  0  0  0  0  0  0  0  0  # atno 10764 bound_to 10752
  154.8050  135.3353  154.7391 H   0  0  0  0  0  0  0  0  0  0  0  0  # atno 10765 bound_to 10752
  140.7864  133.8322  155.9339 H   0  0  0  0  0  0  0  0  0  0  0  0  # atno 11005 bound_to 11000
  144.9350  140.8017  143.5665 LP  0  0  0  0  0  0  0  0  0  0  0  0  # atno 17320 bound_to 7965
  145.2542  139.2019  143.4926 LP  0  0  0  0  0  0  0  0  0  0  0  0  # atno 17321 bound_to 7965
  139.4995  144.6670  151.6332 LP  0  0  0  0  0  0  0  0  0  0  0  0  # atno 17342 bound_to 10162
  140.5906  143.9785  150.6322 LP  0  0  0  0  0  0  0  0  0  0  0  0  # atno 17343 bound_to 10162
  156.0458  130.5535  150.8878 LP  0  0  0  0  0  0  0  0  0  0  0  0  # atno 17370 bound_to 10713
  157.5863  131.0945  150.9191 LP  0  0  0  0  0  0  0  0  0  0  0  0  # atno 17371 bound_to 10713
  140.9432  134.1874  157.4782 LP  0  0  0  0  0  0  0  0  0  0  0  0  # atno 17394 bound_to 11000
  139.8736  134.9880  156.5393 LP  0  0  0  0  0  0  0  0  0  0  0  0  # atno 17395 bound_to 11000

$$$$
