#       Name:                AV-unprocessed.smi:2430
#       Creating user name   scv26
#       Creation time:       Fri Mar 27 13:21:47 2020


#       File generated by GOLD software.
#

@<TRIPOS>MOLECULE
AV-unprocessed.smi:2430
    54    55     1
SMALL
NO_CHARGES


@<TRIPOS>ATOM
      1 ****        -6.0090  -1.5575  -2.5040 C.3            1 S1                 0.0000
      2 ****        -5.1861  -0.7687  -1.4801 C.3            1 S1                 0.0000
      3 ****        -3.6817  -1.0819  -1.5826 C.3            1 S1                 0.0000
      4 ****        -2.9406  -0.4172  -0.5140 N.3            1 S1                 0.0000
      5 ****        -1.5319  -0.3367  -0.6116 C.ar           1 S1                 0.0000
      6 ****        -0.8091  -0.9658  -1.6568 C.ar           1 S1                 0.0000
      7 ****         0.5915  -0.8329  -1.7009 C.ar           1 S1                 0.0000
      8 ****         1.2454  -0.0715  -0.7139 C.ar           1 S1                 0.0000
      9 ****         2.6617   0.0290  -0.7746 N.am           1 S1                 0.0000
     10 ****         3.4612   0.9412  -0.1954 C.2            1 S1                 0.0000
     11 ****         3.0793   1.9002   0.4751 O.2            1 S1                 0.0000
     12 ****         4.7520   0.6890  -0.4550 N.am           1 S1                 0.0000
     13 ****         5.8736   1.4882   0.0252 C.3            1 S1                 0.0000
     14 ****         6.2504   1.1234   1.4704 C.3            1 S1                 0.0000
     15 ****         7.4423   1.9394   1.9871 C.3            1 S1                 0.0000
     16 ****         7.7466   1.5576   3.3111 O.3            1 S1                 0.0000
     17 ****         0.4463   0.5093   0.2982 C.ar           1 S1                 0.0000
     18 ****        -0.8963   0.3831   0.3442 N.ar           1 S1                 0.0000
     19 ****        -3.4959  -0.6424   0.8204 C.3            1 S1                 0.0000
     20 ****        -5.0070  -0.3449   0.8395 C.3            1 S1                 0.0000
     21 ****        -5.6459  -0.7023   2.1855 C.3            1 S1                 0.0000
     22 ****        -5.6492  -1.1086  -0.1769 O.3            1 S1                 0.0000
     23 ****        -5.6973  -1.3234  -3.5223 H              1 S1                 0.0000
     24 ****        -7.0693  -1.3187  -2.4182 H              1 S1                 0.0000
     25 ****        -5.8964  -2.6321  -2.3574 H              1 S1                 0.0000
     26 ****        -5.3511   0.2966  -1.6518 H              1 S1                 0.0000
     27 ****        -3.5125  -2.1577  -1.5195 H              1 S1                 0.0000
     28 ****        -3.3235  -0.7461  -2.5562 H              1 S1                 0.0000
     29 ****        -1.2938  -1.5541  -2.4207 H              1 S1                 0.0000
     30 ****         1.1548  -1.3112  -2.4891 H              1 S1                 0.0000
     31 ****         3.1185  -0.6509  -1.3646 H              1 S1                 0.0000
     32 ****         4.9762  -0.1168  -1.0204 H              1 S1                 0.0000
     33 ****         6.7222   1.3099  -0.6359 H              1 S1                 0.0000
     34 ****         5.6378   2.5511  -0.0525 H              1 S1                 0.0000
     35 ****         5.3933   1.2855   2.1257 H              1 S1                 0.0000
     36 ****         6.4859   0.0595   1.5267 H              1 S1                 0.0000
     37 ****         8.3200   1.7793   1.3606 H              1 S1                 0.0000
     38 ****         7.2155   3.0058   1.9679 H              1 S1                 0.0000
     39 ****         8.4773   2.0753   3.6133 H              1 S1                 0.0000
     40 ****         0.8719   1.0749   1.1118 H              1 S1                 0.0000
     41 ****        -3.3116  -1.6796   1.1033 H              1 S1                 0.0000
     42 ****        -3.0096  -0.0173   1.5692 H              1 S1                 0.0000
     43 ****        -5.1741   0.7169   0.6495 H              1 S1                 0.0000
     44 ****        -5.1947  -0.1314   2.9974 H              1 S1                 0.0000
     45 ****        -5.5229  -1.7617   2.4119 H              1 S1                 0.0000
     46 ****        -6.7140  -0.4845   2.1798 H              1 S1                 0.0000
     47 ****        -3.1305   0.5452  -0.7084 LP             1 S1                 0.0000
     48 ****         2.1017   2.0480   0.6247 LP             1 S1                 0.0000
     49 ****         3.7467   2.5315   0.8702 LP             1 S1                 0.0000
     50 ****         7.9881   0.5875   3.3351 LP             1 S1                 0.0000
     51 ****         6.9537   1.7183   3.8989 LP             1 S1                 0.0000
     52 ****        -1.4183   0.8176   1.0782 LP             1 S1                 0.0000
     53 ****        -5.4681  -2.0784  -0.0137 LP             1 S1                 0.0000
     54 ****        -6.6341  -0.9412  -0.1314 LP             1 S1                 0.0000
@<TRIPOS>BOND
    1    1    2 1     
    2    1   23 1     
    3    1   24 1     
    4    1   25 1     
    5    2   22 1     
    6    2    3 1     
    7    2   26 1     
    8    3    4 1     
    9    3   27 1     
   10    3   28 1     
   11    4    5 1     
   12    4   19 1     
   13    5   18 ar    
   14    5    6 ar    
   15    6    7 ar    
   16    6   29 1     
   17    7    8 ar    
   18    7   30 1     
   19    8    9 1     
   20    8   17 ar    
   21    9   10 am    
   22    9   31 1     
   23   10   11 2     
   24   10   12 am    
   25   12   13 1     
   26   12   32 1     
   27   13   14 1     
   28   13   33 1     
   29   13   34 1     
   30   14   15 1     
   31   14   35 1     
   32   14   36 1     
   33   15   16 1     
   34   15   37 1     
   35   15   38 1     
   36   16   39 1     
   37   17   18 ar    
   38   17   40 1     
   39   19   20 1     
   40   19   41 1     
   41   19   42 1     
   42   20   21 1     
   43   20   22 1     
   44   20   43 1     
   45   21   44 1     
   46   21   45 1     
   47   21   46 1     
   48    4   47 1     
   49   11   48 1     
   50   11   49 1     
   51   16   50 1     
   52   16   51 1     
   53   18   52 1     
   54   22   53 1     
   55   22   54 1     
@<TRIPOS>SUBSTRUCTURE
      1 S1             1
@<TRIPOS>SET
LONE_PAIRS      STATIC     ATOMS    <user>   **** ""
8 47 48 49 50 51 52 53 54
DONOR_HYDROGENS      STATIC     ATOMS    <user>   **** ""
3 31 32 39
ATOM$BLUE        STATIC     ATOMS    COLORGROUP SYSTEM
8 47 48 49 50 51 52 53 54
ATOM$RED        STATIC     ATOMS    COLORGROUP SYSTEM
3 31 32 39
