AV-unprocessed.smi:3281|AV-procd|sdf|12558|dock7
  -GOLD-   2272018483D 1   1.00000     0.00000
 Structure written by MMmdl.
 36 37  0  0  0  0  0  0  0  0  1 V2000
  146.6947  141.9044  153.9807 C   0  0  0  0  0  0  0  0  0  0  0  0
  147.2799  140.5716  153.5010 C   0  0  0  0  0  0  0  0  0  0  0  0
  148.5979  140.2507  154.1250 C   0  0  0  0  0  0  0  0  0  0  0  0
  149.3793  139.1427  153.9088 C   0  0  0  0  0  0  0  0  0  0  0  0
  150.5590  139.1287  154.6560 N   0  0  0  0  0  0  0  0  0  0  0  0
  150.6903  140.2141  155.4231 C   0  0  0  0  0  0  0  0  0  0  0  0
  151.8381  140.4381  156.3547 C   0  0  0  0  0  0  0  0  0  0  0  0
  151.4136  140.5315  157.8289 C   0  0  0  0  0  0  0  0  0  0  0  0
  152.4337  141.2155  158.6126 N   0  0  0  0  0  0  0  0  0  0  0  0
  151.8907  142.3315  159.3760 C   0  0  2  0  0  0  0  0  0  0  0  0
  151.6105  143.4805  158.3878 C   0  0  0  0  0  0  0  0  0  0  0  0
  150.9790  144.7041  159.0706 C   0  0  0  0  0  0  0  0  0  0  0  0
  151.8918  145.3078  160.1466 C   0  0  0  0  0  0  0  0  0  0  0  0
  152.2142  144.1178  161.4760 S   0  0  0  0  0  0  0  0  0  0  0  0
  152.8859  142.7640  160.4734 C   0  0  0  0  0  0  0  0  0  0  0  0
  149.3332  141.3253  155.2870 S   0  0  0  0  0  0  0  0  0  0  0  0
  145.7325  142.0991  153.5068 H   0  0  0  0  0  0  0  0  0  0  0  0
  147.3579  142.7361  153.7410 H   0  0  0  0  0  0  0  0  0  0  0  0
  146.5399  141.8996  155.0599 H   0  0  0  0  0  0  0  0  0  0  0  0
  146.5710  139.7708  153.7141 H   0  0  0  0  0  0  0  0  0  0  0  0
  147.3905  140.5953  152.4165 H   0  0  0  0  0  0  0  0  0  0  0  0
  149.1706  138.3153  153.2469 H   0  0  0  0  0  0  0  0  0  0  0  0
  152.5685  139.6388  156.2201 H   0  0  0  0  0  0  0  0  0  0  0  0
  152.3379  141.3618  156.0623 H   0  0  0  0  0  0  0  0  0  0  0  0
  150.4764  141.0830  157.9098 H   0  0  0  0  0  0  0  0  0  0  0  0
  151.2321  139.5298  158.2173 H   0  0  0  0  0  0  0  0  0  0  0  0
  152.8961  140.5651  159.2325 H   0  0  0  0  0  0  0  0  0  0  0  0
  150.9455  142.0274  159.8286 H   0  0  0  0  0  0  0  0  0  0  0  0
  152.5332  143.7792  157.8879 H   0  0  0  0  0  0  0  0  0  0  0  0
  150.9382  143.1313  157.6028 H   0  0  0  0  0  0  0  0  0  0  0  0
  150.7615  145.4628  158.3181 H   0  0  0  0  0  0  0  0  0  0  0  0
  150.0205  144.4281  159.5120 H   0  0  0  0  0  0  0  0  0  0  0  0
  152.8411  145.6192  159.7098 H   0  0  0  0  0  0  0  0  0  0  0  0
  151.4307  146.1968  160.5775 H   0  0  0  0  0  0  0  0  0  0  0  0
  153.1199  141.9406  161.1475 H   0  0  0  0  0  0  0  0  0  0  0  0
  153.8285  143.0886  160.0308 H   0  0  0  0  0  0  0  0  0  0  0  0
  1  2  1  0  0  0  0
  1 17  1  0  0  0  0
  1 18  1  0  0  0  0
  1 19  1  0  0  0  0
  2  3  1  0  0  0  0
  2 20  1  0  0  0  0
  2 21  1  0  0  0  0
  3 16  1  0  0  0  0
  3  4  2  0  0  0  0
  4  5  1  0  0  0  0
  4 22  1  0  0  0  0
  5  6  2  0  0  0  0
  6  7  1  0  0  0  0
  6 16  1  0  0  0  0
  7  8  1  0  0  0  0
  7 23  1  0  0  0  0
  7 24  1  0  0  0  0
  8  9  1  0  0  0  0
  8 25  1  0  0  0  0
  8 26  1  0  0  0  0
  9 10  1  0  0  0  0
  9 27  1  0  0  0  0
 10 15  1  0  0  0  0
 10 11  1  0  0  0  0
 10 28  1  0  0  0  0
 11 12  1  0  0  0  0
 11 29  1  0  0  0  0
 11 30  1  0  0  0  0
 12 13  1  0  0  0  0
 12 31  1  0  0  0  0
 12 32  1  0  0  0  0
 13 14  1  0  0  0  0
 13 33  1  0  0  0  0
 13 34  1  0  0  0  0
 14 15  1  0  0  0  0
 15 35  1  0  0  0  0
 15 36  1  0  0  0  0
M  END
> <s_m_source_file>
AV-unprocessed.smi

> <i_m_source_file_index>
3281

> <i_lp_mmshare_version>
43012

> <i_f3d_flags>
0

> <s_epik_input>
W0NIM11bQ0gyXWMxW2NIXW5jKHMxKVtDSDJdW0NIMl1bTkhdW0NAQEhdMltDSDJdW0NIMl1bQ0gyXVNbQ0gyXTI=

> <s_epik_cmdline>
J2VwaWtfcHl0aG9uJywgJy1waCcsICc3LjAnLCAnLXRuJywgJzgnLCAnLW1hJywgJzIwMCcsICctbWV0YWxfYmluZGluZycsICctaW1hZScsICc8aW5maWxlLm1hZT4nLCAnLW9tYWUnLCAnPG91dGZpbGUubWFlPic=

> <r_epik_Ionization_Penalty>
2.53829

> <r_epik_Ionization_Penalty_Charging>
0

> <r_epik_Ionization_Penalty_Neutral>
2.53829

> <r_epik_State_Penalty>
2.70274

> <r_epik_Charging_Adjusted_Penalty>
2.70274

> <i_epik_Tot_Q>
0

> <i_epik_Tot_abs_Q>
0

> <r_epik_Metal_State_Penalty>
2.69977

> <b_epik_Metal_Only>
0

> <s_lp_Force_Field>
OPLS_2005

> <r_lp_Energy>
0.229732

> <b_lp_Chiralities_Consistent>
1

> <s_lp_Variant>
AV-unprocessed.smi:3281-3

> <Gold.Version>
5.8.1

> <Gold.Id.Protein>
6NUR|6NUR_protein|mol2

> <Gold.PLP.Fitness>
42.7956

> <Gold.PLP.PLP>
-40.6456

> <Gold.PLP.part.hbond>
-0.0133

> <Gold.PLP.part.metal>
0.0000

> <Gold.PLP.part.buried>
-1.8641

> <Gold.PLP.part.nonpolar>
-38.6423

> <Gold.PLP.part.repulsive>
0.1214

> <Gold.PLP.ligand.clash>
0.0000

> <Gold.PLP.ligand.torsion>
0.5813

> <Gold.PLP.Chemscore.Hbond>
0.0000

> <Gold.PLP.Chemscore.CHOScore>
1.0990

> <Gold.PLP.Chemscore.Metal>
0.0000

> <Gold.Chemscore.Hbonds>
donor molecule, donor type, donor heavy atom, donor atom, acceptor molecule, acceptor atom, score
      L1  C     4    22       P1  7948  1.00
      L1  C     4    22       P1  7957  0.08

> <Gold.PLP.Chemscore.Internal.Correction>
0.0156

> <Gold.Rescore>
     Score         DG    S(hbond)    S(metal)    S(lipo)     H(rot)  DE(clash)    DE(int)     intcor
     15.86     -16.56       0.00        0.00     123.06       1.30       0.16       0.53       ----

> <Gold.Chemscore.Fitness>
15.8649

> <Gold.Chemscore.DG>
-16.5574

> <Gold.Chemscore.ZeroCoef>
-5.4800

> <Gold.Chemscore.Hbond>
0.0000

> <Gold.Chemscore.Metal>
0.0000

> <Gold.Chemscore.Lipo>
123.0612

> <Gold.Chemscore.Internal_Hbond>
0.0000

> <Gold.Chemscore.DEClash>
0.1580

> <Gold.Chemscore.DEInternal>
0.5345

> <Gold.Chemscore.Rot>
1.2972

> <Gold.Chemscore.Internal.Correction>
   9.000000E+99

> <Gold.Chemscore.Hbond.Weighted>
-0.0000

> <Gold.Chemscore.Metal.Weighted>
-0.0000

> <Gold.Chemscore.Lipo.Weighted>
-14.3982

> <Gold.Chemscore.Internal_Hbond.Weighted>
0.0000

> <Gold.Chemscore.DEClash.Weighted>
0.1580

> <Gold.Chemscore.DEInternal.Weighted>
0.5345

> <Gold.Chemscore.Rot.Weighted>
3.3208

> <Gold.Chemscore.Internal.Correction.Weighted>
   9.000000E+99

> <Gold.Protein.RotatedTorsions>
[ 6907 6896 6895 6894 ] final -171.63 input  -60.11 | X-H torsion
[ 7974 7965 7964 7962 ] final  -34.14 input  175.53 | X-H torsion
[ 8008 7997 7996 7995 ] final   30.49 input   59.86 | X-H torsion
[ 10167 10162 10161 10158 ] final   62.18 input  -65.29 | X-H torsion
[ 10718 10713 10712 10709 ] final   33.90 input   66.30 | X-H torsion
[ 10763 10752 10751 10750 ] final  -13.08 input  -60.55 | X-H torsion
[ 11005 11000 10999 10996 ] final  173.59 input  -57.11 | X-H torsion

> <Gold.Protein.ActiveResidues>
 VAL166  LYS551  ARG553  GLY616  TRP617  ASP618  TYR619  PRO620  LYS621  CYS622 
 ASP623  PHE694  ASN695  SER759  ASP760  ASP761  ALA762  ILE779  LEU786  VAL792 
 PHE793  MET794  SER795  GLU796  ALA797  LYS798  CYS799  TRP800  GLU811  SER814 

> <Gold.Protein.RotatedAtoms>
  151.5269  133.3456  159.2910 H   0  0  0  0  0  0  0  0  0  0  0  0  # atno 6907 bound_to 6896
  150.8617  134.7973  159.7099 H   0  0  0  0  0  0  0  0  0  0  0  0  # atno 6908 bound_to 6896
  152.4635  134.5139  159.9814 H   0  0  0  0  0  0  0  0  0  0  0  0  # atno 6909 bound_to 6896
  146.0854  140.6002  142.8889 H   0  0  0  0  0  0  0  0  0  0  0  0  # atno 7974 bound_to 7965
  155.0912  140.3220  155.4573 H   0  0  0  0  0  0  0  0  0  0  0  0  # atno 8008 bound_to 7997
  156.2742  140.2077  156.5986 H   0  0  0  0  0  0  0  0  0  0  0  0  # atno 8009 bound_to 7997
  154.6901  140.0517  157.0342 H   0  0  0  0  0  0  0  0  0  0  0  0  # atno 8010 bound_to 7997
  140.1466  144.4502  150.6781 H   0  0  0  0  0  0  0  0  0  0  0  0  # atno 10167 bound_to 10162
  157.3036  130.7363  149.6682 H   0  0  0  0  0  0  0  0  0  0  0  0  # atno 10718 bound_to 10713
  153.5080  135.7016  153.5796 H   0  0  0  0  0  0  0  0  0  0  0  0  # atno 10763 bound_to 10752
  153.3898  135.3899  155.1915 H   0  0  0  0  0  0  0  0  0  0  0  0  # atno 10764 bound_to 10752
  154.8705  135.3855  154.4557 H   0  0  0  0  0  0  0  0  0  0  0  0  # atno 10765 bound_to 10752
  140.3421  134.7267  157.4209 H   0  0  0  0  0  0  0  0  0  0  0  0  # atno 11005 bound_to 11000
  144.7322  140.4705  143.6929 LP  0  0  0  0  0  0  0  0  0  0  0  0  # atno 17320 bound_to 7965
  145.6140  139.1516  143.3060 LP  0  0  0  0  0  0  0  0  0  0  0  0  # atno 17321 bound_to 7965
  140.6728  143.2292  151.5583 LP  0  0  0  0  0  0  0  0  0  0  0  0  # atno 17342 bound_to 10162
  139.5446  144.2556  152.1417 LP  0  0  0  0  0  0  0  0  0  0  0  0  # atno 17343 bound_to 10162
  155.9673  130.4272  150.4735 LP  0  0  0  0  0  0  0  0  0  0  0  0  # atno 17370 bound_to 10713
  157.2720  131.0589  151.2253 LP  0  0  0  0  0  0  0  0  0  0  0  0  # atno 17371 bound_to 10713
  140.0772  134.5780  155.8578 LP  0  0  0  0  0  0  0  0  0  0  0  0  # atno 17394 bound_to 11000
  141.2035  133.6633  156.6070 LP  0  0  0  0  0  0  0  0  0  0  0  0  # atno 17395 bound_to 11000

$$$$
