AV-unprocessed.smi:3343|AV-procd|sdf|12894|dock1
  -GOLD-   2272019303D 1   1.00000     0.00000
 Structure written by MMmdl.
 41 42  0  0  0  0  0  0  0  0  1 V2000
  152.0093  145.1559  158.6388 C   0  0  0  0  0  0  0  0  0  0  0  0
  151.7381  144.7467  160.1009 C   0  0  1  0  0  0  0  0  0  0  0  0
  150.2408  144.5549  160.3851 C   0  0  0  0  0  0  0  0  0  0  0  0
  149.5853  143.7280  159.7503 O   0  0  0  0  0  0  0  0  0  0  0  0
  149.7141  145.3310  161.3459 N   0  0  0  0  0  0  0  0  0  0  0  0
  148.3138  145.3359  161.7566 C   0  0  0  0  0  0  0  0  0  0  0  0
  147.3670  145.3688  160.5408 C   0  0  0  0  0  0  0  0  0  0  0  0
  145.9406  145.2647  160.8482 N   0  0  0  0  0  0  0  0  0  0  0  0
  145.1027  145.2593  159.6450 C   0  0  0  0  0  0  0  0  0  0  0  0
  143.6075  145.1623  160.0007 C   0  0  0  0  0  0  0  0  0  0  0  0
  143.3202  143.9565  160.7751 N   0  0  0  0  0  0  0  0  0  0  0  0
  141.9077  143.8607  161.1094 C   0  0  0  0  0  0  0  0  0  0  0  0
  144.1571  143.9527  161.9730 C   0  0  0  0  0  0  0  0  0  0  0  0
  145.6516  144.0519  161.6139 C   0  0  0  0  0  0  0  0  0  0  0  0
  152.4805  143.5545  160.4919 N   0  0  0  0  0  0  0  0  0  0  0  0
  152.5475  142.9368  161.6734 C   0  0  0  0  0  0  0  0  0  0  0  0
  153.2882  141.8376  161.6665 N   0  0  0  0  0  0  0  0  0  0  0  0
  153.6652  141.8255  160.3537 C   0  0  0  0  0  0  0  0  0  0  0  0
  153.2006  142.8243  159.6037 N   0  0  0  0  0  0  0  0  0  0  0  0
  151.4835  146.0773  158.3863 H   0  0  0  0  0  0  0  0  0  0  0  0
  151.6898  144.3906  157.9301 H   0  0  0  0  0  0  0  0  0  0  0  0
  153.0730  145.3322  158.4763 H   0  0  0  0  0  0  0  0  0  0  0  0
  152.0926  145.5636  160.7321 H   0  0  0  0  0  0  0  0  0  0  0  0
  150.3258  145.9830  161.8149 H   0  0  0  0  0  0  0  0  0  0  0  0
  148.0894  144.5042  162.4253 H   0  0  0  0  0  0  0  0  0  0  0  0
  148.1563  146.2374  162.3488 H   0  0  0  0  0  0  0  0  0  0  0  0
  147.5485  146.2819  159.9722 H   0  0  0  0  0  0  0  0  0  0  0  0
  147.6495  144.5490  159.8790 H   0  0  0  0  0  0  0  0  0  0  0  0
  145.2609  146.1686  159.0669 H   0  0  0  0  0  0  0  0  0  0  0  0
  145.3813  144.4262  158.9978 H   0  0  0  0  0  0  0  0  0  0  0  0
  143.3083  146.0489  160.5623 H   0  0  0  0  0  0  0  0  0  0  0  0
  143.0177  145.1602  159.0834 H   0  0  0  0  0  0  0  0  0  0  0  0
  141.7039  142.9456  161.6664 H   0  0  0  0  0  0  0  0  0  0  0  0
  141.2980  143.8422  160.2056 H   0  0  0  0  0  0  0  0  0  0  0  0
  141.5881  144.7074  161.7184 H   0  0  0  0  0  0  0  0  0  0  0  0
  143.8823  144.7841  162.6244 H   0  0  0  0  0  0  0  0  0  0  0  0
  143.9820  143.0389  162.5419 H   0  0  0  0  0  0  0  0  0  0  0  0
  145.9520  143.1695  161.0461 H   0  0  0  0  0  0  0  0  0  0  0  0
  146.2397  144.0468  162.5324 H   0  0  0  0  0  0  0  0  0  0  0  0
  152.0407  143.2970  162.5568 H   0  0  0  0  0  0  0  0  0  0  0  0
  154.2961  141.0545  159.9367 H   0  0  0  0  0  0  0  0  0  0  0  0
  1  2  1  0  0  0  0
  1 20  1  0  0  0  0
  1 21  1  0  0  0  0
  1 22  1  0  0  0  0
  2  3  1  0  0  0  0
  2 15  1  0  0  0  0
  2 23  1  0  0  0  0
  3  4  2  0  0  0  0
  3  5  1  0  0  0  0
  5  6  1  0  0  0  0
  5 24  1  0  0  0  0
  6  7  1  0  0  0  0
  6 25  1  0  0  0  0
  6 26  1  0  0  0  0
  7  8  1  0  0  0  0
  7 27  1  0  0  0  0
  7 28  1  0  0  0  0
  8 14  1  0  0  0  0
  8  9  1  0  0  0  0
  9 10  1  0  0  0  0
  9 29  1  0  0  0  0
  9 30  1  0  0  0  0
 10 11  1  0  0  0  0
 10 31  1  0  0  0  0
 10 32  1  0  0  0  0
 11 12  1  0  0  0  0
 11 13  1  0  0  0  0
 12 33  1  0  0  0  0
 12 34  1  0  0  0  0
 12 35  1  0  0  0  0
 13 14  1  0  0  0  0
 13 36  1  0  0  0  0
 13 37  1  0  0  0  0
 14 38  1  0  0  0  0
 14 39  1  0  0  0  0
 15 19  1  0  0  0  0
 15 16  1  0  0  0  0
 16 17  2  0  0  0  0
 16 40  1  0  0  0  0
 17 18  1  0  0  0  0
 18 19  2  0  0  0  0
 18 41  1  0  0  0  0
M  END
> <s_m_source_file>
AV-unprocessed.smi

> <i_m_source_file_index>
3343

> <i_lp_mmshare_version>
43012

> <i_f3d_flags>
0

> <s_epik_input>
bjFbY0hdbltjSF1uMVtDQEhdKFtDSDNdKUMoPU8pW05IXVtDSDJdW0NIMl1OMltDSDJdW0NIMl1OKFtDSDNdKVtDSDJdW0NIMl0y

> <s_epik_cmdline>
J2VwaWtfcHl0aG9uJywgJy1waCcsICc3LjAnLCAnLXRuJywgJzgnLCAnLW1hJywgJzIwMCcsICctbWV0YWxfYmluZGluZycsICctaW1hZScsICc8aW5maWxlLm1hZT4nLCAnLW9tYWUnLCAnPG91dGZpbGUubWFlPic=

> <r_lp_tautomer_probability>
1

> <r_epik_Ionization_Penalty>
1.97295

> <r_epik_Ionization_Penalty_Charging>
0

> <r_epik_Ionization_Penalty_Neutral>
1.97295

> <r_epik_State_Penalty>
1.8027

> <r_epik_Charging_Adjusted_Penalty>
1.8027

> <i_epik_Tot_Q>
0

> <i_epik_Tot_abs_Q>
0

> <r_epik_Metal_State_Penalty>
1.8027

> <b_epik_Metal_Only>
0

> <s_lp_Force_Field>
OPLS_2005

> <r_lp_Energy>
40.9653

> <b_lp_Chiralities_Consistent>
1

> <s_lp_Variant>
AV-unprocessed.smi:3343-4

> <Gold.Version>
5.8.1

> <Gold.Id.Protein>
6NUR|6NUR_protein|mol2

> <Gold.PLP.Fitness>
42.8561

> <Gold.PLP.PLP>
-42.8034

> <Gold.PLP.part.hbond>
-2.0000

> <Gold.PLP.part.metal>
0.0000

> <Gold.PLP.part.buried>
-7.9114

> <Gold.PLP.part.nonpolar>
-33.5315

> <Gold.PLP.part.repulsive>
0.5339

> <Gold.PLP.ligand.clash>
0.0000

> <Gold.PLP.ligand.torsion>
0.1756

> <Gold.PLP.Chemscore.Hbond>
0.0897

> <Gold.PLP.Chemscore.CHOScore>
0.0000

> <Gold.PLP.Chemscore.Metal>
0.0000

> <Gold.Chemscore.Hbonds>
donor molecule, donor type, donor heavy atom, donor atom, acceptor molecule, acceptor atom, score
      P1  H  6933  6944       L1     4  0.02

> <Gold.PLP.Chemscore.Internal.Correction>
0.1347

> <Gold.Rescore>
     Score         DG    S(hbond)    S(metal)    S(lipo)     H(rot)  DE(clash)    DE(int)     intcor
      3.82      -7.18       0.15        0.00      66.33       2.56       2.08       1.28       ----

> <Gold.Chemscore.Fitness>
3.8231

> <Gold.Chemscore.DG>
-7.1831

> <Gold.Chemscore.ZeroCoef>
-5.4800

> <Gold.Chemscore.Hbond>
0.1469

> <Gold.Chemscore.Metal>
0.0000

> <Gold.Chemscore.Lipo>
66.3259

> <Gold.Chemscore.Internal_Hbond>
0.0000

> <Gold.Chemscore.DEClash>
2.0790

> <Gold.Chemscore.DEInternal>
1.2810

> <Gold.Chemscore.Rot>
2.5577

> <Gold.Chemscore.Internal.Correction>
   9.000000E+99

> <Gold.Chemscore.Hbonds>
donor molecule, donor type, donor heavy atom, donor atom, acceptor molecule, acceptor atom, score
      P1  H  6933  6944       L1     4  0.02

> <Gold.Chemscore.Hbond.Weighted>
-0.4907

> <Gold.Chemscore.Metal.Weighted>
-0.0000

> <Gold.Chemscore.Lipo.Weighted>
-7.7601

> <Gold.Chemscore.Internal_Hbond.Weighted>
0.0000

> <Gold.Chemscore.DEClash.Weighted>
2.0790

> <Gold.Chemscore.DEInternal.Weighted>
1.2810

> <Gold.Chemscore.Rot.Weighted>
6.5477

> <Gold.Chemscore.Internal.Correction.Weighted>
   9.000000E+99

> <Gold.Protein.RotatedTorsions>
[ 6907 6896 6895 6894 ] final   13.54 input  -60.11 | X-H torsion
[ 7974 7965 7964 7962 ] final  -33.36 input  175.53 | X-H torsion
[ 8008 7997 7996 7995 ] final -114.85 input   59.86 | X-H torsion
[ 10167 10162 10161 10158 ] final -161.04 input  -65.29 | X-H torsion
[ 10718 10713 10712 10709 ] final   79.76 input   66.30 | X-H torsion
[ 10763 10752 10751 10750 ] final -114.33 input  -60.55 | X-H torsion
[ 11005 11000 10999 10996 ] final  -32.21 input  -57.11 | X-H torsion

> <Gold.Protein.ActiveResidues>
 VAL166  LYS551  ARG553  GLY616  TRP617  ASP618  TYR619  PRO620  LYS621  CYS622 
 ASP623  PHE694  ASN695  SER759  ASP760  ASP761  ALA762  ILE779  LEU786  VAL792 
 PHE793  MET794  SER795  GLU796  ALA797  LYS798  CYS799  TRP800  GLU811  SER814 

> <Gold.Protein.RotatedAtoms>
  151.7880  135.0743  160.0382 H   0  0  0  0  0  0  0  0  0  0  0  0  # atno 6907 bound_to 6896
  152.3176  133.5815  159.5731 H   0  0  0  0  0  0  0  0  0  0  0  0  # atno 6908 bound_to 6896
  150.7352  133.9975  159.3669 H   0  0  0  0  0  0  0  0  0  0  0  0  # atno 6909 bound_to 6896
  146.0917  140.5907  142.8861 H   0  0  0  0  0  0  0  0  0  0  0  0  # atno 7974 bound_to 7965
  155.0427  140.0392  157.2515 H   0  0  0  0  0  0  0  0  0  0  0  0  # atno 8008 bound_to 7997
  154.7203  140.2710  155.6524 H   0  0  0  0  0  0  0  0  0  0  0  0  # atno 8009 bound_to 7997
  156.2814  140.2704  156.1872 H   0  0  0  0  0  0  0  0  0  0  0  0  # atno 8010 bound_to 7997
  139.6494  144.0111  152.2151 H   0  0  0  0  0  0  0  0  0  0  0  0  # atno 10167 bound_to 10162
  157.6786  130.9928  150.1979 H   0  0  0  0  0  0  0  0  0  0  0  0  # atno 10718 bound_to 10713
  154.8435  135.4422  154.1489 H   0  0  0  0  0  0  0  0  0  0  0  0  # atno 10763 bound_to 10752
  153.2655  135.6940  153.7540 H   0  0  0  0  0  0  0  0  0  0  0  0  # atno 10764 bound_to 10752
  153.6801  135.3404  155.3151 H   0  0  0  0  0  0  0  0  0  0  0  0  # atno 10765 bound_to 10752
  140.9533  133.7208  156.1254 H   0  0  0  0  0  0  0  0  0  0  0  0  # atno 11005 bound_to 11000
  144.7365  140.4822  143.6900 LP  0  0  0  0  0  0  0  0  0  0  0  0  # atno 17320 bound_to 7965
  145.6027  139.1505  143.3120 LP  0  0  0  0  0  0  0  0  0  0  0  0  # atno 17321 bound_to 7965
  139.9821  144.6421  150.7891 LP  0  0  0  0  0  0  0  0  0  0  0  0  # atno 17342 bound_to 10162
  140.7530  143.3001  151.3102 LP  0  0  0  0  0  0  0  0  0  0  0  0  # atno 17343 bound_to 10162
  156.2676  130.3718  149.8065 LP  0  0  0  0  0  0  0  0  0  0  0  0  # atno 17370 bound_to 10713
  156.5791  130.8458  151.3378 LP  0  0  0  0  0  0  0  0  0  0  0  0  # atno 17371 bound_to 10713
  140.7572  134.3979  157.5532 LP  0  0  0  0  0  0  0  0  0  0  0  0  # atno 17394 bound_to 11000
  139.8854  134.8938  156.2645 LP  0  0  0  0  0  0  0  0  0  0  0  0  # atno 17395 bound_to 11000

$$$$
