AV-unprocessed.smi:3161|AV-procd|sdf|12059|dock10
  -GOLD-   2272017483D 1   1.00000     0.00000
 Structure written by MMmdl.
 40 41  0  0  0  0  0  0  0  0  1 V2000
  146.0124  143.0600  153.5515 C   0  0  0  0  0  0  0  0  0  0  0  0
  146.8586  141.9345  154.0728 C   0  0  0  0  0  0  0  0  0  0  0  0
  146.8732  140.5775  153.6414 C   0  0  0  0  0  0  0  0  0  0  0  0
  147.7421  139.8351  154.3076 N   0  0  0  0  0  0  0  0  0  0  0  0
  148.3070  140.6869  155.1898 N   0  0  0  0  0  0  0  0  0  0  0  0
  149.3253  140.2095  156.1094 C   0  0  0  0  0  0  0  0  0  0  0  0
  150.6909  140.8880  155.8807 C   0  0  2  0  0  0  0  0  0  0  0  0
  151.8120  140.0677  156.5445 C   0  0  0  0  0  0  0  0  0  0  0  0
  150.6604  142.2674  156.3799 N   0  0  0  0  0  0  0  0  0  0  0  0
  150.1543  142.4393  157.7401 C   0  0  0  0  0  0  0  0  0  0  0  0
  151.2451  143.0065  158.6595 C   0  0  2  0  0  0  0  0  0  0  0  0
  152.1830  141.9012  159.1815 C   0  0  0  0  0  0  0  0  0  0  0  0
  153.2062  142.4828  160.1640 C   0  0  0  0  0  0  0  0  0  0  0  0
  152.4800  143.2589  161.2676 C   0  0  0  0  0  0  0  0  0  0  0  0
  151.5151  144.2846  160.6526 C   0  0  0  0  0  0  0  0  0  0  0  0
  150.6065  143.6290  159.7732 O   0  0  0  0  0  0  0  0  0  0  0  0
  147.7943  141.9608  155.0680 C   0  0  0  0  0  0  0  0  0  0  0  0
  145.2542  142.7069  152.8520 H   0  0  0  0  0  0  0  0  0  0  0  0
  146.6128  143.8030  153.0266 H   0  0  0  0  0  0  0  0  0  0  0  0
  145.4901  143.5774  154.3563 H   0  0  0  0  0  0  0  0  0  0  0  0
  146.2818  140.1131  152.8661 H   0  0  0  0  0  0  0  0  0  0  0  0
  148.9851  140.3599  157.1357 H   0  0  0  0  0  0  0  0  0  0  0  0
  149.4147  139.1316  155.9681 H   0  0  0  0  0  0  0  0  0  0  0  0
  150.8810  140.9033  154.8067 H   0  0  0  0  0  0  0  0  0  0  0  0
  151.7778  139.0277  156.2190 H   0  0  0  0  0  0  0  0  0  0  0  0
  151.7202  140.0757  157.6312 H   0  0  0  0  0  0  0  0  0  0  0  0
  152.8016  140.4442  156.2870 H   0  0  0  0  0  0  0  0  0  0  0  0
  150.1293  142.8538  155.7435 H   0  0  0  0  0  0  0  0  0  0  0  0
  149.2881  143.1002  157.7595 H   0  0  0  0  0  0  0  0  0  0  0  0
  149.8236  141.4734  158.1235 H   0  0  0  0  0  0  0  0  0  0  0  0
  151.8329  143.7450  158.1103 H   0  0  0  0  0  0  0  0  0  0  0  0
  151.5983  141.1266  159.6794 H   0  0  0  0  0  0  0  0  0  0  0  0
  152.6989  141.4186  158.3508 H   0  0  0  0  0  0  0  0  0  0  0  0
  153.8164  141.6882  160.5944 H   0  0  0  0  0  0  0  0  0  0  0  0
  153.8870  143.1494  159.6332 H   0  0  0  0  0  0  0  0  0  0  0  0
  151.9203  142.5652  161.8963 H   0  0  0  0  0  0  0  0  0  0  0  0
  153.2004  143.7585  161.9160 H   0  0  0  0  0  0  0  0  0  0  0  0
  150.9475  144.7827  161.4386 H   0  0  0  0  0  0  0  0  0  0  0  0
  152.0621  145.0608  160.1152 H   0  0  0  0  0  0  0  0  0  0  0  0
  148.1336  142.7720  155.6952 H   0  0  0  0  0  0  0  0  0  0  0  0
  1  2  1  0  0  0  0
  1 18  1  0  0  0  0
  1 19  1  0  0  0  0
  1 20  1  0  0  0  0
  2 17  2  0  0  0  0
  2  3  1  0  0  0  0
  3  4  2  0  0  0  0
  3 21  1  0  0  0  0
  4  5  1  0  0  0  0
  5  6  1  0  0  0  0
  5 17  1  0  0  0  0
  6  7  1  0  0  0  0
  6 22  1  0  0  0  0
  6 23  1  0  0  0  0
  7  8  1  0  0  0  0
  7  9  1  0  0  0  0
  7 24  1  0  0  0  0
  8 25  1  0  0  0  0
  8 26  1  0  0  0  0
  8 27  1  0  0  0  0
  9 10  1  0  0  0  0
  9 28  1  0  0  0  0
 10 11  1  0  0  0  0
 10 29  1  0  0  0  0
 10 30  1  0  0  0  0
 11 16  1  0  0  0  0
 11 12  1  0  0  0  0
 11 31  1  0  0  0  0
 12 13  1  0  0  0  0
 12 32  1  0  0  0  0
 12 33  1  0  0  0  0
 13 14  1  0  0  0  0
 13 34  1  0  0  0  0
 13 35  1  0  0  0  0
 14 15  1  0  0  0  0
 14 36  1  0  0  0  0
 14 37  1  0  0  0  0
 15 16  1  0  0  0  0
 15 38  1  0  0  0  0
 15 39  1  0  0  0  0
 17 40  1  0  0  0  0
M  END
> <s_m_source_file>
AV-unprocessed.smi

> <i_m_source_file_index>
3161

> <i_lp_mmshare_version>
43012

> <i_f3d_flags>
0

> <s_epik_input>
W0NIM11jMVtjSF1ubihbY0hdMSlbQ0gyXVtDQEhdKFtDSDNdKVtOSF1bQ0gyXVtDQEBIXTJbQ0gyXVtDSDJdW0NIMl1bQ0gyXU8y

> <s_epik_cmdline>
J2VwaWtfcHl0aG9uJywgJy1waCcsICc3LjAnLCAnLXRuJywgJzgnLCAnLW1hJywgJzIwMCcsICctbWV0YWxfYmluZGluZycsICctaW1hZScsICc8aW5maWxlLm1hZT4nLCAnLW9tYWUnLCAnPG91dGZpbGUubWFlPic=

> <r_lp_tautomer_probability>
1

> <r_epik_Ionization_Penalty>
2.51986

> <r_epik_Ionization_Penalty_Charging>
0

> <r_epik_Ionization_Penalty_Neutral>
2.51986

> <r_epik_State_Penalty>
2.68614

> <r_epik_Charging_Adjusted_Penalty>
2.68614

> <i_epik_Tot_Q>
0

> <i_epik_Tot_abs_Q>
0

> <r_epik_Metal_State_Penalty>
2.68606

> <b_epik_Metal_Only>
0

> <s_lp_Force_Field>
OPLS_2005

> <r_lp_Energy>
14.7371

> <b_lp_Chiralities_Consistent>
1

> <s_lp_Variant>
AV-unprocessed.smi:3161-5

> <Gold.Version>
5.8.1

> <Gold.Id.Protein>
6NUR|6NUR_protein|mol2

> <Gold.PLP.Fitness>
43.3480

> <Gold.PLP.PLP>
-36.1935

> <Gold.PLP.part.hbond>
-1.9582

> <Gold.PLP.part.metal>
0.0000

> <Gold.PLP.part.buried>
-3.8974

> <Gold.PLP.part.nonpolar>
-32.4782

> <Gold.PLP.part.repulsive>
0.2048

> <Gold.PLP.ligand.clash>
0.0000

> <Gold.PLP.ligand.torsion>
0.8022

> <Gold.PLP.Chemscore.Hbond>
0.9920

> <Gold.PLP.Chemscore.CHOScore>
1.9202

> <Gold.PLP.Chemscore.Metal>
0.0000

> <Gold.Chemscore.Hbonds>
donor molecule, donor type, donor heavy atom, donor atom, acceptor molecule, acceptor atom, score
      L1  H     9    28       P1  8028  0.40
      L1  C     3    21       P1 10175  0.65
      L1  C    17    40       P1  8028  1.00

> <Gold.PLP.Chemscore.Internal.Correction>
0.0224

> <Gold.Rescore>
     Score         DG    S(hbond)    S(metal)    S(lipo)     H(rot)  DE(clash)    DE(int)     intcor
     15.96     -16.80       0.92        0.00     103.25       1.50       0.07       0.76       ----

> <Gold.Chemscore.Fitness>
15.9607

> <Gold.Chemscore.DG>
-16.7985

> <Gold.Chemscore.ZeroCoef>
-5.4800

> <Gold.Chemscore.Hbond>
0.9239

> <Gold.Chemscore.Metal>
0.0000

> <Gold.Chemscore.Lipo>
103.2502

> <Gold.Chemscore.Internal_Hbond>
0.0000

> <Gold.Chemscore.DEClash>
0.0747

> <Gold.Chemscore.DEInternal>
0.7632

> <Gold.Chemscore.Rot>
1.5030

> <Gold.Chemscore.Internal.Correction>
   9.000000E+99

> <Gold.Chemscore.Hbonds>
donor molecule, donor type, donor heavy atom, donor atom, acceptor molecule, acceptor atom, score
      L1  H     9    28       P1  8028  0.41

> <Gold.Chemscore.Hbond.Weighted>
-3.0860

> <Gold.Chemscore.Metal.Weighted>
-0.0000

> <Gold.Chemscore.Lipo.Weighted>
-12.0803

> <Gold.Chemscore.Internal_Hbond.Weighted>
0.0000

> <Gold.Chemscore.DEClash.Weighted>
0.0747

> <Gold.Chemscore.DEInternal.Weighted>
0.7632

> <Gold.Chemscore.Rot.Weighted>
3.8477

> <Gold.Chemscore.Internal.Correction.Weighted>
   9.000000E+99

> <Gold.Protein.RotatedTorsions>
[ 6907 6896 6895 6894 ] final  -36.55 input  -60.11 | X-H torsion
[ 7974 7965 7964 7962 ] final  -98.72 input  175.53 | X-H torsion
[ 8008 7997 7996 7995 ] final -156.78 input   59.86 | X-H torsion
[ 10167 10162 10161 10158 ] final   60.86 input  -65.29 | X-H torsion
[ 10718 10713 10712 10709 ] final   85.66 input   66.30 | X-H torsion
[ 10763 10752 10751 10750 ] final   35.42 input  -60.55 | X-H torsion
[ 11005 11000 10999 10996 ] final -134.55 input  -57.11 | X-H torsion

> <Gold.Protein.ActiveResidues>
 VAL166  LYS551  ARG553  GLY616  TRP617  ASP618  TYR619  PRO620  LYS621  CYS622 
 ASP623  PHE694  ASN695  SER759  ASP760  ASP761  ALA762  ILE779  LEU786  VAL792 
 PHE793  MET794  SER795  GLU796  ALA797  LYS798  CYS799  TRP800  GLU811  SER814 

> <Gold.Protein.RotatedAtoms>
  151.0258  134.9503  159.8083 H   0  0  0  0  0  0  0  0  0  0  0  0  # atno 6907 bound_to 6896
  152.5335  134.2844  159.9029 H   0  0  0  0  0  0  0  0  0  0  0  0  # atno 6908 bound_to 6896
  151.2853  133.4148  159.2663 H   0  0  0  0  0  0  0  0  0  0  0  0  # atno 6909 bound_to 6896
  145.3169  140.9413  143.2737 H   0  0  0  0  0  0  0  0  0  0  0  0  # atno 7974 bound_to 7965
  155.7225  140.0792  157.2324 H   0  0  0  0  0  0  0  0  0  0  0  0  # atno 8008 bound_to 7997
  154.4043  140.1610  156.2472 H   0  0  0  0  0  0  0  0  0  0  0  0  # atno 8009 bound_to 7997
  155.9183  140.3399  155.6156 H   0  0  0  0  0  0  0  0  0  0  0  0  # atno 8010 bound_to 7997
  140.1610  144.4370  150.6709 H   0  0  0  0  0  0  0  0  0  0  0  0  # atno 10167 bound_to 10162
  157.6918  131.0184  150.2856 H   0  0  0  0  0  0  0  0  0  0  0  0  # atno 10718 bound_to 10713
  153.0120  135.6333  154.1824 H   0  0  0  0  0  0  0  0  0  0  0  0  # atno 10763 bound_to 10752
  154.1566  135.2826  155.3122 H   0  0  0  0  0  0  0  0  0  0  0  0  # atno 10764 bound_to 10752
  154.6013  135.5586  153.7438 H   0  0  0  0  0  0  0  0  0  0  0  0  # atno 10765 bound_to 10752
  140.8979  134.1727  157.4481 H   0  0  0  0  0  0  0  0  0  0  0  0  # atno 11005 bound_to 11000
  144.8970  139.4699  143.6650 LP  0  0  0  0  0  0  0  0  0  0  0  0  # atno 17320 bound_to 7965
  146.3097  139.7702  142.9029 LP  0  0  0  0  0  0  0  0  0  0  0  0  # atno 17321 bound_to 7965
  140.6643  143.2262  151.5781 LP  0  0  0  0  0  0  0  0  0  0  0  0  # atno 17342 bound_to 10162
  139.5381  144.2723  152.1294 LP  0  0  0  0  0  0  0  0  0  0  0  0  # atno 17343 bound_to 10162
  156.3395  130.3813  149.7421 LP  0  0  0  0  0  0  0  0  0  0  0  0  # atno 17370 bound_to 10713
  156.4934  130.8095  151.3104 LP  0  0  0  0  0  0  0  0  0  0  0  0  # atno 17371 bound_to 10713
  139.8738  134.9886  156.5419 LP  0  0  0  0  0  0  0  0  0  0  0  0  # atno 17394 bound_to 11000
  140.8266  133.8312  155.8945 LP  0  0  0  0  0  0  0  0  0  0  0  0  # atno 17395 bound_to 11000

$$$$
