AV-unprocessed.smi:3287|AV-procd|sdf|12594|dock4
  -GOLD-   2272018513D 1   1.00000     0.00000
 Structure written by MMmdl.
 43 44  0  0  0  0  0  0  0  0  2 V2000
  151.8445  140.9172  157.2078 C   0  0  0  0  0  0  0  0  0  0  0  0
  151.1356  140.4766  155.9147 C   0  0  2  0  0  0  0  0  0  0  0  0
  149.6186  140.7226  156.0422 C   0  0  0  0  0  0  0  0  0  0  0  0
  148.8604  140.3083  154.7745 C   0  0  0  0  0  0  0  0  0  0  0  0
  149.1160  138.8320  154.4356 C   0  0  1  0  0  0  0  0  0  0  0  0
  148.3706  138.4638  153.2115 N   0  3  0  0  0  0  0  0  0  0  0  0
  146.9031  138.3659  153.3698 C   0  0  0  0  0  0  0  0  0  0  0  0
  146.1937  138.2763  152.0075 C   0  0  1  0  0  0  0  0  0  0  0  0
  147.1401  138.5109  150.9829 O   0  0  0  0  0  0  0  0  0  0  0  0
  145.5005  136.9329  151.8402 C   0  0  0  0  0  0  0  0  0  0  0  0
  144.4590  136.5332  152.7059 C   0  0  0  0  0  0  0  0  0  0  0  0
  143.8496  135.2804  152.4943 C   0  0  0  0  0  0  0  0  0  0  0  0
  144.2092  134.4401  151.5006 N   0  0  0  0  0  0  0  0  0  0  0  0
  145.2035  134.8282  150.6740 C   0  0  0  0  0  0  0  0  0  0  0  0
  145.8780  136.0593  150.7992 C   0  0  0  0  0  0  0  0  0  0  0  0
  150.6303  138.5868  154.2805 C   0  0  0  0  0  0  0  0  0  0  0  0
  151.4215  138.9979  155.5407 C   0  0  1  0  0  0  0  0  0  0  0  0
  152.9195  138.7124  155.3315 C   0  0  0  0  0  0  0  0  0  0  0  0
  151.5765  140.2744  158.0469 H   0  0  0  0  0  0  0  0  0  0  0  0
  151.5722  141.9388  157.4744 H   0  0  0  0  0  0  0  0  0  0  0  0
  152.9288  140.8980  157.1023 H   0  0  0  0  0  0  0  0  0  0  0  0
  151.5057  141.1087  155.1059 H   0  0  0  0  0  0  0  0  0  0  0  0
  149.2254  140.1691  156.8962 H   0  0  0  0  0  0  0  0  0  0  0  0
  149.4282  141.7769  156.2469 H   0  0  0  0  0  0  0  0  0  0  0  0
  147.7929  140.4815  154.9161 H   0  0  0  0  0  0  0  0  0  0  0  0
  149.1697  140.9430  153.9425 H   0  0  0  0  0  0  0  0  0  0  0  0
  148.7375  138.2254  155.2601 H   0  0  0  0  0  0  0  0  0  0  0  0
  148.5501  139.1770  152.5195 H   0  0  0  0  0  0  0  0  0  0  0  0
  146.6473  137.5011  153.9823 H   0  0  0  0  0  0  0  0  0  0  0  0
  146.5518  139.2508  153.9025 H   0  0  0  0  0  0  0  0  0  0  0  0
  145.4403  139.0627  151.9411 H   0  0  0  0  0  0  0  0  0  0  0  0
  147.7245  139.1982  151.2665 H   0  0  0  0  0  0  0  0  0  0  0  0
  144.1299  137.1688  153.5148 H   0  0  0  0  0  0  0  0  0  0  0  0
  143.0512  134.9454  153.1397 H   0  0  0  0  0  0  0  0  0  0  0  0
  145.4696  134.1372  149.8878 H   0  0  0  0  0  0  0  0  0  0  0  0
  146.6656  136.3209  150.1081 H   0  0  0  0  0  0  0  0  0  0  0  0
  150.8206  137.5339  154.0724 H   0  0  0  0  0  0  0  0  0  0  0  0
  151.0042  139.1419  153.4186 H   0  0  0  0  0  0  0  0  0  0  0  0
  151.0807  138.3683  156.3643 H   0  0  0  0  0  0  0  0  0  0  0  0
  153.3434  139.3619  154.5649 H   0  0  0  0  0  0  0  0  0  0  0  0
  153.0819  137.6810  155.0172 H   0  0  0  0  0  0  0  0  0  0  0  0
  153.4921  138.8556  156.2473 H   0  0  0  0  0  0  0  0  0  0  0  0
  148.7233  137.5844  152.8607 H   0  0  0  0  0  0  0  0  0  0  0  0
  1  2  1  0  0  0  0
  1 19  1  0  0  0  0
  1 20  1  0  0  0  0
  1 21  1  0  0  0  0
  2 17  1  0  0  0  0
  2  3  1  0  0  0  0
  2 22  1  0  0  0  0
  3  4  1  0  0  0  0
  3 23  1  0  0  0  0
  3 24  1  0  0  0  0
  4  5  1  0  0  0  0
  4 25  1  0  0  0  0
  4 26  1  0  0  0  0
  5  6  1  0  0  0  0
  5 16  1  0  0  0  0
  5 27  1  0  0  0  0
  6  7  1  0  0  0  0
  6 28  1  0  0  0  0
  6 43  1  0  0  0  0
  7  8  1  0  0  0  0
  7 29  1  0  0  0  0
  7 30  1  0  0  0  0
  8  9  1  0  0  0  0
  8 10  1  0  0  0  0
  8 31  1  0  0  0  0
  9 32  1  0  0  0  0
 10 15  1  0  0  0  0
 10 11  2  0  0  0  0
 11 12  1  0  0  0  0
 11 33  1  0  0  0  0
 12 13  2  0  0  0  0
 12 34  1  0  0  0  0
 13 14  1  0  0  0  0
 14 15  2  0  0  0  0
 14 35  1  0  0  0  0
 15 36  1  0  0  0  0
 16 17  1  0  0  0  0
 16 37  1  0  0  0  0
 16 38  1  0  0  0  0
 17 18  1  0  0  0  0
 17 39  1  0  0  0  0
 18 40  1  0  0  0  0
 18 41  1  0  0  0  0
 18 42  1  0  0  0  0
M  CHG  1   6   1
M  END
> <s_m_source_file>
AV-unprocessed.smi

> <i_m_source_file_index>
3287

> <i_lp_mmshare_version>
43012

> <i_f3d_flags>
0

> <s_epik_input>
W0NIM11bQ0BASF0xW0NIMl1bQ0gyXVtDQEhdKFtDSDJdW0NASF0xW0NIM10pW05IXVtDSDJdW0NASF0oW09IXSljMltjSF1bY0hdbltjSF1bY0hdMg==

> <s_epik_cmdline>
J2VwaWtfcHl0aG9uJywgJy1waCcsICc3LjAnLCAnLXRuJywgJzgnLCAnLW1hJywgJzIwMCcsICctbWV0YWxfYmluZGluZycsICctaW1hZScsICc8aW5maWxlLm1hZT4nLCAnLW9tYWUnLCAnPG91dGZpbGUubWFlPic=

> <r_lp_tautomer_probability>
1

> <r_epik_Ionization_Penalty>
0.00537262

> <r_epik_Ionization_Penalty_Charging>
0.00321624

> <r_epik_Ionization_Penalty_Neutral>
0.00215638

> <r_epik_State_Penalty>
-0

> <r_epik_Charging_Adjusted_Penalty>
0.00321624

> <i_epik_Tot_Q>
1

> <i_epik_Tot_abs_Q>
1

> <r_epik_Metal_State_Penalty>
-0

> <b_epik_Metal_Only>
0

> <s_lp_Force_Field>
OPLS_2005

> <r_lp_Energy>
16.1009

> <b_lp_Chiralities_Consistent>
1

> <s_lp_Variant>
AV-unprocessed.smi:3287-5

> <Gold.Version>
5.8.1

> <Gold.Id.Protein>
6NUR|6NUR_protein|mol2

> <Gold.PLP.Fitness>
51.5725

> <Gold.PLP.PLP>
-36.6656

> <Gold.PLP.part.hbond>
-5.0000

> <Gold.PLP.part.metal>
0.0000

> <Gold.PLP.part.buried>
-1.4796

> <Gold.PLP.part.nonpolar>
-30.1923

> <Gold.PLP.part.repulsive>
0.1989

> <Gold.PLP.ligand.clash>
0.0000

> <Gold.PLP.ligand.torsion>
0.8576

> <Gold.PLP.Chemscore.Hbond>
4.6600

> <Gold.PLP.Chemscore.CHOScore>
0.8750

> <Gold.PLP.Chemscore.Metal>
0.0000

> <Gold.Chemscore.Hbonds>
donor molecule, donor type, donor heavy atom, donor atom, acceptor molecule, acceptor atom, score
      L1  H     6    28       P1  7957  1.00
      L1  H     6    43       P1  7948  2.00
      L1  H     9    32       P1  7957  0.93
      P1  H  7954  7966       L1     9  0.75
      L1  C    14    35       P1  7921  0.89

> <Gold.PLP.Chemscore.Internal.Correction>
0.0172

> <Gold.Rescore>
     Score         DG    S(hbond)    S(metal)    S(lipo)     H(rot)  DE(clash)    DE(int)     intcor
     20.22     -22.12       3.05        0.00      96.77       1.90       1.02       0.88       ----

> <Gold.Chemscore.Fitness>
20.2180

> <Gold.Chemscore.DG>
-22.1176

> <Gold.Chemscore.ZeroCoef>
-5.4800

> <Gold.Chemscore.Hbond>
3.0503

> <Gold.Chemscore.Metal>
0.0000

> <Gold.Chemscore.Lipo>
96.7739

> <Gold.Chemscore.Internal_Hbond>
0.0000

> <Gold.Chemscore.DEClash>
1.0220

> <Gold.Chemscore.DEInternal>
0.8776

> <Gold.Chemscore.Rot>
1.9035

> <Gold.Chemscore.Internal.Correction>
   9.000000E+99

> <Gold.Chemscore.Hbonds>
donor molecule, donor type, donor heavy atom, donor atom, acceptor molecule, acceptor atom, score
      L1  H     6    28       P1  7957  0.97
      L1  H     6    43       P1  7948  1.00
      L1  H     9    32       P1  7957  0.66
      P1  H  7954  7966       L1     9  0.09

> <Gold.Chemscore.Hbond.Weighted>
-10.1880

> <Gold.Chemscore.Metal.Weighted>
-0.0000

> <Gold.Chemscore.Lipo.Weighted>
-11.3225

> <Gold.Chemscore.Internal_Hbond.Weighted>
0.0000

> <Gold.Chemscore.DEClash.Weighted>
1.0220

> <Gold.Chemscore.DEInternal.Weighted>
0.8776

> <Gold.Chemscore.Rot.Weighted>
4.8729

> <Gold.Chemscore.Internal.Correction.Weighted>
   9.000000E+99

> <Gold.Protein.RotatedTorsions>
[ 6907 6896 6895 6894 ] final  -52.92 input  -60.11 | X-H torsion
[ 7974 7965 7964 7962 ] final  -39.49 input  175.53 | X-H torsion
[ 8008 7997 7996 7995 ] final  -65.63 input   59.86 | X-H torsion
[ 10167 10162 10161 10158 ] final -114.98 input  -65.29 | X-H torsion
[ 10718 10713 10712 10709 ] final   22.27 input   66.30 | X-H torsion
[ 10763 10752 10751 10750 ] final  155.26 input  -60.55 | X-H torsion
[ 11005 11000 10999 10996 ] final  176.50 input  -57.11 | X-H torsion

> <Gold.Protein.ActiveResidues>
 VAL166  LYS551  ARG553  GLY616  TRP617  ASP618  TYR619  PRO620  LYS621  CYS622 
 ASP623  PHE694  ASN695  SER759  ASP760  ASP761  ALA762  ILE779  LEU786  VAL792 
 PHE793  MET794  SER795  GLU796  ALA797  LYS798  CYS799  TRP800  GLU811  SER814 

> <Gold.Protein.RotatedAtoms>
  150.8474  134.7787  159.6980 H   0  0  0  0  0  0  0  0  0  0  0  0  # atno 6907 bound_to 6896
  152.4547  134.5314  159.9822 H   0  0  0  0  0  0  0  0  0  0  0  0  # atno 6908 bound_to 6896
  151.5441  133.3390  159.2976 H   0  0  0  0  0  0  0  0  0  0  0  0  # atno 6909 bound_to 6896
  146.0391  140.6632  142.9095 H   0  0  0  0  0  0  0  0  0  0  0  0  # atno 7974 bound_to 7965
  154.4683  140.0929  156.7079 H   0  0  0  0  0  0  0  0  0  0  0  0  # atno 8008 bound_to 7997
  155.4794  140.3467  155.4319 H   0  0  0  0  0  0  0  0  0  0  0  0  # atno 8009 bound_to 7997
  156.0996  140.1418  156.9474 H   0  0  0  0  0  0  0  0  0  0  0  0  # atno 8010 bound_to 7997
  140.0951  143.4664  152.1846 H   0  0  0  0  0  0  0  0  0  0  0  0  # atno 10167 bound_to 10162
  157.1499  130.6670  149.6008 H   0  0  0  0  0  0  0  0  0  0  0  0  # atno 10718 bound_to 10713
  154.1656  135.2807  155.3096 H   0  0  0  0  0  0  0  0  0  0  0  0  # atno 10763 bound_to 10752
  154.6114  135.5497  153.7481 H   0  0  0  0  0  0  0  0  0  0  0  0  # atno 10764 bound_to 10752
  153.0179  135.6416  154.1797 H   0  0  0  0  0  0  0  0  0  0  0  0  # atno 10765 bound_to 10752
  140.3738  134.7007  157.4408 H   0  0  0  0  0  0  0  0  0  0  0  0  # atno 11005 bound_to 11000
  144.7066  140.3876  143.7113 LP  0  0  0  0  0  0  0  0  0  0  0  0  # atno 17320 bound_to 7965
  145.6914  139.1640  143.2645 LP  0  0  0  0  0  0  0  0  0  0  0  0  # atno 17321 bound_to 7965
  139.5703  144.7458  151.3910 LP  0  0  0  0  0  0  0  0  0  0  0  0  # atno 17342 bound_to 10162
  140.7008  143.7637  150.7400 LP  0  0  0  0  0  0  0  0  0  0  0  0  # atno 17343 bound_to 10162
  155.9772  130.4748  150.6580 LP  0  0  0  0  0  0  0  0  0  0  0  0  # atno 17370 bound_to 10713
  157.4230  131.0839  151.1113 LP  0  0  0  0  0  0  0  0  0  0  0  0  # atno 17371 bound_to 10713
  140.0531  134.6102  155.8837 LP  0  0  0  0  0  0  0  0  0  0  0  0  # atno 17394 bound_to 11000
  141.1946  133.6583  156.5603 LP  0  0  0  0  0  0  0  0  0  0  0  0  # atno 17395 bound_to 11000

$$$$
