AV-unprocessed.smi:2414|AV-procd|sdf|9541|dock5
  -GOLD-   2272013173D 1   1.00000     0.00000
 Structure written by MMmdl.
 43 44  0  0  0  0  0  0  0  0  1 V2000
  151.7615  144.3512  159.3833 C   0  0  0  0  0  0  0  0  0  0  0  0
  152.4960  143.4028  160.2693 C   0  0  0  0  0  0  0  0  0  0  0  0
  152.6393  143.4723  161.6327 C   0  0  0  0  0  0  0  0  0  0  0  0
  153.3877  142.4257  162.1760 N   0  0  0  0  0  0  0  0  0  0  0  0
  153.8137  141.5650  161.2468 C   0  0  0  0  0  0  0  0  0  0  0  0
  154.6355  140.3518  161.5504 C   0  0  1  0  0  0  0  0  0  0  0  0
  155.2153  140.4021  162.9749 C   0  0  0  0  0  0  0  0  0  0  0  0
  153.8690  139.0518  161.2243 C   0  0  0  0  0  0  0  0  0  0  0  0
  154.2317  137.9494  162.1088 N   0  0  0  0  0  0  0  0  0  0  0  0
  153.9264  136.6622  161.8979 C   0  0  0  0  0  0  0  0  0  0  0  0
  153.2740  136.2556  160.9362 O   0  0  0  0  0  0  0  0  0  0  0  0
  154.4262  135.8720  162.8556 N   0  0  0  0  0  0  0  0  0  0  0  0
  154.2822  134.4214  162.8991 C   0  0  0  0  0  0  0  0  0  0  0  0
  154.8278  133.8312  164.2176 C   0  0  2  0  0  0  0  0  0  0  0  0
  156.3470  134.0372  164.3693 C   0  0  0  0  0  0  0  0  0  0  0  0
  154.4410  132.3477  164.3614 C   0  0  0  0  0  0  0  0  0  0  0  0
  153.1895  132.3922  165.2105 C   0  0  0  0  0  0  0  0  0  0  0  0
  153.5023  133.5595  166.1333 C   0  0  0  0  0  0  0  0  0  0  0  0
  154.1644  134.4979  165.2956 O   0  0  0  0  0  0  0  0  0  0  0  0
  153.3056  142.0011  159.6189 S   0  0  0  0  0  0  0  0  0  0  0  0
  151.8616  145.3760  159.7418 H   0  0  0  0  0  0  0  0  0  0  0  0
  150.6997  144.1062  159.3532 H   0  0  0  0  0  0  0  0  0  0  0  0
  152.1456  144.3142  158.3636 H   0  0  0  0  0  0  0  0  0  0  0  0
  152.2432  144.2291  162.2938 H   0  0  0  0  0  0  0  0  0  0  0  0
  155.4898  140.3934  160.8733 H   0  0  0  0  0  0  0  0  0  0  0  0
  155.7847  141.3186  163.1315 H   0  0  0  0  0  0  0  0  0  0  0  0
  155.8888  139.5664  163.1649 H   0  0  0  0  0  0  0  0  0  0  0  0
  154.4245  140.3689  163.7249 H   0  0  0  0  0  0  0  0  0  0  0  0
  152.7957  139.2178  161.3202 H   0  0  0  0  0  0  0  0  0  0  0  0
  154.0423  138.7601  160.1868 H   0  0  0  0  0  0  0  0  0  0  0  0
  154.7705  138.1830  162.9299 H   0  0  0  0  0  0  0  0  0  0  0  0
  154.9482  136.2986  163.6071 H   0  0  0  0  0  0  0  0  0  0  0  0
  153.2261  134.1761  162.7800 H   0  0  0  0  0  0  0  0  0  0  0  0
  154.8076  133.9696  162.0557 H   0  0  0  0  0  0  0  0  0  0  0  0
  156.8920  133.5465  163.5624 H   0  0  0  0  0  0  0  0  0  0  0  0
  156.7080  133.6252  165.3120 H   0  0  0  0  0  0  0  0  0  0  0  0
  156.6162  135.0935  164.3577 H   0  0  0  0  0  0  0  0  0  0  0  0
  154.2861  131.8450  163.4060 H   0  0  0  0  0  0  0  0  0  0  0  0
  155.2145  131.7962  164.8981 H   0  0  0  0  0  0  0  0  0  0  0  0
  152.3186  132.6192  164.5941 H   0  0  0  0  0  0  0  0  0  0  0  0
  153.0005  131.4620  165.7467 H   0  0  0  0  0  0  0  0  0  0  0  0
  152.6113  133.9878  166.5923 H   0  0  0  0  0  0  0  0  0  0  0  0
  154.1824  133.2489  166.9279 H   0  0  0  0  0  0  0  0  0  0  0  0
  1  2  1  0  0  0  0
  1 21  1  0  0  0  0
  1 22  1  0  0  0  0
  1 23  1  0  0  0  0
  2 20  1  0  0  0  0
  2  3  2  0  0  0  0
  3  4  1  0  0  0  0
  3 24  1  0  0  0  0
  4  5  2  0  0  0  0
  5  6  1  0  0  0  0
  5 20  1  0  0  0  0
  6  7  1  0  0  0  0
  6  8  1  0  0  0  0
  6 25  1  0  0  0  0
  7 26  1  0  0  0  0
  7 27  1  0  0  0  0
  7 28  1  0  0  0  0
  8  9  1  0  0  0  0
  8 29  1  0  0  0  0
  8 30  1  0  0  0  0
  9 10  1  0  0  0  0
  9 31  1  0  0  0  0
 10 11  2  0  0  0  0
 10 12  1  0  0  0  0
 12 13  1  0  0  0  0
 12 32  1  0  0  0  0
 13 14  1  0  0  0  0
 13 33  1  0  0  0  0
 13 34  1  0  0  0  0
 14 19  1  0  0  0  0
 14 15  1  0  0  0  0
 14 16  1  0  0  0  0
 15 35  1  0  0  0  0
 15 36  1  0  0  0  0
 15 37  1  0  0  0  0
 16 17  1  0  0  0  0
 16 38  1  0  0  0  0
 16 39  1  0  0  0  0
 17 18  1  0  0  0  0
 17 40  1  0  0  0  0
 17 41  1  0  0  0  0
 18 19  1  0  0  0  0
 18 42  1  0  0  0  0
 18 43  1  0  0  0  0
M  END
> <s_m_source_file>
AV-unprocessed.smi

> <i_m_source_file_index>
2414

> <i_lp_mmshare_version>
43012

> <i_f3d_flags>
0

> <s_epik_input>
W0NIM11jMVtjSF1uYyhzMSlbQ0BIXShbQ0gzXSlbQ0gyXVtOSF1DKD1PKVtOSF1bQ0gyXVtDQEBdMihbQ0gzXSlbQ0gyXVtDSDJdW0NIMl1PMg==

> <s_epik_cmdline>
J2VwaWtfcHl0aG9uJywgJy1waCcsICc3LjAnLCAnLXRuJywgJzgnLCAnLW1hJywgJzIwMCcsICctbWV0YWxfYmluZGluZycsICctaW1hZScsICc8aW5maWxlLm1hZT4nLCAnLW9tYWUnLCAnPG91dGZpbGUubWFlPic=

> <r_epik_Ionization_Penalty>
0.000646956

> <r_epik_Ionization_Penalty_Charging>
0

> <r_epik_Ionization_Penalty_Neutral>
0.000646956

> <r_epik_State_Penalty>
0.000375727

> <r_epik_Charging_Adjusted_Penalty>
0.000375727

> <i_epik_Tot_Q>
0

> <i_epik_Tot_abs_Q>
0

> <r_epik_Metal_State_Penalty>
-0

> <b_epik_Metal_Only>
0

> <s_lp_Force_Field>
OPLS_2005

> <r_lp_Energy>
8.05024

> <b_lp_Chiralities_Consistent>
1

> <s_lp_Variant>
AV-unprocessed.smi:2414-4

> <Gold.Version>
5.8.1

> <Gold.Id.Protein>
6NUR|6NUR_protein|mol2

> <Gold.PLP.Fitness>
42.8763

> <Gold.PLP.PLP>
-41.3900

> <Gold.PLP.part.hbond>
-0.9940

> <Gold.PLP.part.metal>
0.0000

> <Gold.PLP.part.buried>
-5.0464

> <Gold.PLP.part.nonpolar>
-35.8800

> <Gold.PLP.part.repulsive>
0.1784

> <Gold.PLP.ligand.clash>
0.0000

> <Gold.PLP.ligand.torsion>
0.8131

> <Gold.PLP.Chemscore.Hbond>
0.9913

> <Gold.PLP.Chemscore.CHOScore>
0.0000

> <Gold.PLP.Chemscore.Metal>
0.0000

> <Gold.Chemscore.Hbonds>
donor molecule, donor type, donor heavy atom, donor atom, acceptor molecule, acceptor atom, score
      P1  H  6896  6909       L1    11  1.00

> <Gold.PLP.Chemscore.Internal.Correction>
0.1388

> <Gold.Rescore>
     Score         DG    S(hbond)    S(metal)    S(lipo)     H(rot)  DE(clash)    DE(int)     intcor
     17.38     -18.03       1.00        0.00     114.96       1.65       0.05       0.60       ----

> <Gold.Chemscore.Fitness>
17.3834

> <Gold.Chemscore.DG>
-18.0328

> <Gold.Chemscore.ZeroCoef>
-5.4800

> <Gold.Chemscore.Hbond>
0.9975

> <Gold.Chemscore.Metal>
0.0000

> <Gold.Chemscore.Lipo>
114.9618

> <Gold.Chemscore.Internal_Hbond>
0.0000

> <Gold.Chemscore.DEClash>
0.0485

> <Gold.Chemscore.DEInternal>
0.6009

> <Gold.Chemscore.Rot>
1.6522

> <Gold.Chemscore.Internal.Correction>
   9.000000E+99

> <Gold.Chemscore.Hbonds>
donor molecule, donor type, donor heavy atom, donor atom, acceptor molecule, acceptor atom, score
      P1  H  6896  6909       L1    11  0.99

> <Gold.Chemscore.Hbond.Weighted>
-3.3318

> <Gold.Chemscore.Metal.Weighted>
-0.0000

> <Gold.Chemscore.Lipo.Weighted>
-13.4505

> <Gold.Chemscore.Internal_Hbond.Weighted>
0.0000

> <Gold.Chemscore.DEClash.Weighted>
0.0485

> <Gold.Chemscore.DEInternal.Weighted>
0.6009

> <Gold.Chemscore.Rot.Weighted>
4.2295

> <Gold.Chemscore.Internal.Correction.Weighted>
   9.000000E+99

> <Gold.Protein.RotatedTorsions>
[ 6907 6896 6895 6894 ] final  158.35 input  -60.11 | X-H torsion
[ 7974 7965 7964 7962 ] final   54.48 input  175.53 | X-H torsion
[ 8008 7997 7996 7995 ] final -151.65 input   59.86 | X-H torsion
[ 10167 10162 10161 10158 ] final  -83.28 input  -65.29 | X-H torsion
[ 10718 10713 10712 10709 ] final  -17.78 input   66.30 | X-H torsion
[ 10763 10752 10751 10750 ] final    6.42 input  -60.55 | X-H torsion
[ 11005 11000 10999 10996 ] final  -17.73 input  -57.11 | X-H torsion

> <Gold.Protein.ActiveResidues>
 VAL166  LYS551  ARG553  GLY616  TRP617  ASP618  TYR619  PRO620  LYS621  CYS622 
 ASP623  PHE694  ASN695  SER759  ASP760  ASP761  ALA762  ILE779  LEU786  VAL792 
 PHE793  MET794  SER795  GLU796  ALA797  LYS798  CYS799  TRP800  GLU811  SER814 

> <Gold.Protein.RotatedAtoms>
  152.0017  133.3828  159.4184 H   0  0  0  0  0  0  0  0  0  0  0  0  # atno 6907 bound_to 6896
  150.6909  134.3826  159.5050 H   0  0  0  0  0  0  0  0  0  0  0  0  # atno 6908 bound_to 6896
  152.1575  134.8939  160.0594 H   0  0  0  0  0  0  0  0  0  0  0  0  # atno 6909 bound_to 6896
  145.9604  139.4054  143.0252 H   0  0  0  0  0  0  0  0  0  0  0  0  # atno 7974 bound_to 7965
  155.6428  140.0703  157.2613 H   0  0  0  0  0  0  0  0  0  0  0  0  # atno 8008 bound_to 7997
  154.4180  140.1747  156.1641 H   0  0  0  0  0  0  0  0  0  0  0  0  # atno 8009 bound_to 7997
  155.9841  140.3351  155.6694 H   0  0  0  0  0  0  0  0  0  0  0  0  # atno 8010 bound_to 7997
  140.4241  143.2573  151.8849 H   0  0  0  0  0  0  0  0  0  0  0  0  # atno 10167 bound_to 10162
  156.5687  130.4744  149.6372 H   0  0  0  0  0  0  0  0  0  0  0  0  # atno 10718 bound_to 10713
  153.2479  135.6910  153.7711 H   0  0  0  0  0  0  0  0  0  0  0  0  # atno 10763 bound_to 10752
  153.6816  135.3327  155.3180 H   0  0  0  0  0  0  0  0  0  0  0  0  # atno 10764 bound_to 10752
  154.8382  135.4524  154.1425 H   0  0  0  0  0  0  0  0  0  0  0  0  # atno 10765 bound_to 10752
  140.8197  133.8078  155.9647 H   0  0  0  0  0  0  0  0  0  0  0  0  # atno 11005 bound_to 11000
  145.8048  140.9754  143.0980 LP  0  0  0  0  0  0  0  0  0  0  0  0  # atno 17320 bound_to 7965
  144.6814  139.9847  143.7484 LP  0  0  0  0  0  0  0  0  0  0  0  0  # atno 17321 bound_to 7965
  139.4783  144.5405  151.8534 LP  0  0  0  0  0  0  0  0  0  0  0  0  # atno 17342 bound_to 10162
  140.4501  144.1867  150.5897 LP  0  0  0  0  0  0  0  0  0  0  0  0  # atno 17343 bound_to 10162
  156.2733  130.7029  151.1833 LP  0  0  0  0  0  0  0  0  0  0  0  0  # atno 17370 bound_to 10713
  157.7353  131.0574  150.5479 LP  0  0  0  0  0  0  0  0  0  0  0  0  # atno 17371 bound_to 10713
  140.9112  134.2258  157.4985 LP  0  0  0  0  0  0  0  0  0  0  0  0  # atno 17394 bound_to 11000
  139.8709  134.9751  156.4870 LP  0  0  0  0  0  0  0  0  0  0  0  0  # atno 17395 bound_to 11000

$$$$
