AV-unprocessed.smi:1870|AV-procd|sdf|7596|dock6
  -GOLD-   22720 9313D 1   1.00000     0.00000
 Structure written by MMmdl.
 48 50  0  0  0  0  0  0  0  0  2 V2000
  145.0794  133.7131  156.4365 C   0  0  0  0  0  0  0  0  0  0  0  0
  146.2843  134.3223  157.1011 C   0  0  0  0  0  0  0  0  0  0  0  0
  147.4361  134.0417  156.5858 N   0  0  0  0  0  0  0  0  0  0  0  0
  148.6047  134.5629  157.1071 N   0  0  0  0  0  0  0  0  0  0  0  0
  149.8116  134.2097  156.3457 C   0  0  0  0  0  0  0  0  0  0  0  0
  150.0306  135.1330  155.1252 C   0  0  1  0  0  0  0  0  0  0  0  0
  149.1654  134.7130  154.0901 O   0  0  0  0  0  0  0  0  0  0  0  0
  149.7493  136.6213  155.4326 C   0  0  0  0  0  0  0  0  0  0  0  0
  150.1466  137.5516  154.3391 N   0  3  2  0  0  0  0  0  0  0  0  0
  151.6065  137.8067  154.2131 C   0  0  0  0  0  0  0  0  0  0  0  0
  152.1732  138.4931  155.4686 C   0  0  0  0  0  0  0  0  0  0  0  0
  151.2963  139.6375  155.9533 C   0  0  0  0  0  0  0  0  0  0  0  0
  151.7909  140.5279  156.9279 C   0  0  0  0  0  0  0  0  0  0  0  0
  150.9736  141.5623  157.4219 C   0  0  0  0  0  0  0  0  0  0  0  0
  149.6568  141.7077  156.9456 C   0  0  0  0  0  0  0  0  0  0  0  0
  149.1570  140.8203  155.9733 C   0  0  0  0  0  0  0  0  0  0  0  0
  149.9702  139.7827  155.4726 C   0  0  0  0  0  0  0  0  0  0  0  0
  149.4152  138.8424  154.4061 C   0  0  0  0  0  0  0  0  0  0  0  0
  148.6720  135.3658  158.2075 C   0  0  0  0  0  0  0  0  0  0  0  0
  149.7389  135.7915  158.6518 O   0  0  0  0  0  0  0  0  0  0  0  0
  147.3640  135.6817  158.7849 C   0  0  0  0  0  0  0  0  0  0  0  0
  147.3868  136.5465  159.9204 C   0  0  0  0  0  0  0  0  0  0  0  0
  147.4025  137.2300  160.8544 N   0  0  0  0  0  0  0  0  0  0  0  0
  146.2084  135.1948  158.2680 C   0  0  0  0  0  0  0  0  0  0  0  0
  144.8253  135.4988  158.8270 C   0  0  0  0  0  0  0  0  0  0  0  0
  144.5787  133.0161  157.1087 H   0  0  0  0  0  0  0  0  0  0  0  0
  145.3469  133.1648  155.5320 H   0  0  0  0  0  0  0  0  0  0  0  0
  144.3628  134.4835  156.1514 H   0  0  0  0  0  0  0  0  0  0  0  0
  150.6799  134.2509  157.0061 H   0  0  0  0  0  0  0  0  0  0  0  0
  149.7518  133.1717  156.0120 H   0  0  0  0  0  0  0  0  0  0  0  0
  151.0511  134.9938  154.7748 H   0  0  0  0  0  0  0  0  0  0  0  0
  149.1284  135.3899  153.4313 H   0  0  0  0  0  0  0  0  0  0  0  0
  148.6839  136.7379  155.6373 H   0  0  0  0  0  0  0  0  0  0  0  0
  150.2528  136.9289  156.3474 H   0  0  0  0  0  0  0  0  0  0  0  0
  152.1608  136.8976  153.9857 H   0  0  0  0  0  0  0  0  0  0  0  0
  151.7582  138.4581  153.3509 H   0  0  0  0  0  0  0  0  0  0  0  0
  152.2774  137.7714  156.2801 H   0  0  0  0  0  0  0  0  0  0  0  0
  153.1762  138.8678  155.2622 H   0  0  0  0  0  0  0  0  0  0  0  0
  152.7969  140.4149  157.3055 H   0  0  0  0  0  0  0  0  0  0  0  0
  151.3555  142.2418  158.1697 H   0  0  0  0  0  0  0  0  0  0  0  0
  149.0301  142.5011  157.3259 H   0  0  0  0  0  0  0  0  0  0  0  0
  148.1471  140.9423  155.6094 H   0  0  0  0  0  0  0  0  0  0  0  0
  149.4955  139.3426  153.4401 H   0  0  0  0  0  0  0  0  0  0  0  0
  148.3512  138.6684  154.5730 H   0  0  0  0  0  0  0  0  0  0  0  0
  144.8716  136.0668  159.7557 H   0  0  0  0  0  0  0  0  0  0  0  0
  144.2821  134.5773  159.0384 H   0  0  0  0  0  0  0  0  0  0  0  0
  144.2470  136.0832  158.1106 H   0  0  0  0  0  0  0  0  0  0  0  0
  149.8545  137.1052  153.4812 H   0  0  0  0  0  0  0  0  0  0  0  0
  1  2  1  0  0  0  0
  1 26  1  0  0  0  0
  1 27  1  0  0  0  0
  1 28  1  0  0  0  0
  2 24  1  0  0  0  0
  2  3  2  0  0  0  0
  3  4  1  0  0  0  0
  4  5  1  0  0  0  0
  4 19  1  0  0  0  0
  5  6  1  0  0  0  0
  5 29  1  0  0  0  0
  5 30  1  0  0  0  0
  6  7  1  0  0  0  0
  6  8  1  0  0  0  0
  6 31  1  0  0  0  0
  7 32  1  0  0  0  0
  8  9  1  0  0  0  0
  8 33  1  0  0  0  0
  8 34  1  0  0  0  0
  9 18  1  0  0  0  0
  9 10  1  0  0  0  0
  9 48  1  0  0  0  0
 10 11  1  0  0  0  0
 10 35  1  0  0  0  0
 10 36  1  0  0  0  0
 11 12  1  0  0  0  0
 11 37  1  0  0  0  0
 11 38  1  0  0  0  0
 12 17  2  0  0  0  0
 12 13  1  0  0  0  0
 13 14  2  0  0  0  0
 13 39  1  0  0  0  0
 14 15  1  0  0  0  0
 14 40  1  0  0  0  0
 15 16  2  0  0  0  0
 15 41  1  0  0  0  0
 16 17  1  0  0  0  0
 16 42  1  0  0  0  0
 17 18  1  0  0  0  0
 18 43  1  0  0  0  0
 18 44  1  0  0  0  0
 19 20  2  0  0  0  0
 19 21  1  0  0  0  0
 21 22  1  0  0  0  0
 21 24  2  0  0  0  0
 22 23  3  0  0  0  0
 24 25  1  0  0  0  0
 25 45  1  0  0  0  0
 25 46  1  0  0  0  0
 25 47  1  0  0  0  0
M  CHG  1   9   1
M  END
> <s_m_source_file>
AV-unprocessed.smi

> <i_m_source_file_index>
1870

> <i_lp_mmshare_version>
43012

> <i_f3d_flags>
0

> <s_epik_input>
TiNDYyhjMVtDSDNdKWMoPU8pbihuYzFbQ0gzXSlbQ0gyXVtDQEhdKFtPSF0pW0NIMl1OKFtDSDJdW0NIMl0yKVtDSDJdYyhjMjMpW2NIXVtjSF1bY0hdW2NIXTM=

> <s_epik_cmdline>
J2VwaWtfcHl0aG9uJywgJy1waCcsICc3LjAnLCAnLXRuJywgJzgnLCAnLW1hJywgJzIwMCcsICctbWV0YWxfYmluZGluZycsICctaW1hZScsICc8aW5maWxlLm1hZT4nLCAnLW9tYWUnLCAnPG91dGZpbGUubWFlPic=

> <r_epik_Ionization_Penalty>
0.0122865

> <r_epik_Ionization_Penalty_Charging>
0.0122864

> <r_epik_Ionization_Penalty_Neutral>
1.48087e-07

> <r_epik_State_Penalty>
0.00950248

> <r_epik_Charging_Adjusted_Penalty>
0.0217889

> <i_epik_Tot_Q>
1

> <i_epik_Tot_abs_Q>
1

> <r_epik_Metal_State_Penalty>
0.00950248

> <b_epik_Metal_Only>
0

> <s_lp_Force_Field>
OPLS_2005

> <r_lp_Energy>
37.2352

> <b_lp_Chiralities_Consistent>
1

> <s_lp_Variant>
AV-unprocessed.smi:1870-4

> <Gold.Version>
5.8.1

> <Gold.Id.Protein>
6NUR|6NUR_protein|mol2

> <Gold.PLP.Fitness>
48.1983

> <Gold.PLP.PLP>
-32.2903

> <Gold.PLP.part.hbond>
-5.0000

> <Gold.PLP.part.metal>
0.0000

> <Gold.PLP.part.buried>
-3.9221

> <Gold.PLP.part.nonpolar>
-23.3164

> <Gold.PLP.part.repulsive>
0.0477

> <Gold.PLP.ligand.clash>
0.0000

> <Gold.PLP.ligand.torsion>
0.7047

> <Gold.PLP.Chemscore.Hbond>
5.7600

> <Gold.PLP.Chemscore.CHOScore>
0.0000

> <Gold.PLP.Chemscore.Metal>
0.0000

> <Gold.Chemscore.Hbonds>
donor molecule, donor type, donor heavy atom, donor atom, acceptor molecule, acceptor atom, score
      L1  H     7    32       P1  7948  1.00
      L1  H     9    48       P1  7948  2.00
      P1  H  6896  6908       L1    20  1.00
      P1  H  6931  6943       L1    23  0.47
      P1  H  6934  6947       L1    23  1.00

> <Gold.PLP.Chemscore.Internal.Correction>
0.0373

> <Gold.Rescore>
     Score         DG    S(hbond)    S(metal)    S(lipo)     H(rot)  DE(clash)    DE(int)     intcor
     22.51     -23.25       4.44        0.00      72.33       2.16       0.03       0.71       ----

> <Gold.Chemscore.Fitness>
22.5110

> <Gold.Chemscore.DG>
-23.2501

> <Gold.Chemscore.ZeroCoef>
-5.4800

> <Gold.Chemscore.Hbond>
4.4445

> <Gold.Chemscore.Metal>
0.0000

> <Gold.Chemscore.Lipo>
72.3265

> <Gold.Chemscore.Internal_Hbond>
0.0000

> <Gold.Chemscore.DEClash>
0.0310

> <Gold.Chemscore.DEInternal>
0.7081

> <Gold.Chemscore.Rot>
2.1628

> <Gold.Chemscore.Internal.Correction>
   9.000000E+99

> <Gold.Chemscore.Hbonds>
donor molecule, donor type, donor heavy atom, donor atom, acceptor molecule, acceptor atom, score
      L1  H     7    32       P1  7948  0.45
      L1  H     9    48       P1  7948  0.48
      P1  H  6896  6908       L1    20  0.90
      P1  H  6931  6943       L1    23  0.48
      P1  H  6934  6947       L1    23  0.98

> <Gold.Chemscore.Hbond.Weighted>
-14.8446

> <Gold.Chemscore.Metal.Weighted>
-0.0000

> <Gold.Chemscore.Lipo.Weighted>
-8.4622

> <Gold.Chemscore.Internal_Hbond.Weighted>
0.0000

> <Gold.Chemscore.DEClash.Weighted>
0.0310

> <Gold.Chemscore.DEInternal.Weighted>
0.7081

> <Gold.Chemscore.Rot.Weighted>
5.5367

> <Gold.Chemscore.Internal.Correction.Weighted>
   9.000000E+99

> <Gold.Protein.RotatedTorsions>
[ 6907 6896 6895 6894 ] final  170.88 input  -60.11 | X-H torsion
[ 7974 7965 7964 7962 ] final -131.59 input  175.53 | X-H torsion
[ 8008 7997 7996 7995 ] final  -46.29 input   59.86 | X-H torsion
[ 10167 10162 10161 10158 ] final   97.20 input  -65.29 | X-H torsion
[ 10718 10713 10712 10709 ] final -156.47 input   66.30 | X-H torsion
[ 10763 10752 10751 10750 ] final  -28.56 input  -60.55 | X-H torsion
[ 11005 11000 10999 10996 ] final -122.37 input  -57.11 | X-H torsion

> <Gold.Protein.ActiveResidues>
 VAL166  LYS551  ARG553  GLY616  TRP617  ASP618  TYR619  PRO620  LYS621  CYS622 
 ASP623  PHE694  ASN695  SER759  ASP760  ASP761  ALA762  ILE779  LEU786  VAL792 
 PHE793  MET794  SER795  GLU796  ALA797  LYS798  CYS799  TRP800  GLU811  SER814 

> <Gold.Protein.RotatedAtoms>
  151.8090  133.3379  159.3549 H   0  0  0  0  0  0  0  0  0  0  0  0  # atno 6907 bound_to 6896
  150.7332  134.5682  159.5886 H   0  0  0  0  0  0  0  0  0  0  0  0  # atno 6908 bound_to 6896
  152.3089  134.7523  160.0392 H   0  0  0  0  0  0  0  0  0  0  0  0  # atno 6909 bound_to 6896
  144.9365  140.7189  143.4873 H   0  0  0  0  0  0  0  0  0  0  0  0  # atno 7974 bound_to 7965
  154.4006  140.1375  156.3988 H   0  0  0  0  0  0  0  0  0  0  0  0  # atno 8008 bound_to 7997
  155.7844  140.3480  155.5294 H   0  0  0  0  0  0  0  0  0  0  0  0  # atno 8009 bound_to 7997
  155.8641  140.0961  157.1584 H   0  0  0  0  0  0  0  0  0  0  0  0  # atno 8010 bound_to 7997
  139.7823  144.6884  151.0006 H   0  0  0  0  0  0  0  0  0  0  0  0  # atno 10167 bound_to 10162
  156.5270  130.8504  151.2703 H   0  0  0  0  0  0  0  0  0  0  0  0  # atno 10718 bound_to 10713
  153.7503  135.6926  153.4947 H   0  0  0  0  0  0  0  0  0  0  0  0  # atno 10763 bound_to 10752
  153.2008  135.4437  155.0263 H   0  0  0  0  0  0  0  0  0  0  0  0  # atno 10764 bound_to 10752
  154.8190  135.3412  154.7024 H   0  0  0  0  0  0  0  0  0  0  0  0  # atno 10765 bound_to 10752
  141.0000  134.0416  157.3549 H   0  0  0  0  0  0  0  0  0  0  0  0  # atno 11005 bound_to 11000
  145.3059  139.1834  143.4664 LP  0  0  0  0  0  0  0  0  0  0  0  0  # atno 17320 bound_to 7965
  146.3268  140.3057  142.8623 LP  0  0  0  0  0  0  0  0  0  0  0  0  # atno 17321 bound_to 7965
  140.7818  143.4470  151.0468 LP  0  0  0  0  0  0  0  0  0  0  0  0  # atno 17342 bound_to 10162
  139.8150  143.7899  152.3174 LP  0  0  0  0  0  0  0  0  0  0  0  0  # atno 17343 bound_to 10162
  157.7428  130.9898  150.2542 LP  0  0  0  0  0  0  0  0  0  0  0  0  # atno 17370 bound_to 10713
  156.3095  130.3770  149.7675 LP  0  0  0  0  0  0  0  0  0  0  0  0  # atno 17371 bound_to 10713
  139.9034  135.0172  156.7374 LP  0  0  0  0  0  0  0  0  0  0  0  0  # atno 17394 bound_to 11000
  140.6904  133.9395  155.7963 LP  0  0  0  0  0  0  0  0  0  0  0  0  # atno 17395 bound_to 11000

$$$$
