#       Name:                AV-unprocessed.smi:3147
#       Creating user name   scv26
#       Creation time:       Fri Mar 27 17:39:37 2020


#       File generated by GOLD software.
#

@<TRIPOS>MOLECULE
AV-unprocessed.smi:3147
    41    42     1
SMALL
NO_CHARGES


@<TRIPOS>ATOM
      1 ****        -4.9218  -0.2009  -1.2304 C.3            1 S1                 0.0000
      2 ****        -3.7003   0.6634  -1.2793 C.2            1 S1                 0.0000
      3 ****        -3.7970   2.0485  -1.3901 N.2            1 S1                 0.0000
      4 ****        -2.5348   2.4540  -1.3965 C.2            1 S1                 0.0000
      5 ****        -1.6320   1.4675  -1.3040 N.pl3          1 S1                 0.0000
      6 ****        -0.1843   1.6163  -1.2893 C.3            1 S1                 0.0000
      7 ****         0.4105   1.5451   0.1225 C.2            1 S1                 0.0000
      8 ****        -0.3102   1.5858   1.1208 O.2            1 S1                 0.0000
      9 ****         1.7458   1.4330   0.1842 N.am           1 S1                 0.0000
     10 ****         2.5262   1.3034   1.4113 C.3            1 S1                 0.0000
     11 ****         2.7330  -0.1651   1.8306 C.3            1 S1                 0.0000
     12 ****         3.3920  -1.0700   0.7853 C.3            1 S1                 0.0000
     13 ****         2.8980  -2.4328   1.2142 C.3            1 S1                 0.0000
     14 ****         1.4667  -2.1202   1.6390 C.3            1 S1                 0.0000
     15 ****         1.4968  -0.7948   2.1612 O.3            1 S1                 0.0000
     16 ****        -2.3741   0.2902  -1.2244 C.2            1 S1                 0.0000
     17 ****        -1.7569  -1.0649  -1.0969 C.3            1 S1                 0.0000
     18 ****        -4.9049  -0.9488  -2.0233 H              1 S1                 0.0000
     19 ****        -5.8338   0.3846  -1.3495 H              1 S1                 0.0000
     20 ****        -4.9902  -0.7282  -0.2788 H              1 S1                 0.0000
     21 ****        -2.2599   3.4960  -1.4711 H              1 S1                 0.0000
     22 ****         0.2542   0.8382  -1.9151 H              1 S1                 0.0000
     23 ****         0.0771   2.5743  -1.7406 H              1 S1                 0.0000
     24 ****         2.2595   1.4126  -0.6847 H              1 S1                 0.0000
     25 ****         3.4964   1.7691   1.2372 H              1 S1                 0.0000
     26 ****         2.0622   1.8649   2.2238 H              1 S1                 0.0000
     27 ****         3.3427  -0.1880   2.7351 H              1 S1                 0.0000
     28 ****         3.0309  -0.8524  -0.2204 H              1 S1                 0.0000
     29 ****         4.4794  -0.9910   0.7810 H              1 S1                 0.0000
     30 ****         2.9546  -3.1805   0.4227 H              1 S1                 0.0000
     31 ****         3.4755  -2.7906   2.0676 H              1 S1                 0.0000
     32 ****         0.8050  -2.1354   0.7727 H              1 S1                 0.0000
     33 ****         1.0822  -2.8298   2.3717 H              1 S1                 0.0000
     34 ****        -2.5162  -1.8467  -1.1085 H              1 S1                 0.0000
     35 ****        -1.2058  -1.1495  -0.1604 H              1 S1                 0.0000
     36 ****        -1.0658  -1.2582  -1.9172 H              1 S1                 0.0000
     37 ****        -4.6247   2.6064  -1.4507 LP             1 S1                 0.0000
     38 ****        -1.3017   1.6666   1.0187 LP             1 S1                 0.0000
     39 ****         0.0963   1.5380   2.0332 LP             1 S1                 0.0000
     40 ****         0.7423  -0.2680   1.7698 LP             1 S1                 0.0000
     41 ****         1.3987  -0.8289   3.1558 LP             1 S1                 0.0000
@<TRIPOS>BOND
    1    1    2 1     
    2    1   18 1     
    3    1   19 1     
    4    1   20 1     
    5    2   16 2     
    6    2    3 1     
    7    3    4 2     
    8    4    5 1     
    9    4   21 1     
   10    5    6 1     
   11    5   16 1     
   12    6    7 1     
   13    6   22 1     
   14    6   23 1     
   15    7    8 2     
   16    7    9 am    
   17    9   10 1     
   18    9   24 1     
   19   10   11 1     
   20   10   25 1     
   21   10   26 1     
   22   11   15 1     
   23   11   12 1     
   24   11   27 1     
   25   12   13 1     
   26   12   28 1     
   27   12   29 1     
   28   13   14 1     
   29   13   30 1     
   30   13   31 1     
   31   14   15 1     
   32   14   32 1     
   33   14   33 1     
   34   16   17 1     
   35   17   34 1     
   36   17   35 1     
   37   17   36 1     
   38    3   37 1     
   39    8   38 1     
   40    8   39 1     
   41   15   40 1     
   42   15   41 1     
@<TRIPOS>SUBSTRUCTURE
      1 S1             1
@<TRIPOS>SET
LONE_PAIRS      STATIC     ATOMS    <user>   **** ""
5 37 38 39 40 41
DONOR_HYDROGENS      STATIC     ATOMS    <user>   **** ""
1 24
ATOM$BLUE        STATIC     ATOMS    COLORGROUP SYSTEM
5 37 38 39 40 41
ATOM$RED        STATIC     ATOMS    COLORGROUP SYSTEM
1 24
