AV-unprocessed.smi:148|AV-procd|sdf|1229|dock7
  -GOLD-   2262018433D 1   1.00000     0.00000
 Structure written by MMmdl.
 63 67  0  0  0  0  0  0  0  0  1 V2000
  147.4786  131.7743  160.7951 O   0  0  0  0  0  0  0  0  0  0  0  0
  146.3490  132.4522  160.2855 C   0  0  0  0  0  0  0  0  0  0  0  0
  146.7406  133.8199  159.6735 C   0  0  1  0  0  0  0  0  0  0  0  0
  145.8541  134.1956  158.4572 C   0  0  0  0  0  0  0  0  0  0  0  0
  146.0304  133.3096  157.3198 N   0  0  0  0  0  0  0  0  0  0  0  0
  145.7532  131.9616  157.2760 C   0  0  0  0  0  0  0  0  0  0  0  0
  146.0085  131.3774  156.1365 N   0  0  0  0  0  0  0  0  0  0  0  0
  146.4996  132.4014  155.3371 C   0  0  0  0  0  0  0  0  0  0  0  0
  146.9763  132.4691  154.0023 C   0  0  0  0  0  0  0  0  0  0  0  0
  147.0386  131.3766  153.2065 N   0  0  0  0  0  0  0  0  0  0  0  0
  147.5195  130.2285  153.9770 C   0  0  0  0  0  0  0  0  0  0  0  0
  147.7862  129.0140  153.0784 C   0  0  0  0  0  0  0  0  0  0  0  0
  146.5333  128.6674  152.2684 C   0  0  0  0  0  0  0  0  0  0  0  0
  146.0902  129.8899  151.4561 C   0  0  0  0  0  0  0  0  0  0  0  0
  145.8537  131.1294  152.3614 C   0  0  2  0  0  0  0  0  0  0  0  0
  145.3735  132.3930  151.5654 C   0  0  2  0  0  0  0  0  0  0  0  0
  143.9380  132.2384  151.0111 C   0  0  0  0  0  0  0  0  0  0  0  0
  143.9966  132.5447  149.5086 C   0  0  0  0  0  0  0  0  0  0  0  0
  145.4596  132.3579  149.1165 C   0  0  0  0  0  0  0  0  0  0  0  0
  146.2169  132.8486  150.3482 C   0  0  2  0  0  0  0  0  0  0  0  0
  147.5726  132.4505  150.3392 O   0  0  0  0  0  0  0  0  0  0  0  0
  147.3864  133.6773  153.5322 N   0  0  0  0  0  0  0  0  0  0  0  0
  147.3416  134.7514  154.3261 C   0  0  0  0  0  0  0  0  0  0  0  0
  146.9335  134.8358  155.5946 N   0  0  0  0  0  0  0  0  0  0  0  0
  146.5180  133.6240  156.0635 C   0  0  0  0  0  0  0  0  0  0  0  0
  146.8065  134.9309  160.7602 C   0  0  1  0  0  0  0  0  0  0  0  0
  147.2031  134.4993  162.1609 C   0  0  0  0  0  0  0  0  0  0  0  0
  147.4896  135.8461  162.8146 C   0  0  0  0  0  0  0  0  0  0  0  0
  148.0779  136.6399  161.7893 O   0  0  0  0  0  0  0  0  0  0  0  0
  147.7780  136.0901  160.5078 C   0  0  0  0  0  0  0  0  0  0  0  0
  147.7497  132.1998  161.5941 H   0  0  0  0  0  0  0  0  0  0  0  0
  145.8992  131.7967  159.5404 H   0  0  0  0  0  0  0  0  0  0  0  0
  145.6139  132.5777  161.0809 H   0  0  0  0  0  0  0  0  0  0  0  0
  147.7541  133.7075  159.2853 H   0  0  0  0  0  0  0  0  0  0  0  0
  144.7991  134.1918  158.7282 H   0  0  0  0  0  0  0  0  0  0  0  0
  146.0800  135.2033  158.1107 H   0  0  0  0  0  0  0  0  0  0  0  0
  145.3537  131.4223  158.1226 H   0  0  0  0  0  0  0  0  0  0  0  0
  148.4359  130.4954  154.5057 H   0  0  0  0  0  0  0  0  0  0  0  0
  146.7809  129.9646  154.7358 H   0  0  0  0  0  0  0  0  0  0  0  0
  148.6155  129.2293  152.4032 H   0  0  0  0  0  0  0  0  0  0  0  0
  148.0899  128.1602  153.6844 H   0  0  0  0  0  0  0  0  0  0  0  0
  146.7346  127.8264  151.6042 H   0  0  0  0  0  0  0  0  0  0  0  0
  145.7307  128.3553  152.9376 H   0  0  0  0  0  0  0  0  0  0  0  0
  146.8578  130.0986  150.7124 H   0  0  0  0  0  0  0  0  0  0  0  0
  145.1913  129.6342  150.8974 H   0  0  0  0  0  0  0  0  0  0  0  0
  145.0474  130.8657  153.0476 H   0  0  0  0  0  0  0  0  0  0  0  0
  145.3326  133.2374  152.2531 H   0  0  0  0  0  0  0  0  0  0  0  0
  143.5490  131.2339  151.1722 H   0  0  0  0  0  0  0  0  0  0  0  0
  143.2459  132.9148  151.5138 H   0  0  0  0  0  0  0  0  0  0  0  0
  143.3250  131.9125  148.9271 H   0  0  0  0  0  0  0  0  0  0  0  0
  143.7048  133.5816  149.3364 H   0  0  0  0  0  0  0  0  0  0  0  0
  145.6614  131.3018  148.9345 H   0  0  0  0  0  0  0  0  0  0  0  0
  145.7251  132.9084  148.2135 H   0  0  0  0  0  0  0  0  0  0  0  0
  146.2123  133.9396  150.3276 H   0  0  0  0  0  0  0  0  0  0  0  0
  147.8778  132.3986  151.2326 H   0  0  0  0  0  0  0  0  0  0  0  0
  147.6846  135.6747  153.8829 H   0  0  0  0  0  0  0  0  0  0  0  0
  145.8098  135.3654  160.8527 H   0  0  0  0  0  0  0  0  0  0  0  0
  146.4238  133.9356  162.6742 H   0  0  0  0  0  0  0  0  0  0  0  0
  148.1156  133.9046  162.1613 H   0  0  0  0  0  0  0  0  0  0  0  0
  146.5605  136.3197  163.1346 H   0  0  0  0  0  0  0  0  0  0  0  0
  148.1447  135.7627  163.6819 H   0  0  0  0  0  0  0  0  0  0  0  0
  148.7122  135.7523  160.0614 H   0  0  0  0  0  0  0  0  0  0  0  0
  147.3485  136.8467  159.8507 H   0  0  0  0  0  0  0  0  0  0  0  0
  1  2  1  0  0  0  0
  1 31  1  0  0  0  0
  2  3  1  0  0  0  0
  2 32  1  0  0  0  0
  2 33  1  0  0  0  0
  3  4  1  0  0  0  0
  3 26  1  0  0  0  0
  3 34  1  0  0  0  0
  4  5  1  0  0  0  0
  4 35  1  0  0  0  0
  4 36  1  0  0  0  0
  5 25  1  0  0  0  0
  5  6  1  0  0  0  0
  6  7  2  0  0  0  0
  6 37  1  0  0  0  0
  7  8  1  0  0  0  0
  8 25  2  0  0  0  0
  8  9  1  0  0  0  0
  9 10  1  0  0  0  0
  9 22  2  0  0  0  0
 10 15  1  0  0  0  0
 10 11  1  0  0  0  0
 11 12  1  0  0  0  0
 11 38  1  0  0  0  0
 11 39  1  0  0  0  0
 12 13  1  0  0  0  0
 12 40  1  0  0  0  0
 12 41  1  0  0  0  0
 13 14  1  0  0  0  0
 13 42  1  0  0  0  0
 13 43  1  0  0  0  0
 14 15  1  0  0  0  0
 14 44  1  0  0  0  0
 14 45  1  0  0  0  0
 15 16  1  0  0  0  0
 15 46  1  0  0  0  0
 16 20  1  0  0  0  0
 16 17  1  0  0  0  0
 16 47  1  0  0  0  0
 17 18  1  0  0  0  0
 17 48  1  0  0  0  0
 17 49  1  0  0  0  0
 18 19  1  0  0  0  0
 18 50  1  0  0  0  0
 18 51  1  0  0  0  0
 19 20  1  0  0  0  0
 19 52  1  0  0  0  0
 19 53  1  0  0  0  0
 20 21  1  0  0  0  0
 20 54  1  0  0  0  0
 21 55  1  0  0  0  0
 22 23  1  0  0  0  0
 23 24  2  0  0  0  0
 23 56  1  0  0  0  0
 24 25  1  0  0  0  0
 26 30  1  0  0  0  0
 26 27  1  0  0  0  0
 26 57  1  0  0  0  0
 27 28  1  0  0  0  0
 27 58  1  0  0  0  0
 27 59  1  0  0  0  0
 28 29  1  0  0  0  0
 28 60  1  0  0  0  0
 28 61  1  0  0  0  0
 29 30  1  0  0  0  0
 30 62  1  0  0  0  0
 30 63  1  0  0  0  0
M  END
> <s_m_source_file>
AV-unprocessed.smi

> <i_m_source_file_index>
148

> <i_lp_mmshare_version>
43012

> <i_f3d_flags>
0

> <s_epik_input>
W0NIMl0xT1tDSDJdW0NIMl1bQ0BIXTFbQ0BIXShbQ0gyXVtPSF0pW0NIMl1uKFtjSF1uMiljKGMyMyluW2NIXW5jM040W0NIMl1bQ0gyXVtDSDJdW0NIMl1bQ0BIXTRbQ0BASF01W0NIMl1bQ0gyXVtDSDJdW0NASF01W09IXQ==

> <s_epik_cmdline>
J2VwaWtfcHl0aG9uJywgJy1waCcsICc3LjAnLCAnLXRuJywgJzgnLCAnLW1hJywgJzIwMCcsICctbWV0YWxfYmluZGluZycsICctaW1hZScsICc8aW5maWxlLm1hZT4nLCAnLW9tYWUnLCAnPG91dGZpbGUubWFlPic=

> <r_lp_tautomer_probability>
1

> <r_epik_Ionization_Penalty>
0.00556303

> <r_epik_Ionization_Penalty_Charging>
0

> <r_epik_Ionization_Penalty_Neutral>
0.00556303

> <r_epik_State_Penalty>
0.00401767

> <r_epik_Charging_Adjusted_Penalty>
0.00401767

> <i_epik_Tot_Q>
0

> <i_epik_Tot_abs_Q>
0

> <r_epik_Metal_State_Penalty>
-0

> <b_epik_Metal_Only>
0

> <s_lp_Force_Field>
OPLS_2005

> <r_lp_Energy>
73.9782

> <b_lp_Chiralities_Consistent>
1

> <s_lp_Variant>
AV-unprocessed.smi:148-28

> <Gold.Version>
5.8.1

> <Gold.Id.Protein>
6NUR|6NUR_protein|mol2

> <Gold.PLP.Fitness>
47.2713

> <Gold.PLP.PLP>
-44.4274

> <Gold.PLP.part.hbond>
-1.1461

> <Gold.PLP.part.metal>
0.0000

> <Gold.PLP.part.buried>
-7.2280

> <Gold.PLP.part.nonpolar>
-36.5220

> <Gold.PLP.part.repulsive>
0.3942

> <Gold.PLP.ligand.clash>
0.0000

> <Gold.PLP.ligand.torsion>
1.7622

> <Gold.PLP.Chemscore.Hbond>
1.0000

> <Gold.PLP.Chemscore.CHOScore>
1.0000

> <Gold.PLP.Chemscore.Metal>
0.0000

> <Gold.Chemscore.Hbonds>
donor molecule, donor type, donor heavy atom, donor atom, acceptor molecule, acceptor atom, score
      P1  H  6931  6943       L1    29  1.00
      L1  C    23    56       P1  7948  1.00

> <Gold.PLP.Chemscore.Internal.Correction>
0.3682

> <Gold.Rescore>
     Score         DG    S(hbond)    S(metal)    S(lipo)     H(rot)  DE(clash)    DE(int)     intcor
     10.73     -14.75       1.00        0.00     123.43       3.32       0.00       4.02       ----

> <Gold.Chemscore.Fitness>
10.7312

> <Gold.Chemscore.DG>
-14.7464

> <Gold.Chemscore.ZeroCoef>
-5.4800

> <Gold.Chemscore.Hbond>
0.9957

> <Gold.Chemscore.Metal>
0.0000

> <Gold.Chemscore.Lipo>
123.4261

> <Gold.Chemscore.Internal_Hbond>
0.0000

> <Gold.Chemscore.DEClash>
0.0000

> <Gold.Chemscore.DEInternal>
4.0153

> <Gold.Chemscore.Rot>
3.3203

> <Gold.Chemscore.Internal.Correction>
   9.000000E+99

> <Gold.Chemscore.Hbonds>
donor molecule, donor type, donor heavy atom, donor atom, acceptor molecule, acceptor atom, score
      P1  H  6931  6943       L1    29  0.98

> <Gold.Chemscore.Hbond.Weighted>
-3.3256

> <Gold.Chemscore.Metal.Weighted>
-0.0000

> <Gold.Chemscore.Lipo.Weighted>
-14.4409

> <Gold.Chemscore.Internal_Hbond.Weighted>
0.0000

> <Gold.Chemscore.DEClash.Weighted>
0.0000

> <Gold.Chemscore.DEInternal.Weighted>
4.0153

> <Gold.Chemscore.Rot.Weighted>
8.5000

> <Gold.Chemscore.Internal.Correction.Weighted>
   9.000000E+99

> <Gold.Protein.RotatedTorsions>
[ 6907 6896 6895 6894 ] final -108.68 input  -60.11 | X-H torsion
[ 7974 7965 7964 7962 ] final   28.59 input  175.53 | X-H torsion
[ 8008 7997 7996 7995 ] final -162.15 input   59.86 | X-H torsion
[ 10167 10162 10161 10158 ] final -156.59 input  -65.29 | X-H torsion
[ 10718 10713 10712 10709 ] final -120.21 input   66.30 | X-H torsion
[ 10763 10752 10751 10750 ] final  -54.97 input  -60.55 | X-H torsion
[ 11005 11000 10999 10996 ] final  -50.95 input  -57.11 | X-H torsion

> <Gold.Protein.ActiveResidues>
 VAL166  LYS551  ARG553  GLY616  TRP617  ASP618  TYR619  PRO620  LYS621  CYS622 
 ASP623  PHE694  ASN695  SER759  ASP760  ASP761  ALA762  ILE779  LEU786  VAL792 
 PHE793  MET794  SER795  GLU796  ALA797  LYS798  CYS799  TRP800  GLU811  SER814 

> <Gold.Protein.RotatedAtoms>
  150.7516  133.9641  159.3524 H   0  0  0  0  0  0  0  0  0  0  0  0  # atno 6907 bound_to 6896
  151.7569  135.0817  160.0349 H   0  0  0  0  0  0  0  0  0  0  0  0  # atno 6908 bound_to 6896
  152.3429  133.6051  159.5925 H   0  0  0  0  0  0  0  0  0  0  0  0  # atno 6909 bound_to 6896
  146.1720  139.7035  142.8961 H   0  0  0  0  0  0  0  0  0  0  0  0  # atno 7974 bound_to 7965
  155.8026  140.0894  157.1948 H   0  0  0  0  0  0  0  0  0  0  0  0  # atno 8008 bound_to 7997
  154.3981  140.1469  156.3351 H   0  0  0  0  0  0  0  0  0  0  0  0  # atno 8009 bound_to 7997
  155.8447  140.3437  155.5657 H   0  0  0  0  0  0  0  0  0  0  0  0  # atno 8010 bound_to 7997
  139.6838  143.9536  152.2350 H   0  0  0  0  0  0  0  0  0  0  0  0  # atno 10167 bound_to 10162
  156.1240  130.6345  150.9512 H   0  0  0  0  0  0  0  0  0  0  0  0  # atno 10718 bound_to 10713
  154.1834  135.6439  153.5040 H   0  0  0  0  0  0  0  0  0  0  0  0  # atno 10763 bound_to 10752
  153.0053  135.5411  154.6491 H   0  0  0  0  0  0  0  0  0  0  0  0  # atno 10764 bound_to 10752
  154.5861  135.2929  155.0656 H   0  0  0  0  0  0  0  0  0  0  0  0  # atno 10765 bound_to 10752
  141.0844  133.6646  156.3806 H   0  0  0  0  0  0  0  0  0  0  0  0  # atno 11005 bound_to 11000
  145.4315  141.0415  143.2908 LP  0  0  0  0  0  0  0  0  0  0  0  0  # atno 17320 bound_to 7965
  144.8177  139.5847  143.7001 LP  0  0  0  0  0  0  0  0  0  0  0  0  # atno 17321 bound_to 7965
  139.9333  144.6727  150.8340 LP  0  0  0  0  0  0  0  0  0  0  0  0  # atno 17342 bound_to 10162
  140.7661  143.3293  151.2445 LP  0  0  0  0  0  0  0  0  0  0  0  0  # atno 17343 bound_to 10162
  157.6423  131.0908  150.8226 LP  0  0  0  0  0  0  0  0  0  0  0  0  # atno 17370 bound_to 10713
  156.8319  130.5019  149.5330 LP  0  0  0  0  0  0  0  0  0  0  0  0  # atno 17371 bound_to 10713
  140.5395  134.6134  157.5375 LP  0  0  0  0  0  0  0  0  0  0  0  0  # atno 17394 bound_to 11000
  139.9661  134.7371  156.0136 LP  0  0  0  0  0  0  0  0  0  0  0  0  # atno 17395 bound_to 11000

$$$$
