#       Name:                AV-unprocessed.smi:1353
#       Creating user name   scv26
#       Creation time:       Fri Mar 27 05:12:32 2020


#       File generated by GOLD software.
#

@<TRIPOS>MOLECULE
AV-unprocessed.smi:1353
    44    46     1
SMALL
NO_CHARGES


@<TRIPOS>ATOM
      1 ****        -0.0204   4.7051  -2.8624 O.3            1 S1                 0.0000
      2 ****        -0.4396   3.3576  -2.8555 C.3            1 S1                 0.0000
      3 ****        -0.6710   2.8948  -1.4107 C.3            1 S1                 0.0000
      4 ****        -1.1260   1.4725  -1.3551 C.2            1 S1                 0.0000
      5 ****        -2.4221   1.0516  -1.3308 N.pl3          1 S1                 1.0000
      6 ****        -2.4660  -0.3422  -1.2844 C.ar           1 S1                 0.0000
      7 ****        -3.5464  -1.2178  -1.2404 C.ar           1 S1                 0.0000
      8 ****        -3.2436  -2.5944  -1.1941 C.ar           1 S1                 0.0000
      9 ****        -1.9102  -3.0531  -1.1936 C.ar           1 S1                 0.0000
     10 ****        -0.8233  -2.1555  -1.2410 C.ar           1 S1                 0.0000
     11 ****        -1.1308  -0.7957  -1.2869 C.ar           1 S1                 0.0000
     12 ****        -0.3387   0.3581  -1.3370 N.pl3          1 S1                 0.0000
     13 ****         1.1270   0.2318  -1.3518 C.3            1 S1                 0.0000
     14 ****         1.7293   0.2487   0.0606 C.3            1 S1                 0.0000
     15 ****         1.1969  -0.8288   0.8198 O.3            1 S1                 0.0000
     16 ****         1.6018  -0.9703   2.1292 C.ar           1 S1                 0.0000
     17 ****         1.0325  -2.0315   2.8635 C.ar           1 S1                 0.0000
     18 ****         1.3894  -2.2504   4.2080 C.ar           1 S1                 0.0000
     19 ****         2.3247  -1.4060   4.8342 C.ar           1 S1                 0.0000
     20 ****         2.9011  -0.3440   4.1131 C.ar           1 S1                 0.0000
     21 ****         2.5435  -0.1245   2.7684 C.ar           1 S1                 0.0000
     22 ****         0.1341   4.9695  -3.7568 H              1 S1                 0.0000
     23 ****        -1.3551   3.2672  -3.4413 H              1 S1                 0.0000
     24 ****         0.3222   2.7469  -3.3411 H              1 S1                 0.0000
     25 ****         0.2438   3.0008  -0.8265 H              1 S1                 0.0000
     26 ****        -1.4220   3.5235  -0.9306 H              1 S1                 0.0000
     27 ****        -4.5686  -0.8685  -1.2387 H              1 S1                 0.0000
     28 ****        -4.0500  -3.3125  -1.1567 H              1 S1                 0.0000
     29 ****        -1.7164  -4.1153  -1.1551 H              1 S1                 0.0000
     30 ****         0.1938  -2.5185  -1.2345 H              1 S1                 0.0000
     31 ****         1.4040  -0.6778  -1.8848 H              1 S1                 0.0000
     32 ****         1.5270   1.0608  -1.9358 H              1 S1                 0.0000
     33 ****         2.8145   0.1615  -0.0082 H              1 S1                 0.0000
     34 ****         1.4970   1.1992   0.5438 H              1 S1                 0.0000
     35 ****         0.3140  -2.6848   2.3906 H              1 S1                 0.0000
     36 ****         0.9458  -3.0668   4.7587 H              1 S1                 0.0000
     37 ****         2.6000  -1.5727   5.8652 H              1 S1                 0.0000
     38 ****         3.6200   0.3045   4.5917 H              1 S1                 0.0000
     39 ****         3.0079   0.6996   2.2489 H              1 S1                 0.0000
     40 ****        -3.2182   1.6762  -1.3411 H              1 S1                 0.0000
     41 ****         0.8231   4.7979  -2.3335 LP             1 S1                 0.0000
     42 ****        -0.7317   5.2810  -2.4593 LP             1 S1                 0.0000
     43 ****         1.4377  -1.6740   0.3428 LP             1 S1                 0.0000
     44 ****         0.2026  -0.7222   0.8276 LP             1 S1                 0.0000
@<TRIPOS>BOND
    1    1    2 1     
    2    1   22 1     
    3    2    3 1     
    4    2   23 1     
    5    2   24 1     
    6    3    4 1     
    7    3   25 1     
    8    3   26 1     
    9    4   12 1     
   10    4    5 2     
   11    5    6 1     
   12    5   40 1     
   13    6   11 ar    
   14    6    7 ar    
   15    7    8 ar    
   16    7   27 1     
   17    8    9 ar    
   18    8   28 1     
   19    9   10 ar    
   20    9   29 1     
   21   10   11 ar    
   22   10   30 1     
   23   11   12 1     
   24   12   13 1     
   25   13   14 1     
   26   13   31 1     
   27   13   32 1     
   28   14   15 1     
   29   14   33 1     
   30   14   34 1     
   31   15   16 1     
   32   16   21 ar    
   33   16   17 ar    
   34   17   18 ar    
   35   17   35 1     
   36   18   19 ar    
   37   18   36 1     
   38   19   20 ar    
   39   19   37 1     
   40   20   21 ar    
   41   20   38 1     
   42   21   39 1     
   43    1   41 1     
   44    1   42 1     
   45   15   43 1     
   46   15   44 1     
@<TRIPOS>SUBSTRUCTURE
      1 S1             1
@<TRIPOS>SET
LONE_PAIRS      STATIC     ATOMS    <user>   **** ""
4 41 42 43 44
DONOR_HYDROGENS      STATIC     ATOMS    <user>   **** ""
2 22 40
ATOM$BLUE        STATIC     ATOMS    COLORGROUP SYSTEM
4 41 42 43 44
ATOM$RED        STATIC     ATOMS    COLORGROUP SYSTEM
2 22 40
