#       Name:                AV-unprocessed.smi:158
#       Creating user name   scv26
#       Creation time:       Thu Mar 26 19:01:57 2020


#       File generated by GOLD software.
#

@<TRIPOS>MOLECULE
AV-unprocessed.smi:158
    40    42     1
SMALL
NO_CHARGES


@<TRIPOS>ATOM
      1 ****        -5.1164   0.4906   0.0050 N.pl3          1 S1                 0.0000
      2 ****        -3.7876   0.6590  -0.0492 C.ar           1 S1                 0.0000
      3 ****        -3.3060   1.8722  -0.4067 N.ar           1 S1                 0.0000
      4 ****        -1.9855   2.0822  -0.4728 C.ar           1 S1                 0.0000
      5 ****        -1.4814   3.6637  -0.9387 Cl             1 S1                 0.0000
      6 ****        -1.0110   1.2035  -0.2158 N.ar           1 S1                 0.0000
      7 ****        -1.4916  -0.0213   0.1448 C.ar           1 S1                 0.0000
      8 ****        -2.8641  -0.3723   0.2504 C.ar           1 S1                 0.0000
      9 ****        -2.9851  -1.6991   0.6394 N.2            1 S1                 0.0000
     10 ****        -1.7489  -2.1055   0.7555 C.2            1 S1                 0.0000
     11 ****        -0.7856  -1.1584   0.4836 N.pl3          1 S1                 0.0000
     12 ****         0.6992  -1.3335   0.5220 C.3            1 S1                 0.0000
     13 ****         1.2266  -0.9855  -0.7232 O.3            1 S1                 0.0000
     14 ****         2.1540   0.0918  -0.5955 C.3            1 S1                 0.0000
     15 ****         3.2979  -0.0832  -1.6066 C.3            1 S1                 0.0000
     16 ****         2.9098   0.4094  -2.8711 O.3            1 S1                 0.0000
     17 ****         2.6152   0.0014   0.8624 C.3            1 S1                 0.0000
     18 ****         3.0666   1.2511   1.3443 O.3            1 S1                 0.0000
     19 ****         1.3470  -0.4285   1.5730 C.3            1 S1                 0.0000
     20 ****         1.6097  -1.1259   2.6787 F              1 S1                 0.0000
     21 ****         0.8610  -2.3970   0.7036 H              1 S1                 0.0000
     22 ****         1.6325   1.0366  -0.7565 H              1 S1                 0.0000
     23 ****         3.3910  -0.7576   0.9749 H              1 S1                 0.0000
     24 ****         0.7019   0.4154   1.8210 H              1 S1                 0.0000
     25 ****        -5.4990  -0.4059   0.2697 H              1 S1                 0.0000
     26 ****        -5.7321   1.2585  -0.2206 H              1 S1                 0.0000
     27 ****        -1.5042  -3.1163   1.0482 H              1 S1                 0.0000
     28 ****         4.1701   0.4889  -1.2884 H              1 S1                 0.0000
     29 ****         3.6052  -1.1266  -1.6817 H              1 S1                 0.0000
     30 ****         3.6329   0.3037  -3.4700 H              1 S1                 0.0000
     31 ****         2.3792   1.8878   1.2192 H              1 S1                 0.0000
     32 ****        -3.9395   2.6153  -0.6225 LP             1 S1                 0.0000
     33 ****        -0.0370   1.4203  -0.2807 LP             1 S1                 0.0000
     34 ****        -3.8232  -2.2221   0.7947 LP             1 S1                 0.0000
     35 ****         0.4813  -0.7069  -1.3290 LP             1 S1                 0.0000
     36 ****         1.6954  -1.7776  -1.1140 LP             1 S1                 0.0000
     37 ****         2.6722   1.3780  -2.7971 LP             1 S1                 0.0000
     38 ****         2.1185  -0.1033  -3.2042 LP             1 S1                 0.0000
     39 ****         3.8826   1.5324   0.8393 LP             1 S1                 0.0000
     40 ****         3.2854   1.1781   2.3174 LP             1 S1                 0.0000
@<TRIPOS>BOND
    1    1    2 1     
    2    1   25 1     
    3    1   26 1     
    4    2    8 ar    
    5    2    3 ar    
    6    3    4 ar    
    7    4    5 1     
    8    4    6 ar    
    9    6    7 ar    
   10    7   11 1     
   11    7    8 ar    
   12    8    9 1     
   13    9   10 2     
   14   10   11 1     
   15   10   27 1     
   16   11   12 1     
   17   12   21 1     
   18   12   19 1     
   19   12   13 1     
   20   13   14 1     
   21   14   22 1     
   22   14   15 1     
   23   14   17 1     
   24   15   16 1     
   25   15   28 1     
   26   15   29 1     
   27   16   30 1     
   28   17   23 1     
   29   17   18 1     
   30   17   19 1     
   31   18   31 1     
   32   19   24 1     
   33   19   20 1     
   34    3   32 1     
   35    6   33 1     
   36    9   34 1     
   37   13   35 1     
   38   13   36 1     
   39   16   37 1     
   40   16   38 1     
   41   18   39 1     
   42   18   40 1     
@<TRIPOS>SUBSTRUCTURE
      1 S1             1
@<TRIPOS>SET
LONE_PAIRS      STATIC     ATOMS    <user>   **** ""
9 32 33 34 35 36 37 38 39 40
DONOR_HYDROGENS      STATIC     ATOMS    <user>   **** ""
4 25 26 30 31
ATOM$BLUE        STATIC     ATOMS    COLORGROUP SYSTEM
9 32 33 34 35 36 37 38 39 40
ATOM$RED        STATIC     ATOMS    COLORGROUP SYSTEM
4 25 26 30 31
