#       Name:                AV-unprocessed.smi:3065
#       Creating user name   scv26
#       Creation time:       Fri Mar 27 17:09:40 2020


#       File generated by GOLD software.
#

@<TRIPOS>MOLECULE
AV-unprocessed.smi:3065
    26    27     1
SMALL
NO_CHARGES


@<TRIPOS>ATOM
      1 ****        -3.3819   0.4561  -1.5482 C.2            1 S1                 0.0000
      2 ****        -3.5843  -0.8914  -1.6456 N.2            1 S1                 0.0000
      3 ****        -2.3304  -1.3116  -1.5558 C.2            1 S1                 0.0000
      4 ****        -1.4420  -0.3288  -1.3975 N.pl3          1 S1                 0.0000
      5 ****         0.0063  -0.3782  -1.2934 C.3            1 S1                 0.0000
      6 ****         0.5560   0.4118  -0.0894 C.3            1 S1                 0.0000
      7 ****         2.0822   0.3809   0.0196 C.3            1 S1                 0.0000
      8 ****         2.3218   0.6818   1.4944 C.3            1 S1                 0.0000
      9 ****         1.1556  -0.0202   2.1946 C.3            1 S1                 0.0000
     10 ****         0.0647  -0.1106   1.2028 N.4            1 S1                 1.0000
     11 ****        -2.1149   0.8465  -1.4060 N.2            1 S1                 0.0000
     12 ****        -4.1915   1.1702  -1.5856 H              1 S1                 0.0000
     13 ****        -2.0563  -2.3553  -1.6059 H              1 S1                 0.0000
     14 ****         0.3131  -1.4235  -1.2329 H              1 S1                 0.0000
     15 ****         0.4230   0.0176  -2.2206 H              1 S1                 0.0000
     16 ****         0.2459   1.4561  -0.1536 H              1 S1                 0.0000
     17 ****         2.4638  -0.6131  -0.2198 H              1 S1                 0.0000
     18 ****         2.5685   1.0973  -0.6435 H              1 S1                 0.0000
     19 ****         3.2954   0.3387   1.8457 H              1 S1                 0.0000
     20 ****         2.2638   1.7579   1.6649 H              1 S1                 0.0000
     21 ****         1.4398  -1.0320   2.4857 H              1 S1                 0.0000
     22 ****         0.8344   0.5105   3.0910 H              1 S1                 0.0000
     23 ****        -0.7402   0.4205   1.5040 H              1 S1                 0.0000
     24 ****        -0.1918  -1.0816   1.0962 H              1 S1                 0.0000
     25 ****        -4.4324  -1.4102  -1.7534 LP             1 S1                 0.0000
     26 ****        -1.7523   1.7750  -1.3258 LP             1 S1                 0.0000
@<TRIPOS>BOND
    1    1   11 2     
    2    1    2 1     
    3    1   12 1     
    4    2    3 2     
    5    3    4 1     
    6    3   13 1     
    7    4    5 1     
    8    4   11 1     
    9    5    6 1     
   10    5   14 1     
   11    5   15 1     
   12    6   10 1     
   13    6    7 1     
   14    6   16 1     
   15    7    8 1     
   16    7   17 1     
   17    7   18 1     
   18    8    9 1     
   19    8   19 1     
   20    8   20 1     
   21    9   10 1     
   22    9   21 1     
   23    9   22 1     
   24   10   23 1     
   25   10   24 1     
   26    2   25 1     
   27   11   26 1     
@<TRIPOS>SUBSTRUCTURE
      1 S1             1
@<TRIPOS>SET
LONE_PAIRS      STATIC     ATOMS    <user>   **** ""
2 25 26
DONOR_HYDROGENS      STATIC     ATOMS    <user>   **** ""
2 23 24
ATOM$BLUE        STATIC     ATOMS    COLORGROUP SYSTEM
2 25 26
ATOM$RED        STATIC     ATOMS    COLORGROUP SYSTEM
2 23 24
