AV-unprocessed.smi:493|AV-procd|sdf|2712|dock6
  -GOLD-   2262023153D 1   1.00000     0.00000
 Structure written by MMmdl.
 46 47  0  0  0  0  0  0  0  0  1 V2000
  147.6801  133.1032  161.5728 C   0  0  0  0  0  0  0  0  0  0  0  0
  146.8820  134.4184  161.5333 C   0  0  0  0  0  0  0  0  0  0  0  0
  145.3957  134.1110  161.8126 C   0  0  0  0  0  0  0  0  0  0  0  0
  147.4474  135.3795  162.6003 C   0  0  0  0  0  0  0  0  0  0  0  0
  147.0517  134.9800  160.1878 N   0  0  0  0  0  0  0  0  0  0  0  0
  148.0210  135.7967  159.7381 C   0  0  0  0  0  0  0  0  0  0  0  0
  148.9391  136.2221  160.4398 O   0  0  0  0  0  0  0  0  0  0  0  0
  147.9130  136.2055  158.2621 C   0  0  0  0  0  0  0  0  0  0  0  0
  149.2196  136.3070  157.5913 N   0  0  0  0  0  0  0  0  0  0  0  0
  149.6413  137.5927  157.2007 C   0  0  0  0  0  0  0  0  0  0  0  0
  150.8285  137.7974  156.6069 C   0  0  0  0  0  0  0  0  0  0  0  0
  151.2781  139.4401  155.9918 S   0  0  0  0  0  0  0  0  0  0  0  0
  152.7454  139.5319  156.0385 O   0  0  0  0  0  0  0  0  0  0  0  0
  150.5700  139.6523  154.7195 O   0  0  0  0  0  0  0  0  0  0  0  0
  150.6478  140.5859  157.1272 N   0  0  0  0  0  0  0  0  0  0  0  0
  151.0577  140.4595  158.5323 C   0  0  0  0  0  0  0  0  0  0  0  0
  151.6157  141.8266  158.9254 C   0  0  0  0  0  0  0  0  0  0  0  0
  150.8185  142.7855  158.0547 C   0  0  0  0  0  0  0  0  0  0  0  0
  150.6443  142.0077  156.7505 C   0  0  0  0  0  0  0  0  0  0  0  0
  151.6556  136.6512  156.3106 C   0  0  0  0  0  0  0  0  0  0  0  0
  151.2526  135.4154  156.6670 C   0  0  0  0  0  0  0  0  0  0  0  0
  149.9768  135.1904  157.3573 C   0  0  0  0  0  0  0  0  0  0  0  0
  149.6099  134.0666  157.7016 O   0  0  0  0  0  0  0  0  0  0  0  0
  147.6055  132.6230  162.5492 H   0  0  0  0  0  0  0  0  0  0  0  0
  148.7387  133.2730  161.3719 H   0  0  0  0  0  0  0  0  0  0  0  0
  147.3149  132.3928  160.8300 H   0  0  0  0  0  0  0  0  0  0  0  0
  144.9733  133.4609  161.0457 H   0  0  0  0  0  0  0  0  0  0  0  0
  144.7889  135.0156  161.8492 H   0  0  0  0  0  0  0  0  0  0  0  0
  145.2731  133.6074  162.7719 H   0  0  0  0  0  0  0  0  0  0  0  0
  147.4138  134.9277  163.5922 H   0  0  0  0  0  0  0  0  0  0  0  0
  146.8814  136.3094  162.6556 H   0  0  0  0  0  0  0  0  0  0  0  0
  148.4866  135.6380  162.3930 H   0  0  0  0  0  0  0  0  0  0  0  0
  146.3498  134.7070  159.5154 H   0  0  0  0  0  0  0  0  0  0  0  0
  147.2756  135.4943  157.7331 H   0  0  0  0  0  0  0  0  0  0  0  0
  147.3811  137.1565  158.2126 H   0  0  0  0  0  0  0  0  0  0  0  0
  148.9424  138.3894  157.4101 H   0  0  0  0  0  0  0  0  0  0  0  0
  150.1811  140.2107  159.1313 H   0  0  0  0  0  0  0  0  0  0  0  0
  151.7953  139.6670  158.6653 H   0  0  0  0  0  0  0  0  0  0  0  0
  151.5146  142.0356  159.9908 H   0  0  0  0  0  0  0  0  0  0  0  0
  152.6742  141.8837  158.6676 H   0  0  0  0  0  0  0  0  0  0  0  0
  149.8445  142.9751  158.5079 H   0  0  0  0  0  0  0  0  0  0  0  0
  151.3174  143.7444  157.9120 H   0  0  0  0  0  0  0  0  0  0  0  0
  151.4812  142.2096  156.0808 H   0  0  0  0  0  0  0  0  0  0  0  0
  149.7229  142.2707  156.2305 H   0  0  0  0  0  0  0  0  0  0  0  0
  152.6011  136.7820  155.8055 H   0  0  0  0  0  0  0  0  0  0  0  0
  151.8835  134.5683  156.4412 H   0  0  0  0  0  0  0  0  0  0  0  0
  1  2  1  0  0  0  0
  1 24  1  0  0  0  0
  1 25  1  0  0  0  0
  1 26  1  0  0  0  0
  2  3  1  0  0  0  0
  2  4  1  0  0  0  0
  2  5  1  0  0  0  0
  3 27  1  0  0  0  0
  3 28  1  0  0  0  0
  3 29  1  0  0  0  0
  4 30  1  0  0  0  0
  4 31  1  0  0  0  0
  4 32  1  0  0  0  0
  5  6  1  0  0  0  0
  5 33  1  0  0  0  0
  6  7  2  0  0  0  0
  6  8  1  0  0  0  0
  8  9  1  0  0  0  0
  8 34  1  0  0  0  0
  8 35  1  0  0  0  0
  9 22  1  0  0  0  0
  9 10  1  0  0  0  0
 10 11  2  0  0  0  0
 10 36  1  0  0  0  0
 11 12  1  0  0  0  0
 11 20  1  0  0  0  0
 12 13  2  0  0  0  0
 12 14  2  0  0  0  0
 12 15  1  0  0  0  0
 15 19  1  0  0  0  0
 15 16  1  0  0  0  0
 16 17  1  0  0  0  0
 16 37  1  0  0  0  0
 16 38  1  0  0  0  0
 17 18  1  0  0  0  0
 17 39  1  0  0  0  0
 17 40  1  0  0  0  0
 18 19  1  0  0  0  0
 18 41  1  0  0  0  0
 18 42  1  0  0  0  0
 19 43  1  0  0  0  0
 19 44  1  0  0  0  0
 20 21  2  0  0  0  0
 20 45  1  0  0  0  0
 21 22  1  0  0  0  0
 21 46  1  0  0  0  0
 22 23  2  0  0  0  0
M  END
> <s_m_source_file>
AV-unprocessed.smi

> <i_m_source_file_index>
493

> <i_lp_mmshare_version>
43012

> <i_f3d_flags>
0

> <s_epik_input>
W0NIM11DKFtDSDNdKShbQ0gzXSlbTkhdQyg9TylbQ0gyXW4xW2NIXWMoW2NIXVtjSF1jMT1PKVMoPU8pKD1PKU4yW0NIMl1bQ0gyXVtDSDJdW0NIMl0y

> <s_epik_cmdline>
J2VwaWtfcHl0aG9uJywgJy1waCcsICc3LjAnLCAnLXRuJywgJzgnLCAnLW1hJywgJzIwMCcsICctbWV0YWxfYmluZGluZycsICctaW1hZScsICc8aW5maWxlLm1hZT4nLCAnLW9tYWUnLCAnPG91dGZpbGUubWFlPic=

> <r_lp_tautomer_probability>
1

> <r_epik_Ionization_Penalty>
3.47616e-08

> <r_epik_Ionization_Penalty_Charging>
1.01201e-08

> <r_epik_Ionization_Penalty_Neutral>
2.46415e-08

> <r_epik_State_Penalty>
-0

> <r_epik_Charging_Adjusted_Penalty>
1.01201e-08

> <i_epik_Tot_Q>
0

> <i_epik_Tot_abs_Q>
0

> <r_epik_Metal_State_Penalty>
-0

> <b_epik_Metal_Only>
0

> <s_lp_Force_Field>
OPLS_2005

> <r_lp_Energy>
19.4052

> <b_lp_Chiralities_Consistent>
1

> <s_lp_Variant>
AV-unprocessed.smi:493-1

> <Gold.Version>
5.8.1

> <Gold.Id.Protein>
6NUR|6NUR_protein|mol2

> <Gold.PLP.Fitness>
46.3575

> <Gold.PLP.PLP>
-37.2610

> <Gold.PLP.part.hbond>
-4.0000

> <Gold.PLP.part.metal>
0.0000

> <Gold.PLP.part.buried>
-6.7670

> <Gold.PLP.part.nonpolar>
-26.4393

> <Gold.PLP.part.repulsive>
0.1904

> <Gold.PLP.ligand.clash>
0.0000

> <Gold.PLP.ligand.torsion>
2.3386

> <Gold.PLP.Chemscore.Hbond>
3.7680

> <Gold.PLP.Chemscore.CHOScore>
0.0000

> <Gold.PLP.Chemscore.Metal>
0.0000

> <Gold.Chemscore.Hbonds>
donor molecule, donor type, donor heavy atom, donor atom, acceptor molecule, acceptor atom, score
      P1  H  6896  6907       L1    23  0.85
      P1  H  7989  7998       L1    14  1.00
      P1  H  7997  8008       L1    13  1.00

> <Gold.PLP.Chemscore.Internal.Correction>
2.4696

> <Gold.Rescore>
     Score         DG    S(hbond)    S(metal)    S(lipo)     H(rot)  DE(clash)    DE(int)     intcor
     18.42     -22.08       3.31        0.00      82.96       1.62       0.20       3.45       ----

> <Gold.Chemscore.Fitness>
18.4193

> <Gold.Chemscore.DG>
-22.0784

> <Gold.Chemscore.ZeroCoef>
-5.4800

> <Gold.Chemscore.Hbond>
3.3068

> <Gold.Chemscore.Metal>
0.0000

> <Gold.Chemscore.Lipo>
82.9616

> <Gold.Chemscore.Internal_Hbond>
0.0000

> <Gold.Chemscore.DEClash>
0.2042

> <Gold.Chemscore.DEInternal>
3.4548

> <Gold.Chemscore.Rot>
1.6222

> <Gold.Chemscore.Internal.Correction>
   9.000000E+99

> <Gold.Chemscore.Hbonds>
donor molecule, donor type, donor heavy atom, donor atom, acceptor molecule, acceptor atom, score
      P1  H  6896  6907       L1    23  0.14
      P1  H  6931  6943       L1     7  0.02
      P1  H  7989  7998       L1    14  0.73
      P1  H  7997  8008       L1    13  1.00

> <Gold.Chemscore.Hbond.Weighted>
-11.0447

> <Gold.Chemscore.Metal.Weighted>
-0.0000

> <Gold.Chemscore.Lipo.Weighted>
-9.7065

> <Gold.Chemscore.Internal_Hbond.Weighted>
0.0000

> <Gold.Chemscore.DEClash.Weighted>
0.2042

> <Gold.Chemscore.DEInternal.Weighted>
3.4548

> <Gold.Chemscore.Rot.Weighted>
4.1528

> <Gold.Chemscore.Internal.Correction.Weighted>
   9.000000E+99

> <Gold.Protein.RotatedTorsions>
[ 6907 6896 6895 6894 ] final -113.15 input  -60.11 | X-H torsion
[ 7974 7965 7964 7962 ] final -133.41 input  175.53 | X-H torsion
[ 8008 7997 7996 7995 ] final  -35.48 input   59.86 | X-H torsion
[ 10167 10162 10161 10158 ] final -167.37 input  -65.29 | X-H torsion
[ 10718 10713 10712 10709 ] final   38.06 input   66.30 | X-H torsion
[ 10763 10752 10751 10750 ] final   67.84 input  -60.55 | X-H torsion
[ 11005 11000 10999 10996 ] final   49.68 input  -57.11 | X-H torsion

> <Gold.Protein.ActiveResidues>
 VAL166  LYS551  ARG553  GLY616  TRP617  ASP618  TYR619  PRO620  LYS621  CYS622 
 ASP623  PHE694  ASN695  SER759  ASP760  ASP761  ALA762  ILE779  LEU786  VAL792 
 PHE793  MET794  SER795  GLU796  ALA797  LYS798  CYS799  TRP800  GLU811  SER814 

> <Gold.Protein.RotatedAtoms>
  150.7809  133.8986  159.3334 H   0  0  0  0  0  0  0  0  0  0  0  0  # atno 6907 bound_to 6896
  151.6849  135.0954  160.0232 H   0  0  0  0  0  0  0  0  0  0  0  0  # atno 6908 bound_to 6896
  152.3860  133.6573  159.6234 H   0  0  0  0  0  0  0  0  0  0  0  0  # atno 6909 bound_to 6896
  144.9195  140.6997  143.4974 H   0  0  0  0  0  0  0  0  0  0  0  0  # atno 7974 bound_to 7965
  154.4094  140.1656  156.2218 H   0  0  0  0  0  0  0  0  0  0  0  0  # atno 8008 bound_to 7997
  155.9357  140.3411  155.6263 H   0  0  0  0  0  0  0  0  0  0  0  0  # atno 8009 bound_to 7997
  155.7051  140.0750  157.2385 H   0  0  0  0  0  0  0  0  0  0  0  0  # atno 8010 bound_to 7997
  139.6054  144.0924  152.1787 H   0  0  0  0  0  0  0  0  0  0  0  0  # atno 10167 bound_to 10162
  157.3544  130.7615  149.7001 H   0  0  0  0  0  0  0  0  0  0  0  0  # atno 10718 bound_to 10713
  153.0205  135.5269  154.7041 H   0  0  0  0  0  0  0  0  0  0  0  0  # atno 10763 bound_to 10752
  154.6142  135.2881  155.0401 H   0  0  0  0  0  0  0  0  0  0  0  0  # atno 10764 bound_to 10752
  154.1411  135.6578  153.4995 H   0  0  0  0  0  0  0  0  0  0  0  0  # atno 10765 bound_to 10752
  140.1082  134.4989  155.8701 H   0  0  0  0  0  0  0  0  0  0  0  0  # atno 11005 bound_to 11000
  145.3319  139.1757  143.4532 LP  0  0  0  0  0  0  0  0  0  0  0  0  # atno 17320 bound_to 7965
  146.3198  140.3350  142.8643 LP  0  0  0  0  0  0  0  0  0  0  0  0  # atno 17321 bound_to 7965
  140.0530  144.5917  150.7321 LP  0  0  0  0  0  0  0  0  0  0  0  0  # atno 17342 bound_to 10162
  140.7281  143.2658  151.4050 LP  0  0  0  0  0  0  0  0  0  0  0  0  # atno 17343 bound_to 10162
  155.9726  130.4131  150.4068 LP  0  0  0  0  0  0  0  0  0  0  0  0  # atno 17370 bound_to 10713
  157.2135  131.0466  151.2586 LP  0  0  0  0  0  0  0  0  0  0  0  0  # atno 17371 bound_to 10713
  141.2124  133.6718  156.6653 LP  0  0  0  0  0  0  0  0  0  0  0  0  # atno 17394 bound_to 11000
  140.3126  134.8073  157.4189 LP  0  0  0  0  0  0  0  0  0  0  0  0  # atno 17395 bound_to 11000

$$$$
