AV-unprocessed.smi:1702|AV-procd|sdf|6846|dock7
  -GOLD-   22720 8 23D 1   1.00000     0.00000
 Structure written by MMmdl.
 44 46  0  0  0  0  0  0  0  0  2 V2000
  144.1667  143.2778  155.8073 C   0  0  0  0  0  0  0  0  0  0  0  0
  145.5015  142.5199  155.8170 C   0  0  2  0  0  0  0  0  0  0  0  0
  146.2948  142.7809  157.1080 C   0  0  0  0  0  0  0  0  0  0  0  0
  147.6443  142.0434  157.0936 C   0  0  0  0  0  0  0  0  0  0  0  0
  148.4520  142.4229  155.9057 N   0  3  1  0  0  0  0  0  0  0  0  0
  149.8123  141.8271  155.9399 C   0  0  0  0  0  0  0  0  0  0  0  0
  150.4646  141.8903  157.3402 C   0  0  1  0  0  0  0  0  0  0  0  0
  151.0656  140.6436  157.6275 O   0  0  0  0  0  0  0  0  0  0  0  0
  151.5624  142.9665  157.4522 C   0  0  0  0  0  0  0  0  0  0  0  0
  151.8351  143.3438  158.8272 N   0  0  0  0  0  0  0  0  0  0  0  0
  151.3441  144.4122  159.4842 C   0  0  0  0  0  0  0  0  0  0  0  0
  151.7285  144.5806  160.7460 N   0  0  0  0  0  0  0  0  0  0  0  0
  152.5605  143.4906  160.9338 C   0  0  0  0  0  0  0  0  0  0  0  0
  153.2969  143.0835  162.0690 C   0  0  0  0  0  0  0  0  0  0  0  0
  154.0949  141.9214  162.0247 C   0  0  0  0  0  0  0  0  0  0  0  0
  154.7961  141.5468  163.1208 F   0  0  0  0  0  0  0  0  0  0  0  0
  154.1678  141.1496  160.8458 C   0  0  0  0  0  0  0  0  0  0  0  0
  154.9387  140.0372  160.8100 F   0  0  0  0  0  0  0  0  0  0  0  0
  153.4417  141.5346  159.7026 C   0  0  0  0  0  0  0  0  0  0  0  0
  152.6474  142.6950  159.7516 C   0  0  0  0  0  0  0  0  0  0  0  0
  147.7204  142.1448  154.6409 C   0  0  0  0  0  0  0  0  0  0  0  0
  146.3737  142.8862  154.6047 C   0  0  0  0  0  0  0  0  0  0  0  0
  144.3215  144.3557  155.8631 H   0  0  0  0  0  0  0  0  0  0  0  0
  143.5439  142.9867  156.6538 H   0  0  0  0  0  0  0  0  0  0  0  0
  143.6035  143.0692  154.8973 H   0  0  0  0  0  0  0  0  0  0  0  0
  145.2773  141.4533  155.7652 H   0  0  0  0  0  0  0  0  0  0  0  0
  146.4666  143.8517  157.2280 H   0  0  0  0  0  0  0  0  0  0  0  0
  145.7133  142.4632  157.9743 H   0  0  0  0  0  0  0  0  0  0  0  0
  148.1913  142.2867  158.0052 H   0  0  0  0  0  0  0  0  0  0  0  0
  147.4848  140.9639  157.0974 H   0  0  0  0  0  0  0  0  0  0  0  0
  149.7678  140.7816  155.6308 H   0  0  0  0  0  0  0  0  0  0  0  0
  150.4269  142.3343  155.1954 H   0  0  0  0  0  0  0  0  0  0  0  0
  149.7162  142.0869  158.1070 H   0  0  0  0  0  0  0  0  0  0  0  0
  151.7342  140.4673  156.9835 H   0  0  0  0  0  0  0  0  0  0  0  0
  152.4925  142.6051  157.0105 H   0  0  0  0  0  0  0  0  0  0  0  0
  151.2818  143.8605  156.8938 H   0  0  0  0  0  0  0  0  0  0  0  0
  150.6701  145.1087  159.0068 H   0  0  0  0  0  0  0  0  0  0  0  0
  153.2491  143.6668  162.9767 H   0  0  0  0  0  0  0  0  0  0  0  0
  153.4972  140.9447  158.8000 H   0  0  0  0  0  0  0  0  0  0  0  0
  148.3131  142.4523  153.7806 H   0  0  0  0  0  0  0  0  0  0  0  0
  147.5575  141.0703  154.5414 H   0  0  0  0  0  0  0  0  0  0  0  0
  145.8477  142.6444  153.6804 H   0  0  0  0  0  0  0  0  0  0  0  0
  146.5513  143.9626  154.5861 H   0  0  0  0  0  0  0  0  0  0  0  0
  148.5773  143.4233  155.9631 H   0  0  0  0  0  0  0  0  0  0  0  0
  1  2  1  0  0  0  0
  1 23  1  0  0  0  0
  1 24  1  0  0  0  0
  1 25  1  0  0  0  0
  2 22  1  0  0  0  0
  2  3  1  0  0  0  0
  2 26  1  0  0  0  0
  3  4  1  0  0  0  0
  3 27  1  0  0  0  0
  3 28  1  0  0  0  0
  4  5  1  0  0  0  0
  4 29  1  0  0  0  0
  4 30  1  0  0  0  0
  5  6  1  0  0  0  0
  5 21  1  0  0  0  0
  5 44  1  0  0  0  0
  6  7  1  0  0  0  0
  6 31  1  0  0  0  0
  6 32  1  0  0  0  0
  7  8  1  0  0  0  0
  7  9  1  0  0  0  0
  7 33  1  0  0  0  0
  8 34  1  0  0  0  0
  9 10  1  0  0  0  0
  9 35  1  0  0  0  0
  9 36  1  0  0  0  0
 10 20  1  0  0  0  0
 10 11  1  0  0  0  0
 11 12  2  0  0  0  0
 11 37  1  0  0  0  0
 12 13  1  0  0  0  0
 13 20  2  0  0  0  0
 13 14  1  0  0  0  0
 14 15  2  0  0  0  0
 14 38  1  0  0  0  0
 15 16  1  0  0  0  0
 15 17  1  0  0  0  0
 17 18  1  0  0  0  0
 17 19  2  0  0  0  0
 19 20  1  0  0  0  0
 19 39  1  0  0  0  0
 21 22  1  0  0  0  0
 21 40  1  0  0  0  0
 21 41  1  0  0  0  0
 22 42  1  0  0  0  0
 22 43  1  0  0  0  0
M  CHG  1   5   1
M  END
> <s_m_source_file>
AV-unprocessed.smi

> <i_m_source_file_index>
1702

> <i_lp_mmshare_version>
43012

> <i_f3d_flags>
0

> <s_epik_input>
W0NIM11bQ0hdMVtDSDJdW0NIMl1OKFtDSDJdW0NIMl0xKVtDSDJdW0NASF0oW09IXSlbQ0gyXW4oW2NIXW4yKWMoYzIzKVtjSF1jKEYpYyhGKVtjSF0z

> <s_epik_cmdline>
J2VwaWtfcHl0aG9uJywgJy1waCcsICc3LjAnLCAnLXRuJywgJzgnLCAnLW1hJywgJzIwMCcsICctbWV0YWxfYmluZGluZycsICctaW1hZScsICc8aW5maWxlLm1hZT4nLCAnLW9tYWUnLCAnPG91dGZpbGUubWFlPic=

> <r_epik_Ionization_Penalty>
0.0135195

> <r_epik_Ionization_Penalty_Charging>
0.00181365

> <r_epik_Ionization_Penalty_Neutral>
0.0117059

> <r_epik_State_Penalty>
0.00902283

> <r_epik_Charging_Adjusted_Penalty>
0.0108365

> <i_epik_Tot_Q>
1

> <i_epik_Tot_abs_Q>
1

> <r_epik_Metal_State_Penalty>
9.09181e-06

> <b_epik_Metal_Only>
0

> <s_lp_Force_Field>
OPLS_2005

> <r_lp_Energy>
23.1307

> <b_lp_Chiralities_Consistent>
1

> <s_lp_Variant>
AV-unprocessed.smi:1702-2

> <Gold.Version>
5.8.1

> <Gold.Id.Protein>
6NUR|6NUR_protein|mol2

> <Gold.PLP.Fitness>
58.6947

> <Gold.PLP.PLP>
-54.8553

> <Gold.PLP.part.hbond>
-1.0000

> <Gold.PLP.part.metal>
0.0000

> <Gold.PLP.part.buried>
-6.7686

> <Gold.PLP.part.nonpolar>
-48.1996

> <Gold.PLP.part.repulsive>
0.3160

> <Gold.PLP.ligand.clash>
0.0000

> <Gold.PLP.ligand.torsion>
1.2448

> <Gold.PLP.Chemscore.Hbond>
2.0000

> <Gold.PLP.Chemscore.CHOScore>
0.0937

> <Gold.PLP.Chemscore.Metal>
0.0000

> <Gold.Chemscore.Hbonds>
donor molecule, donor type, donor heavy atom, donor atom, acceptor molecule, acceptor atom, score
      L1  H     5    44       P1  8028  1.14

> <Gold.PLP.Chemscore.Internal.Correction>
0.0480

> <Gold.Rescore>
     Score         DG    S(hbond)    S(metal)    S(lipo)     H(rot)  DE(clash)    DE(int)     intcor
     15.14     -16.60       0.98        0.00     116.57       2.26       0.38       1.07       ----

> <Gold.Chemscore.Fitness>
15.1434

> <Gold.Chemscore.DG>
-16.5950

> <Gold.Chemscore.ZeroCoef>
-5.4800

> <Gold.Chemscore.Hbond>
0.9781

> <Gold.Chemscore.Metal>
0.0000

> <Gold.Chemscore.Lipo>
116.5706

> <Gold.Chemscore.Internal_Hbond>
0.0000

> <Gold.Chemscore.DEClash>
0.3768

> <Gold.Chemscore.DEInternal>
1.0748

> <Gold.Chemscore.Rot>
2.2619

> <Gold.Chemscore.Internal.Correction>
   9.000000E+99

> <Gold.Chemscore.Hbonds>
donor molecule, donor type, donor heavy atom, donor atom, acceptor molecule, acceptor atom, score
      L1  H     5    44       P1  8028  0.54

> <Gold.Chemscore.Hbond.Weighted>
-3.2667

> <Gold.Chemscore.Metal.Weighted>
-0.0000

> <Gold.Chemscore.Lipo.Weighted>
-13.6388

> <Gold.Chemscore.Internal_Hbond.Weighted>
0.0000

> <Gold.Chemscore.DEClash.Weighted>
0.3768

> <Gold.Chemscore.DEInternal.Weighted>
1.0748

> <Gold.Chemscore.Rot.Weighted>
5.7904

> <Gold.Chemscore.Internal.Correction.Weighted>
   9.000000E+99

> <Gold.Protein.RotatedTorsions>
[ 6907 6896 6895 6894 ] final   52.14 input  -60.11 | X-H torsion
[ 7974 7965 7964 7962 ] final  -70.22 input  175.53 | X-H torsion
[ 8008 7997 7996 7995 ] final  147.12 input   59.86 | X-H torsion
[ 10167 10162 10161 10158 ] final -130.84 input  -65.29 | X-H torsion
[ 10718 10713 10712 10709 ] final -146.79 input   66.30 | X-H torsion
[ 10763 10752 10751 10750 ] final  -70.94 input  -60.55 | X-H torsion
[ 11005 11000 10999 10996 ] final   -2.70 input  -57.11 | X-H torsion

> <Gold.Protein.ActiveResidues>
 VAL166  LYS551  ARG553  GLY616  TRP617  ASP618  TYR619  PRO620  LYS621  CYS622 
 ASP623  PHE694  ASN695  SER759  ASP760  ASP761  ALA762  ILE779  LEU786  VAL792 
 PHE793  MET794  SER795  GLU796  ALA797  LYS798  CYS799  TRP800  GLU811  SER814 

> <Gold.Protein.RotatedAtoms>
  152.3201  134.7391  160.0315 H   0  0  0  0  0  0  0  0  0  0  0  0  # atno 6907 bound_to 6896
  151.7842  133.3347  159.3488 H   0  0  0  0  0  0  0  0  0  0  0  0  # atno 6908 bound_to 6896
  150.7365  134.5833  159.5994 H   0  0  0  0  0  0  0  0  0  0  0  0  # atno 6909 bound_to 6896
  145.6938  140.9143  143.0767 H   0  0  0  0  0  0  0  0  0  0  0  0  # atno 7974 bound_to 7965
  156.2835  140.2164  156.5486 H   0  0  0  0  0  0  0  0  0  0  0  0  # atno 8008 bound_to 7997
  154.7310  140.0495  157.0749 H   0  0  0  0  0  0  0  0  0  0  0  0  # atno 8009 bound_to 7997
  155.0354  140.3139  155.4746 H   0  0  0  0  0  0  0  0  0  0  0  0  # atno 8010 bound_to 7997
  139.9251  143.6337  152.2544 H   0  0  0  0  0  0  0  0  0  0  0  0  # atno 10167 bound_to 10162
  156.3993  130.7925  151.2135 H   0  0  0  0  0  0  0  0  0  0  0  0  # atno 10718 bound_to 10713
  154.4248  135.5978  153.6032 H   0  0  0  0  0  0  0  0  0  0  0  0  # atno 10763 bound_to 10752
  152.9795  135.5961  154.3911 H   0  0  0  0  0  0  0  0  0  0  0  0  # atno 10764 bound_to 10752
  154.3741  135.2841  155.2228 H   0  0  0  0  0  0  0  0  0  0  0  0  # atno 10765 bound_to 10752
  140.6612  133.9318  155.8437 H   0  0  0  0  0  0  0  0  0  0  0  0  # atno 11005 bound_to 11000
  144.6989  139.8857  143.7450 LP  0  0  0  0  0  0  0  0  0  0  0  0  # atno 17320 bound_to 7965
  146.0858  139.3847  143.0436 LP  0  0  0  0  0  0  0  0  0  0  0  0  # atno 17321 bound_to 7965
  139.6829  144.7654  151.1576 LP  0  0  0  0  0  0  0  0  0  0  0  0  # atno 17342 bound_to 10162
  140.7652  143.5699  150.9007 LP  0  0  0  0  0  0  0  0  0  0  0  0  # atno 17343 bound_to 10162
  157.7503  131.0291  150.4081 LP  0  0  0  0  0  0  0  0  0  0  0  0  # atno 17370 bound_to 10713
  156.4357  130.3981  149.6730 LP  0  0  0  0  0  0  0  0  0  0  0  0  # atno 17371 bound_to 10713
  141.0464  134.0548  157.3839 LP  0  0  0  0  0  0  0  0  0  0  0  0  # atno 17394 bound_to 11000
  139.9012  135.0165  156.7278 LP  0  0  0  0  0  0  0  0  0  0  0  0  # atno 17395 bound_to 11000

$$$$
