#       Name:                AV-unprocessed.smi:2034
#       Creating user name   scv26
#       Creation time:       Fri Mar 27 10:54:00 2020


#       File generated by GOLD software.
#

@<TRIPOS>MOLECULE
AV-unprocessed.smi:2034
    58    60     1
SMALL
NO_CHARGES


@<TRIPOS>ATOM
      1 ****        -6.6462  -1.5761   0.0330 C.3            1 S1                 0.0000
      2 ****        -5.8169  -0.4534   0.6655 C.3            1 S1                 0.0000
      3 ****        -4.3091  -0.6304   0.4042 C.3            1 S1                 0.0000
      4 ****        -3.5643   0.5142   0.9217 N.3            1 S1                 0.0000
      5 ****        -2.1644   0.3464   0.9954 C.ar           1 S1                 0.0000
      6 ****        -1.6165  -0.7677   1.6738 C.ar           1 S1                 0.0000
      7 ****        -0.2181  -0.9178   1.7296 C.ar           1 S1                 0.0000
      8 ****         0.6029   0.0390   1.1026 C.ar           1 S1                 0.0000
      9 ****         2.0112  -0.1282   1.1870 N.am           1 S1                 0.0000
     10 ****         2.9609   0.3852   0.3867 C.2            1 S1                 0.0000
     11 ****         2.7553   1.0913  -0.6005 O.2            1 S1                 0.0000
     12 ****         4.1843   0.0093   0.7841 N.am           1 S1                 0.0000
     13 ****         5.4282   0.3630   0.1099 C.3            1 S1                 0.0000
     14 ****         5.6839  -0.5381  -1.1095 C.3            1 S1                 0.0000
     15 ****         6.9584  -0.1966  -1.8740 C.3            1 S1                 0.0000
     16 ****         7.2379  -1.4813  -2.6306 C.3            1 S1                 0.0000
     17 ****         6.5797  -2.5631  -1.7676 C.3            1 S1                 0.0000
     18 ****         5.9248  -1.8774  -0.7052 O.3            1 S1                 0.0000
     19 ****        -0.0322   1.1304   0.4644 C.ar           1 S1                 0.0000
     20 ****        -1.3726   1.2793   0.4119 N.ar           1 S1                 0.0000
     21 ****        -4.0756   1.7971   0.4440 C.3            1 S1                 0.0000
     22 ****        -5.5900   1.9048   0.7028 C.3            1 S1                 0.0000
     23 ****        -6.1849   3.1839   0.1047 C.3            1 S1                 0.0000
     24 ****        -6.2470   0.7871   0.1112 O.3            1 S1                 0.0000
     25 ****        -6.3584  -2.5489   0.4322 H              1 S1                 0.0000
     26 ****        -6.5120  -1.6046  -1.0488 H              1 S1                 0.0000
     27 ****        -7.7085  -1.4356   0.2331 H              1 S1                 0.0000
     28 ****        -6.0045  -0.4490   1.7409 H              1 S1                 0.0000
     29 ****        -3.9768  -1.5633   0.8574 H              1 S1                 0.0000
     30 ****        -4.1203  -0.7141  -0.6670 H              1 S1                 0.0000
     31 ****        -2.2478  -1.4961   2.1607 H              1 S1                 0.0000
     32 ****         0.2151  -1.7613   2.2471 H              1 S1                 0.0000
     33 ****         2.3306  -0.7609   1.9056 H              1 S1                 0.0000
     34 ****         4.2618  -0.5790   1.6007 H              1 S1                 0.0000
     35 ****         5.3994   1.4107  -0.1941 H              1 S1                 0.0000
     36 ****         6.2465   0.2706   0.8245 H              1 S1                 0.0000
     37 ****         4.8330  -0.5196  -1.7933 H              1 S1                 0.0000
     38 ****         6.8431   0.6676  -2.5291 H              1 S1                 0.0000
     39 ****         7.7740   0.0082  -1.1788 H              1 S1                 0.0000
     40 ****         6.7668  -1.4512  -3.6140 H              1 S1                 0.0000
     41 ****         8.3055  -1.6502  -2.7736 H              1 S1                 0.0000
     42 ****         5.8503  -3.1301  -2.3472 H              1 S1                 0.0000
     43 ****         7.3095  -3.2641  -1.3617 H              1 S1                 0.0000
     44 ****         0.5279   1.9253  -0.0027 H              1 S1                 0.0000
     45 ****        -3.5633   2.6164   0.9504 H              1 S1                 0.0000
     46 ****        -3.8679   1.8915  -0.6230 H              1 S1                 0.0000
     47 ****        -5.7803   1.9031   1.7776 H              1 S1                 0.0000
     48 ****        -5.7203   4.0713   0.5352 H              1 S1                 0.0000
     49 ****        -7.2563   3.2427   0.2971 H              1 S1                 0.0000
     50 ****        -6.0377   3.2191  -0.9752 H              1 S1                 0.0000
     51 ****        -3.7690   0.5527   1.8998 LP             1 S1                 0.0000
     52 ****         1.8188   1.3249  -0.8619 LP             1 S1                 0.0000
     53 ****         3.5249   1.4313  -1.1410 LP             1 S1                 0.0000
     54 ****         5.0564  -2.3280  -0.4984 LP             1 S1                 0.0000
     55 ****         6.5059  -1.8841   0.1086 LP             1 S1                 0.0000
     56 ****        -1.7766   2.0679  -0.0516 LP             1 S1                 0.0000
     57 ****        -7.2319   0.8796   0.2573 LP             1 S1                 0.0000
     58 ****        -6.0544   0.7841  -0.8701 LP             1 S1                 0.0000
@<TRIPOS>BOND
    1    1    2 1     
    2    1   25 1     
    3    1   26 1     
    4    1   27 1     
    5    2   24 1     
    6    2    3 1     
    7    2   28 1     
    8    3    4 1     
    9    3   29 1     
   10    3   30 1     
   11    4    5 1     
   12    4   21 1     
   13    5   20 ar    
   14    5    6 ar    
   15    6    7 ar    
   16    6   31 1     
   17    7    8 ar    
   18    7   32 1     
   19    8    9 1     
   20    8   19 ar    
   21    9   10 am    
   22    9   33 1     
   23   10   11 2     
   24   10   12 am    
   25   12   13 1     
   26   12   34 1     
   27   13   14 1     
   28   13   35 1     
   29   13   36 1     
   30   14   18 1     
   31   14   15 1     
   32   14   37 1     
   33   15   16 1     
   34   15   38 1     
   35   15   39 1     
   36   16   17 1     
   37   16   40 1     
   38   16   41 1     
   39   17   18 1     
   40   17   42 1     
   41   17   43 1     
   42   19   20 ar    
   43   19   44 1     
   44   21   22 1     
   45   21   45 1     
   46   21   46 1     
   47   22   23 1     
   48   22   24 1     
   49   22   47 1     
   50   23   48 1     
   51   23   49 1     
   52   23   50 1     
   53    4   51 1     
   54   11   52 1     
   55   11   53 1     
   56   18   54 1     
   57   18   55 1     
   58   20   56 1     
   59   24   57 1     
   60   24   58 1     
@<TRIPOS>SUBSTRUCTURE
      1 S1             1
@<TRIPOS>SET
LONE_PAIRS      STATIC     ATOMS    <user>   **** ""
8 51 52 53 54 55 56 57 58
DONOR_HYDROGENS      STATIC     ATOMS    <user>   **** ""
2 33 34
ATOM$BLUE        STATIC     ATOMS    COLORGROUP SYSTEM
8 51 52 53 54 55 56 57 58
ATOM$RED        STATIC     ATOMS    COLORGROUP SYSTEM
2 33 34
