AV-unprocessed.smi:3331|AV-procd|sdf|12817|dock7
  -GOLD-   2272019193D 1   1.00000     0.00000
 Structure written by MMmdl.
 47 48  0  0  0  0  0  0  0  0  2 V2000
  146.5434  131.7825  154.3663 C   0  0  0  0  0  0  0  0  0  0  0  0
  145.9344  132.3024  153.0567 C   0  0  2  0  0  0  0  0  0  0  0  0
  145.7713  131.1671  152.0202 C   0  0  0  0  0  0  0  0  0  0  0  0
  145.2919  131.6733  150.6409 C   0  0  1  0  0  0  0  0  0  0  0  0
  143.7857  131.9904  150.6285 C   0  0  0  0  0  0  0  0  0  0  0  0
  146.1601  132.8686  150.1903 C   0  0  0  0  0  0  0  0  0  0  0  0
  146.1320  133.9176  151.2204 N   0  0  0  0  0  0  0  0  0  0  0  0
  145.5225  135.1268  151.1225 C   0  0  0  0  0  0  0  0  0  0  0  0
  144.9131  135.4680  150.1068 O   0  0  0  0  0  0  0  0  0  0  0  0
  145.5794  136.1200  152.3008 C   0  0  2  0  0  0  0  0  0  0  0  0
  144.1617  136.5867  152.6803 C   0  0  0  0  0  0  0  0  0  0  0  0
  146.4425  137.2735  151.9579 N   0  3  0  0  0  0  0  0  0  0  0  0
  146.4860  138.3621  152.9577 C   0  0  0  0  0  0  0  0  0  0  0  0
  147.1513  139.6223  152.3822 C   0  0  0  0  0  0  0  0  0  0  0  0
  147.2771  140.6744  153.3754 N   0  0  0  0  0  0  0  0  0  0  0  0
  146.3197  141.1499  154.2467 C   0  0  0  0  0  0  0  0  0  0  0  0
  146.9043  142.1293  154.9973 C   0  0  0  0  0  0  0  0  0  0  0  0
  148.2382  142.1830  154.5048 C   0  0  0  0  0  0  0  0  0  0  0  0
  148.4588  141.3092  153.5357 N   0  0  0  0  0  0  0  0  0  0  0  0
  146.7696  133.4553  152.4610 C   0  0  0  0  0  0  0  0  0  0  0  0
  147.5441  131.3799  154.2063 H   0  0  0  0  0  0  0  0  0  0  0  0
  145.9303  130.9903  154.7967 H   0  0  0  0  0  0  0  0  0  0  0  0
  146.6198  132.5787  155.1073 H   0  0  0  0  0  0  0  0  0  0  0  0
  144.9433  132.6926  153.2932 H   0  0  0  0  0  0  0  0  0  0  0  0
  146.7358  130.6744  151.8887 H   0  0  0  0  0  0  0  0  0  0  0  0
  145.0937  130.4009  152.3991 H   0  0  0  0  0  0  0  0  0  0  0  0
  145.4448  130.8653  149.9245 H   0  0  0  0  0  0  0  0  0  0  0  0
  143.5303  132.7957  151.3172 H   0  0  0  0  0  0  0  0  0  0  0  0
  143.2008  131.1161  150.9146 H   0  0  0  0  0  0  0  0  0  0  0  0
  143.4581  132.2894  149.6327 H   0  0  0  0  0  0  0  0  0  0  0  0
  147.1920  132.5367  150.0641 H   0  0  0  0  0  0  0  0  0  0  0  0
  145.8622  133.2067  149.1999 H   0  0  0  0  0  0  0  0  0  0  0  0
  146.0529  135.6328  153.1513 H   0  0  0  0  0  0  0  0  0  0  0  0
  143.5036  135.7435  152.8928 H   0  0  0  0  0  0  0  0  0  0  0  0
  143.7051  137.1637  151.8750 H   0  0  0  0  0  0  0  0  0  0  0  0
  144.1727  137.2134  153.5719 H   0  0  0  0  0  0  0  0  0  0  0  0
  147.3853  136.9216  151.8644 H   0  0  0  0  0  0  0  0  0  0  0  0
  145.4708  138.5978  153.2766 H   0  0  0  0  0  0  0  0  0  0  0  0
  147.0318  138.0336  153.8435 H   0  0  0  0  0  0  0  0  0  0  0  0
  148.1380  139.3905  151.9778 H   0  0  0  0  0  0  0  0  0  0  0  0
  146.5571  140.0080  151.5529 H   0  0  0  0  0  0  0  0  0  0  0  0
  145.3143  140.7554  154.2614 H   0  0  0  0  0  0  0  0  0  0  0  0
  146.4484  142.7190  155.7789 H   0  0  0  0  0  0  0  0  0  0  0  0
  149.0472  142.8250  154.8215 H   0  0  0  0  0  0  0  0  0  0  0  0
  146.8823  134.2501  153.1996 H   0  0  0  0  0  0  0  0  0  0  0  0
  147.7828  133.1149  152.2427 H   0  0  0  0  0  0  0  0  0  0  0  0
  146.1588  137.6452  151.0626 H   0  0  0  0  0  0  0  0  0  0  0  0
  1  2  1  0  0  0  0
  1 21  1  0  0  0  0
  1 22  1  0  0  0  0
  1 23  1  0  0  0  0
  2 20  1  0  0  0  0
  2  3  1  0  0  0  0
  2 24  1  0  0  0  0
  3  4  1  0  0  0  0
  3 25  1  0  0  0  0
  3 26  1  0  0  0  0
  4  5  1  0  0  0  0
  4  6  1  0  0  0  0
  4 27  1  0  0  0  0
  5 28  1  0  0  0  0
  5 29  1  0  0  0  0
  5 30  1  0  0  0  0
  6  7  1  0  0  0  0
  6 31  1  0  0  0  0
  6 32  1  0  0  0  0
  7  8  1  0  0  0  0
  7 20  1  0  0  0  0
  8  9  2  0  0  0  0
  8 10  1  0  0  0  0
 10 11  1  0  0  0  0
 10 12  1  0  0  0  0
 10 33  1  0  0  0  0
 11 34  1  0  0  0  0
 11 35  1  0  0  0  0
 11 36  1  0  0  0  0
 12 13  1  0  0  0  0
 12 37  1  0  0  0  0
 12 47  1  0  0  0  0
 13 14  1  0  0  0  0
 13 38  1  0  0  0  0
 13 39  1  0  0  0  0
 14 15  1  0  0  0  0
 14 40  1  0  0  0  0
 14 41  1  0  0  0  0
 15 19  1  0  0  0  0
 15 16  1  0  0  0  0
 16 17  2  0  0  0  0
 16 42  1  0  0  0  0
 17 18  1  0  0  0  0
 17 43  1  0  0  0  0
 18 19  2  0  0  0  0
 18 44  1  0  0  0  0
 20 45  1  0  0  0  0
 20 46  1  0  0  0  0
M  CHG  1  12   1
M  END
> <s_m_source_file>
AV-unprocessed.smi

> <i_m_source_file_index>
3331

> <i_lp_mmshare_version>
43012

> <i_f3d_flags>
0

> <s_epik_input>
W0NIM11bQ0BASF0xW0NIMl1bQ0BASF0oW0NIM10pW0NIMl1OKFtDSDJdMSlDKD1PKVtDQEhdKFtDSDNdKVtOSF1bQ0gyXVtDSDJdbjJbY0hdW2NIXVtjSF1uMg==

> <s_epik_cmdline>
J2VwaWtfcHl0aG9uJywgJy1waCcsICc3LjAnLCAnLXRuJywgJzgnLCAnLW1hJywgJzIwMCcsICctbWV0YWxfYmluZGluZycsICctaW1hZScsICc8aW5maWxlLm1hZT4nLCAnLW9tYWUnLCAnPG91dGZpbGUubWFlPic=

> <r_lp_tautomer_probability>
1

> <r_epik_Ionization_Penalty>
0.189706

> <r_epik_Ionization_Penalty_Charging>
0.189703

> <r_epik_Ionization_Penalty_Neutral>
2.45875e-06

> <r_epik_State_Penalty>
0.179341

> <r_epik_Charging_Adjusted_Penalty>
0.369044

> <i_epik_Tot_Q>
1

> <i_epik_Tot_abs_Q>
1

> <r_epik_Metal_State_Penalty>
0.179578

> <b_epik_Metal_Only>
0

> <s_lp_Force_Field>
OPLS_2005

> <r_lp_Energy>
28.246

> <b_lp_Chiralities_Consistent>
1

> <s_lp_Variant>
AV-unprocessed.smi:3331-1

> <Gold.Version>
5.8.1

> <Gold.Id.Protein>
6NUR|6NUR_protein|mol2

> <Gold.PLP.Fitness>
47.4045

> <Gold.PLP.PLP>
-34.1620

> <Gold.PLP.part.hbond>
-2.0000

> <Gold.PLP.part.metal>
0.0000

> <Gold.PLP.part.buried>
0.4246

> <Gold.PLP.part.nonpolar>
-34.7610

> <Gold.PLP.part.repulsive>
3.5918

> <Gold.PLP.ligand.clash>
0.0000

> <Gold.PLP.ligand.torsion>
0.3450

> <Gold.PLP.Chemscore.Hbond>
2.6497

> <Gold.PLP.Chemscore.CHOScore>
1.9745

> <Gold.PLP.Chemscore.Metal>
0.0000

> <Gold.Chemscore.Hbonds>
donor molecule, donor type, donor heavy atom, donor atom, acceptor molecule, acceptor atom, score
      L1  H    12    37       P1  7948  2.00
      P1  H  8011  8017       L1    19  0.65
      L1  C    16    42       P1 10175  1.00
      L1  C    18    44       P1  8028  0.93

> <Gold.PLP.Chemscore.Internal.Correction>
0.0598

> <Gold.Rescore>
     Score         DG    S(hbond)    S(metal)    S(lipo)     H(rot)  DE(clash)    DE(int)     intcor
     13.48     -14.22       0.99        0.00      84.18       1.73       0.42       0.32       ----

> <Gold.Chemscore.Fitness>
13.4761

> <Gold.Chemscore.DG>
-14.2159

> <Gold.Chemscore.ZeroCoef>
-5.4800

> <Gold.Chemscore.Hbond>
0.9893

> <Gold.Chemscore.Metal>
0.0000

> <Gold.Chemscore.Lipo>
84.1757

> <Gold.Chemscore.Internal_Hbond>
0.0000

> <Gold.Chemscore.DEClash>
0.4233

> <Gold.Chemscore.DEInternal>
0.3165

> <Gold.Chemscore.Rot>
1.7254

> <Gold.Chemscore.Internal.Correction>
   9.000000E+99

> <Gold.Chemscore.Hbonds>
donor molecule, donor type, donor heavy atom, donor atom, acceptor molecule, acceptor atom, score
      L1  H    12    37       P1  7948  1.00
      P1  H  8011  8017       L1    19  0.16

> <Gold.Chemscore.Hbond.Weighted>
-3.3044

> <Gold.Chemscore.Metal.Weighted>
-0.0000

> <Gold.Chemscore.Lipo.Weighted>
-9.8486

> <Gold.Chemscore.Internal_Hbond.Weighted>
0.0000

> <Gold.Chemscore.DEClash.Weighted>
0.4233

> <Gold.Chemscore.DEInternal.Weighted>
0.3165

> <Gold.Chemscore.Rot.Weighted>
4.4170

> <Gold.Chemscore.Internal.Correction.Weighted>
   9.000000E+99

> <Gold.Protein.RotatedTorsions>
[ 6907 6896 6895 6894 ] final -167.32 input  -60.11 | X-H torsion
[ 7974 7965 7964 7962 ] final   45.57 input  175.53 | X-H torsion
[ 8008 7997 7996 7995 ] final -137.35 input   59.86 | X-H torsion
[ 10167 10162 10161 10158 ] final -142.02 input  -65.29 | X-H torsion
[ 10718 10713 10712 10709 ] final   64.61 input   66.30 | X-H torsion
[ 10763 10752 10751 10750 ] final   93.36 input  -60.55 | X-H torsion
[ 11005 11000 10999 10996 ] final   41.23 input  -57.11 | X-H torsion

> <Gold.Protein.ActiveResidues>
 VAL166  LYS551  ARG553  GLY616  TRP617  ASP618  TYR619  PRO620  LYS621  CYS622 
 ASP623  PHE694  ASN695  SER759  ASP760  ASP761  ALA762  ILE779  LEU786  VAL792 
 PHE793  MET794  SER795  GLU796  ALA797  LYS798  CYS799  TRP800  GLU811  SER814 

> <Gold.Protein.RotatedAtoms>
  151.4577  133.3601  159.2804 H   0  0  0  0  0  0  0  0  0  0  0  0  # atno 6907 bound_to 6896
  150.9047  134.8463  159.7395 H   0  0  0  0  0  0  0  0  0  0  0  0  # atno 6908 bound_to 6896
  152.4899  134.4501  159.9623 H   0  0  0  0  0  0  0  0  0  0  0  0  # atno 6909 bound_to 6896
  146.0468  139.4950  142.9743 H   0  0  0  0  0  0  0  0  0  0  0  0  # atno 7974 bound_to 7965
  155.4103  140.0511  157.3032 H   0  0  0  0  0  0  0  0  0  0  0  0  # atno 8008 bound_to 7997
  154.4949  140.2134  155.9427 H   0  0  0  0  0  0  0  0  0  0  0  0  # atno 8009 bound_to 7997
  156.1392  140.3157  155.8474 H   0  0  0  0  0  0  0  0  0  0  0  0  # atno 8010 bound_to 7997
  139.8128  143.7679  152.2664 H   0  0  0  0  0  0  0  0  0  0  0  0  # atno 10167 bound_to 10162
  157.6051  130.9169  149.9867 H   0  0  0  0  0  0  0  0  0  0  0  0  # atno 10718 bound_to 10713
  153.2294  135.4328  155.0578 H   0  0  0  0  0  0  0  0  0  0  0  0  # atno 10763 bound_to 10752
  154.8289  135.3376  154.6809 H   0  0  0  0  0  0  0  0  0  0  0  0  # atno 10764 bound_to 10752
  153.7237  135.7015  153.5062 H   0  0  0  0  0  0  0  0  0  0  0  0  # atno 10765 bound_to 10752
  140.1855  134.4051  155.8176 H   0  0  0  0  0  0  0  0  0  0  0  0  # atno 11005 bound_to 11000
  145.6792  141.0195  143.1615 LP  0  0  0  0  0  0  0  0  0  0  0  0  # atno 17320 bound_to 7965
  144.7102  139.8402  143.7417 LP  0  0  0  0  0  0  0  0  0  0  0  0  # atno 17321 bound_to 7965
  139.7834  144.7436  151.0057 LP  0  0  0  0  0  0  0  0  0  0  0  0  # atno 17342 bound_to 10162
  140.7817  143.4518  151.0402 LP  0  0  0  0  0  0  0  0  0  0  0  0  # atno 17343 bound_to 10162
  156.1134  130.3649  150.0009 LP  0  0  0  0  0  0  0  0  0  0  0  0  # atno 17370 bound_to 10713
  156.8103  130.9322  151.3644 LP  0  0  0  0  0  0  0  0  0  0  0  0  # atno 17371 bound_to 10713
  141.2224  133.7021  156.8004 LP  0  0  0  0  0  0  0  0  0  0  0  0  # atno 17394 bound_to 11000
  140.2219  134.8750  157.3386 LP  0  0  0  0  0  0  0  0  0  0  0  0  # atno 17395 bound_to 11000

$$$$
