AV-unprocessed.smi:82|AV-procd|sdf|794|dock5
  -GOLD-   2262017173D 1   1.00000     0.00000
 Structure written by MMmdl.
 59 62  0  0  0  0  0  0  0  0  2 V2000
  146.4796  143.7134  160.7113 C   0  0  0  0  0  0  0  0  0  0  0  0
  147.3409  142.8462  159.9943 O   0  0  0  0  0  0  0  0  0  0  0  0
  147.3484  143.1153  158.6020 C   0  0  0  0  0  0  0  0  0  0  0  0
  148.5246  142.3638  157.9602 C   0  0  0  0  0  0  0  0  0  0  0  0
  148.3216  142.1382  156.5009 N   0  3  2  0  0  0  0  0  0  0  0  0
  146.8875  141.8685  156.1939 C   0  0  0  0  0  0  0  0  0  0  0  0
  146.6408  141.6869  154.6900 C   0  0  0  0  0  0  0  0  0  0  0  0
  147.4981  140.6343  154.1645 N   0  0  0  0  0  0  0  0  0  0  0  0
  147.0119  139.3663  154.2372 C   0  0  0  0  0  0  0  0  0  0  0  0
  146.9472  138.7337  155.4390 N   0  0  0  0  0  0  0  0  0  0  0  0
  146.4608  137.4926  155.5265 C   0  0  0  0  0  0  0  0  0  0  0  0
  145.9950  136.7098  154.5525 N   0  0  0  0  0  0  0  0  0  0  0  0
  146.0669  137.3301  153.3400 C   0  0  0  0  0  0  0  0  0  0  0  0
  146.5576  138.6448  153.0957 C   0  0  0  0  0  0  0  0  0  0  0  0
  146.4919  138.9267  151.7363 N   0  0  0  0  0  0  0  0  0  0  0  0
  145.9862  137.8455  151.2088 C   0  0  0  0  0  0  0  0  0  0  0  0
  145.6943  136.8374  152.1002 N   0  0  0  0  0  0  0  0  0  0  0  0
  145.1499  135.5462  151.7867 C   0  0  0  0  0  0  0  0  0  0  0  0
  145.8524  134.6282  150.7837 C   0  0  0  0  0  0  0  0  0  0  0  0
  144.4847  134.1500  150.2449 C   0  0  0  0  0  0  0  0  0  0  0  0
  144.3803  134.1312  148.7119 C   0  0  0  0  0  0  0  0  0  0  0  0
  143.0345  134.1878  148.2844 O   0  0  0  0  0  0  0  0  0  0  0  0
  143.9958  132.7749  150.7517 C   0  0  0  0  0  0  0  0  0  0  0  0
  142.5888  132.6826  150.8454 O   0  0  0  0  0  0  0  0  0  0  0  0
  143.8908  135.4032  150.9273 C   0  0  0  0  0  0  0  0  0  0  0  0
  148.9174  140.8734  154.4063 C   0  0  0  0  0  0  0  0  0  0  0  0
  149.2397  141.1157  155.9023 C   0  0  1  0  0  0  0  0  0  0  0  0
  150.7266  141.5119  156.0095 C   0  0  0  0  0  0  0  0  0  0  0  0
  146.5175  143.4720  161.7736 H   0  0  0  0  0  0  0  0  0  0  0  0
  145.4461  143.6065  160.3791 H   0  0  0  0  0  0  0  0  0  0  0  0
  146.7804  144.7551  160.5923 H   0  0  0  0  0  0  0  0  0  0  0  0
  146.4146  142.7642  158.1601 H   0  0  0  0  0  0  0  0  0  0  0  0
  147.4030  144.1880  158.4164 H   0  0  0  0  0  0  0  0  0  0  0  0
  149.4197  142.9454  158.1633 H   0  0  0  0  0  0  0  0  0  0  0  0
  148.6811  141.4067  158.4600 H   0  0  0  0  0  0  0  0  0  0  0  0
  146.5678  140.9701  156.7248 H   0  0  0  0  0  0  0  0  0  0  0  0
  146.2606  142.6834  156.5532 H   0  0  0  0  0  0  0  0  0  0  0  0
  145.5859  141.4813  154.5132 H   0  0  0  0  0  0  0  0  0  0  0  0
  146.8642  142.6140  154.1608 H   0  0  0  0  0  0  0  0  0  0  0  0
  146.4411  137.0659  156.5188 H   0  0  0  0  0  0  0  0  0  0  0  0
  145.8155  137.7529  150.1459 H   0  0  0  0  0  0  0  0  0  0  0  0
  145.0091  135.0270  152.7353 H   0  0  0  0  0  0  0  0  0  0  0  0
  146.4310  135.1852  150.0451 H   0  0  0  0  0  0  0  0  0  0  0  0
  146.4627  133.8497  151.2427 H   0  0  0  0  0  0  0  0  0  0  0  0
  144.9005  134.9851  148.2759 H   0  0  0  0  0  0  0  0  0  0  0  0
  144.8482  133.2394  148.2936 H   0  0  0  0  0  0  0  0  0  0  0  0
  142.4744  134.0348  149.0300 H   0  0  0  0  0  0  0  0  0  0  0  0
  144.3297  131.9736  150.0925 H   0  0  0  0  0  0  0  0  0  0  0  0
  144.4071  132.5594  151.7385 H   0  0  0  0  0  0  0  0  0  0  0  0
  142.2056  133.1909  150.1467 H   0  0  0  0  0  0  0  0  0  0  0  0
  142.9791  135.2216  151.4974 H   0  0  0  0  0  0  0  0  0  0  0  0
  143.7526  136.2342  150.2339 H   0  0  0  0  0  0  0  0  0  0  0  0
  149.5154  140.0517  154.0096 H   0  0  0  0  0  0  0  0  0  0  0  0
  149.2020  141.7525  153.8267 H   0  0  0  0  0  0  0  0  0  0  0  0
  149.0931  140.1819  156.4464 H   0  0  0  0  0  0  0  0  0  0  0  0
  151.3489  140.8336  155.4250 H   0  0  0  0  0  0  0  0  0  0  0  0
  151.1083  141.4642  157.0276 H   0  0  0  0  0  0  0  0  0  0  0  0
  150.8969  142.5200  155.6299 H   0  0  0  0  0  0  0  0  0  0  0  0
  148.5556  143.0085  156.0445 H   0  0  0  0  0  0  0  0  0  0  0  0
  1  2  1  0  0  0  0
  1 29  1  0  0  0  0
  1 30  1  0  0  0  0
  1 31  1  0  0  0  0
  2  3  1  0  0  0  0
  3  4  1  0  0  0  0
  3 32  1  0  0  0  0
  3 33  1  0  0  0  0
  4  5  1  0  0  0  0
  4 34  1  0  0  0  0
  4 35  1  0  0  0  0
  5 27  1  0  0  0  0
  5  6  1  0  0  0  0
  5 59  1  0  0  0  0
  6  7  1  0  0  0  0
  6 36  1  0  0  0  0
  6 37  1  0  0  0  0
  7  8  1  0  0  0  0
  7 38  1  0  0  0  0
  7 39  1  0  0  0  0
  8  9  1  0  0  0  0
  8 26  1  0  0  0  0
  9 14  1  0  0  0  0
  9 10  2  0  0  0  0
 10 11  1  0  0  0  0
 11 12  2  0  0  0  0
 11 40  1  0  0  0  0
 12 13  1  0  0  0  0
 13 17  1  0  0  0  0
 13 14  2  0  0  0  0
 14 15  1  0  0  0  0
 15 16  2  0  0  0  0
 16 17  1  0  0  0  0
 16 41  1  0  0  0  0
 17 18  1  0  0  0  0
 18 25  1  0  0  0  0
 18 19  1  0  0  0  0
 18 42  1  0  0  0  0
 19 20  1  0  0  0  0
 19 43  1  0  0  0  0
 19 44  1  0  0  0  0
 20 21  1  0  0  0  0
 20 23  1  0  0  0  0
 20 25  1  0  0  0  0
 21 22  1  0  0  0  0
 21 45  1  0  0  0  0
 21 46  1  0  0  0  0
 22 47  1  0  0  0  0
 23 24  1  0  0  0  0
 23 48  1  0  0  0  0
 23 49  1  0  0  0  0
 24 50  1  0  0  0  0
 25 51  1  0  0  0  0
 25 52  1  0  0  0  0
 26 27  1  0  0  0  0
 26 53  1  0  0  0  0
 26 54  1  0  0  0  0
 27 28  1  0  0  0  0
 27 55  1  0  0  0  0
 28 56  1  0  0  0  0
 28 57  1  0  0  0  0
 28 58  1  0  0  0  0
M  CHG  1   5   1
M  END
> <s_m_source_file>
AV-unprocessed.smi

> <i_m_source_file_index>
82

> <i_lp_mmshare_version>
43012

> <i_f3d_flags>
0

> <s_epik_input>
W0NIM11PW0NIMl1bQ0gyXU4xW0NIMl1bQ0gyXU4oW0NIMl1bQ0BIXTFbQ0gzXSljKG5bY0hdbjIpYyhjMjMpbltjSF1uM1tDSF0oW0NIMl00KVtDSDJdQzQoW0NIMl1bT0hdKVtDSDJdW09IXQ==

> <s_epik_cmdline>
J2VwaWtfcHl0aG9uJywgJy1waCcsICc3LjAnLCAnLXRuJywgJzgnLCAnLW1hJywgJzIwMCcsICctbWV0YWxfYmluZGluZycsICctaW1hZScsICc8aW5maWxlLm1hZT4nLCAnLW9tYWUnLCAnPG91dGZpbGUubWFlPic=

> <r_lp_tautomer_probability>
1

> <r_epik_Ionization_Penalty>
0.304275

> <r_epik_Ionization_Penalty_Charging>
0.304214

> <r_epik_Ionization_Penalty_Neutral>
6.13137e-05

> <r_epik_State_Penalty>
0.300354

> <r_epik_Charging_Adjusted_Penalty>
0.604567

> <i_epik_Tot_Q>
1

> <i_epik_Tot_abs_Q>
1

> <r_epik_Metal_State_Penalty>
0.301147

> <b_epik_Metal_Only>
0

> <s_lp_Force_Field>
OPLS_2005

> <r_lp_Energy>
58.1086

> <b_lp_Chiralities_Consistent>
1

> <s_lp_Variant>
AV-unprocessed.smi:82-1

> <Gold.Version>
5.8.1

> <Gold.Id.Protein>
6NUR|6NUR_protein|mol2

> <Gold.PLP.Fitness>
56.5319

> <Gold.PLP.PLP>
-37.7294

> <Gold.PLP.part.hbond>
-7.8155

> <Gold.PLP.part.metal>
0.0000

> <Gold.PLP.part.buried>
2.4723

> <Gold.PLP.part.nonpolar>
-34.5671

> <Gold.PLP.part.repulsive>
0.5898

> <Gold.PLP.ligand.clash>
0.0000

> <Gold.PLP.ligand.torsion>
1.1574

> <Gold.PLP.Chemscore.Hbond>
6.2320

> <Gold.PLP.Chemscore.CHOScore>
0.4865

> <Gold.PLP.Chemscore.Metal>
0.0000

> <Gold.Chemscore.Hbonds>
donor molecule, donor type, donor heavy atom, donor atom, acceptor molecule, acceptor atom, score
      L1  H     5    59       P1  8028  2.00
      L1  H    22    47       P1 10186  0.77
      L1  H    24    50       P1 10186  1.00
      P1  H  6933  6944       L1     2  0.79
      P1  H  6934  6946       L1     2  0.50
      P1  H 10192 10197       L1    22  1.00
      L1  C    16    41       P1 10171  0.53

> <Gold.PLP.Chemscore.Internal.Correction>
0.9617

> <Gold.Rescore>
     Score         DG    S(hbond)    S(metal)    S(lipo)     H(rot)  DE(clash)    DE(int)     intcor
     15.71     -19.28       4.44        0.00      76.60       3.91       2.47       1.10       ----

> <Gold.Chemscore.Fitness>
15.7112

> <Gold.Chemscore.DG>
-19.2823

> <Gold.Chemscore.ZeroCoef>
-5.4800

> <Gold.Chemscore.Hbond>
4.4427

> <Gold.Chemscore.Metal>
0.0000

> <Gold.Chemscore.Lipo>
76.5972

> <Gold.Chemscore.Internal_Hbond>
0.0000

> <Gold.Chemscore.DEClash>
2.4676

> <Gold.Chemscore.DEInternal>
1.1036

> <Gold.Chemscore.Rot>
3.9055

> <Gold.Chemscore.Internal.Correction>
   9.000000E+99

> <Gold.Chemscore.Hbonds>
donor molecule, donor type, donor heavy atom, donor atom, acceptor molecule, acceptor atom, score
      L1  H     5    59       P1  8028  0.98
      L1  H    22    47       P1 10186  0.74
      L1  H    24    50       P1 10186  0.95
      P1  H  6933  6944       L1     2  0.17
      P1  H  6934  6946       L1     2  0.27
      P1  H 10192 10197       L1    22  0.45

> <Gold.Chemscore.Hbond.Weighted>
-14.8385

> <Gold.Chemscore.Metal.Weighted>
-0.0000

> <Gold.Chemscore.Lipo.Weighted>
-8.9619

> <Gold.Chemscore.Internal_Hbond.Weighted>
0.0000

> <Gold.Chemscore.DEClash.Weighted>
2.4676

> <Gold.Chemscore.DEInternal.Weighted>
1.1036

> <Gold.Chemscore.Rot.Weighted>
9.9980

> <Gold.Chemscore.Internal.Correction.Weighted>
   9.000000E+99

> <Gold.Protein.RotatedTorsions>
[ 6907 6896 6895 6894 ] final  131.52 input  -60.11 | X-H torsion
[ 7974 7965 7964 7962 ] final   15.65 input  175.53 | X-H torsion
[ 8008 7997 7996 7995 ] final   -7.47 input   59.86 | X-H torsion
[ 10167 10162 10161 10158 ] final   92.79 input  -65.29 | X-H torsion
[ 10718 10713 10712 10709 ] final   69.24 input   66.30 | X-H torsion
[ 10763 10752 10751 10750 ] final  142.33 input  -60.55 | X-H torsion
[ 11005 11000 10999 10996 ] final  144.65 input  -57.11 | X-H torsion

> <Gold.Protein.ActiveResidues>
 VAL166  LYS551  ARG553  GLY616  TRP617  ASP618  TYR619  PRO620  LYS621  CYS622 
 ASP623  PHE694  ASN695  SER759  ASP760  ASP761  ALA762  ILE779  LEU786  VAL792 
 PHE793  MET794  SER795  GLU796  ALA797  LYS798  CYS799  TRP800  GLU811  SER814 

> <Gold.Protein.RotatedAtoms>
  152.3417  133.6075  159.5881 H   0  0  0  0  0  0  0  0  0  0  0  0  # atno 6907 bound_to 6896
  150.7483  133.9711  159.3555 H   0  0  0  0  0  0  0  0  0  0  0  0  # atno 6908 bound_to 6896
  151.7574  135.0819  160.0391 H   0  0  0  0  0  0  0  0  0  0  0  0  # atno 6909 bound_to 6896
  146.2272  139.8863  142.8562 H   0  0  0  0  0  0  0  0  0  0  0  0  # atno 7974 bound_to 7965
  154.5835  140.2406  155.8020 H   0  0  0  0  0  0  0  0  0  0  0  0  # atno 8008 bound_to 7997
  156.2196  140.3001  155.9877 H   0  0  0  0  0  0  0  0  0  0  0  0  # atno 8009 bound_to 7997
  155.2499  140.0410  157.2976 H   0  0  0  0  0  0  0  0  0  0  0  0  # atno 8010 bound_to 7997
  139.8243  144.6717  150.9479 H   0  0  0  0  0  0  0  0  0  0  0  0  # atno 10167 bound_to 10162
  157.6335  130.9416  150.0487 H   0  0  0  0  0  0  0  0  0  0  0  0  # atno 10718 bound_to 10713
  153.9540  135.2967  155.3437 H   0  0  0  0  0  0  0  0  0  0  0  0  # atno 10763 bound_to 10752
  154.7411  135.5024  153.9127 H   0  0  0  0  0  0  0  0  0  0  0  0  # atno 10764 bound_to 10752
  153.0979  135.6726  153.9836 H   0  0  0  0  0  0  0  0  0  0  0  0  # atno 10765 bound_to 10752
  140.0649  134.9184  157.1247 H   0  0  0  0  0  0  0  0  0  0  0  0  # atno 11005 bound_to 11000
  145.2462  141.0027  143.3907 LP  0  0  0  0  0  0  0  0  0  0  0  0  # atno 17320 bound_to 7965
  144.9411  139.4187  143.6448 LP  0  0  0  0  0  0  0  0  0  0  0  0  # atno 17321 bound_to 7965
  140.7811  143.4062  151.1068 LP  0  0  0  0  0  0  0  0  0  0  0  0  # atno 17342 bound_to 10162
  139.7720  143.8480  152.3122 LP  0  0  0  0  0  0  0  0  0  0  0  0  # atno 17343 bound_to 10162
  156.1556  130.3643  149.9374 LP  0  0  0  0  0  0  0  0  0  0  0  0  # atno 17370 bound_to 10713
  156.7384  130.9070  151.3630 LP  0  0  0  0  0  0  0  0  0  0  0  0  # atno 17371 bound_to 10713
  140.3714  134.2386  155.7177 LP  0  0  0  0  0  0  0  0  0  0  0  0  # atno 17394 bound_to 11000
  141.1988  133.8026  157.0564 LP  0  0  0  0  0  0  0  0  0  0  0  0  # atno 17395 bound_to 11000

$$$$
