AV-unprocessed.smi:1244|AV-procd|sdf|5230|dock2
  -GOLD-   22720 4333D 1   1.00000     0.00000
 Structure written by MMmdl.
 55 57  0  0  0  0  0  0  0  0  2 V2000
  154.9704  137.9791  165.0364 C   0  0  0  0  0  0  0  0  0  0  0  0
  154.3236  136.6586  164.5834 C   0  0  1  0  0  0  0  0  0  0  0  0
  153.4516  136.8141  163.3217 C   0  0  0  0  0  0  0  0  0  0  0  0
  154.2516  137.0128  162.1203 N   0  0  0  0  0  0  0  0  0  0  0  0
  153.4131  137.2116  160.9369 C   0  0  0  0  0  0  0  0  0  0  0  0
  154.1426  137.8131  159.7164 C   0  0  0  0  0  0  0  0  0  0  0  0
  153.2702  138.7022  158.9568 N   0  0  0  0  0  0  0  0  0  0  0  0
  152.8567  139.9079  159.3671 C   0  0  0  0  0  0  0  0  0  0  0  0
  152.9978  140.3340  160.5136 O   0  0  0  0  0  0  0  0  0  0  0  0
  152.3190  140.6026  158.3544 N   0  0  0  0  0  0  0  0  0  0  0  0
  152.0318  141.9899  158.3698 C   0  0  0  0  0  0  0  0  0  0  0  0
  152.8257  142.8592  159.1565 C   0  0  0  0  0  0  0  0  0  0  0  0
  152.5485  144.2388  159.1691 C   0  0  0  0  0  0  0  0  0  0  0  0
  151.4800  144.7224  158.3943 C   0  0  0  0  0  0  0  0  0  0  0  0
  150.7403  143.8635  157.6613 N   0  3  0  0  0  0  0  0  0  0  0  0
  150.9489  142.5238  157.6126 C   0  0  0  0  0  0  0  0  0  0  0  0
  150.1022  141.7462  156.7863 N   0  0  0  0  0  0  0  0  0  0  0  0
  148.6771  142.0520  156.7270 C   0  0  0  0  0  0  0  0  0  0  0  0
  148.1603  141.3846  155.4531 C   0  0  0  0  0  0  0  0  0  0  0  0
  149.3723  141.4158  154.5306 C   0  0  0  0  0  0  0  0  0  0  0  0
  150.5542  141.2466  155.4872 C   0  0  0  0  0  0  0  0  0  0  0  0
  155.1850  135.9019  161.9772 C   0  0  0  0  0  0  0  0  0  0  0  0
  156.0987  135.7695  163.2094 C   0  0  2  0  0  0  0  0  0  0  0  0
  157.0210  134.5494  163.1161 C   0  0  0  0  0  0  0  0  0  0  0  0
  155.2997  135.6337  164.3841 O   0  0  0  0  0  0  0  0  0  0  0  0
  154.2095  138.7152  165.2968 H   0  0  0  0  0  0  0  0  0  0  0  0
  155.5902  138.4177  164.2551 H   0  0  0  0  0  0  0  0  0  0  0  0
  155.5974  137.8257  165.9147 H   0  0  0  0  0  0  0  0  0  0  0  0
  153.6823  136.3195  165.3974 H   0  0  0  0  0  0  0  0  0  0  0  0
  152.8329  135.9230  163.2023 H   0  0  0  0  0  0  0  0  0  0  0  0
  152.7638  137.6501  163.4564 H   0  0  0  0  0  0  0  0  0  0  0  0
  152.9355  136.2725  160.6540 H   0  0  0  0  0  0  0  0  0  0  0  0
  152.5993  137.8897  161.1981 H   0  0  0  0  0  0  0  0  0  0  0  0
  155.0103  138.3870  160.0411 H   0  0  0  0  0  0  0  0  0  0  0  0
  154.5252  137.0190  159.0734 H   0  0  0  0  0  0  0  0  0  0  0  0
  153.0861  138.4378  158.0002 H   0  0  0  0  0  0  0  0  0  0  0  0
  152.3527  140.1647  157.4457 H   0  0  0  0  0  0  0  0  0  0  0  0
  153.6446  142.4752  159.7475 H   0  0  0  0  0  0  0  0  0  0  0  0
  153.1482  144.9142  159.7617 H   0  0  0  0  0  0  0  0  0  0  0  0
  151.1953  145.7630  158.3379 H   0  0  0  0  0  0  0  0  0  0  0  0
  148.1355  141.6690  157.5912 H   0  0  0  0  0  0  0  0  0  0  0  0
  148.5381  143.1332  156.6814 H   0  0  0  0  0  0  0  0  0  0  0  0
  147.8832  140.3502  155.6616 H   0  0  0  0  0  0  0  0  0  0  0  0
  147.2893  141.8885  155.0331 H   0  0  0  0  0  0  0  0  0  0  0  0
  149.3401  140.6483  153.7569 H   0  0  0  0  0  0  0  0  0  0  0  0
  149.4323  142.3877  154.0390 H   0  0  0  0  0  0  0  0  0  0  0  0
  151.4366  141.7442  155.0869 H   0  0  0  0  0  0  0  0  0  0  0  0
  150.7998  140.1904  155.5990 H   0  0  0  0  0  0  0  0  0  0  0  0
  154.6329  134.9730  161.8246 H   0  0  0  0  0  0  0  0  0  0  0  0
  155.8074  136.0440  161.0939 H   0  0  0  0  0  0  0  0  0  0  0  0
  156.7196  136.6618  163.2971 H   0  0  0  0  0  0  0  0  0  0  0  0
  157.6655  134.6102  162.2389 H   0  0  0  0  0  0  0  0  0  0  0  0
  156.4464  133.6251  163.0468 H   0  0  0  0  0  0  0  0  0  0  0  0
  157.6621  134.4780  163.9951 H   0  0  0  0  0  0  0  0  0  0  0  0
  149.9729  144.2479  157.1098 H   0  0  0  0  0  0  0  0  0  0  0  0
  1  2  1  0  0  0  0
  1 26  1  0  0  0  0
  1 27  1  0  0  0  0
  1 28  1  0  0  0  0
  2 25  1  0  0  0  0
  2  3  1  0  0  0  0
  2 29  1  0  0  0  0
  3  4  1  0  0  0  0
  3 30  1  0  0  0  0
  3 31  1  0  0  0  0
  4  5  1  0  0  0  0
  4 22  1  0  0  0  0
  5  6  1  0  0  0  0
  5 32  1  0  0  0  0
  5 33  1  0  0  0  0
  6  7  1  0  0  0  0
  6 34  1  0  0  0  0
  6 35  1  0  0  0  0
  7  8  1  0  0  0  0
  7 36  1  0  0  0  0
  8  9  2  0  0  0  0
  8 10  1  0  0  0  0
 10 11  1  0  0  0  0
 10 37  1  0  0  0  0
 11 16  1  0  0  0  0
 11 12  2  0  0  0  0
 12 13  1  0  0  0  0
 12 38  1  0  0  0  0
 13 14  2  0  0  0  0
 13 39  1  0  0  0  0
 14 15  1  0  0  0  0
 14 40  1  0  0  0  0
 15 16  2  0  0  0  0
 15 55  1  0  0  0  0
 16 17  1  0  0  0  0
 17 21  1  0  0  0  0
 17 18  1  0  0  0  0
 18 19  1  0  0  0  0
 18 41  1  0  0  0  0
 18 42  1  0  0  0  0
 19 20  1  0  0  0  0
 19 43  1  0  0  0  0
 19 44  1  0  0  0  0
 20 21  1  0  0  0  0
 20 45  1  0  0  0  0
 20 46  1  0  0  0  0
 21 47  1  0  0  0  0
 21 48  1  0  0  0  0
 22 23  1  0  0  0  0
 22 49  1  0  0  0  0
 22 50  1  0  0  0  0
 23 24  1  0  0  0  0
 23 25  1  0  0  0  0
 23 51  1  0  0  0  0
 24 52  1  0  0  0  0
 24 53  1  0  0  0  0
 24 54  1  0  0  0  0
M  CHG  1  15   1
M  END
> <s_m_source_file>
AV-unprocessed.smi

> <i_m_source_file_index>
1244

> <i_lp_mmshare_version>
43012

> <i_f3d_flags>
0

> <s_epik_input>
W0NIM11bQ0BASF0xW0NIMl1OKFtDSDJdW0NASF0oTzEpW0NIM10pW0NIMl1bQ0gyXVtOSF1DKD1PKVtOSF1jMltjSF1bY0hdW2NIXW5jMk4zW0NIMl1bQ0gyXVtDSDJdW0NIMl0z

> <s_epik_cmdline>
J2VwaWtfcHl0aG9uJywgJy1waCcsICc3LjAnLCAnLXRuJywgJzgnLCAnLW1hJywgJzIwMCcsICctbWV0YWxfYmluZGluZycsICctaW1hZScsICc8aW5maWxlLm1hZT4nLCAnLW9tYWUnLCAnPG91dGZpbGUubWFlPic=

> <r_epik_Ionization_Penalty>
1.38385

> <r_epik_Ionization_Penalty_Charging>
1.11784

> <r_epik_Ionization_Penalty_Neutral>
0.26601

> <r_epik_State_Penalty>
1.46794

> <r_epik_Charging_Adjusted_Penalty>
2.58578

> <i_epik_Tot_Q>
1

> <i_epik_Tot_abs_Q>
1

> <r_epik_Metal_State_Penalty>
1.54908

> <b_epik_Metal_Only>
0

> <s_lp_Force_Field>
OPLS_2005

> <r_lp_Energy>
60.8331

> <b_lp_Chiralities_Consistent>
1

> <s_lp_Variant>
AV-unprocessed.smi:1244-10

> <Gold.Version>
5.8.1

> <Gold.Id.Protein>
6NUR|6NUR_protein|mol2

> <Gold.PLP.Fitness>
46.7035

> <Gold.PLP.PLP>
-42.7933

> <Gold.PLP.part.hbond>
-1.0000

> <Gold.PLP.part.metal>
0.0000

> <Gold.PLP.part.buried>
-3.9012

> <Gold.PLP.part.nonpolar>
-38.4723

> <Gold.PLP.part.repulsive>
0.2643

> <Gold.PLP.ligand.clash>
0.0000

> <Gold.PLP.ligand.torsion>
1.5911

> <Gold.PLP.Chemscore.Hbond>
2.0000

> <Gold.PLP.Chemscore.CHOScore>
0.0000

> <Gold.PLP.Chemscore.Metal>
0.0000

> <Gold.Chemscore.Hbonds>
donor molecule, donor type, donor heavy atom, donor atom, acceptor molecule, acceptor atom, score
      L1  H    15    55       P1  8028  2.00

> <Gold.PLP.Chemscore.Internal.Correction>
1.0924

> <Gold.Rescore>
     Score         DG    S(hbond)    S(metal)    S(lipo)     H(rot)  DE(clash)    DE(int)     intcor
     15.62     -18.46       1.00        0.00     113.09       1.40       0.08       2.75       ----

> <Gold.Chemscore.Fitness>
15.6221

> <Gold.Chemscore.DG>
-18.4559

> <Gold.Chemscore.ZeroCoef>
-5.4800

> <Gold.Chemscore.Hbond>
0.9984

> <Gold.Chemscore.Metal>
0.0000

> <Gold.Chemscore.Lipo>
113.0872

> <Gold.Chemscore.Internal_Hbond>
0.0000

> <Gold.Chemscore.DEClash>
0.0845

> <Gold.Chemscore.DEInternal>
2.7494

> <Gold.Chemscore.Rot>
1.4023

> <Gold.Chemscore.Internal.Correction>
   9.000000E+99

> <Gold.Chemscore.Hbonds>
donor molecule, donor type, donor heavy atom, donor atom, acceptor molecule, acceptor atom, score
      L1  H    15    55       P1  8028  0.70

> <Gold.Chemscore.Hbond.Weighted>
-3.3346

> <Gold.Chemscore.Metal.Weighted>
-0.0000

> <Gold.Chemscore.Lipo.Weighted>
-13.2312

> <Gold.Chemscore.Internal_Hbond.Weighted>
0.0000

> <Gold.Chemscore.DEClash.Weighted>
0.0845

> <Gold.Chemscore.DEInternal.Weighted>
2.7494

> <Gold.Chemscore.Rot.Weighted>
3.5899

> <Gold.Chemscore.Internal.Correction.Weighted>
   9.000000E+99

> <Gold.Protein.RotatedTorsions>
[ 6907 6896 6895 6894 ] final -144.23 input  -60.11 | X-H torsion
[ 7974 7965 7964 7962 ] final  -28.35 input  175.53 | X-H torsion
[ 8008 7997 7996 7995 ] final    9.87 input   59.86 | X-H torsion
[ 10167 10162 10161 10158 ] final  -99.57 input  -65.29 | X-H torsion
[ 10718 10713 10712 10709 ] final  179.88 input   66.30 | X-H torsion
[ 10763 10752 10751 10750 ] final  148.82 input  -60.55 | X-H torsion
[ 11005 11000 10999 10996 ] final   -8.18 input  -57.11 | X-H torsion

> <Gold.Protein.ActiveResidues>
 VAL166  LYS551  ARG553  GLY616  TRP617  ASP618  TYR619  PRO620  LYS621  CYS622 
 ASP623  PHE694  ASN695  SER759  ASP760  ASP761  ALA762  ILE779  LEU786  VAL792 
 PHE793  MET794  SER795  GLU796  ALA797  LYS798  CYS799  TRP800  GLU811  SER814 

> <Gold.Protein.RotatedAtoms>
  151.1111  133.5172  159.2605 H   0  0  0  0  0  0  0  0  0  0  0  0  # atno 6907 bound_to 6896
  151.1965  135.0424  159.8864 H   0  0  0  0  0  0  0  0  0  0  0  0  # atno 6908 bound_to 6896
  152.5450  134.0945  159.8344 H   0  0  0  0  0  0  0  0  0  0  0  0  # atno 6909 bound_to 6896
  146.1294  140.5271  142.8700 H   0  0  0  0  0  0  0  0  0  0  0  0  # atno 7974 bound_to 7965
  154.7858  140.2827  155.6029 H   0  0  0  0  0  0  0  0  0  0  0  0  # atno 8008 bound_to 7997
  156.2957  140.2614  156.2623 H   0  0  0  0  0  0  0  0  0  0  0  0  # atno 8009 bound_to 7997
  154.9729  140.0376  157.2232 H   0  0  0  0  0  0  0  0  0  0  0  0  # atno 8010 bound_to 7997
  140.2610  143.3407  152.0625 H   0  0  0  0  0  0  0  0  0  0  0  0  # atno 10167 bound_to 10162
  156.8692  130.9778  151.3075 H   0  0  0  0  0  0  0  0  0  0  0  0  # atno 10718 bound_to 10713
  154.0610  135.2874  155.3325 H   0  0  0  0  0  0  0  0  0  0  0  0  # atno 10763 bound_to 10752
  154.6808  135.5264  153.8264 H   0  0  0  0  0  0  0  0  0  0  0  0  # atno 10764 bound_to 10752
  153.0523  135.6581  154.0798 H   0  0  0  0  0  0  0  0  0  0  0  0  # atno 10765 bound_to 10752
  140.7207  133.8831  155.8818 H   0  0  0  0  0  0  0  0  0  0  0  0  # atno 11005 bound_to 11000
  144.7675  140.5563  143.6693 LP  0  0  0  0  0  0  0  0  0  0  0  0  # atno 17320 bound_to 7965
  145.5294  139.1475  143.3508 LP  0  0  0  0  0  0  0  0  0  0  0  0  # atno 17321 bound_to 7965
  139.5017  144.6718  151.6224 LP  0  0  0  0  0  0  0  0  0  0  0  0  # atno 17342 bound_to 10162
  140.5965  143.9686  150.6358 LP  0  0  0  0  0  0  0  0  0  0  0  0  # atno 17343 bound_to 10162
  157.6206  130.8652  149.9102 LP  0  0  0  0  0  0  0  0  0  0  0  0  # atno 17370 bound_to 10713
  156.0735  130.3682  150.0725 LP  0  0  0  0  0  0  0  0  0  0  0  0  # atno 17371 bound_to 10713
  141.0006  134.1155  157.4321 LP  0  0  0  0  0  0  0  0  0  0  0  0  # atno 17394 bound_to 11000
  139.8849  135.0067  156.6398 LP  0  0  0  0  0  0  0  0  0  0  0  0  # atno 17395 bound_to 11000

$$$$
