AV-unprocessed.smi:3157|AV-procd|sdf|12038|dock1
  -GOLD-   2272017453D 1   1.00000     0.00000
 Structure written by MMmdl.
 40 41  0  0  0  0  0  0  0  0  2 V2000
  148.8037  139.7776  157.0801 C   0  0  0  0  0  0  0  0  0  0  0  0
  148.7771  140.9496  156.0758 C   0  0  1  0  0  0  0  0  0  0  0  0
  149.7347  141.9982  156.4957 N   0  3  0  0  0  0  0  0  0  0  0  0
  149.6865  142.3605  157.9278 C   0  0  0  0  0  0  0  0  0  0  0  0
  150.4271  143.6813  158.1910 C   0  0  0  0  0  0  0  0  0  0  0  0
  151.9517  143.5835  158.0553 C   0  0  0  0  0  0  0  0  0  0  0  0
  152.5192  144.7355  158.8962 C   0  0  0  0  0  0  0  0  0  0  0  0
  151.3761  145.2177  159.8010 C   0  0  0  0  0  0  0  0  0  0  0  0
  150.2399  144.2103  159.6140 C   0  0  0  0  0  0  0  0  0  0  0  0
  149.0907  140.5072  154.6224 C   0  0  2  0  0  0  0  0  0  0  0  0
  147.8684  139.8958  153.9125 C   0  0  0  0  0  0  0  0  0  0  0  0
  150.2123  139.5774  154.5635 N   0  0  0  0  0  0  0  0  0  0  0  0
  150.2180  138.2516  154.1766 C   0  0  0  0  0  0  0  0  0  0  0  0
  151.4988  137.7953  154.3002 C   0  0  0  0  0  0  0  0  0  0  0  0
  152.2162  138.9274  154.7769 C   0  0  0  0  0  0  0  0  0  0  0  0
  151.4441  139.9904  154.9344 N   0  0  0  0  0  0  0  0  0  0  0  0
  148.0479  139.0273  156.8477 H   0  0  0  0  0  0  0  0  0  0  0  0
  148.6055  140.1098  158.0986 H   0  0  0  0  0  0  0  0  0  0  0  0
  149.7741  139.2799  157.0780 H   0  0  0  0  0  0  0  0  0  0  0  0
  147.7743  141.3801  156.0829 H   0  0  0  0  0  0  0  0  0  0  0  0
  150.6695  141.6998  156.2561 H   0  0  0  0  0  0  0  0  0  0  0  0
  148.6419  142.4625  158.2252 H   0  0  0  0  0  0  0  0  0  0  0  0
  150.1141  141.5652  158.5378 H   0  0  0  0  0  0  0  0  0  0  0  0
  150.0629  144.4437  157.4998 H   0  0  0  0  0  0  0  0  0  0  0  0
  152.3025  142.6349  158.4647 H   0  0  0  0  0  0  0  0  0  0  0  0
  152.2793  143.6312  157.0164 H   0  0  0  0  0  0  0  0  0  0  0  0
  153.3758  144.3997  159.4818 H   0  0  0  0  0  0  0  0  0  0  0  0
  152.8622  145.5504  158.2577 H   0  0  0  0  0  0  0  0  0  0  0  0
  151.6801  145.3008  160.8449 H   0  0  0  0  0  0  0  0  0  0  0  0
  151.0474  146.2062  159.4771 H   0  0  0  0  0  0  0  0  0  0  0  0
  149.2576  144.6576  159.7699 H   0  0  0  0  0  0  0  0  0  0  0  0
  150.3517  143.3977  160.3331 H   0  0  0  0  0  0  0  0  0  0  0  0
  149.3802  141.3975  154.0597 H   0  0  0  0  0  0  0  0  0  0  0  0
  147.0465  140.6085  153.8433 H   0  0  0  0  0  0  0  0  0  0  0  0
  147.4985  139.0148  154.4382 H   0  0  0  0  0  0  0  0  0  0  0  0
  148.1192  139.5936  152.8951 H   0  0  0  0  0  0  0  0  0  0  0  0
  149.3201  137.7474  153.8511 H   0  0  0  0  0  0  0  0  0  0  0  0
  151.8677  136.8035  154.0840 H   0  0  0  0  0  0  0  0  0  0  0  0
  153.2671  139.0076  155.0128 H   0  0  0  0  0  0  0  0  0  0  0  0
  149.5232  142.8350  155.9711 H   0  0  0  0  0  0  0  0  0  0  0  0
  1  2  1  0  0  0  0
  1 17  1  0  0  0  0
  1 18  1  0  0  0  0
  1 19  1  0  0  0  0
  2  3  1  0  0  0  0
  2 10  1  0  0  0  0
  2 20  1  0  0  0  0
  3  4  1  0  0  0  0
  3 21  1  0  0  0  0
  3 40  1  0  0  0  0
  4  5  1  0  0  0  0
  4 22  1  0  0  0  0
  4 23  1  0  0  0  0
  5  9  1  0  0  0  0
  5  6  1  0  0  0  0
  5 24  1  0  0  0  0
  6  7  1  0  0  0  0
  6 25  1  0  0  0  0
  6 26  1  0  0  0  0
  7  8  1  0  0  0  0
  7 27  1  0  0  0  0
  7 28  1  0  0  0  0
  8  9  1  0  0  0  0
  8 29  1  0  0  0  0
  8 30  1  0  0  0  0
  9 31  1  0  0  0  0
  9 32  1  0  0  0  0
 10 11  1  0  0  0  0
 10 12  1  0  0  0  0
 10 33  1  0  0  0  0
 11 34  1  0  0  0  0
 11 35  1  0  0  0  0
 11 36  1  0  0  0  0
 12 16  1  0  0  0  0
 12 13  1  0  0  0  0
 13 14  2  0  0  0  0
 13 37  1  0  0  0  0
 14 15  1  0  0  0  0
 14 38  1  0  0  0  0
 15 16  2  0  0  0  0
 15 39  1  0  0  0  0
M  CHG  1   3   1
M  END
> <s_m_source_file>
AV-unprocessed.smi

> <i_m_source_file_index>
3157

> <i_lp_mmshare_version>
43012

> <i_f3d_flags>
0

> <s_epik_input>
bjFbY0hdW2NIXVtjSF1uMVtDQEBIXShbQ0gzXSlbQ0BIXShbQ0gzXSlbTkhdW0NIMl1bQ0hdMltDSDJdW0NIMl1bQ0gyXVtDSDJdMg==

> <s_epik_cmdline>
J2VwaWtfcHl0aG9uJywgJy1waCcsICc3LjAnLCAnLXRuJywgJzgnLCAnLW1hJywgJzIwMCcsICctbWV0YWxfYmluZGluZycsICctaW1hZScsICc8aW5maWxlLm1hZT4nLCAnLW9tYWUnLCAnPG91dGZpbGUubWFlPic=

> <r_lp_tautomer_probability>
1

> <r_epik_Ionization_Penalty>
0.00132192

> <r_epik_Ionization_Penalty_Charging>
0.0013111

> <r_epik_Ionization_Penalty_Neutral>
1.08112e-05

> <r_epik_State_Penalty>
-0

> <r_epik_Charging_Adjusted_Penalty>
0.0013111

> <i_epik_Tot_Q>
1

> <i_epik_Tot_abs_Q>
1

> <r_epik_Metal_State_Penalty>
-0

> <b_epik_Metal_Only>
0

> <s_lp_Force_Field>
OPLS_2005

> <r_lp_Energy>
32.0676

> <b_lp_Chiralities_Consistent>
1

> <s_lp_Variant>
AV-unprocessed.smi:3157-2

> <Gold.Version>
5.8.1

> <Gold.Id.Protein>
6NUR|6NUR_protein|mol2

> <Gold.PLP.Fitness>
46.4732

> <Gold.PLP.PLP>
-36.6895

> <Gold.PLP.part.hbond>
-2.0000

> <Gold.PLP.part.metal>
0.0000

> <Gold.PLP.part.buried>
-3.0628

> <Gold.PLP.part.nonpolar>
-32.4064

> <Gold.PLP.part.repulsive>
0.1091

> <Gold.PLP.ligand.clash>
0.0000

> <Gold.PLP.ligand.torsion>
0.6806

> <Gold.PLP.Chemscore.Hbond>
2.6500

> <Gold.PLP.Chemscore.CHOScore>
0.9983

> <Gold.PLP.Chemscore.Metal>
0.0000

> <Gold.Chemscore.Hbonds>
donor molecule, donor type, donor heavy atom, donor atom, acceptor molecule, acceptor atom, score
      L1  H     3    40       P1  8028  2.00
      P1  H  7989  7998       L1    16  0.60
      L1  C    13    37       P1  7948  0.97

> <Gold.PLP.Chemscore.Internal.Correction>
0.1999

> <Gold.Rescore>
     Score         DG    S(hbond)    S(metal)    S(lipo)     H(rot)  DE(clash)    DE(int)     intcor
     16.41     -17.32       1.01        0.00     105.25       1.50       0.13       0.79       ----

> <Gold.Chemscore.Fitness>
16.4064

> <Gold.Chemscore.DG>
-17.3220

> <Gold.Chemscore.ZeroCoef>
-5.4800

> <Gold.Chemscore.Hbond>
1.0119

> <Gold.Chemscore.Metal>
0.0000

> <Gold.Chemscore.Lipo>
105.2509

> <Gold.Chemscore.Internal_Hbond>
0.0000

> <Gold.Chemscore.DEClash>
0.1275

> <Gold.Chemscore.DEInternal>
0.7881

> <Gold.Chemscore.Rot>
1.5047

> <Gold.Chemscore.Internal.Correction>
   9.000000E+99

> <Gold.Chemscore.Hbonds>
donor molecule, donor type, donor heavy atom, donor atom, acceptor molecule, acceptor atom, score
      L1  H     3    40       P1  8028  0.94
      P1  H  7989  7998       L1    16  0.02

> <Gold.Chemscore.Hbond.Weighted>
-3.3796

> <Gold.Chemscore.Metal.Weighted>
-0.0000

> <Gold.Chemscore.Lipo.Weighted>
-12.3144

> <Gold.Chemscore.Internal_Hbond.Weighted>
0.0000

> <Gold.Chemscore.DEClash.Weighted>
0.1275

> <Gold.Chemscore.DEInternal.Weighted>
0.7881

> <Gold.Chemscore.Rot.Weighted>
3.8520

> <Gold.Chemscore.Internal.Correction.Weighted>
   9.000000E+99

> <Gold.Protein.RotatedTorsions>
[ 6907 6896 6895 6894 ] final  -52.54 input  -60.11 | X-H torsion
[ 7974 7965 7964 7962 ] final  -67.19 input  175.53 | X-H torsion
[ 8008 7997 7996 7995 ] final  -69.34 input   59.86 | X-H torsion
[ 10167 10162 10161 10158 ] final  173.79 input  -65.29 | X-H torsion
[ 10718 10713 10712 10709 ] final  -12.40 input   66.30 | X-H torsion
[ 10763 10752 10751 10750 ] final  164.03 input  -60.55 | X-H torsion
[ 11005 11000 10999 10996 ] final  166.88 input  -57.11 | X-H torsion

> <Gold.Protein.ActiveResidues>
 VAL166  LYS551  ARG553  GLY616  TRP617  ASP618  TYR619  PRO620  LYS621  CYS622 
 ASP623  PHE694  ASN695  SER759  ASP760  ASP761  ALA762  ILE779  LEU786  VAL792 
 PHE793  MET794  SER795  GLU796  ALA797  LYS798  CYS799  TRP800  GLU811  SER814 

> <Gold.Protein.RotatedAtoms>
  150.8509  134.7833  159.7007 H   0  0  0  0  0  0  0  0  0  0  0  0  # atno 6907 bound_to 6896
  152.4574  134.5258  159.9806 H   0  0  0  0  0  0  0  0  0  0  0  0  # atno 6908 bound_to 6896
  151.5380  133.3399  159.2966 H   0  0  0  0  0  0  0  0  0  0  0  0  # atno 6909 bound_to 6896
  145.7323  140.8991  143.0573 H   0  0  0  0  0  0  0  0  0  0  0  0  # atno 7974 bound_to 7965
  154.4932  140.0855  156.7639 H   0  0  0  0  0  0  0  0  0  0  0  0  # atno 8008 bound_to 7997
  155.4181  140.3444  155.4251 H   0  0  0  0  0  0  0  0  0  0  0  0  # atno 8009 bound_to 7997
  156.1358  140.1514  156.8985 H   0  0  0  0  0  0  0  0  0  0  0  0  # atno 8010 bound_to 7997
  139.5120  144.3220  152.0193 H   0  0  0  0  0  0  0  0  0  0  0  0  # atno 10167 bound_to 10162
  156.6452  130.4939  149.6081 H   0  0  0  0  0  0  0  0  0  0  0  0  # atno 10718 bound_to 10713
  154.3027  135.2759  155.2603 H   0  0  0  0  0  0  0  0  0  0  0  0  # atno 10763 bound_to 10752
  154.5033  135.5802  153.6551 H   0  0  0  0  0  0  0  0  0  0  0  0  # atno 10764 bound_to 10752
  152.9898  135.6163  154.3198 H   0  0  0  0  0  0  0  0  0  0  0  0  # atno 10765 bound_to 10752
  140.2710  134.7827  157.3675 H   0  0  0  0  0  0  0  0  0  0  0  0  # atno 11005 bound_to 11000
  144.6890  139.9348  143.7473 LP  0  0  0  0  0  0  0  0  0  0  0  0  # atno 17320 bound_to 7965
  146.0526  139.3525  143.0630 LP  0  0  0  0  0  0  0  0  0  0  0  0  # atno 17321 bound_to 7965
  140.2662  144.4014  150.6168 LP  0  0  0  0  0  0  0  0  0  0  0  0  # atno 17342 bound_to 10162
  140.6122  143.2170  151.6864 LP  0  0  0  0  0  0  0  0  0  0  0  0  # atno 17343 bound_to 10162
  156.2127  130.6689  151.1287 LP  0  0  0  0  0  0  0  0  0  0  0  0  # atno 17370 bound_to 10713
  157.7158  131.0710  150.6330 LP  0  0  0  0  0  0  0  0  0  0  0  0  # atno 17371 bound_to 10713
  140.1373  134.5017  155.8058 LP  0  0  0  0  0  0  0  0  0  0  0  0  # atno 17394 bound_to 11000
  141.2177  133.6812  156.7148 LP  0  0  0  0  0  0  0  0  0  0  0  0  # atno 17395 bound_to 11000

$$$$
