AV-unprocessed.smi:537|AV-procd|sdf|2865|dock4
  -GOLD-   2262023353D 1   1.00000     0.00000
 Structure written by MMmdl.
 32 33  0  0  0  0  0  0  0  0  2 V2000
  152.9356  143.8516  159.0165 C   0  0  0  0  0  0  0  0  0  0  0  0
  152.4375  142.5706  158.5568 N   0  0  0  0  0  0  0  0  0  0  0  0
  152.5958  141.2841  159.0579 C   0  0  0  0  0  0  0  0  0  0  0  0
  153.2975  140.9829  160.1514 N   0  0  0  0  0  0  0  0  0  0  0  0
  153.1470  139.6057  160.2345 C   0  0  0  0  0  0  0  0  0  0  0  0
  152.3799  139.1260  159.2183 C   0  0  0  0  0  0  0  0  0  0  0  0
  152.0370  137.6968  159.0523 C   0  0  0  0  0  0  0  0  0  0  0  0
  151.3316  137.3147  158.1208 O   0  0  0  0  0  0  0  0  0  0  0  0
  152.5903  136.9167  160.0345 N   0  5  0  0  0  0  0  0  0  0  0  0
  153.3760  137.3593  161.0778 C   0  0  0  0  0  0  0  0  0  0  0  0
  153.8321  136.5803  161.9150 O   0  0  0  0  0  0  0  0  0  0  0  0
  153.6629  138.6958  161.1945 N   0  0  0  0  0  0  0  0  0  0  0  0
  154.4897  139.2460  162.2730 C   0  0  0  0  0  0  0  0  0  0  0  0
  152.0183  140.2267  158.4352 N   0  0  0  0  0  0  0  0  0  0  0  0
  151.2004  140.2593  157.2254 C   0  0  0  0  0  0  0  0  0  0  0  0
  151.9127  139.6157  156.0264 C   0  0  0  0  0  0  0  0  0  0  0  0
  151.3463  140.0833  154.8135 O   0  0  0  0  0  0  0  0  0  0  0  0
  150.2258  139.3202  154.4047 C   0  0  0  0  0  0  0  0  0  0  0  0
  152.6101  144.6466  158.3458 H   0  0  0  0  0  0  0  0  0  0  0  0
  154.0253  143.8456  159.0458 H   0  0  0  0  0  0  0  0  0  0  0  0
  152.5625  144.0665  160.0180 H   0  0  0  0  0  0  0  0  0  0  0  0
  151.8764  142.6281  157.7195 H   0  0  0  0  0  0  0  0  0  0  0  0
  154.8700  138.5035  162.9749 H   0  0  0  0  0  0  0  0  0  0  0  0
  153.9133  139.9710  162.8482 H   0  0  0  0  0  0  0  0  0  0  0  0
  155.3518  139.7631  161.8510 H   0  0  0  0  0  0  0  0  0  0  0  0
  150.2606  139.7418  157.4192 H   0  0  0  0  0  0  0  0  0  0  0  0
  150.9186  141.2860  156.9998 H   0  0  0  0  0  0  0  0  0  0  0  0
  152.9763  139.8574  156.0541 H   0  0  0  0  0  0  0  0  0  0  0  0
  151.8239  138.5301  156.0854 H   0  0  0  0  0  0  0  0  0  0  0  0
  149.8296  139.7231  153.4726 H   0  0  0  0  0  0  0  0  0  0  0  0
  149.4318  139.3549  155.1515 H   0  0  0  0  0  0  0  0  0  0  0  0
  150.4998  138.2787  154.2320 H   0  0  0  0  0  0  0  0  0  0  0  0
  1  2  1  0  0  0  0
  1 19  1  0  0  0  0
  1 20  1  0  0  0  0
  1 21  1  0  0  0  0
  2  3  1  0  0  0  0
  2 22  1  0  0  0  0
  3 14  1  0  0  0  0
  3  4  2  0  0  0  0
  4  5  1  0  0  0  0
  5 12  1  0  0  0  0
  5  6  2  0  0  0  0
  6  7  1  0  0  0  0
  6 14  1  0  0  0  0
  7  8  2  0  0  0  0
  7  9  1  0  0  0  0
  9 10  1  0  0  0  0
 10 11  2  0  0  0  0
 10 12  1  0  0  0  0
 12 13  1  0  0  0  0
 13 23  1  0  0  0  0
 13 24  1  0  0  0  0
 13 25  1  0  0  0  0
 14 15  1  0  0  0  0
 15 16  1  0  0  0  0
 15 26  1  0  0  0  0
 15 27  1  0  0  0  0
 16 17  1  0  0  0  0
 16 28  1  0  0  0  0
 16 29  1  0  0  0  0
 17 18  1  0  0  0  0
 18 30  1  0  0  0  0
 18 31  1  0  0  0  0
 18 32  1  0  0  0  0
M  CHG  1   9  -1
M  END
> <s_m_source_file>
AV-unprocessed.smi

> <i_m_source_file_index>
537

> <i_lp_mmshare_version>
43012

> <i_f3d_flags>
0

> <s_epik_input>
W0NIM11PW0NIMl1bQ0gyXW4oYyhuMSlbTkhdW0NIM10pYyhjMTIpYyg9TylbbkhdYyg9TyluMltDSDNd

> <s_epik_cmdline>
J2VwaWtfcHl0aG9uJywgJy1waCcsICc3LjAnLCAnLXRuJywgJzgnLCAnLW1hJywgJzIwMCcsICctbWV0YWxfYmluZGluZycsICctaW1hZScsICc8aW5maWxlLm1hZT4nLCAnLW9tYWUnLCAnPG91dGZpbGUubWFlPic=

> <r_lp_tautomer_probability>
1

> <r_epik_Ionization_Penalty>
6.3083

> <r_epik_Ionization_Penalty_Charging>
1.44173e-08

> <r_epik_Ionization_Penalty_Neutral>
6.3083

> <r_epik_State_Penalty>
6.30819

> <r_epik_Charging_Adjusted_Penalty>
6.30819

> <i_epik_Tot_Q>
-1

> <i_epik_Tot_abs_Q>
1

> <r_epik_Metal_State_Penalty>
2.24297

> <b_epik_Metal_Only>
1

> <s_lp_Force_Field>
OPLS_2005

> <r_lp_Energy>
24.4874

> <b_lp_Chiralities_Consistent>
1

> <s_lp_Variant>
AV-unprocessed.smi:537-2

> <Gold.Version>
5.8.1

> <Gold.Id.Protein>
6NUR|6NUR_protein|mol2

> <Gold.PLP.Fitness>
38.0114

> <Gold.PLP.PLP>
-29.7069

> <Gold.PLP.part.hbond>
-2.0000

> <Gold.PLP.part.metal>
0.0000

> <Gold.PLP.part.buried>
-5.1786

> <Gold.PLP.part.nonpolar>
-22.5510

> <Gold.PLP.part.repulsive>
0.1282

> <Gold.PLP.ligand.clash>
0.0000

> <Gold.PLP.ligand.torsion>
0.3492

> <Gold.PLP.Chemscore.Hbond>
3.0000

> <Gold.PLP.Chemscore.CHOScore>
0.0000

> <Gold.PLP.Chemscore.Metal>
0.0000

> <Gold.Chemscore.Hbonds>
donor molecule, donor type, donor heavy atom, donor atom, acceptor molecule, acceptor atom, score
      P1  H  6896  6909       L1     9  2.00
      P1  H  7989  7998       L1    17  1.00

> <Gold.PLP.Chemscore.Internal.Correction>
0.0030

> <Gold.Rescore>
     Score         DG    S(hbond)    S(metal)    S(lipo)     H(rot)  DE(clash)    DE(int)     intcor
     12.35     -12.66       1.87        0.00      43.91       1.64       0.06       0.26       ----

> <Gold.Chemscore.Fitness>
12.3479

> <Gold.Chemscore.DG>
-12.6633

> <Gold.Chemscore.ZeroCoef>
-5.4800

> <Gold.Chemscore.Hbond>
1.8727

> <Gold.Chemscore.Metal>
0.0000

> <Gold.Chemscore.Lipo>
43.9057

> <Gold.Chemscore.Internal_Hbond>
0.0000

> <Gold.Chemscore.DEClash>
0.0580

> <Gold.Chemscore.DEInternal>
0.2574

> <Gold.Chemscore.Rot>
1.6439

> <Gold.Chemscore.Internal.Correction>
   9.000000E+99

> <Gold.Chemscore.Hbonds>
donor molecule, donor type, donor heavy atom, donor atom, acceptor molecule, acceptor atom, score
      P1  H  6896  6909       L1     9  0.88
      P1  H  7989  7998       L1    17  0.29

> <Gold.Chemscore.Hbond.Weighted>
-6.2548

> <Gold.Chemscore.Metal.Weighted>
-0.0000

> <Gold.Chemscore.Lipo.Weighted>
-5.1370

> <Gold.Chemscore.Internal_Hbond.Weighted>
0.0000

> <Gold.Chemscore.DEClash.Weighted>
0.0580

> <Gold.Chemscore.DEInternal.Weighted>
0.2574

> <Gold.Chemscore.Rot.Weighted>
4.2085

> <Gold.Chemscore.Internal.Correction.Weighted>
   9.000000E+99

> <Gold.Protein.RotatedTorsions>
[ 6907 6896 6895 6894 ] final  149.82 input  -60.11 | X-H torsion
[ 7974 7965 7964 7962 ] final  -94.12 input  175.53 | X-H torsion
[ 8008 7997 7996 7995 ] final  144.31 input   59.86 | X-H torsion
[ 10167 10162 10161 10158 ] final    8.78 input  -65.29 | X-H torsion
[ 10718 10713 10712 10709 ] final   63.43 input   66.30 | X-H torsion
[ 10763 10752 10751 10750 ] final  -12.29 input  -60.55 | X-H torsion
[ 11005 11000 10999 10996 ] final   35.41 input  -57.11 | X-H torsion

> <Gold.Protein.ActiveResidues>
 VAL166  LYS551  ARG553  GLY616  TRP617  ASP618  TYR619  PRO620  LYS621  CYS622 
 ASP623  PHE694  ASN695  SER759  ASP760  ASP761  ALA762  ILE779  LEU786  VAL792 
 PHE793  MET794  SER795  GLU796  ALA797  LYS798  CYS799  TRP800  GLU811  SER814 

> <Gold.Protein.RotatedAtoms>
  152.1229  133.4363  159.4683 H   0  0  0  0  0  0  0  0  0  0  0  0  # atno 6907 bound_to 6896
  150.6873  134.2514  159.4521 H   0  0  0  0  0  0  0  0  0  0  0  0  # atno 6908 bound_to 6896
  152.0392  134.9721  160.0624 H   0  0  0  0  0  0  0  0  0  0  0  0  # atno 6909 bound_to 6896
  145.3775  140.9513  143.2412 H   0  0  0  0  0  0  0  0  0  0  0  0  # atno 7974 bound_to 7965
  156.2911  140.2239  156.5032 H   0  0  0  0  0  0  0  0  0  0  0  0  # atno 8008 bound_to 7997
  154.7672  140.0469  157.1043 H   0  0  0  0  0  0  0  0  0  0  0  0  # atno 8009 bound_to 7997
  154.9918  140.3091  155.4906 H   0  0  0  0  0  0  0  0  0  0  0  0  # atno 8010 bound_to 7997
  140.6294  143.8028  150.7275 H   0  0  0  0  0  0  0  0  0  0  0  0  # atno 10167 bound_to 10162
  157.5971  130.9105  149.9715 H   0  0  0  0  0  0  0  0  0  0  0  0  # atno 10718 bound_to 10713
  153.4963  135.7017  153.5856 H   0  0  0  0  0  0  0  0  0  0  0  0  # atno 10763 bound_to 10752
  153.4007  135.3872  155.1986 H   0  0  0  0  0  0  0  0  0  0  0  0  # atno 10764 bound_to 10752
  154.8713  135.3881  154.4428 H   0  0  0  0  0  0  0  0  0  0  0  0  # atno 10765 bound_to 10752
  140.2430  134.3393  155.7918 H   0  0  0  0  0  0  0  0  0  0  0  0  # atno 11005 bound_to 11000
  144.8531  139.5291  143.6847 LP  0  0  0  0  0  0  0  0  0  0  0  0  # atno 17320 bound_to 7965
  146.2857  139.6998  142.9197 LP  0  0  0  0  0  0  0  0  0  0  0  0  # atno 17321 bound_to 7965
  140.1636  143.4254  152.2050 LP  0  0  0  0  0  0  0  0  0  0  0  0  # atno 17342 bound_to 10162
  139.5510  144.7337  151.4436 LP  0  0  0  0  0  0  0  0  0  0  0  0  # atno 17343 bound_to 10162
  156.1035  130.3654  150.0174 LP  0  0  0  0  0  0  0  0  0  0  0  0  # atno 17370 bound_to 10713
  156.8285  130.9384  151.3638 LP  0  0  0  0  0  0  0  0  0  0  0  0  # atno 17371 bound_to 10713
  141.2209  133.7309  156.8915 LP  0  0  0  0  0  0  0  0  0  0  0  0  # atno 17394 bound_to 11000
  140.1635  134.9149  157.2744 LP  0  0  0  0  0  0  0  0  0  0  0  0  # atno 17395 bound_to 11000

$$$$
