AV-unprocessed.smi:535|AV-procd|sdf|2859|dock1
  -GOLD-   2262023353D 1   1.00000     0.00000
 Structure written by MMmdl.
 46 48  0  0  0  0  0  0  0  0  1 V2000
  150.6476  137.5796  158.9147 C   0  0  0  0  0  0  0  0  0  0  0  0
  151.2172  138.7166  158.2901 O   0  0  0  0  0  0  0  0  0  0  0  0
  151.8389  138.4041  157.0556 C   0  0  0  0  0  0  0  0  0  0  0  0
  152.2050  139.7166  156.3431 C   0  0  0  0  0  0  0  0  0  0  0  0
  151.0274  140.4861  155.9523 N   0  0  0  0  0  0  0  0  0  0  0  0
  150.6487  141.7475  156.3152 C   0  0  0  0  0  0  0  0  0  0  0  0
  151.3724  142.5548  157.2053 N   0  0  0  0  0  0  0  0  0  0  0  0
  151.6476  143.9902  157.1014 C   0  0  0  0  0  0  0  0  0  0  0  0
  151.2825  144.7428  158.3934 C   0  0  0  0  0  0  0  0  0  0  0  0
  152.0503  144.1629  159.5870 C   0  0  0  0  0  0  0  0  0  0  0  0
  151.8519  142.6397  159.6517 C   0  0  2  0  0  0  0  0  0  0  0  0
  152.6746  142.0118  160.7848 C   0  0  0  0  0  0  0  0  0  0  0  0
  152.1945  142.0066  158.2876 C   0  0  0  0  0  0  0  0  0  0  0  0
  149.5319  142.1736  155.7150 N   0  0  0  0  0  0  0  0  0  0  0  0
  149.1593  141.1034  154.9202 C   0  0  0  0  0  0  0  0  0  0  0  0
  150.0474  140.0858  155.0398 C   0  0  0  0  0  0  0  0  0  0  0  0
  149.9162  138.8366  154.2755 C   0  0  0  0  0  0  0  0  0  0  0  0
  150.7148  137.9056  154.3524 O   0  0  0  0  0  0  0  0  0  0  0  0
  148.8269  138.8169  153.4697 N   0  0  0  0  0  0  0  0  0  0  0  0
  147.8944  139.8039  153.3078 C   0  0  0  0  0  0  0  0  0  0  0  0
  146.9554  139.6417  152.5286 O   0  0  0  0  0  0  0  0  0  0  0  0
  148.0533  140.9553  154.0353 N   0  0  0  0  0  0  0  0  0  0  0  0
  147.0875  142.0470  153.8986 C   0  0  0  0  0  0  0  0  0  0  0  0
  148.6905  137.9795  152.9225 H   0  0  0  0  0  0  0  0  0  0  0  0
  150.1935  137.8708  159.8618 H   0  0  0  0  0  0  0  0  0  0  0  0
  151.4047  136.8226  159.1231 H   0  0  0  0  0  0  0  0  0  0  0  0
  149.8703  137.1358  158.2913 H   0  0  0  0  0  0  0  0  0  0  0  0
  152.7303  137.8024  157.2337 H   0  0  0  0  0  0  0  0  0  0  0  0
  151.1694  137.8005  156.4431 H   0  0  0  0  0  0  0  0  0  0  0  0
  152.8551  140.3274  156.9640 H   0  0  0  0  0  0  0  0  0  0  0  0
  152.7926  139.5047  155.4500 H   0  0  0  0  0  0  0  0  0  0  0  0
  152.7090  144.1250  156.8887 H   0  0  0  0  0  0  0  0  0  0  0  0
  151.1288  144.4276  156.2544 H   0  0  0  0  0  0  0  0  0  0  0  0
  151.5095  145.8035  158.2847 H   0  0  0  0  0  0  0  0  0  0  0  0
  150.2107  144.6728  158.5797 H   0  0  0  0  0  0  0  0  0  0  0  0
  153.1113  144.3940  159.4823 H   0  0  0  0  0  0  0  0  0  0  0  0
  151.7168  144.6331  160.5126 H   0  0  0  0  0  0  0  0  0  0  0  0
  150.7990  142.4422  159.8598 H   0  0  0  0  0  0  0  0  0  0  0  0
  153.7430  142.1683  160.6329 H   0  0  0  0  0  0  0  0  0  0  0  0
  152.5011  140.9369  160.8452 H   0  0  0  0  0  0  0  0  0  0  0  0
  152.4076  142.4432  161.7499 H   0  0  0  0  0  0  0  0  0  0  0  0
  152.0483  140.9280  158.3519 H   0  0  0  0  0  0  0  0  0  0  0  0
  153.2485  142.1580  158.0509 H   0  0  0  0  0  0  0  0  0  0  0  0
  146.0754  141.6941  154.1007 H   0  0  0  0  0  0  0  0  0  0  0  0
  147.1119  142.4510  152.8859 H   0  0  0  0  0  0  0  0  0  0  0  0
  147.2846  142.8697  154.5854 H   0  0  0  0  0  0  0  0  0  0  0  0
  1  2  1  0  0  0  0
  1 25  1  0  0  0  0
  1 26  1  0  0  0  0
  1 27  1  0  0  0  0
  2  3  1  0  0  0  0
  3  4  1  0  0  0  0
  3 28  1  0  0  0  0
  3 29  1  0  0  0  0
  4  5  1  0  0  0  0
  4 30  1  0  0  0  0
  4 31  1  0  0  0  0
  5 16  1  0  0  0  0
  5  6  1  0  0  0  0
  6  7  1  0  0  0  0
  6 14  2  0  0  0  0
  7 13  1  0  0  0  0
  7  8  1  0  0  0  0
  8  9  1  0  0  0  0
  8 32  1  0  0  0  0
  8 33  1  0  0  0  0
  9 10  1  0  0  0  0
  9 34  1  0  0  0  0
  9 35  1  0  0  0  0
 10 11  1  0  0  0  0
 10 36  1  0  0  0  0
 10 37  1  0  0  0  0
 11 12  1  0  0  0  0
 11 13  1  0  0  0  0
 11 38  1  0  0  0  0
 12 39  1  0  0  0  0
 12 40  1  0  0  0  0
 12 41  1  0  0  0  0
 13 42  1  0  0  0  0
 13 43  1  0  0  0  0
 14 15  1  0  0  0  0
 15 22  1  0  0  0  0
 15 16  2  0  0  0  0
 16 17  1  0  0  0  0
 17 18  2  0  0  0  0
 17 19  1  0  0  0  0
 19 24  1  0  0  0  0
 19 20  1  0  0  0  0
 20 21  2  0  0  0  0
 20 22  1  0  0  0  0
 22 23  1  0  0  0  0
 23 44  1  0  0  0  0
 23 45  1  0  0  0  0
 23 46  1  0  0  0  0
M  END
> <s_m_source_file>
AV-unprocessed.smi

> <i_m_source_file_index>
535

> <i_lp_mmshare_version>
43012

> <i_f3d_flags>
0

> <s_epik_input>
W0NIM11uMWMoPU8pW25IXWMoPU8pYyhjMTIpbihbQ0gyXVtDSDJdT1tDSDNdKWMobjIpTjNbQ0gyXVtDSDJdW0NIMl1bQ0BASF0oW0NIM10pW0NIMl0z

> <s_epik_cmdline>
J2VwaWtfcHl0aG9uJywgJy1waCcsICc3LjAnLCAnLXRuJywgJzgnLCAnLW1hJywgJzIwMCcsICctbWV0YWxfYmluZGluZycsICctaW1hZScsICc8aW5maWxlLm1hZT4nLCAnLW9tYWUnLCAnPG91dGZpbGUubWFlPic=

> <r_lp_tautomer_probability>
1

> <r_epik_Ionization_Penalty>
0.00042181

> <r_epik_Ionization_Penalty_Charging>
0.000122112

> <r_epik_Ionization_Penalty_Neutral>
0.000299698

> <r_epik_State_Penalty>
-0

> <r_epik_Charging_Adjusted_Penalty>
0.000122112

> <i_epik_Tot_Q>
0

> <i_epik_Tot_abs_Q>
0

> <r_epik_Metal_State_Penalty>
0.0934894

> <b_epik_Metal_Only>
0

> <s_lp_Force_Field>
OPLS_2005

> <r_lp_Energy>
38.1768

> <b_lp_Chiralities_Consistent>
1

> <s_lp_Variant>
AV-unprocessed.smi:535-2

> <Gold.Version>
5.8.1

> <Gold.Id.Protein>
6NUR|6NUR_protein|mol2

> <Gold.PLP.Fitness>
47.2829

> <Gold.PLP.PLP>
-45.3161

> <Gold.PLP.part.hbond>
-2.0000

> <Gold.PLP.part.metal>
0.0000

> <Gold.PLP.part.buried>
-4.2377

> <Gold.PLP.part.nonpolar>
-43.1503

> <Gold.PLP.part.repulsive>
3.9052

> <Gold.PLP.ligand.clash>
0.0000

> <Gold.PLP.ligand.torsion>
0.5274

> <Gold.PLP.Chemscore.Hbond>
0.9913

> <Gold.PLP.Chemscore.CHOScore>
0.0000

> <Gold.PLP.Chemscore.Metal>
0.0000

> <Gold.Chemscore.Hbonds>
donor molecule, donor type, donor heavy atom, donor atom, acceptor molecule, acceptor atom, score
      L1  H    19    24       P1  7948  0.98

> <Gold.PLP.Chemscore.Internal.Correction>
0.0477

> <Gold.Rescore>
     Score         DG    S(hbond)    S(metal)    S(lipo)     H(rot)  DE(clash)    DE(int)     intcor
     13.72     -15.76       0.98        0.00      91.88       1.46       0.36       1.68       ----

> <Gold.Chemscore.Fitness>
13.7216

> <Gold.Chemscore.DG>
-15.7615

> <Gold.Chemscore.ZeroCoef>
-5.4800

> <Gold.Chemscore.Hbond>
0.9755

> <Gold.Chemscore.Metal>
0.0000

> <Gold.Chemscore.Lipo>
91.8809

> <Gold.Chemscore.Internal_Hbond>
0.0000

> <Gold.Chemscore.DEClash>
0.3604

> <Gold.Chemscore.DEInternal>
1.6794

> <Gold.Chemscore.Rot>
1.4557

> <Gold.Chemscore.Internal.Correction>
   9.000000E+99

> <Gold.Chemscore.Hbonds>
donor molecule, donor type, donor heavy atom, donor atom, acceptor molecule, acceptor atom, score
      L1  H    19    24       P1  7948  0.92

> <Gold.Chemscore.Hbond.Weighted>
-3.2581

> <Gold.Chemscore.Metal.Weighted>
-0.0000

> <Gold.Chemscore.Lipo.Weighted>
-10.7501

> <Gold.Chemscore.Internal_Hbond.Weighted>
0.0000

> <Gold.Chemscore.DEClash.Weighted>
0.3604

> <Gold.Chemscore.DEInternal.Weighted>
1.6794

> <Gold.Chemscore.Rot.Weighted>
3.7267

> <Gold.Chemscore.Internal.Correction.Weighted>
   9.000000E+99

> <Gold.Protein.RotatedTorsions>
[ 6907 6896 6895 6894 ] final  -42.43 input  -60.11 | X-H torsion
[ 7974 7965 7964 7962 ] final   66.18 input  175.53 | X-H torsion
[ 8008 7997 7996 7995 ] final   16.72 input   59.86 | X-H torsion
[ 10167 10162 10161 10158 ] final   76.22 input  -65.29 | X-H torsion
[ 10718 10713 10712 10709 ] final  -95.88 input   66.30 | X-H torsion
[ 10763 10752 10751 10750 ] final    3.59 input  -60.55 | X-H torsion
[ 11005 11000 10999 10996 ] final  154.89 input  -57.11 | X-H torsion

> <Gold.Protein.ActiveResidues>
 VAL166  LYS551  ARG553  GLY616  TRP617  ASP618  TYR619  PRO620  LYS621  CYS622 
 ASP623  PHE694  ASN695  SER759  ASP760  ASP761  ALA762  ILE779  LEU786  VAL792 
 PHE793  MET794  SER795  GLU796  ALA797  LYS798  CYS799  TRP800  GLU811  SER814 

> <Gold.Protein.RotatedAtoms>
  150.9553  134.8948  159.7696 H   0  0  0  0  0  0  0  0  0  0  0  0  # atno 6907 bound_to 6896
  152.5135  134.3749  159.9341 H   0  0  0  0  0  0  0  0  0  0  0  0  # atno 6908 bound_to 6896
  151.3763  133.3796  159.2740 H   0  0  0  0  0  0  0  0  0  0  0  0  # atno 6909 bound_to 6896
  145.8297  139.3132  143.0994 H   0  0  0  0  0  0  0  0  0  0  0  0  # atno 7974 bound_to 7965
  154.8810  140.2973  155.5425 H   0  0  0  0  0  0  0  0  0  0  0  0  # atno 8008 bound_to 7997
  156.3022  140.2442  156.3747 H   0  0  0  0  0  0  0  0  0  0  0  0  # atno 8009 bound_to 7997
  154.8717  140.0401  157.1717 H   0  0  0  0  0  0  0  0  0  0  0  0  # atno 8010 bound_to 7997
  139.9946  144.5731  150.7789 H   0  0  0  0  0  0  0  0  0  0  0  0  # atno 10167 bound_to 10162
  156.0051  130.5128  150.6143 H   0  0  0  0  0  0  0  0  0  0  0  0  # atno 10718 bound_to 10713
  153.2815  135.6941  153.7381 H   0  0  0  0  0  0  0  0  0  0  0  0  # atno 10763 bound_to 10752
  153.6367  135.3400  155.3059 H   0  0  0  0  0  0  0  0  0  0  0  0  # atno 10764 bound_to 10752
  154.8496  135.4422  154.1869 H   0  0  0  0  0  0  0  0  0  0  0  0  # atno 10765 bound_to 10752
  140.1531  134.8661  157.2480 H   0  0  0  0  0  0  0  0  0  0  0  0  # atno 11005 bound_to 11000
  145.9584  140.8854  143.0223 LP  0  0  0  0  0  0  0  0  0  0  0  0  # atno 17320 bound_to 7965
  144.6741  140.1778  143.7408 LP  0  0  0  0  0  0  0  0  0  0  0  0  # atno 17321 bound_to 7965
  140.7442  143.2857  151.3471 LP  0  0  0  0  0  0  0  0  0  0  0  0  # atno 17342 bound_to 10162
  139.6315  144.0711  152.2480 LP  0  0  0  0  0  0  0  0  0  0  0  0  # atno 17343 bound_to 10162
  157.3970  131.0804  151.1343 LP  0  0  0  0  0  0  0  0  0  0  0  0  # atno 17370 bound_to 10713
  157.2017  130.6397  149.5741 LP  0  0  0  0  0  0  0  0  0  0  0  0  # atno 17371 bound_to 10713
  140.2580  134.3604  155.7417 LP  0  0  0  0  0  0  0  0  0  0  0  0  # atno 17394 bound_to 11000
  141.2201  133.7353  156.9037 LP  0  0  0  0  0  0  0  0  0  0  0  0  # atno 17395 bound_to 11000

$$$$
