#       Name:                AV-unprocessed.smi:88
#       Creating user name   scv26
#       Creation time:       Thu Mar 26 17:23:35 2020


#       File generated by GOLD software.
#

@<TRIPOS>MOLECULE
AV-unprocessed.smi:88
    66    70     1
SMALL
NO_CHARGES


@<TRIPOS>ATOM
      1 ****        -6.7501   0.0196   0.7672 C.3            1 S1                 0.0000
      2 ****        -5.8113  -1.1043   0.7403 N.am           1 S1                 0.0000
      3 ****        -6.1737  -2.3971   0.7082 C.2            1 S1                 0.0000
      4 ****        -7.3218  -2.8376   0.7069 O.2            1 S1                 0.0000
      5 ****        -5.0710  -3.1434   0.6747 N.am           1 S1                 0.0000
      6 ****        -3.8511  -2.3702   0.6776 C.3            1 S1                 0.0000
      7 ****        -4.3550  -0.9117   0.7312 C.3            1 S1                 0.0000
      8 ****        -3.8965  -0.1002  -0.5066 C.3            1 S1                 0.0000
      9 ****        -2.3802   0.1639  -0.4866 C.3            1 S1                 0.0000
     10 ****        -1.9826   0.8033   0.7645 N.3            1 S1                 0.0000
     11 ****        -0.7020   1.2282   0.7672 C.ar           1 S1                 0.0000
     12 ****        -0.4930   2.5656   0.8302 N.ar           1 S1                 0.0000
     13 ****         0.7543   3.0460   0.8370 C.ar           1 S1                 0.0000
     14 ****         1.9085   2.3761   0.7899 N.ar           1 S1                 0.0000
     15 ****         1.6984   1.0294   0.7257 C.ar           1 S1                 0.0000
     16 ****         0.4353   0.3742   0.7097 C.ar           1 S1                 0.0000
     17 ****         0.6151  -1.0021   0.6392 N.2            1 S1                 0.0000
     18 ****         1.9115  -1.1518   0.6136 C.2            1 S1                 0.0000
     19 ****         2.6388   0.0164   0.6572 N.pl3          1 S1                 0.0000
     20 ****         4.0882   0.1414   0.6412 C.3            1 S1                 0.0000
     21 ****         4.7030   0.1209  -0.7799 C.3            1 S1                 0.0000
     22 ****         4.4542  -1.1592  -1.3358 O.3            1 S1                 0.0000
     23 ****         4.0864   1.1877  -1.7114 C.3            1 S1                 0.0000
     24 ****         4.8427   1.2981  -3.0474 C.3            1 S1                 0.0000
     25 ****         6.2240   1.5428  -2.8119 O.3            1 S1                 0.0000
     26 ****         6.8580   0.4835  -2.1055 C.3            1 S1                 0.0000
     27 ****         6.2285   0.3329  -0.7093 C.3            1 S1                 0.0000
     28 ****        -2.3536   0.0790   1.9767 C.3            1 S1                 0.0000
     29 ****        -3.8695  -0.1861   2.0114 C.3            1 S1                 0.0000
     30 ****        -7.7883  -0.3114   0.8117 H              1 S1                 0.0000
     31 ****        -6.6470   0.6324  -0.1276 H              1 S1                 0.0000
     32 ****        -6.5799   0.6520   1.6374 H              1 S1                 0.0000
     33 ****        -5.0745  -4.1527   0.6457 H              1 S1                 0.0000
     34 ****        -3.2463  -2.6466   1.5417 H              1 S1                 0.0000
     35 ****        -3.2783  -2.5917  -0.2234 H              1 S1                 0.0000
     36 ****        -4.1735  -0.6150  -1.4274 H              1 S1                 0.0000
     37 ****        -4.4043   0.8642  -0.5311 H              1 S1                 0.0000
     38 ****        -1.8347  -0.7714  -0.6135 H              1 S1                 0.0000
     39 ****        -2.1085   0.8045  -1.3268 H              1 S1                 0.0000
     40 ****         0.8393   4.1215   0.8874 H              1 S1                 0.0000
     41 ****         2.3773  -2.1250   0.5570 H              1 S1                 0.0000
     42 ****         4.3520   1.0702   1.1485 H              1 S1                 0.0000
     43 ****         4.5066  -0.6631   1.2479 H              1 S1                 0.0000
     44 ****         4.8340  -1.1899  -2.2008 H              1 S1                 0.0000
     45 ****         3.0338   0.9766  -1.9043 H              1 S1                 0.0000
     46 ****         4.1179   2.1582  -1.2147 H              1 S1                 0.0000
     47 ****         4.7194   0.3939  -3.6455 H              1 S1                 0.0000
     48 ****         4.4374   2.1215  -3.6357 H              1 S1                 0.0000
     49 ****         6.7854  -0.4450  -2.6737 H              1 S1                 0.0000
     50 ****         7.9197   0.7120  -2.0117 H              1 S1                 0.0000
     51 ****         6.4403   1.2381  -0.1387 H              1 S1                 0.0000
     52 ****         6.7054  -0.4862  -0.1693 H              1 S1                 0.0000
     53 ****        -1.8056  -0.8622   2.0260 H              1 S1                 0.0000
     54 ****        -2.0631   0.6595   2.8534 H              1 S1                 0.0000
     55 ****        -4.3743   0.7746   2.1129 H              1 S1                 0.0000
     56 ****        -4.1280  -0.7622   2.9007 H              1 S1                 0.0000
     57 ****        -8.0987  -2.2085   0.7315 LP             1 S1                 0.0000
     58 ****        -7.4785  -3.8250   0.6812 LP             1 S1                 0.0000
     59 ****        -2.5462   1.6287   0.7972 LP             1 S1                 0.0000
     60 ****        -1.2710   3.1924   0.8715 LP             1 S1                 0.0000
     61 ****         2.8112   2.8062   0.8003 LP             1 S1                 0.0000
     62 ****        -0.0869  -1.7138   0.6139 LP             1 S1                 0.0000
     63 ****         3.4683  -1.3155  -1.3947 LP             1 S1                 0.0000
     64 ****         4.8695  -1.8635  -0.7600 LP             1 S1                 0.0000
     65 ****         6.3131   2.3825  -2.2763 LP             1 S1                 0.0000
     66 ****         6.6828   1.6591  -3.6928 LP             1 S1                 0.0000
@<TRIPOS>BOND
    1    1    2 1     
    2    1   30 1     
    3    1   31 1     
    4    1   32 1     
    5    2    7 1     
    6    2    3 am    
    7    3    4 2     
    8    3    5 am    
    9    5    6 1     
   10    5   33 1     
   11    6    7 1     
   12    6   34 1     
   13    6   35 1     
   14    7   29 1     
   15    7    8 1     
   16    8    9 1     
   17    8   36 1     
   18    8   37 1     
   19    9   10 1     
   20    9   38 1     
   21    9   39 1     
   22   10   11 1     
   23   10   28 1     
   24   11   16 ar    
   25   11   12 ar    
   26   12   13 ar    
   27   13   14 ar    
   28   13   40 1     
   29   14   15 ar    
   30   15   19 1     
   31   15   16 ar    
   32   16   17 1     
   33   17   18 2     
   34   18   19 1     
   35   18   41 1     
   36   19   20 1     
   37   20   21 1     
   38   20   42 1     
   39   20   43 1     
   40   21   27 1     
   41   21   22 1     
   42   21   23 1     
   43   22   44 1     
   44   23   24 1     
   45   23   45 1     
   46   23   46 1     
   47   24   25 1     
   48   24   47 1     
   49   24   48 1     
   50   25   26 1     
   51   26   27 1     
   52   26   49 1     
   53   26   50 1     
   54   27   51 1     
   55   27   52 1     
   56   28   29 1     
   57   28   53 1     
   58   28   54 1     
   59   29   55 1     
   60   29   56 1     
   61    4   57 1     
   62    4   58 1     
   63   10   59 1     
   64   12   60 1     
   65   14   61 1     
   66   17   62 1     
   67   22   63 1     
   68   22   64 1     
   69   25   65 1     
   70   25   66 1     
@<TRIPOS>SUBSTRUCTURE
      1 S1             1
@<TRIPOS>SET
LONE_PAIRS      STATIC     ATOMS    <user>   **** ""
10 57 58 59 60 61 62 63 64 65 66
DONOR_HYDROGENS      STATIC     ATOMS    <user>   **** ""
2 33 44
ATOM$BLUE        STATIC     ATOMS    COLORGROUP SYSTEM
10 57 58 59 60 61 62 63 64 65 66
ATOM$RED        STATIC     ATOMS    COLORGROUP SYSTEM
2 33 44
