AV-unprocessed.smi:3181|AV-procd|sdf|12145|dock10
  -GOLD-   2272017583D 1   1.00000     0.00000
 Structure written by MMmdl.
 42 43  0  0  0  0  0  0  0  0  2 V2000
  150.0023  140.6480  158.0663 C   0  0  0  0  0  0  0  0  0  0  0  0
  149.8204  141.7761  157.0362 C   0  0  2  0  0  0  0  0  0  0  0  0
  150.7423  141.6186  155.8096 C   0  0  0  0  0  0  0  0  0  0  0  0
  150.5741  140.3458  155.1320 N   0  0  0  0  0  0  0  0  0  0  0  0
  151.4289  139.3377  154.9509 C   0  0  0  0  0  0  0  0  0  0  0  0
  150.9213  138.3228  154.2656 N   0  0  0  0  0  0  0  0  0  0  0  0
  149.6658  138.8088  154.0326 C   0  0  0  0  0  0  0  0  0  0  0  0
  149.4073  140.0197  154.5278 N   0  0  0  0  0  0  0  0  0  0  0  0
  150.0684  143.0878  157.6768 N   0  3  0  0  0  0  0  0  0  0  0  0
  151.4598  143.5947  157.6073 C   0  0  1  0  0  0  0  0  0  0  0  0
  151.6294  144.9510  158.3195 C   0  0  0  0  0  0  0  0  0  0  0  0
  151.5029  144.8182  159.8444 C   0  0  0  0  0  0  0  0  0  0  0  0
  152.4985  143.7927  160.4221 C   0  0  1  0  0  0  0  0  0  0  0  0
  152.3384  143.7169  161.9510 C   0  0  0  0  0  0  0  0  0  0  0  0
  152.3333  142.4159  159.7257 C   0  0  2  0  0  0  0  0  0  0  0  0
  153.3488  141.3701  160.2201 C   0  0  0  0  0  0  0  0  0  0  0  0
  152.4398  142.5606  158.1907 C   0  0  0  0  0  0  0  0  0  0  0  0
  149.7506  139.6750  157.6436 H   0  0  0  0  0  0  0  0  0  0  0  0
  149.3587  140.7967  158.9333 H   0  0  0  0  0  0  0  0  0  0  0  0
  151.0320  140.5987  158.4221 H   0  0  0  0  0  0  0  0  0  0  0  0
  148.7889  141.7398  156.6818 H   0  0  0  0  0  0  0  0  0  0  0  0
  150.5516  142.4145  155.0881 H   0  0  0  0  0  0  0  0  0  0  0  0
  151.7878  141.7115  156.1082 H   0  0  0  0  0  0  0  0  0  0  0  0
  152.4406  139.3437  155.3298 H   0  0  0  0  0  0  0  0  0  0  0  0
  148.9207  138.2544  153.4812 H   0  0  0  0  0  0  0  0  0  0  0  0
  149.4504  143.7752  157.2696 H   0  0  0  0  0  0  0  0  0  0  0  0
  151.7047  143.7184  156.5512 H   0  0  0  0  0  0  0  0  0  0  0  0
  152.6154  145.3536  158.0832 H   0  0  0  0  0  0  0  0  0  0  0  0
  150.9142  145.6841  157.9467 H   0  0  0  0  0  0  0  0  0  0  0  0
  151.6694  145.7940  160.3022 H   0  0  0  0  0  0  0  0  0  0  0  0
  150.4835  144.5309  160.1049 H   0  0  0  0  0  0  0  0  0  0  0  0
  153.5061  144.1577  160.2167 H   0  0  0  0  0  0  0  0  0  0  0  0
  151.3744  143.2902  162.2297 H   0  0  0  0  0  0  0  0  0  0  0  0
  152.4029  144.7085  162.3998 H   0  0  0  0  0  0  0  0  0  0  0  0
  153.1196  143.1130  162.4113 H   0  0  0  0  0  0  0  0  0  0  0  0
  151.3378  142.0354  159.9589 H   0  0  0  0  0  0  0  0  0  0  0  0
  154.3739  141.7175  160.0866 H   0  0  0  0  0  0  0  0  0  0  0  0
  153.2438  140.4331  159.6728 H   0  0  0  0  0  0  0  0  0  0  0  0
  153.2084  141.1354  161.2746 H   0  0  0  0  0  0  0  0  0  0  0  0
  152.2815  141.5938  157.7108 H   0  0  0  0  0  0  0  0  0  0  0  0
  153.4574  142.8581  157.9328 H   0  0  0  0  0  0  0  0  0  0  0  0
  149.8322  142.9918  158.6540 H   0  0  0  0  0  0  0  0  0  0  0  0
  1  2  1  0  0  0  0
  1 18  1  0  0  0  0
  1 19  1  0  0  0  0
  1 20  1  0  0  0  0
  2  3  1  0  0  0  0
  2  9  1  0  0  0  0
  2 21  1  0  0  0  0
  3  4  1  0  0  0  0
  3 22  1  0  0  0  0
  3 23  1  0  0  0  0
  4  8  1  0  0  0  0
  4  5  1  0  0  0  0
  5  6  2  0  0  0  0
  5 24  1  0  0  0  0
  6  7  1  0  0  0  0
  7  8  2  0  0  0  0
  7 25  1  0  0  0  0
  9 10  1  0  0  0  0
  9 26  1  0  0  0  0
  9 42  1  0  0  0  0
 10 17  1  0  0  0  0
 10 11  1  0  0  0  0
 10 27  1  0  0  0  0
 11 12  1  0  0  0  0
 11 28  1  0  0  0  0
 11 29  1  0  0  0  0
 12 13  1  0  0  0  0
 12 30  1  0  0  0  0
 12 31  1  0  0  0  0
 13 14  1  0  0  0  0
 13 15  1  0  0  0  0
 13 32  1  0  0  0  0
 14 33  1  0  0  0  0
 14 34  1  0  0  0  0
 14 35  1  0  0  0  0
 15 16  1  0  0  0  0
 15 17  1  0  0  0  0
 15 36  1  0  0  0  0
 16 37  1  0  0  0  0
 16 38  1  0  0  0  0
 16 39  1  0  0  0  0
 17 40  1  0  0  0  0
 17 41  1  0  0  0  0
M  CHG  1   9   1
M  END
> <s_m_source_file>
AV-unprocessed.smi

> <i_m_source_file_index>
3181

> <i_lp_mmshare_version>
43012

> <i_f3d_flags>
0

> <s_epik_input>
bjFbY0hdbltjSF1uMVtDSDJdW0NAQEhdKFtDSDNdKVtOSF1bQ0BASF0yW0NIMl1bQ0gyXVtDQEBIXShbQ0gzXSlbQ0BASF0oW0NIM10pW0NIMl0y

> <s_epik_cmdline>
J2VwaWtfcHl0aG9uJywgJy1waCcsICc3LjAnLCAnLXRuJywgJzgnLCAnLW1hJywgJzIwMCcsICctbWV0YWxfYmluZGluZycsICctaW1hZScsICc8aW5maWxlLm1hZT4nLCAnLW9tYWUnLCAnPG91dGZpbGUubWFlPic=

> <r_lp_tautomer_probability>
1

> <r_epik_Ionization_Penalty>
0.000617007

> <r_epik_Ionization_Penalty_Charging>
0.000616215

> <r_epik_Ionization_Penalty_Neutral>
7.92544e-07

> <r_epik_State_Penalty>
0.000388807

> <r_epik_Charging_Adjusted_Penalty>
0.00100502

> <i_epik_Tot_Q>
1

> <i_epik_Tot_abs_Q>
1

> <r_epik_Metal_State_Penalty>
-0

> <b_epik_Metal_Only>
0

> <s_lp_Force_Field>
OPLS_2005

> <r_lp_Energy>
23.0816

> <b_lp_Chiralities_Consistent>
1

> <s_lp_Variant>
AV-unprocessed.smi:3181-11

> <Gold.Version>
5.8.1

> <Gold.Id.Protein>
6NUR|6NUR_protein|mol2

> <Gold.PLP.Fitness>
50.1329

> <Gold.PLP.PLP>
-41.8902

> <Gold.PLP.part.hbond>
-1.0000

> <Gold.PLP.part.metal>
0.0000

> <Gold.PLP.part.buried>
-3.7417

> <Gold.PLP.part.nonpolar>
-36.1646

> <Gold.PLP.part.repulsive>
0.2985

> <Gold.PLP.ligand.clash>
0.0000

> <Gold.PLP.ligand.torsion>
0.3856

> <Gold.PLP.Chemscore.Hbond>
2.0000

> <Gold.PLP.Chemscore.CHOScore>
0.9979

> <Gold.PLP.Chemscore.Metal>
0.0000

> <Gold.Chemscore.Hbonds>
donor molecule, donor type, donor heavy atom, donor atom, acceptor molecule, acceptor atom, score
      L1  H     9    26       P1  8028  1.92
      L1  C     7    25       P1  7948  0.91

> <Gold.PLP.Chemscore.Internal.Correction>
0.0202

> <Gold.Rescore>
     Score         DG    S(hbond)    S(metal)    S(lipo)     H(rot)  DE(clash)    DE(int)     intcor
     14.43     -15.95       0.96        0.00     108.33       2.11       0.09       1.43       ----

> <Gold.Chemscore.Fitness>
14.4344

> <Gold.Chemscore.DG>
-15.9519

> <Gold.Chemscore.ZeroCoef>
-5.4800

> <Gold.Chemscore.Hbond>
0.9575

> <Gold.Chemscore.Metal>
0.0000

> <Gold.Chemscore.Lipo>
108.3267

> <Gold.Chemscore.Internal_Hbond>
0.0000

> <Gold.Chemscore.DEClash>
0.0887

> <Gold.Chemscore.DEInternal>
1.4288

> <Gold.Chemscore.Rot>
2.1095

> <Gold.Chemscore.Internal.Correction>
   9.000000E+99

> <Gold.Chemscore.Hbonds>
donor molecule, donor type, donor heavy atom, donor atom, acceptor molecule, acceptor atom, score
      L1  H     9    26       P1  8028  0.55

> <Gold.Chemscore.Hbond.Weighted>
-3.1980

> <Gold.Chemscore.Metal.Weighted>
-0.0000

> <Gold.Chemscore.Lipo.Weighted>
-12.6742

> <Gold.Chemscore.Internal_Hbond.Weighted>
0.0000

> <Gold.Chemscore.DEClash.Weighted>
0.0887

> <Gold.Chemscore.DEInternal.Weighted>
1.4288

> <Gold.Chemscore.Rot.Weighted>
5.4003

> <Gold.Chemscore.Internal.Correction.Weighted>
   9.000000E+99

> <Gold.Protein.RotatedTorsions>
[ 6907 6896 6895 6894 ] final   67.09 input  -60.11 | X-H torsion
[ 7974 7965 7964 7962 ] final   65.49 input  175.53 | X-H torsion
[ 8008 7997 7996 7995 ] final  -16.68 input   59.86 | X-H torsion
[ 10167 10162 10161 10158 ] final   76.52 input  -65.29 | X-H torsion
[ 10718 10713 10712 10709 ] final   91.43 input   66.30 | X-H torsion
[ 10763 10752 10751 10750 ] final  -69.15 input  -60.55 | X-H torsion
[ 11005 11000 10999 10996 ] final  124.73 input  -57.11 | X-H torsion

> <Gold.Protein.ActiveResidues>
 VAL166  LYS551  ARG553  GLY616  TRP617  ASP618  TYR619  PRO620  LYS621  CYS622 
 ASP623  PHE694  ASN695  SER759  ASP760  ASP761  ALA762  ILE779  LEU786  VAL792 
 PHE793  MET794  SER795  GLU796  ALA797  LYS798  CYS799  TRP800  GLU811  SER814 

> <Gold.Protein.RotatedAtoms>
  152.4528  134.5358  159.9824 H   0  0  0  0  0  0  0  0  0  0  0  0  # atno 6907 bound_to 6896
  151.5426  133.3424  159.2946 H   0  0  0  0  0  0  0  0  0  0  0  0  # atno 6908 bound_to 6896
  150.8462  134.7802  159.7035 H   0  0  0  0  0  0  0  0  0  0  0  0  # atno 6909 bound_to 6896
  145.8379  139.3177  143.0949 H   0  0  0  0  0  0  0  0  0  0  0  0  # atno 7974 bound_to 7965
  154.5035  140.2163  155.9299 H   0  0  0  0  0  0  0  0  0  0  0  0  # atno 8008 bound_to 7997
  156.1463  140.3170  155.8543 H   0  0  0  0  0  0  0  0  0  0  0  0  # atno 8009 bound_to 7997
  155.4024  140.0485  157.3027 H   0  0  0  0  0  0  0  0  0  0  0  0  # atno 8010 bound_to 7997
  139.9913  144.5754  150.7815 H   0  0  0  0  0  0  0  0  0  0  0  0  # atno 10167 bound_to 10162
  157.6960  131.0407  150.3728 H   0  0  0  0  0  0  0  0  0  0  0  0  # atno 10718 bound_to 10713
  154.3992  135.6035  153.5887 H   0  0  0  0  0  0  0  0  0  0  0  0  # atno 10763 bound_to 10752
  152.9788  135.5902  154.4204 H   0  0  0  0  0  0  0  0  0  0  0  0  # atno 10764 bound_to 10752
  154.4000  135.2843  155.2080 H   0  0  0  0  0  0  0  0  0  0  0  0  # atno 10765 bound_to 10752
  139.9372  134.9638  156.8453 H   0  0  0  0  0  0  0  0  0  0  0  0  # atno 11005 bound_to 11000
  145.9498  140.8917  143.0265 LP  0  0  0  0  0  0  0  0  0  0  0  0  # atno 17320 bound_to 7965
  144.6735  140.1665  143.7418 LP  0  0  0  0  0  0  0  0  0  0  0  0  # atno 17321 bound_to 7965
  140.7453  143.2874  151.3425 LP  0  0  0  0  0  0  0  0  0  0  0  0  # atno 17342 bound_to 10162
  139.6338  144.0670  152.2498 LP  0  0  0  0  0  0  0  0  0  0  0  0  # atno 17343 bound_to 10162
  156.4151  130.3942  149.6864 LP  0  0  0  0  0  0  0  0  0  0  0  0  # atno 17370 bound_to 10713
  156.4135  130.7733  151.2748 LP  0  0  0  0  0  0  0  0  0  0  0  0  # atno 17371 bound_to 10713
  140.6044  134.0142  155.7550 LP  0  0  0  0  0  0  0  0  0  0  0  0  # atno 17394 bound_to 11000
  141.0992  133.9796  157.3109 LP  0  0  0  0  0  0  0  0  0  0  0  0  # atno 17395 bound_to 11000

$$$$
