#       Name:                AV-unprocessed.smi:2806
#       Creating user name   scv26
#       Creation time:       Fri Mar 27 15:25:15 2020


#       File generated by GOLD software.
#

@<TRIPOS>MOLECULE
AV-unprocessed.smi:2806
    53    54     1
SMALL
NO_CHARGES


@<TRIPOS>ATOM
      1 ****        -3.5077   2.5383  -0.3739 C.3            1 S1                 0.0000
      2 ****        -2.8923   1.2476  -0.9409 C.3            1 S1                 0.0000
      3 ****        -1.4643   1.0992  -0.3870 C.3            1 S1                 0.0000
      4 ****        -3.7575   0.0513  -0.5037 C.3            1 S1                 0.0000
      5 ****        -2.8877   1.3940  -2.7646 S.3            1 S1                 0.0000
      6 ****        -2.0207  -0.0873  -3.3781 C.3            1 S1                 0.0000
      7 ****        -0.4979   0.0508  -3.4103 C.2            1 S1                 0.0000
      8 ****         0.0242   1.1148  -3.7435 O.2            1 S1                 0.0000
      9 ****         0.2054  -1.0323  -3.0470 N.am           1 S1                 0.0000
     10 ****         1.6585  -1.0791  -2.9410 C.3            1 S1                 0.0000
     11 ****         2.1733  -0.4394  -1.6632 C.ar           1 S1                 0.0000
     12 ****         3.1007   0.6191  -1.7131 C.ar           1 S1                 0.0000
     13 ****         3.5421   1.1763  -0.4991 C.ar           1 S1                 0.0000
     14 ****         3.1222   0.7457   0.7090 N.ar           1 S1                 0.0000
     15 ****         2.2265  -0.2709   0.7695 C.ar           1 S1                 0.0000
     16 ****         1.8011  -0.7125   2.0412 N.3            1 S1                 0.0000
     17 ****         2.5241  -0.2275   3.2155 C.3            1 S1                 0.0000
     18 ****         2.1282  -1.0392   4.4604 C.3            1 S1                 0.0000
     19 ****         0.7150  -1.0013   4.6293 O.3            1 S1                 0.0000
     20 ****         0.0329  -1.5769   3.5201 C.3            1 S1                 0.0000
     21 ****         0.3564  -0.7840   2.2425 C.3            1 S1                 0.0000
     22 ****         1.7315  -0.8919  -0.4021 C.ar           1 S1                 0.0000
     23 ****        -3.5504   2.5165   0.7157 H              1 S1                 0.0000
     24 ****        -4.5248   2.6867  -0.7387 H              1 S1                 0.0000
     25 ****        -2.9246   3.4140  -0.6617 H              1 S1                 0.0000
     26 ****        -0.8015   1.8745  -0.7731 H              1 S1                 0.0000
     27 ****        -1.0320   0.1317  -0.6375 H              1 S1                 0.0000
     28 ****        -1.4578   1.1746   0.7003 H              1 S1                 0.0000
     29 ****        -3.8545   0.0131   0.5819 H              1 S1                 0.0000
     30 ****        -3.3306  -0.9001  -0.8177 H              1 S1                 0.0000
     31 ****        -4.7631   0.1168  -0.9206 H              1 S1                 0.0000
     32 ****        -2.3212  -0.9661  -2.8095 H              1 S1                 0.0000
     33 ****        -2.3505  -0.2581  -4.4030 H              1 S1                 0.0000
     34 ****        -0.3005  -1.8672  -2.7895 H              1 S1                 0.0000
     35 ****         1.9694  -2.1239  -2.9537 H              1 S1                 0.0000
     36 ****         2.1158  -0.6107  -3.8143 H              1 S1                 0.0000
     37 ****         3.4646   1.0001  -2.6558 H              1 S1                 0.0000
     38 ****         4.2532   1.9891  -0.4974 H              1 S1                 0.0000
     39 ****         3.6004  -0.3100   3.0587 H              1 S1                 0.0000
     40 ****         2.2958   0.8281   3.3696 H              1 S1                 0.0000
     41 ****         2.4675  -2.0728   4.3747 H              1 S1                 0.0000
     42 ****         2.6037  -0.6209   5.3477 H              1 S1                 0.0000
     43 ****         0.3149  -2.6254   3.4090 H              1 S1                 0.0000
     44 ****        -1.0398  -1.5547   3.7132 H              1 S1                 0.0000
     45 ****        -0.0330   0.2308   2.3301 H              1 S1                 0.0000
     46 ****        -0.1498  -1.2478   1.3973 H              1 S1                 0.0000
     47 ****         1.0335  -1.7139  -0.3460 H              1 S1                 0.0000
     48 ****        -0.5480   1.8953  -3.9952 LP             1 S1                 0.0000
     49 ****         1.0205   1.1985  -3.7625 LP             1 S1                 0.0000
     50 ****         3.4662   1.1697   1.5468 LP             1 S1                 0.0000
     51 ****         2.1092  -1.6617   1.9768 LP             1 S1                 0.0000
     52 ****         0.4265  -0.0489   4.7277 LP             1 S1                 0.0000
     53 ****         0.4744  -1.5096   5.4562 LP             1 S1                 0.0000
@<TRIPOS>BOND
    1    1    2 1     
    2    1   23 1     
    3    1   24 1     
    4    1   25 1     
    5    2    3 1     
    6    2    4 1     
    7    2    5 1     
    8    3   26 1     
    9    3   27 1     
   10    3   28 1     
   11    4   29 1     
   12    4   30 1     
   13    4   31 1     
   14    5    6 1     
   15    6    7 1     
   16    6   32 1     
   17    6   33 1     
   18    7    8 2     
   19    7    9 am    
   20    9   10 1     
   21    9   34 1     
   22   10   11 1     
   23   10   35 1     
   24   10   36 1     
   25   11   22 ar    
   26   11   12 ar    
   27   12   13 ar    
   28   12   37 1     
   29   13   14 ar    
   30   13   38 1     
   31   14   15 ar    
   32   15   16 1     
   33   15   22 ar    
   34   16   21 1     
   35   16   17 1     
   36   17   18 1     
   37   17   39 1     
   38   17   40 1     
   39   18   19 1     
   40   18   41 1     
   41   18   42 1     
   42   19   20 1     
   43   20   21 1     
   44   20   43 1     
   45   20   44 1     
   46   21   45 1     
   47   21   46 1     
   48   22   47 1     
   49    8   48 1     
   50    8   49 1     
   51   14   50 1     
   52   16   51 1     
   53   19   52 1     
   54   19   53 1     
@<TRIPOS>SUBSTRUCTURE
      1 S1             1
@<TRIPOS>SET
LONE_PAIRS      STATIC     ATOMS    <user>   **** ""
6 48 49 50 51 52 53
DONOR_HYDROGENS      STATIC     ATOMS    <user>   **** ""
1 34
ATOM$BLUE        STATIC     ATOMS    COLORGROUP SYSTEM
6 48 49 50 51 52 53
ATOM$RED        STATIC     ATOMS    COLORGROUP SYSTEM
1 34
