AV-unprocessed.smi:1978|AV-procd|sdf|8015|dock7
  -GOLD-   2272010203D 1   1.00000     0.00000
 Structure written by MMmdl.
 44 45  0  0  0  0  0  0  0  0  3 V2000
  151.4179  145.2106  160.3011 C   0  0  0  0  0  0  0  0  0  0  0  0
  151.1402  143.9975  159.4816 C   0  0  0  0  0  0  0  0  0  0  0  0
  151.3045  143.7139  158.1553 C   0  0  0  0  0  0  0  0  0  0  0  0
  150.8301  142.3792  158.0510 C   0  0  0  0  0  0  0  0  0  0  0  0
  150.8272  141.7088  156.7994 N   0  0  0  0  0  0  0  0  0  0  0  0
  150.3345  140.4945  156.4947 C   0  0  0  0  0  0  0  0  0  0  0  0
  149.8216  139.7903  157.3722 O   0  0  0  0  0  0  0  0  0  0  0  0
  150.4790  140.1989  155.1739 N   0  5  0  0  0  0  0  0  0  0  0  0
  150.3639  138.8598  154.5953 C   0  0  0  0  0  0  0  0  0  0  0  0
  148.8926  138.3752  154.6508 C   0  0  1  0  0  0  0  0  0  0  0  0
  147.9869  139.0052  153.5583 C   0  0  0  0  0  0  0  0  0  0  0  0
  148.8578  136.8780  154.6652 N   0  3  2  0  0  0  0  0  0  0  0  0
  147.5152  136.2399  154.8067 C   0  0  0  0  0  0  0  0  0  0  0  0
  147.5819  134.7394  154.4821 C   0  0  0  0  0  0  0  0  0  0  0  0
  148.6253  134.0318  155.3547 C   0  0  0  0  0  0  0  0  0  0  0  0
  149.9886  134.7226  155.2070 C   0  0  0  0  0  0  0  0  0  0  0  0
  149.9118  136.2341  155.5081 C   0  0  2  0  0  0  0  0  0  0  0  0
  149.7571  136.5251  157.0155 C   0  0  0  0  0  0  0  0  0  0  0  0
  150.4173  141.8913  159.2117 N   0  0  0  0  0  0  0  0  0  0  0  0
  150.6143  142.9258  160.1341 O   0  0  0  0  0  0  0  0  0  0  0  0
  151.7415  146.0403  159.6723 H   0  0  0  0  0  0  0  0  0  0  0  0
  152.2035  145.0124  161.0304 H   0  0  0  0  0  0  0  0  0  0  0  0
  150.5244  145.5247  160.8410 H   0  0  0  0  0  0  0  0  0  0  0  0
  151.6972  144.3596  157.3840 H   0  0  0  0  0  0  0  0  0  0  0  0
  151.2327  142.2213  156.0305 H   0  0  0  0  0  0  0  0  0  0  0  0
  150.7107  138.8352  153.5620 H   0  0  0  0  0  0  0  0  0  0  0  0
  150.9809  138.1311  155.1236 H   0  0  0  0  0  0  0  0  0  0  0  0
  148.5038  138.7133  155.6129 H   0  0  0  0  0  0  0  0  0  0  0  0
  147.9171  140.0893  153.6665 H   0  0  0  0  0  0  0  0  0  0  0  0
  146.9673  138.6269  153.6226 H   0  0  0  0  0  0  0  0  0  0  0  0
  148.3419  138.8070  152.5456 H   0  0  0  0  0  0  0  0  0  0  0  0
  147.1260  136.3839  155.8148 H   0  0  0  0  0  0  0  0  0  0  0  0
  146.8061  136.7111  154.1255 H   0  0  0  0  0  0  0  0  0  0  0  0
  146.6026  134.2823  154.6273 H   0  0  0  0  0  0  0  0  0  0  0  0
  147.8329  134.6044  153.4291 H   0  0  0  0  0  0  0  0  0  0  0  0
  148.3083  134.0441  156.3980 H   0  0  0  0  0  0  0  0  0  0  0  0
  148.7042  132.9827  155.0676 H   0  0  0  0  0  0  0  0  0  0  0  0
  150.7243  134.2436  155.8539 H   0  0  0  0  0  0  0  0  0  0  0  0
  150.3477  134.5804  154.1867 H   0  0  0  0  0  0  0  0  0  0  0  0
  150.8705  136.6548  155.2005 H   0  0  0  0  0  0  0  0  0  0  0  0
  150.5432  136.0291  157.5852 H   0  0  0  0  0  0  0  0  0  0  0  0
  148.8026  136.1784  157.4098 H   0  0  0  0  0  0  0  0  0  0  0  0
  149.8391  137.5902  157.2295 H   0  0  0  0  0  0  0  0  0  0  0  0
  149.1418  136.6440  153.7242 H   0  0  0  0  0  0  0  0  0  0  0  0
  1  2  1  0  0  0  0
  1 21  1  0  0  0  0
  1 22  1  0  0  0  0
  1 23  1  0  0  0  0
  2 20  1  0  0  0  0
  2  3  2  0  0  0  0
  3  4  1  0  0  0  0
  3 24  1  0  0  0  0
  4  5  1  0  0  0  0
  4 19  2  0  0  0  0
  5  6  1  0  0  0  0
  5 25  1  0  0  0  0
  6  7  2  0  0  0  0
  6  8  1  0  0  0  0
  8  9  1  0  0  0  0
  9 10  1  0  0  0  0
  9 26  1  0  0  0  0
  9 27  1  0  0  0  0
 10 11  1  0  0  0  0
 10 12  1  0  0  0  0
 10 28  1  0  0  0  0
 11 29  1  0  0  0  0
 11 30  1  0  0  0  0
 11 31  1  0  0  0  0
 12 17  1  0  0  0  0
 12 13  1  0  0  0  0
 12 44  1  0  0  0  0
 13 14  1  0  0  0  0
 13 32  1  0  0  0  0
 13 33  1  0  0  0  0
 14 15  1  0  0  0  0
 14 34  1  0  0  0  0
 14 35  1  0  0  0  0
 15 16  1  0  0  0  0
 15 36  1  0  0  0  0
 15 37  1  0  0  0  0
 16 17  1  0  0  0  0
 16 38  1  0  0  0  0
 16 39  1  0  0  0  0
 17 18  1  0  0  0  0
 17 40  1  0  0  0  0
 18 41  1  0  0  0  0
 18 42  1  0  0  0  0
 18 43  1  0  0  0  0
 19 20  1  0  0  0  0
M  CHG  1   8  -1
M  CHG  1  12   1
M  END
> <s_m_source_file>
AV-unprocessed.smi

> <i_m_source_file_index>
1978

> <i_lp_mmshare_version>
43012

> <i_f3d_flags>
0

> <s_epik_input>
W0NIM11jMVtjSF1jKG5vMSlbTkhdQyg9TylbTkhdW0NIMl1bQ0BIXShbQ0gzXSlOMltDSDJdW0NIMl1bQ0gyXVtDSDJdW0NASF0yW0NIM10=

> <s_epik_cmdline>
J2VwaWtfcHl0aG9uJywgJy1waCcsICc3LjAnLCAnLXRuJywgJzgnLCAnLW1hJywgJzIwMCcsICctbWV0YWxfYmluZGluZycsICctaW1hZScsICc8aW5maWxlLm1hZT4nLCAnLW9tYWUnLCAnPG91dGZpbGUubWFlPic=

> <r_epik_Ionization_Penalty>
6.7666

> <r_epik_Ionization_Penalty_Charging>
6.7666

> <r_epik_Ionization_Penalty_Neutral>
5.77131e-06

> <r_epik_State_Penalty>
6.79217

> <r_epik_Charging_Adjusted_Penalty>
13.5588

> <i_epik_Tot_Q>
0

> <i_epik_Tot_abs_Q>
2

> <r_epik_Metal_State_Penalty>
2.72569

> <b_epik_Metal_Only>
1

> <s_lp_Force_Field>
OPLS_2005

> <r_lp_Energy>
20.871

> <b_lp_Chiralities_Consistent>
1

> <s_lp_Variant>
AV-unprocessed.smi:1978-24

> <Gold.Version>
5.8.1

> <Gold.Id.Protein>
6NUR|6NUR_protein|mol2

> <Gold.PLP.Fitness>
40.7680

> <Gold.PLP.PLP>
-33.1850

> <Gold.PLP.part.hbond>
-2.0285

> <Gold.PLP.part.metal>
0.0000

> <Gold.PLP.part.buried>
-4.0755

> <Gold.PLP.part.nonpolar>
-27.7663

> <Gold.PLP.part.repulsive>
0.2220

> <Gold.PLP.ligand.clash>
0.0000

> <Gold.PLP.ligand.torsion>
0.4669

> <Gold.PLP.Chemscore.Hbond>
2.7500

> <Gold.PLP.Chemscore.CHOScore>
0.0000

> <Gold.PLP.Chemscore.Metal>
0.0000

> <Gold.Chemscore.Hbonds>
donor molecule, donor type, donor heavy atom, donor atom, acceptor molecule, acceptor atom, score
      L1  H    12    44       P1  7948  2.00
      P1  H  7989  7998       L1     8  0.40

> <Gold.PLP.Chemscore.Internal.Correction>
0.2668

> <Gold.Rescore>
     Score         DG    S(hbond)    S(metal)    S(lipo)     H(rot)  DE(clash)    DE(int)     intcor
     13.14     -16.38       1.88        0.00      72.77       1.52       1.55       1.68       ----

> <Gold.Chemscore.Fitness>
13.1394

> <Gold.Chemscore.DG>
-16.3772

> <Gold.Chemscore.ZeroCoef>
-5.4800

> <Gold.Chemscore.Hbond>
1.8778

> <Gold.Chemscore.Metal>
0.0000

> <Gold.Chemscore.Lipo>
72.7705

> <Gold.Chemscore.Internal_Hbond>
0.0000

> <Gold.Chemscore.DEClash>
1.5533

> <Gold.Chemscore.DEInternal>
1.6845

> <Gold.Chemscore.Rot>
1.5190

> <Gold.Chemscore.Internal.Correction>
   9.000000E+99

> <Gold.Chemscore.Hbonds>
donor molecule, donor type, donor heavy atom, donor atom, acceptor molecule, acceptor atom, score
      L1  H    12    44       P1  7948  0.98
      P1  H  7989  7998       L1     8  0.02

> <Gold.Chemscore.Hbond.Weighted>
-6.2717

> <Gold.Chemscore.Metal.Weighted>
-0.0000

> <Gold.Chemscore.Lipo.Weighted>
-8.5141

> <Gold.Chemscore.Internal_Hbond.Weighted>
0.0000

> <Gold.Chemscore.DEClash.Weighted>
1.5533

> <Gold.Chemscore.DEInternal.Weighted>
1.6845

> <Gold.Chemscore.Rot.Weighted>
3.8886

> <Gold.Chemscore.Internal.Correction.Weighted>
   9.000000E+99

> <Gold.Protein.RotatedTorsions>
[ 6907 6896 6895 6894 ] final  -22.79 input  -60.11 | X-H torsion
[ 7974 7965 7964 7962 ] final  119.44 input  175.53 | X-H torsion
[ 8008 7997 7996 7995 ] final  -15.91 input   59.86 | X-H torsion
[ 10167 10162 10161 10158 ] final  156.80 input  -65.29 | X-H torsion
[ 10718 10713 10712 10709 ] final  173.52 input   66.30 | X-H torsion
[ 10763 10752 10751 10750 ] final -179.86 input  -60.55 | X-H torsion
[ 11005 11000 10999 10996 ] final  -17.48 input  -57.11 | X-H torsion

> <Gold.Protein.ActiveResidues>
 VAL166  LYS551  ARG553  GLY616  TRP617  ASP618  TYR619  PRO620  LYS621  CYS622 
 ASP623  PHE694  ASN695  SER759  ASP760  ASP761  ALA762  ILE779  LEU786  VAL792 
 PHE793  MET794  SER795  GLU796  ALA797  LYS798  CYS799  TRP800  GLU811  SER814 

> <Gold.Protein.RotatedAtoms>
  151.2134  135.0490  159.8920 H   0  0  0  0  0  0  0  0  0  0  0  0  # atno 6907 bound_to 6896
  152.5422  134.0719  159.8208 H   0  0  0  0  0  0  0  0  0  0  0  0  # atno 6908 bound_to 6896
  151.0876  133.5293  159.2648 H   0  0  0  0  0  0  0  0  0  0  0  0  # atno 6909 bound_to 6896
  145.1431  139.3256  143.4605 H   0  0  0  0  0  0  0  0  0  0  0  0  # atno 7974 bound_to 7965
  154.5094  140.2183  155.9187 H   0  0  0  0  0  0  0  0  0  0  0  0  # atno 8008 bound_to 7997
  156.1533  140.3157  155.8651 H   0  0  0  0  0  0  0  0  0  0  0  0  # atno 8009 bound_to 7997
  155.3896  140.0477  157.3032 H   0  0  0  0  0  0  0  0  0  0  0  0  # atno 8010 bound_to 7997
  139.4822  144.4975  151.8217 H   0  0  0  0  0  0  0  0  0  0  0  0  # atno 10167 bound_to 10162
  156.9630  131.0066  151.2923 H   0  0  0  0  0  0  0  0  0  0  0  0  # atno 10718 bound_to 10713
  154.5297  135.2799  155.1191 H   0  0  0  0  0  0  0  0  0  0  0  0  # atno 10763 bound_to 10752
  154.2716  135.6302  153.5316 H   0  0  0  0  0  0  0  0  0  0  0  0  # atno 10764 bound_to 10752
  152.9954  135.5630  154.5807 H   0  0  0  0  0  0  0  0  0  0  0  0  # atno 10765 bound_to 10752
  140.8173  133.8095  155.9623 H   0  0  0  0  0  0  0  0  0  0  0  0  # atno 11005 bound_to 11000
  146.3503  140.1476  142.8593 LP  0  0  0  0  0  0  0  0  0  0  0  0  # atno 17320 bound_to 7965
  145.0511  140.9018  143.4995 LP  0  0  0  0  0  0  0  0  0  0  0  0  # atno 17321 bound_to 7965
  140.4465  144.1914  150.5894 LP  0  0  0  0  0  0  0  0  0  0  0  0  # atno 17342 bound_to 10162
  140.4629  143.2442  151.9195 LP  0  0  0  0  0  0  0  0  0  0  0  0  # atno 17343 bound_to 10162
  157.5645  130.8268  149.8309 LP  0  0  0  0  0  0  0  0  0  0  0  0  # atno 17370 bound_to 10713
  156.0314  130.3763  150.1677 LP  0  0  0  0  0  0  0  0  0  0  0  0  # atno 17371 bound_to 10713
  140.9136  134.2230  157.4970 LP  0  0  0  0  0  0  0  0  0  0  0  0  # atno 17394 bound_to 11000
  139.8710  134.9761  156.4908 LP  0  0  0  0  0  0  0  0  0  0  0  0  # atno 17395 bound_to 11000

$$$$
