AV-unprocessed.smi:1590|AV-procd|sdf|6395|dock8
  -GOLD-   22720 7 33D 1   1.00000     0.00000
 Structure written by MMmdl.
 35 36  0  0  0  0  0  0  0  0  1 V2000
  151.6210  141.5194  157.9274 C   0  0  0  0  0  0  0  0  0  0  0  0
  150.4522  141.9390  157.0237 C   0  0  0  0  0  0  0  0  0  0  0  0
  149.1954  142.3074  157.8249 C   0  0  0  0  0  0  0  0  0  0  0  0
  150.1614  140.9138  155.9710 C   0  0  0  0  0  0  0  0  0  0  0  0
  151.1053  140.4415  155.1463 N   0  0  0  0  0  0  0  0  0  0  0  0
  150.6068  139.5042  154.2527 N   0  0  0  0  0  0  0  0  0  0  0  0
  149.2943  139.2975  154.4251 C   0  0  0  0  0  0  0  0  0  0  0  0
  148.5319  138.3816  153.6530 N   0  0  0  0  0  0  0  0  0  0  0  0
  147.2009  138.3580  153.4629 C   0  0  0  0  0  0  0  0  0  0  0  0
  146.3939  139.1326  153.9774 O   0  0  0  0  0  0  0  0  0  0  0  0
  146.8471  137.3667  152.6325 N   0  0  0  0  0  0  0  0  0  0  0  0
  145.4806  137.0690  152.2197 C   0  0  0  0  0  0  0  0  0  0  0  0
  145.4454  135.9920  151.1387 C   0  0  0  0  0  0  0  0  0  0  0  0
  144.1133  135.3215  150.7681 C   0  0  0  0  0  0  0  0  0  0  0  0
  144.8817  134.0152  150.5517 C   0  0  0  0  0  0  0  0  0  0  0  0
  145.9772  134.5867  151.4557 C   0  0  0  0  0  0  0  0  0  0  0  0
  148.5531  140.2436  155.7037 S   0  0  0  0  0  0  0  0  0  0  0  0
  152.5198  141.3268  157.3409 H   0  0  0  0  0  0  0  0  0  0  0  0
  151.3877  140.6142  158.4886 H   0  0  0  0  0  0  0  0  0  0  0  0
  151.8596  142.3019  158.6479 H   0  0  0  0  0  0  0  0  0  0  0  0
  150.7695  142.8451  156.5052 H   0  0  0  0  0  0  0  0  0  0  0  0
  148.4041  142.6690  157.1674 H   0  0  0  0  0  0  0  0  0  0  0  0
  149.4084  143.0954  158.5476 H   0  0  0  0  0  0  0  0  0  0  0  0
  148.8071  141.4496  158.3748 H   0  0  0  0  0  0  0  0  0  0  0  0
  149.0648  137.6679  153.1784 H   0  0  0  0  0  0  0  0  0  0  0  0
  147.5740  136.7752  152.2572 H   0  0  0  0  0  0  0  0  0  0  0  0
  144.8845  136.7677  153.0826 H   0  0  0  0  0  0  0  0  0  0  0  0
  145.0332  137.9922  151.8504 H   0  0  0  0  0  0  0  0  0  0  0  0
  145.9274  136.3428  150.2235 H   0  0  0  0  0  0  0  0  0  0  0  0
  143.4178  135.2655  151.6071 H   0  0  0  0  0  0  0  0  0  0  0  0
  143.6344  135.7239  149.8749 H   0  0  0  0  0  0  0  0  0  0  0  0
  144.3873  133.1245  150.9402 H   0  0  0  0  0  0  0  0  0  0  0  0
  145.2100  133.8817  149.5197 H   0  0  0  0  0  0  0  0  0  0  0  0
  146.9959  134.3984  151.1156 H   0  0  0  0  0  0  0  0  0  0  0  0
  145.8451  134.3093  152.5029 H   0  0  0  0  0  0  0  0  0  0  0  0
  1  2  1  0  0  0  0
  1 18  1  0  0  0  0
  1 19  1  0  0  0  0
  1 20  1  0  0  0  0
  2  3  1  0  0  0  0
  2  4  1  0  0  0  0
  2 21  1  0  0  0  0
  3 22  1  0  0  0  0
  3 23  1  0  0  0  0
  3 24  1  0  0  0  0
  4 17  1  0  0  0  0
  4  5  2  0  0  0  0
  5  6  1  0  0  0  0
  6  7  2  0  0  0  0
  7  8  1  0  0  0  0
  7 17  1  0  0  0  0
  8  9  1  0  0  0  0
  8 25  1  0  0  0  0
  9 10  2  0  0  0  0
  9 11  1  0  0  0  0
 11 12  1  0  0  0  0
 11 26  1  0  0  0  0
 12 13  1  0  0  0  0
 12 27  1  0  0  0  0
 12 28  1  0  0  0  0
 13 16  1  0  0  0  0
 13 14  1  0  0  0  0
 13 29  1  0  0  0  0
 14 15  1  0  0  0  0
 14 30  1  0  0  0  0
 14 31  1  0  0  0  0
 15 16  1  0  0  0  0
 15 32  1  0  0  0  0
 15 33  1  0  0  0  0
 16 34  1  0  0  0  0
 16 35  1  0  0  0  0
M  END
> <s_m_source_file>
AV-unprocessed.smi

> <i_m_source_file_index>
1590

> <i_lp_mmshare_version>
43012

> <i_f3d_flags>
0

> <s_epik_input>
W0NIM11bQ0hdKFtDSDNdKWMxbm5jKHMxKVtOSF1DKD1PKVtOSF1bQ0gyXVtDSF0yW0NIMl1bQ0gyXVtDSDJdMg==

> <s_epik_cmdline>
J2VwaWtfcHl0aG9uJywgJy1waCcsICc3LjAnLCAnLXRuJywgJzgnLCAnLW1hJywgJzIwMCcsICctbWV0YWxfYmluZGluZycsICctaW1hZScsICc8aW5maWxlLm1hZT4nLCAnLW9tYWUnLCAnPG91dGZpbGUubWFlPic=

> <r_lp_tautomer_probability>
1

> <r_epik_Ionization_Penalty>
0.000374979

> <r_epik_Ionization_Penalty_Charging>
0

> <r_epik_Ionization_Penalty_Neutral>
0.000374979

> <r_epik_State_Penalty>
-0

> <r_epik_Charging_Adjusted_Penalty>
0

> <i_epik_Tot_Q>
0

> <i_epik_Tot_abs_Q>
0

> <r_epik_Metal_State_Penalty>
0.186879

> <b_epik_Metal_Only>
0

> <s_lp_Force_Field>
OPLS_2005

> <r_lp_Energy>
5.08701

> <b_lp_Chiralities_Consistent>
1

> <s_lp_Variant>
AV-unprocessed.smi:1590-1

> <Gold.Version>
5.8.1

> <Gold.Id.Protein>
6NUR|6NUR_protein|mol2

> <Gold.PLP.Fitness>
33.4017

> <Gold.PLP.PLP>
-27.9828

> <Gold.PLP.part.hbond>
-4.4785

> <Gold.PLP.part.metal>
0.0000

> <Gold.PLP.part.buried>
-3.8927

> <Gold.PLP.part.nonpolar>
-20.9874

> <Gold.PLP.part.repulsive>
0.4303

> <Gold.PLP.ligand.clash>
0.0000

> <Gold.PLP.ligand.torsion>
0.2178

> <Gold.PLP.Chemscore.Hbond>
1.9120

> <Gold.PLP.Chemscore.CHOScore>
0.0000

> <Gold.PLP.Chemscore.Metal>
0.0000

> <Gold.Chemscore.Hbonds>
donor molecule, donor type, donor heavy atom, donor atom, acceptor molecule, acceptor atom, score
      L1  H     8    25       P1  7948  0.90
      L1  H    11    26       P1  7948  0.98

> <Gold.PLP.Chemscore.Internal.Correction>
0.1185

> <Gold.Rescore>
     Score         DG    S(hbond)    S(metal)    S(lipo)     H(rot)  DE(clash)    DE(int)     intcor
     13.68     -15.03       1.95        0.00      56.46       1.39       0.02       1.33       ----

> <Gold.Chemscore.Fitness>
13.6798

> <Gold.Chemscore.DG>
-15.0349

> <Gold.Chemscore.ZeroCoef>
-5.4800

> <Gold.Chemscore.Hbond>
1.9466

> <Gold.Chemscore.Metal>
0.0000

> <Gold.Chemscore.Lipo>
56.4638

> <Gold.Chemscore.Internal_Hbond>
0.0000

> <Gold.Chemscore.DEClash>
0.0223

> <Gold.Chemscore.DEInternal>
1.3328

> <Gold.Chemscore.Rot>
1.3879

> <Gold.Chemscore.Internal.Correction>
   9.000000E+99

> <Gold.Chemscore.Hbonds>
donor molecule, donor type, donor heavy atom, donor atom, acceptor molecule, acceptor atom, score
      L1  H     8    25       P1  7948  0.88
      L1  H    11    26       P1  7948  0.92

> <Gold.Chemscore.Hbond.Weighted>
-6.5015

> <Gold.Chemscore.Metal.Weighted>
-0.0000

> <Gold.Chemscore.Lipo.Weighted>
-6.6063

> <Gold.Chemscore.Internal_Hbond.Weighted>
0.0000

> <Gold.Chemscore.DEClash.Weighted>
0.0223

> <Gold.Chemscore.DEInternal.Weighted>
1.3328

> <Gold.Chemscore.Rot.Weighted>
3.5529

> <Gold.Chemscore.Internal.Correction.Weighted>
   9.000000E+99

> <Gold.Protein.RotatedTorsions>
[ 6907 6896 6895 6894 ] final -172.90 input  -60.11 | X-H torsion
[ 7974 7965 7964 7962 ] final   93.32 input  175.53 | X-H torsion
[ 8008 7997 7996 7995 ] final  -58.70 input   59.86 | X-H torsion
[ 10167 10162 10161 10158 ] final  105.23 input  -65.29 | X-H torsion
[ 10718 10713 10712 10709 ] final   52.31 input   66.30 | X-H torsion
[ 10763 10752 10751 10750 ] final -133.72 input  -60.55 | X-H torsion
[ 11005 11000 10999 10996 ] final  -78.07 input  -57.11 | X-H torsion

> <Gold.Protein.ActiveResidues>
 VAL166  LYS551  ARG553  GLY616  TRP617  ASP618  TYR619  PRO620  LYS621  CYS622 
 ASP623  PHE694  ASN695  SER759  ASP760  ASP761  ALA762  ILE779  LEU786  VAL792 
 PHE793  MET794  SER795  GLU796  ALA797  LYS798  CYS799  TRP800  GLU811  SER814 

> <Gold.Protein.RotatedAtoms>
  151.5475  133.3423  159.2946 H   0  0  0  0  0  0  0  0  0  0  0  0  # atno 6907 bound_to 6896
  150.8498  134.7822  159.7011 H   0  0  0  0  0  0  0  0  0  0  0  0  # atno 6908 bound_to 6896
  152.4547  134.5325  159.9867 H   0  0  0  0  0  0  0  0  0  0  0  0  # atno 6909 bound_to 6896
  145.4805  139.2278  143.2885 H   0  0  0  0  0  0  0  0  0  0  0  0  # atno 7974 bound_to 7965
  154.4320  140.1078  156.5999 H   0  0  0  0  0  0  0  0  0  0  0  0  # atno 8008 bound_to 7997
  155.5922  140.3492  155.4551 H   0  0  0  0  0  0  0  0  0  0  0  0  # atno 8009 bound_to 7997
  156.0237  140.1245  157.0320 H   0  0  0  0  0  0  0  0  0  0  0  0  # atno 8010 bound_to 7997
  139.7110  144.7077  151.1027 H   0  0  0  0  0  0  0  0  0  0  0  0  # atno 10167 bound_to 10162
  157.5063  130.8471  149.8379 H   0  0  0  0  0  0  0  0  0  0  0  0  # atno 10718 bound_to 10713
  154.8729  135.3757  154.4619 H   0  0  0  0  0  0  0  0  0  0  0  0  # atno 10763 bound_to 10752
  153.5286  135.7028  153.5700 H   0  0  0  0  0  0  0  0  0  0  0  0  # atno 10764 bound_to 10752
  153.3914  135.3971  155.1891 H   0  0  0  0  0  0  0  0  0  0  0  0  # atno 10765 bound_to 10752
  141.1663  133.7048  156.7916 H   0  0  0  0  0  0  0  0  0  0  0  0  # atno 11005 bound_to 11000
  146.2344  140.5591  142.8961 LP  0  0  0  0  0  0  0  0  0  0  0  0  # atno 17320 bound_to 7965
  144.7892  140.5997  143.6553 LP  0  0  0  0  0  0  0  0  0  0  0  0  # atno 17321 bound_to 7965
  140.7733  143.5293  150.9443 LP  0  0  0  0  0  0  0  0  0  0  0  0  # atno 17342 bound_to 10162
  139.8977  143.6874  152.3136 LP  0  0  0  0  0  0  0  0  0  0  0  0  # atno 17343 bound_to 10162
  156.0260  130.3779  150.1821 LP  0  0  0  0  0  0  0  0  0  0  0  0  # atno 17370 bound_to 10713
  157.0011  130.9922  151.3390 LP  0  0  0  0  0  0  0  0  0  0  0  0  # atno 17371 bound_to 10713
  140.2321  134.8678  157.3487 LP  0  0  0  0  0  0  0  0  0  0  0  0  # atno 17394 bound_to 11000
  140.1881  134.4406  155.7732 LP  0  0  0  0  0  0  0  0  0  0  0  0  # atno 17395 bound_to 11000

$$$$
