AV-unprocessed.smi:1976|AV-procd|sdf|7986|dock2
  -GOLD-   2272010163D 1   1.00000     0.00000
 Structure written by MMmdl.
 45 47  0  0  0  0  0  0  0  0  2 V2000
  149.5627  140.2094  156.8503 O   0  0  0  0  0  0  0  0  0  0  0  0
  150.5805  140.3799  156.1776 C   0  0  0  0  0  0  0  0  0  0  0  0
  151.4961  141.5898  156.4148 C   0  0  0  0  0  0  0  0  0  0  0  0
  151.8806  141.7667  157.8253 N   0  0  0  0  0  0  0  0  0  0  0  0
  151.5435  142.9928  158.4317 C   0  0  0  0  0  0  0  0  0  0  0  0
  151.8343  143.2803  159.7149 C   0  0  0  0  0  0  0  0  0  0  0  0
  151.5132  144.6366  160.3231 C   0  0  0  0  0  0  0  0  0  0  0  0
  150.1932  144.8117  160.3672 F   0  0  0  0  0  0  0  0  0  0  0  0
  151.9866  144.7296  161.5659 F   0  0  0  0  0  0  0  0  0  0  0  0
  152.0390  145.6259  159.5995 F   0  0  0  0  0  0  0  0  0  0  0  0
  152.5552  142.2640  160.4562 C   0  0  0  0  0  0  0  0  0  0  0  0
  152.8966  141.0912  159.8875 C   0  0  0  0  0  0  0  0  0  0  0  0
  152.5561  140.7859  158.4962 C   0  0  0  0  0  0  0  0  0  0  0  0
  152.8618  139.7180  157.9650 O   0  0  0  0  0  0  0  0  0  0  0  0
  150.9710  139.5271  155.2186 N   0  0  0  0  0  0  0  0  0  0  0  0
  150.2419  138.3222  154.8322 C   0  0  1  0  0  0  0  0  0  0  0  0
  149.6164  137.5878  156.0108 C   0  0  0  0  0  0  0  0  0  0  0  0
  148.5692  136.6923  155.3405 C   0  0  0  0  0  0  0  0  0  0  0  0
  148.1729  137.3641  154.0782 N   0  3  1  0  0  0  0  0  0  0  0  0
  146.7109  137.6117  153.9581 C   0  0  0  0  0  0  0  0  0  0  0  0
  146.4155  138.6351  152.8516 C   0  0  0  0  0  0  0  0  0  0  0  0
  147.0625  139.9998  153.1560 C   0  0  0  0  0  0  0  0  0  0  0  0
  148.2658  139.8821  154.1113 C   0  0  0  0  0  0  0  0  0  0  0  0
  149.0430  138.5605  153.8934 C   0  0  1  0  0  0  0  0  0  0  0  0
  152.3838  141.4736  155.7912 H   0  0  0  0  0  0  0  0  0  0  0  0
  151.0034  142.4898  156.0420 H   0  0  0  0  0  0  0  0  0  0  0  0
  151.0407  143.6926  157.7800 H   0  0  0  0  0  0  0  0  0  0  0  0
  152.8245  142.4449  161.4864 H   0  0  0  0  0  0  0  0  0  0  0  0
  153.4343  140.3574  160.4698 H   0  0  0  0  0  0  0  0  0  0  0  0
  151.8213  139.7337  154.7142 H   0  0  0  0  0  0  0  0  0  0  0  0
  150.9369  137.6344  154.3454 H   0  0  0  0  0  0  0  0  0  0  0  0
  150.3433  137.0218  156.5943 H   0  0  0  0  0  0  0  0  0  0  0  0
  149.1245  138.2954  156.6798 H   0  0  0  0  0  0  0  0  0  0  0  0
  149.0124  135.7302  155.0808 H   0  0  0  0  0  0  0  0  0  0  0  0
  147.7275  136.4926  156.0053 H   0  0  0  0  0  0  0  0  0  0  0  0
  146.2065  136.6669  153.7527 H   0  0  0  0  0  0  0  0  0  0  0  0
  146.3124  137.9831  154.9040 H   0  0  0  0  0  0  0  0  0  0  0  0
  146.7995  138.2525  151.9049 H   0  0  0  0  0  0  0  0  0  0  0  0
  145.3400  138.7543  152.7171 H   0  0  0  0  0  0  0  0  0  0  0  0
  147.3744  140.4605  152.2178 H   0  0  0  0  0  0  0  0  0  0  0  0
  146.3273  140.6752  153.5951 H   0  0  0  0  0  0  0  0  0  0  0  0
  148.9118  140.7492  153.9736 H   0  0  0  0  0  0  0  0  0  0  0  0
  147.9141  139.9281  155.1432 H   0  0  0  0  0  0  0  0  0  0  0  0
  149.4006  138.5584  152.8627 H   0  0  0  0  0  0  0  0  0  0  0  0
  148.4194  136.7296  153.3318 H   0  0  0  0  0  0  0  0  0  0  0  0
  1  2  2  0  0  0  0
  2  3  1  0  0  0  0
  2 15  1  0  0  0  0
  3  4  1  0  0  0  0
  3 25  1  0  0  0  0
  3 26  1  0  0  0  0
  4 13  1  0  0  0  0
  4  5  1  0  0  0  0
  5  6  2  0  0  0  0
  5 27  1  0  0  0  0
  6  7  1  0  0  0  0
  6 11  1  0  0  0  0
  7  8  1  0  0  0  0
  7  9  1  0  0  0  0
  7 10  1  0  0  0  0
 11 12  2  0  0  0  0
 11 28  1  0  0  0  0
 12 13  1  0  0  0  0
 12 29  1  0  0  0  0
 13 14  2  0  0  0  0
 15 16  1  0  0  0  0
 15 30  1  0  0  0  0
 16 24  1  0  0  0  0
 16 17  1  0  0  0  0
 16 31  1  0  0  0  0
 17 18  1  0  0  0  0
 17 32  1  0  0  0  0
 17 33  1  0  0  0  0
 18 19  1  0  0  0  0
 18 34  1  0  0  0  0
 18 35  1  0  0  0  0
 19 24  1  0  0  0  0
 19 20  1  0  0  0  0
 19 45  1  0  0  0  0
 20 21  1  0  0  0  0
 20 36  1  0  0  0  0
 20 37  1  0  0  0  0
 21 22  1  0  0  0  0
 21 38  1  0  0  0  0
 21 39  1  0  0  0  0
 22 23  1  0  0  0  0
 22 40  1  0  0  0  0
 22 41  1  0  0  0  0
 23 24  1  0  0  0  0
 23 42  1  0  0  0  0
 23 43  1  0  0  0  0
 24 44  1  0  0  0  0
M  CHG  1  19   1
M  END
> <s_m_source_file>
AV-unprocessed.smi

> <i_m_source_file_index>
1976

> <i_lp_mmshare_version>
43012

> <i_f3d_flags>
0

> <s_epik_input>
W0NIMl0xW0NIMl1bQ0gyXVtDSDJdW0NASF0oTjEyKVtDQEBIXShbQ0gyXVtDSDJdMilbTkhdQyg9TylbQ0gyXW4zW2NIXWMoQyhGKShGKUYpW2NIXVtjSF1jMz1P

> <s_epik_cmdline>
J2VwaWtfcHl0aG9uJywgJy1waCcsICc3LjAnLCAnLXRuJywgJzgnLCAnLW1hJywgJzIwMCcsICctbWV0YWxfYmluZGluZycsICctaW1hZScsICc8aW5maWxlLm1hZT4nLCAnLW9tYWUnLCAnPG91dGZpbGUubWFlPic=

> <r_lp_tautomer_probability>
1

> <r_epik_Ionization_Penalty>
0.00171506

> <r_epik_Ionization_Penalty_Charging>
0.00171498

> <r_epik_Ionization_Penalty_Neutral>
7.81737e-08

> <r_epik_State_Penalty>
0.00115937

> <r_epik_Charging_Adjusted_Penalty>
0.00287436

> <i_epik_Tot_Q>
1

> <i_epik_Tot_abs_Q>
1

> <r_epik_Metal_State_Penalty>
-0

> <b_epik_Metal_Only>
0

> <s_lp_Force_Field>
OPLS_2005

> <r_lp_Energy>
52.608

> <b_lp_Chiralities_Consistent>
1

> <s_lp_Variant>
AV-unprocessed.smi:1976-4

> <Gold.Version>
5.8.1

> <Gold.Id.Protein>
6NUR|6NUR_protein|mol2

> <Gold.PLP.Fitness>
49.2647

> <Gold.PLP.PLP>
-41.0211

> <Gold.PLP.part.hbond>
-1.9458

> <Gold.PLP.part.metal>
0.0000

> <Gold.PLP.part.buried>
-0.3180

> <Gold.PLP.part.nonpolar>
-38.4065

> <Gold.PLP.part.repulsive>
0.1251

> <Gold.PLP.ligand.clash>
0.0000

> <Gold.PLP.ligand.torsion>
0.4156

> <Gold.PLP.Chemscore.Hbond>
3.0000

> <Gold.PLP.Chemscore.CHOScore>
0.0000

> <Gold.PLP.Chemscore.Metal>
0.0000

> <Gold.Chemscore.Hbonds>
donor molecule, donor type, donor heavy atom, donor atom, acceptor molecule, acceptor atom, score
      L1  H    19    45       P1  7948  2.00
      P1  H  7997  8009       L1    14  1.00

> <Gold.PLP.Chemscore.Internal.Correction>
0.0748

> <Gold.Rescore>
     Score         DG    S(hbond)    S(metal)    S(lipo)     H(rot)  DE(clash)    DE(int)     intcor
     15.70     -19.44       1.96        0.00      97.98       1.58       0.79       2.95       ----

> <Gold.Chemscore.Fitness>
15.6955

> <Gold.Chemscore.DG>
-19.4430

> <Gold.Chemscore.ZeroCoef>
-5.4800

> <Gold.Chemscore.Hbond>
1.9617

> <Gold.Chemscore.Metal>
0.0000

> <Gold.Chemscore.Lipo>
97.9777

> <Gold.Chemscore.Internal_Hbond>
0.0000

> <Gold.Chemscore.DEClash>
0.7928

> <Gold.Chemscore.DEInternal>
2.9546

> <Gold.Chemscore.Rot>
1.5830

> <Gold.Chemscore.Internal.Correction>
   9.000000E+99

> <Gold.Chemscore.Hbonds>
donor molecule, donor type, donor heavy atom, donor atom, acceptor molecule, acceptor atom, score
      L1  H    19    45       P1  7948  0.99
      P1  H  7997  8009       L1    14  0.59

> <Gold.Chemscore.Hbond.Weighted>
-6.5519

> <Gold.Chemscore.Metal.Weighted>
-0.0000

> <Gold.Chemscore.Lipo.Weighted>
-11.4634

> <Gold.Chemscore.Internal_Hbond.Weighted>
0.0000

> <Gold.Chemscore.DEClash.Weighted>
0.7928

> <Gold.Chemscore.DEInternal.Weighted>
2.9546

> <Gold.Chemscore.Rot.Weighted>
4.0524

> <Gold.Chemscore.Internal.Correction.Weighted>
   9.000000E+99

> <Gold.Protein.RotatedTorsions>
[ 6907 6896 6895 6894 ] final   36.94 input  -60.11 | X-H torsion
[ 7974 7965 7964 7962 ] final  -37.70 input  175.53 | X-H torsion
[ 8008 7997 7996 7995 ] final  166.71 input   59.86 | X-H torsion
[ 10167 10162 10161 10158 ] final  -49.96 input  -65.29 | X-H torsion
[ 10718 10713 10712 10709 ] final    3.98 input   66.30 | X-H torsion
[ 10763 10752 10751 10750 ] final  -17.17 input  -60.55 | X-H torsion
[ 11005 11000 10999 10996 ] final   14.83 input  -57.11 | X-H torsion

> <Gold.Protein.ActiveResidues>
 VAL166  LYS551  ARG553  GLY616  TRP617  ASP618  TYR619  PRO620  LYS621  CYS622 
 ASP623  PHE694  ASN695  SER759  ASP760  ASP761  ALA762  ILE779  LEU786  VAL792 
 PHE793  MET794  SER795  GLU796  ALA797  LYS798  CYS799  TRP800  GLU811  SER814 

> <Gold.Protein.RotatedAtoms>
  152.1365  134.9095  160.0555 H   0  0  0  0  0  0  0  0  0  0  0  0  # atno 6907 bound_to 6896
  152.0179  133.3882  159.4254 H   0  0  0  0  0  0  0  0  0  0  0  0  # atno 6908 bound_to 6896
  150.6861  134.3580  159.4981 H   0  0  0  0  0  0  0  0  0  0  0  0  # atno 6909 bound_to 6896
  146.0551  140.6427  142.9023 H   0  0  0  0  0  0  0  0  0  0  0  0  # atno 7974 bound_to 7965
  156.1696  140.1636  156.8471 H   0  0  0  0  0  0  0  0  0  0  0  0  # atno 8008 bound_to 7997
  154.5243  140.0771  156.8263 H   0  0  0  0  0  0  0  0  0  0  0  0  # atno 8009 bound_to 7997
  155.3540  140.3391  155.4242 H   0  0  0  0  0  0  0  0  0  0  0  0  # atno 8010 bound_to 7997
  140.6660  143.2676  151.4291 H   0  0  0  0  0  0  0  0  0  0  0  0  # atno 10167 bound_to 10162
  156.8858  130.5670  149.5651 H   0  0  0  0  0  0  0  0  0  0  0  0  # atno 10718 bound_to 10713
  153.5698  135.7008  153.5509 H   0  0  0  0  0  0  0  0  0  0  0  0  # atno 10763 bound_to 10752
  153.3354  135.4035  155.1529 H   0  0  0  0  0  0  0  0  0  0  0  0  # atno 10764 bound_to 10752
  154.8635  135.3729  154.5220 H   0  0  0  0  0  0  0  0  0  0  0  0  # atno 10765 bound_to 10752
  140.4651  134.1088  155.7723 H   0  0  0  0  0  0  0  0  0  0  0  0  # atno 11005 bound_to 11000
  144.7144  140.4156  143.7056 LP  0  0  0  0  0  0  0  0  0  0  0  0  # atno 17320 bound_to 7965
  145.6657  139.1589  143.2783 LP  0  0  0  0  0  0  0  0  0  0  0  0  # atno 17321 bound_to 7965
  139.5909  144.1501  152.2087 LP  0  0  0  0  0  0  0  0  0  0  0  0  # atno 17342 bound_to 10162
  140.0855  144.5665  150.7092 LP  0  0  0  0  0  0  0  0  0  0  0  0  # atno 17343 bound_to 10162
  156.0654  130.5698  150.9278 LP  0  0  0  0  0  0  0  0  0  0  0  0  # atno 17370 bound_to 10713
  157.6113  131.0936  150.8789 LP  0  0  0  0  0  0  0  0  0  0  0  0  # atno 17371 bound_to 10713
  141.1603  133.8805  157.1865 LP  0  0  0  0  0  0  0  0  0  0  0  0  # atno 17394 bound_to 11000
  139.9920  135.0061  156.9998 LP  0  0  0  0  0  0  0  0  0  0  0  0  # atno 17395 bound_to 11000

$$$$
