AV-unprocessed.smi:767|AV-procd|sdf|3667|dock7
  -GOLD-   22720 1 73D 1   1.00000     0.00000
 Structure written by MMmdl.
 48 50  0  0  0  0  0  0  0  0  2 V2000
  151.4116  144.7864  160.9163 C   0  0  0  0  0  0  0  0  0  0  0  0
  152.2531  143.5346  161.0462 C   0  0  0  0  0  0  0  0  0  0  0  0
  152.8190  143.1329  162.2748 C   0  0  0  0  0  0  0  0  0  0  0  0
  153.5900  141.9536  162.3239 C   0  0  0  0  0  0  0  0  0  0  0  0
  153.7762  141.1966  161.1462 C   0  0  0  0  0  0  0  0  0  0  0  0
  154.5790  139.9069  161.1753 C   0  0  0  0  0  0  0  0  0  0  0  0
  153.7180  138.6377  161.0069 C   0  0  0  0  0  0  0  0  0  0  0  0
  152.8794  138.6640  159.8116 N   0  0  0  0  0  0  0  0  0  0  0  0
  152.6646  137.6237  158.9950 C   0  0  0  0  0  0  0  0  0  0  0  0
  153.1618  136.5086  159.1504 O   0  0  0  0  0  0  0  0  0  0  0  0
  151.8230  137.9409  158.0033 N   0  0  0  0  0  0  0  0  0  0  0  0
  151.3636  137.0148  156.9670 C   0  0  2  0  0  0  0  0  0  0  0  0
  151.1545  137.7049  155.5995 C   0  0  2  0  0  0  0  0  0  0  0  0
  151.6303  139.1071  155.3066 C   0  0  0  0  0  0  0  0  0  0  0  0
  150.3755  139.9501  155.5548 C   0  0  0  0  0  0  0  0  0  0  0  0
  149.5479  139.1379  156.3853 O   0  0  0  0  0  0  0  0  0  0  0  0
  149.6753  137.7894  155.9386 C   0  0  2  0  0  0  0  0  0  0  0  0
  149.8404  136.7147  157.0327 C   0  0  0  0  0  0  0  0  0  0  0  0
  149.4619  135.3012  156.5806 C   0  0  0  0  0  0  0  0  0  0  0  0
  149.0845  136.9615  158.3448 C   0  0  0  0  0  0  0  0  0  0  0  0
  153.1921  141.6511  159.9449 C   0  0  0  0  0  0  0  0  0  0  0  0
  152.4619  142.7879  159.9385 N   0  3  0  0  0  0  0  0  0  0  0  0
  151.0425  145.1099  161.8901 H   0  0  0  0  0  0  0  0  0  0  0  0
  150.5511  144.6076  160.2709 H   0  0  0  0  0  0  0  0  0  0  0  0
  152.0026  145.5959  160.4876 H   0  0  0  0  0  0  0  0  0  0  0  0
  152.6628  143.7165  163.1706 H   0  0  0  0  0  0  0  0  0  0  0  0
  154.0238  141.6297  163.2589 H   0  0  0  0  0  0  0  0  0  0  0  0
  155.3350  139.9441  160.3904 H   0  0  0  0  0  0  0  0  0  0  0  0
  155.1288  139.8529  162.1159 H   0  0  0  0  0  0  0  0  0  0  0  0
  154.3710  137.7691  160.9177 H   0  0  0  0  0  0  0  0  0  0  0  0
  153.1055  138.4712  161.8943 H   0  0  0  0  0  0  0  0  0  0  0  0
  152.4234  139.5382  159.5950 H   0  0  0  0  0  0  0  0  0  0  0  0
  151.4594  138.8821  157.9641 H   0  0  0  0  0  0  0  0  0  0  0  0
  151.9765  136.1158  156.8827 H   0  0  0  0  0  0  0  0  0  0  0  0
  151.3282  137.0038  154.7817 H   0  0  0  0  0  0  0  0  0  0  0  0
  152.4487  139.4092  155.9597 H   0  0  0  0  0  0  0  0  0  0  0  0
  151.9791  139.2172  154.2795 H   0  0  0  0  0  0  0  0  0  0  0  0
  150.5981  140.9081  156.0249 H   0  0  0  0  0  0  0  0  0  0  0  0
  149.8532  140.1436  154.6166 H   0  0  0  0  0  0  0  0  0  0  0  0
  149.0117  137.5381  155.1096 H   0  0  0  0  0  0  0  0  0  0  0  0
  148.3879  135.2061  156.4172 H   0  0  0  0  0  0  0  0  0  0  0  0
  149.7512  134.5541  157.3206 H   0  0  0  0  0  0  0  0  0  0  0  0
  149.9525  135.0326  155.6447 H   0  0  0  0  0  0  0  0  0  0  0  0
  148.0099  136.8267  158.2181 H   0  0  0  0  0  0  0  0  0  0  0  0
  149.2304  137.9744  158.7200 H   0  0  0  0  0  0  0  0  0  0  0  0
  149.4115  136.2748  159.1260 H   0  0  0  0  0  0  0  0  0  0  0  0
  153.2792  141.1399  158.9971 H   0  0  0  0  0  0  0  0  0  0  0  0
  152.0465  143.0951  159.0588 H   0  0  0  0  0  0  0  0  0  0  0  0
  1  2  1  0  0  0  0
  1 23  1  0  0  0  0
  1 24  1  0  0  0  0
  1 25  1  0  0  0  0
  2 22  1  0  0  0  0
  2  3  2  0  0  0  0
  3  4  1  0  0  0  0
  3 26  1  0  0  0  0
  4  5  2  0  0  0  0
  4 27  1  0  0  0  0
  5  6  1  0  0  0  0
  5 21  1  0  0  0  0
  6  7  1  0  0  0  0
  6 28  1  0  0  0  0
  6 29  1  0  0  0  0
  7  8  1  0  0  0  0
  7 30  1  0  0  0  0
  7 31  1  0  0  0  0
  8  9  1  0  0  0  0
  8 32  1  0  0  0  0
  9 10  2  0  0  0  0
  9 11  1  0  0  0  0
 11 12  1  0  0  0  0
 11 33  1  0  0  0  0
 12 18  1  0  0  0  0
 12 13  1  0  0  0  0
 12 34  1  0  0  0  0
 13 17  1  0  0  0  0
 13 14  1  0  0  0  0
 13 35  1  0  0  0  0
 14 15  1  0  0  0  0
 14 36  1  0  0  0  0
 14 37  1  0  0  0  0
 15 16  1  0  0  0  0
 15 38  1  0  0  0  0
 15 39  1  0  0  0  0
 16 17  1  0  0  0  0
 17 18  1  0  0  0  0
 17 40  1  0  0  0  0
 18 19  1  0  0  0  0
 18 20  1  0  0  0  0
 19 41  1  0  0  0  0
 19 42  1  0  0  0  0
 19 43  1  0  0  0  0
 20 44  1  0  0  0  0
 20 45  1  0  0  0  0
 20 46  1  0  0  0  0
 21 22  2  0  0  0  0
 21 47  1  0  0  0  0
 22 48  1  0  0  0  0
M  CHG  1  22   1
M  END
> <s_m_source_file>
AV-unprocessed.smi

> <i_m_source_file_index>
767

> <i_lp_mmshare_version>
43012

> <i_f3d_flags>
0

> <s_epik_input>
W0NIM11jMVtjSF1bY0hdYyhbY0hdbjEpW0NIMl1bQ0gyXVtOSF1DKD1PKVtOSF1bQ0BIXTJDKFtDSDNdKShbQ0gzXSlbQ0BIXShbQ0BASF0yMylPW0NIMl1bQ0gyXTM=

> <s_epik_cmdline>
J2VwaWtfcHl0aG9uJywgJy1waCcsICc3LjAnLCAnLXRuJywgJzgnLCAnLW1hJywgJzIwMCcsICctbWV0YWxfYmluZGluZycsICctaW1hZScsICc8aW5maWxlLm1hZT4nLCAnLW9tYWUnLCAnPG91dGZpbGUubWFlPic=

> <r_epik_Ionization_Penalty>
1.41853

> <r_epik_Ionization_Penalty_Charging>
1.41848

> <r_epik_Ionization_Penalty_Neutral>
5.17407e-05

> <r_epik_State_Penalty>
1.50205

> <r_epik_Charging_Adjusted_Penalty>
2.92053

> <i_epik_Tot_Q>
1

> <i_epik_Tot_abs_Q>
1

> <r_epik_Metal_State_Penalty>
1.5544

> <b_epik_Metal_Only>
0

> <s_lp_Force_Field>
OPLS_2005

> <r_lp_Energy>
40.587

> <b_lp_Chiralities_Consistent>
1

> <s_lp_Variant>
AV-unprocessed.smi:767-11

> <Gold.Version>
5.8.1

> <Gold.Id.Protein>
6NUR|6NUR_protein|mol2

> <Gold.PLP.Fitness>
42.3012

> <Gold.PLP.PLP>
-40.1417

> <Gold.PLP.part.hbond>
-1.0000

> <Gold.PLP.part.metal>
0.0000

> <Gold.PLP.part.buried>
-5.7458

> <Gold.PLP.part.nonpolar>
-34.4053

> <Gold.PLP.part.repulsive>
0.2234

> <Gold.PLP.ligand.clash>
0.0000

> <Gold.PLP.ligand.torsion>
0.4437

> <Gold.PLP.Chemscore.Hbond>
0.9516

> <Gold.PLP.Chemscore.CHOScore>
0.0000

> <Gold.PLP.Chemscore.Metal>
0.0000

> <Gold.Chemscore.Hbonds>
donor molecule, donor type, donor heavy atom, donor atom, acceptor molecule, acceptor atom, score
      P1  H  6896  6909       L1    10  0.95

> <Gold.PLP.Chemscore.Internal.Correction>
0.1920

> <Gold.Rescore>
     Score         DG    S(hbond)    S(metal)    S(lipo)     H(rot)  DE(clash)    DE(int)     intcor
     17.60     -18.78       0.97        0.00     119.43       1.52       0.02       1.16       ----

> <Gold.Chemscore.Fitness>
17.5964

> <Gold.Chemscore.DG>
-18.7841

> <Gold.Chemscore.ZeroCoef>
-5.4800

> <Gold.Chemscore.Hbond>
0.9673

> <Gold.Chemscore.Metal>
0.0000

> <Gold.Chemscore.Lipo>
119.4262

> <Gold.Chemscore.Internal_Hbond>
0.0000

> <Gold.Chemscore.DEClash>
0.0250

> <Gold.Chemscore.DEInternal>
1.1627

> <Gold.Chemscore.Rot>
1.5233

> <Gold.Chemscore.Internal.Correction>
   9.000000E+99

> <Gold.Chemscore.Hbonds>
donor molecule, donor type, donor heavy atom, donor atom, acceptor molecule, acceptor atom, score
      P1  H  6896  6909       L1    10  0.85

> <Gold.Chemscore.Hbond.Weighted>
-3.2307

> <Gold.Chemscore.Metal.Weighted>
-0.0000

> <Gold.Chemscore.Lipo.Weighted>
-13.9729

> <Gold.Chemscore.Internal_Hbond.Weighted>
0.0000

> <Gold.Chemscore.DEClash.Weighted>
0.0250

> <Gold.Chemscore.DEInternal.Weighted>
1.1627

> <Gold.Chemscore.Rot.Weighted>
3.8995

> <Gold.Chemscore.Internal.Correction.Weighted>
   9.000000E+99

> <Gold.Protein.RotatedTorsions>
[ 6907 6896 6895 6894 ] final  151.76 input  -60.11 | X-H torsion
[ 7974 7965 7964 7962 ] final  -49.88 input  175.53 | X-H torsion
[ 8008 7997 7996 7995 ] final  150.19 input   59.86 | X-H torsion
[ 10167 10162 10161 10158 ] final -155.15 input  -65.29 | X-H torsion
[ 10718 10713 10712 10709 ] final   26.11 input   66.30 | X-H torsion
[ 10763 10752 10751 10750 ] final  -96.52 input  -60.55 | X-H torsion
[ 11005 11000 10999 10996 ] final   66.02 input  -57.11 | X-H torsion

> <Gold.Protein.ActiveResidues>
 VAL166  LYS551  ARG553  GLY616  TRP617  ASP618  TYR619  PRO620  LYS621  CYS622 
 ASP623  PHE694  ASN695  SER759  ASP760  ASP761  ALA762  ILE779  LEU786  VAL792 
 PHE793  MET794  SER795  GLU796  ALA797  LYS798  CYS799  TRP800  GLU811  SER814 

> <Gold.Protein.RotatedAtoms>
  152.0962  133.4226  159.4565 H   0  0  0  0  0  0  0  0  0  0  0  0  # atno 6907 bound_to 6896
  150.6863  134.2814  159.4638 H   0  0  0  0  0  0  0  0  0  0  0  0  # atno 6908 bound_to 6896
  152.0670  134.9557  160.0625 H   0  0  0  0  0  0  0  0  0  0  0  0  # atno 6909 bound_to 6896
  145.9358  140.7707  142.9576 H   0  0  0  0  0  0  0  0  0  0  0  0  # atno 7974 bound_to 7965
  156.2725  140.2081  156.5978 H   0  0  0  0  0  0  0  0  0  0  0  0  # atno 8008 bound_to 7997
  154.6931  140.0528  157.0407 H   0  0  0  0  0  0  0  0  0  0  0  0  # atno 8009 bound_to 7997
  155.0839  140.3189  155.4596 H   0  0  0  0  0  0  0  0  0  0  0  0  # atno 8010 bound_to 7997
  139.6955  143.9349  152.2405 H   0  0  0  0  0  0  0  0  0  0  0  0  # atno 10167 bound_to 10162
  157.2024  130.6896  149.6194 H   0  0  0  0  0  0  0  0  0  0  0  0  # atno 10718 bound_to 10713
  154.7247  135.5080  153.8867 H   0  0  0  0  0  0  0  0  0  0  0  0  # atno 10763 bound_to 10752
  153.0894  135.6655  153.9893 H   0  0  0  0  0  0  0  0  0  0  0  0  # atno 10764 bound_to 10752
  153.9708  135.3038  155.3407 H   0  0  0  0  0  0  0  0  0  0  0  0  # atno 10765 bound_to 10752
  139.9858  134.6670  156.0179 H   0  0  0  0  0  0  0  0  0  0  0  0  # atno 11005 bound_to 11000
  144.6771  140.2201  143.7367 LP  0  0  0  0  0  0  0  0  0  0  0  0  # atno 17320 bound_to 7965
  145.8365  139.2110  143.1852 LP  0  0  0  0  0  0  0  0  0  0  0  0  # atno 17321 bound_to 7965
  139.9177  144.6818  150.8494 LP  0  0  0  0  0  0  0  0  0  0  0  0  # atno 17342 bound_to 10162
  140.7695  143.3397  151.2234 LP  0  0  0  0  0  0  0  0  0  0  0  0  # atno 17343 bound_to 10162
  155.9699  130.4578  150.5977 LP  0  0  0  0  0  0  0  0  0  0  0  0  # atno 17370 bound_to 10713
  157.3754  131.0772  151.1522 LP  0  0  0  0  0  0  0  0  0  0  0  0  # atno 17371 bound_to 10713
  141.1523  133.6547  156.4052 LP  0  0  0  0  0  0  0  0  0  0  0  0  # atno 17394 bound_to 11000
  140.5005  134.6490  157.5247 LP  0  0  0  0  0  0  0  0  0  0  0  0  # atno 17395 bound_to 11000

$$$$
