#       Name:                AV-unprocessed.smi:3075
#       Creating user name   scv26
#       Creation time:       Fri Mar 27 17:12:13 2020


#       File generated by GOLD software.
#

@<TRIPOS>MOLECULE
AV-unprocessed.smi:3075
    34    35     1
SMALL
NO_CHARGES


@<TRIPOS>ATOM
      1 ****        -2.1547   0.9377  -1.5090 N.4            1 S1                 1.0000
      2 ****        -1.5012  -0.3772  -1.6165 C.3            1 S1                 0.0000
      3 ****         0.0127  -0.2310  -1.6618 C.ar           1 S1                 0.0000
      4 ****         0.6767  -0.2759  -2.9065 C.ar           1 S1                 0.0000
      5 ****         2.0742  -0.1230  -2.9459 C.ar           1 S1                 0.0000
      6 ****         2.7583   0.0717  -1.7323 C.ar           1 S1                 0.0000
      7 ****         2.1376   0.1177  -0.5353 N.ar           1 S1                 0.0000
      8 ****         0.7914  -0.0308  -0.4911 C.ar           1 S1                 0.0000
      9 ****         0.1760   0.0053   0.7725 N.3            1 S1                 0.0000
     10 ****         0.1079  -1.3063   1.4045 C.3            1 S1                 0.0000
     11 ****        -0.7517  -1.2312   2.6782 C.3            1 S1                 0.0000
     12 ****        -0.2305  -0.2324   3.5507 O.3            1 S1                 0.0000
     13 ****        -0.2290   1.0599   2.9503 C.3            1 S1                 0.0000
     14 ****         0.6495   1.0387   1.6879 C.3            1 S1                 0.0000
     15 ****        -3.1573   0.8163  -1.4918 H              1 S1                 0.0000
     16 ****        -1.8977   1.5081  -2.3018 H              1 S1                 0.0000
     17 ****        -1.8079  -1.0050  -0.7804 H              1 S1                 0.0000
     18 ****        -1.8540  -0.8717  -2.5222 H              1 S1                 0.0000
     19 ****         0.1237  -0.4232  -3.8227 H              1 S1                 0.0000
     20 ****         2.6096  -0.1533  -3.8835 H              1 S1                 0.0000
     21 ****         3.8311   0.1939  -1.7218 H              1 S1                 0.0000
     22 ****        -0.3078  -2.0416   0.7151 H              1 S1                 0.0000
     23 ****         1.1165  -1.6386   1.6548 H              1 S1                 0.0000
     24 ****        -1.7910  -1.0071   2.4329 H              1 S1                 0.0000
     25 ****        -0.7456  -2.1916   3.1935 H              1 S1                 0.0000
     26 ****        -1.2496   1.3619   2.7097 H              1 S1                 0.0000
     27 ****         0.1580   1.7845   3.6667 H              1 S1                 0.0000
     28 ****         1.6857   0.8430   1.9679 H              1 S1                 0.0000
     29 ****         0.6237   2.0110   1.1947 H              1 S1                 0.0000
     30 ****        -1.8560   1.3916  -0.6575 H              1 S1                 0.0000
     31 ****         2.6618   0.2589   0.3046 LP             1 S1                 0.0000
     32 ****        -0.7590   0.2895   0.5607 LP             1 S1                 0.0000
     33 ****         0.7086  -0.4756   3.7939 LP             1 S1                 0.0000
     34 ****        -0.7919  -0.2026   4.3777 LP             1 S1                 0.0000
@<TRIPOS>BOND
    1    1    2 1     
    2    1   15 1     
    3    1   16 1     
    4    1   30 1     
    5    2    3 1     
    6    2   17 1     
    7    2   18 1     
    8    3    8 ar    
    9    3    4 ar    
   10    4    5 ar    
   11    4   19 1     
   12    5    6 ar    
   13    5   20 1     
   14    6    7 ar    
   15    6   21 1     
   16    7    8 ar    
   17    8    9 1     
   18    9   14 1     
   19    9   10 1     
   20   10   11 1     
   21   10   22 1     
   22   10   23 1     
   23   11   12 1     
   24   11   24 1     
   25   11   25 1     
   26   12   13 1     
   27   13   14 1     
   28   13   26 1     
   29   13   27 1     
   30   14   28 1     
   31   14   29 1     
   32    7   31 1     
   33    9   32 1     
   34   12   33 1     
   35   12   34 1     
@<TRIPOS>SUBSTRUCTURE
      1 S1             1
@<TRIPOS>SET
LONE_PAIRS      STATIC     ATOMS    <user>   **** ""
4 31 32 33 34
DONOR_HYDROGENS      STATIC     ATOMS    <user>   **** ""
3 15 16 30
ATOM$BLUE        STATIC     ATOMS    COLORGROUP SYSTEM
4 31 32 33 34
ATOM$RED        STATIC     ATOMS    COLORGROUP SYSTEM
3 15 16 30
