#       Name:                AV-unprocessed.smi:1659
#       Creating user name   scv26
#       Creation time:       Fri Mar 27 07:35:37 2020


#       File generated by GOLD software.
#

@<TRIPOS>MOLECULE
AV-unprocessed.smi:1659
    50    51     1
SMALL
NO_CHARGES


@<TRIPOS>ATOM
      1 ****        -7.2351   3.3159  -1.4120 C.3            1 S1                 0.0000
      2 ****        -5.7872   2.9649  -1.4463 C.2            1 S1                 0.0000
      3 ****        -5.0980   1.9112  -1.9774 C.2            1 S1                 0.0000
      4 ****        -3.7498   2.2117  -1.6469 C.2            1 S1                 0.0000
      5 ****        -2.6957   1.3432  -2.0295 N.am           1 S1                 0.0000
      6 ****        -1.3812   1.4982  -1.7961 C.2            1 S1                 0.0000
      7 ****        -0.8744   2.4464  -1.1960 O.2            1 S1                 0.0000
      8 ****        -0.6723   0.4786  -2.3022 N.am           1 S1                 0.0000
      9 ****         0.7772   0.3426  -2.2151 C.3            1 S1                 0.0000
     10 ****         1.2111  -0.2176  -0.8514 C.3            1 S1                 0.0000
     11 ****         2.7344  -0.4060  -0.7517 C.3            1 S1                 0.0000
     12 ****         3.1226  -0.9501   0.5586 N.am           1 S1                 0.0000
     13 ****         3.2870  -2.4107   0.6191 C.3            1 S1                 0.0000
     14 ****         2.2438  -3.0870   1.5294 C.3            1 S1                 0.0000
     15 ****         2.5913  -3.0331   3.0246 C.3            1 S1                 0.0000
     16 ****         2.6539  -1.6149   3.6101 C.3            1 S1                 0.0000
     17 ****         3.7412  -0.7388   2.9659 C.3            1 S1                 0.0000
     18 ****         3.2978  -0.1354   1.6269 C.2            1 S1                 0.0000
     19 ****         3.1282   1.0831   1.5677 O.2            1 S1                 0.0000
     20 ****        -3.6273   3.3456  -0.9739 N.2            1 S1                 0.0000
     21 ****        -4.9325   3.8347  -0.8428 O.3            1 S1                 0.0000
     22 ****        -7.8496   2.4631  -1.7006 H              1 S1                 0.0000
     23 ****        -7.4495   4.1355  -2.0979 H              1 S1                 0.0000
     24 ****        -7.5353   3.6243  -0.4104 H              1 S1                 0.0000
     25 ****        -5.4973   1.0645  -2.5156 H              1 S1                 0.0000
     26 ****        -2.9724   0.5156  -2.5363 H              1 S1                 0.0000
     27 ****        -1.1703  -0.2578  -2.7808 H              1 S1                 0.0000
     28 ****         1.1014  -0.3279  -3.0113 H              1 S1                 0.0000
     29 ****         1.2569   1.3044  -2.4043 H              1 S1                 0.0000
     30 ****         0.8726   0.4506  -0.0586 H              1 S1                 0.0000
     31 ****         0.7159  -1.1741  -0.6796 H              1 S1                 0.0000
     32 ****         3.0800  -1.0523  -1.5589 H              1 S1                 0.0000
     33 ****         3.2360   0.5474  -0.9281 H              1 S1                 0.0000
     34 ****         3.1860  -2.8428  -0.3768 H              1 S1                 0.0000
     35 ****         4.3000  -2.6632   0.9352 H              1 S1                 0.0000
     36 ****         1.2552  -2.6606   1.3541 H              1 S1                 0.0000
     37 ****         2.1689  -4.1367   1.2433 H              1 S1                 0.0000
     38 ****         1.8464  -3.6062   3.5775 H              1 S1                 0.0000
     39 ****         3.5426  -3.5389   3.1948 H              1 S1                 0.0000
     40 ****         1.6781  -1.1339   3.5254 H              1 S1                 0.0000
     41 ****         2.8544  -1.6904   4.6792 H              1 S1                 0.0000
     42 ****         3.9707   0.0851   3.6431 H              1 S1                 0.0000
     43 ****         4.6747  -1.2896   2.8458 H              1 S1                 0.0000
     44 ****        -1.4536   3.1792  -0.8389 LP             1 S1                 0.0000
     45 ****         0.1164   2.4837  -1.0658 LP             1 S1                 0.0000
     46 ****         2.8500   1.5080   0.7062 LP             1 S1                 0.0000
     47 ****         3.2687   1.6476   2.3811 LP             1 S1                 0.0000
     48 ****        -2.7846   3.7624  -0.6330 LP             1 S1                 0.0000
     49 ****        -5.1651   3.9173   0.1263 LP             1 S1                 0.0000
     50 ****        -5.0012   4.7316  -1.2797 LP             1 S1                 0.0000
@<TRIPOS>BOND
    1    1    2 1     
    2    1   22 1     
    3    1   23 1     
    4    1   24 1     
    5    2   21 1     
    6    2    3 2     
    7    3    4 1     
    8    3   25 1     
    9    4    5 1     
   10    4   20 2     
   11    5    6 am    
   12    5   26 1     
   13    6    7 2     
   14    6    8 am    
   15    8    9 1     
   16    8   27 1     
   17    9   10 1     
   18    9   28 1     
   19    9   29 1     
   20   10   11 1     
   21   10   30 1     
   22   10   31 1     
   23   11   12 1     
   24   11   32 1     
   25   11   33 1     
   26   12   18 am    
   27   12   13 1     
   28   13   14 1     
   29   13   34 1     
   30   13   35 1     
   31   14   15 1     
   32   14   36 1     
   33   14   37 1     
   34   15   16 1     
   35   15   38 1     
   36   15   39 1     
   37   16   17 1     
   38   16   40 1     
   39   16   41 1     
   40   17   18 1     
   41   17   42 1     
   42   17   43 1     
   43   18   19 2     
   44   20   21 1     
   45    7   44 1     
   46    7   45 1     
   47   19   46 1     
   48   19   47 1     
   49   20   48 1     
   50   21   49 1     
   51   21   50 1     
@<TRIPOS>SUBSTRUCTURE
      1 S1             1
@<TRIPOS>SET
LONE_PAIRS      STATIC     ATOMS    <user>   **** ""
7 44 45 46 47 48 49 50
DONOR_HYDROGENS      STATIC     ATOMS    <user>   **** ""
2 26 27
ATOM$BLUE        STATIC     ATOMS    COLORGROUP SYSTEM
7 44 45 46 47 48 49 50
ATOM$RED        STATIC     ATOMS    COLORGROUP SYSTEM
2 26 27
