AV-unprocessed.smi:39|AV-procd|sdf|359|dock3
  -GOLD-   2262016193D 1   1.00000     0.00000
 Structure written by MMmdl.
 31 32  0  0  0  0  0  0  0  0  4 V2000
  150.1512  143.8200  158.7210 C   0  0  0  0  0  0  0  0  0  0  0  0
  151.0516  142.6070  158.5653 C   0  0  0  0  0  0  0  0  0  0  0  0
  151.1194  141.9021  157.4143 C   0  0  0  0  0  0  0  0  0  0  0  0
  151.9384  140.7945  157.2775 N   0  0  0  0  0  0  0  0  0  0  0  0
  151.9870  140.0130  155.9812 C   0  0  1  0  0  0  0  0  0  0  0  0
  151.6153  138.5486  156.2299 C   0  0  0  0  0  0  0  0  0  0  0  0
  150.1441  138.5370  155.8603 C   0  0  2  0  0  0  0  0  0  0  0  0
  149.6621  137.2063  155.4834 N   0  0  0  0  0  0  0  0  0  0  0  0
  150.4656  136.2735  155.6132 N   0  3  0  0  0  0  0  0  0  0  0  0
  151.2902  135.4927  155.6865 N   0  5  0  0  0  0  0  0  0  0  0  0
  150.1249  139.5232  154.6895 C   0  0  1  0  0  0  0  0  0  0  0  0
  148.7412  140.1392  154.4288 C   0  0  0  0  0  0  0  0  0  0  0  0
  148.8179  141.0829  153.3818 O   0  0  0  0  0  0  0  0  0  0  0  0
  151.0449  140.5374  155.0896 O   0  0  0  0  0  0  0  0  0  0  0  0
  152.7184  140.3600  158.3813 C   0  0  0  0  0  0  0  0  0  0  0  0
  153.4095  139.3506  158.2412 O   0  0  0  0  0  0  0  0  0  0  0  0
  152.6624  141.0694  159.5444 N   0  5  0  0  0  0  0  0  0  0  0  0
  151.8764  142.1733  159.6992 C   0  0  0  0  0  0  0  0  0  0  0  0
  151.8393  142.8074  160.7531 O   0  0  0  0  0  0  0  0  0  0  0  0
  152.9900  140.1532  155.5752 H   0  0  0  0  0  0  0  0  0  0  0  0
  149.5594  138.9488  156.6857 H   0  0  0  0  0  0  0  0  0  0  0  0
  150.5101  139.0305  153.7945 H   0  0  0  0  0  0  0  0  0  0  0  0
  149.6044  144.0285  157.8012 H   0  0  0  0  0  0  0  0  0  0  0  0
  150.7406  144.7024  158.9716 H   0  0  0  0  0  0  0  0  0  0  0  0
  149.4239  143.6539  159.5163 H   0  0  0  0  0  0  0  0  0  0  0  0
  150.5078  142.2166  156.5829 H   0  0  0  0  0  0  0  0  0  0  0  0
  152.1969  137.9254  155.5491 H   0  0  0  0  0  0  0  0  0  0  0  0
  151.8181  138.2353  157.2550 H   0  0  0  0  0  0  0  0  0  0  0  0
  148.0386  139.3658  154.1176 H   0  0  0  0  0  0  0  0  0  0  0  0
  148.3342  140.6013  155.3283 H   0  0  0  0  0  0  0  0  0  0  0  0
  149.4239  140.7616  152.7319 H   0  0  0  0  0  0  0  0  0  0  0  0
  1  2  1  0  0  0  0
  1 23  1  0  0  0  0
  1 24  1  0  0  0  0
  1 25  1  0  0  0  0
  2 18  1  0  0  0  0
  2  3  2  0  0  0  0
  3  4  1  0  0  0  0
  3 26  1  0  0  0  0
  4  5  1  0  0  0  0
  4 15  1  0  0  0  0
  5 20  1  0  0  0  0
  5 14  1  0  0  0  0
  5  6  1  0  0  0  0
  6  7  1  0  0  0  0
  6 27  1  0  0  0  0
  6 28  1  0  0  0  0
  7 21  1  0  0  0  0
  7  8  1  0  0  0  0
  7 11  1  0  0  0  0
  8  9  2  0  0  0  0
  9 10  2  0  0  0  0
 11 22  1  0  0  0  0
 11 12  1  0  0  0  0
 11 14  1  0  0  0  0
 12 13  1  0  0  0  0
 12 29  1  0  0  0  0
 12 30  1  0  0  0  0
 13 31  1  0  0  0  0
 15 16  2  0  0  0  0
 15 17  1  0  0  0  0
 17 18  1  0  0  0  0
 18 19  2  0  0  0  0
M  CHG  1   9   1
M  CHG  1  10  -1
M  CHG  1  17  -1
M  END
> <s_m_source_file>
AV-unprocessed.smi

> <i_m_source_file_index>
39

> <i_lp_mmshare_version>
43012

> <i_f3d_flags>
0

> <s_epik_input>
Tz1jMVtuSF1jKD1PKW4oW2NIXWMxW0NIM10pW0NASF0yW0NIMl1bQ0BIXShOPVtOK109W04tXSlbQ0BIXShPMilbQ0gyXVtPSF0=

> <s_epik_cmdline>
J2VwaWtfcHl0aG9uJywgJy1waCcsICc3LjAnLCAnLXRuJywgJzgnLCAnLW1hJywgJzIwMCcsICctbWV0YWxfYmluZGluZycsICctaW1hZScsICc8aW5maWxlLm1hZT4nLCAnLW9tYWUnLCAnPG91dGZpbGUubWFlPic=

> <r_lp_tautomer_probability>
0.999537

> <r_epik_Ionization_Penalty>
3.6393

> <r_epik_Ionization_Penalty_Charging>
9.76484e-08

> <r_epik_Ionization_Penalty_Neutral>
3.6393

> <r_epik_State_Penalty>
3.63887

> <r_epik_Charging_Adjusted_Penalty>
3.63887

> <i_epik_Tot_Q>
-1

> <i_epik_Tot_abs_Q>
3

> <r_epik_Metal_State_Penalty>
0.225911

> <b_epik_Metal_Only>
1

> <s_epik_Chemistry_Notes>
This compound contains an acetal/aminal-like group ( X-CH(R)-Y where X, Y are N, S, or O) that may be acid/base labile, releasing an aldehyde.

> <s_lp_Force_Field>
OPLS_2005

> <r_lp_Energy>
34.0218

> <b_lp_Chiralities_Consistent>
1

> <s_lp_Variant>
AV-unprocessed.smi:39-9

> <Gold.Version>
5.8.1

> <Gold.Id.Protein>
6NUR|6NUR_protein|mol2

> <Gold.PLP.Fitness>
39.4781

> <Gold.PLP.PLP>
-27.5742

> <Gold.PLP.part.hbond>
-5.6529

> <Gold.PLP.part.metal>
0.0000

> <Gold.PLP.part.buried>
-4.3968

> <Gold.PLP.part.nonpolar>
-17.5780

> <Gold.PLP.part.repulsive>
0.3900

> <Gold.PLP.ligand.clash>
0.0000

> <Gold.PLP.ligand.torsion>
0.0534

> <Gold.PLP.Chemscore.Hbond>
3.9920

> <Gold.PLP.Chemscore.CHOScore>
0.0000

> <Gold.PLP.Chemscore.Metal>
0.0000

> <Gold.Chemscore.Hbonds>
donor molecule, donor type, donor heavy atom, donor atom, acceptor molecule, acceptor atom, score
      L1  H    13    31       P1  7957  0.93
      P1  H  7989  7998       L1    14  0.78
      P1  H  7997  8009       L1    16  0.90
      P1  H 10752 10764       L1    10  1.00

> <Gold.PLP.Chemscore.Internal.Correction>
0.0346

> <Gold.Rescore>
     Score         DG    S(hbond)    S(metal)    S(lipo)     H(rot)  DE(clash)    DE(int)     intcor
     12.33     -13.71       3.15        0.00      39.92       2.72       0.04       1.35       ----

> <Gold.Chemscore.Fitness>
12.3275

> <Gold.Chemscore.DG>
-13.7093

> <Gold.Chemscore.ZeroCoef>
-5.4800

> <Gold.Chemscore.Hbond>
3.1465

> <Gold.Chemscore.Metal>
0.0000

> <Gold.Chemscore.Lipo>
39.9238

> <Gold.Chemscore.Internal_Hbond>
0.0000

> <Gold.Chemscore.DEClash>
0.0366

> <Gold.Chemscore.DEInternal>
1.3452

> <Gold.Chemscore.Rot>
2.7153

> <Gold.Chemscore.Internal.Correction>
   9.000000E+99

> <Gold.Chemscore.Hbonds>
donor molecule, donor type, donor heavy atom, donor atom, acceptor molecule, acceptor atom, score
      L1  H    13    31       P1  7957  0.90
      P1  H  7989  7998       L1    14  0.10
      P1  H  7997  8009       L1    16  0.18
      P1  H 10752 10764       L1    10  0.99

> <Gold.Chemscore.Hbond.Weighted>
-10.5094

> <Gold.Chemscore.Metal.Weighted>
-0.0000

> <Gold.Chemscore.Lipo.Weighted>
-4.6711

> <Gold.Chemscore.Internal_Hbond.Weighted>
0.0000

> <Gold.Chemscore.DEClash.Weighted>
0.0366

> <Gold.Chemscore.DEInternal.Weighted>
1.3452

> <Gold.Chemscore.Rot.Weighted>
6.9512

> <Gold.Chemscore.Internal.Correction.Weighted>
   9.000000E+99

> <Gold.Protein.RotatedTorsions>
[ 6907 6896 6895 6894 ] final   20.09 input  -60.11 | X-H torsion
[ 7974 7965 7964 7962 ] final   85.35 input  175.53 | X-H torsion
[ 8008 7997 7996 7995 ] final  154.59 input   59.86 | X-H torsion
[ 10167 10162 10161 10158 ] final  172.73 input  -65.29 | X-H torsion
[ 10718 10713 10712 10709 ] final   55.77 input   66.30 | X-H torsion
[ 10763 10752 10751 10750 ] final  -48.81 input  -60.55 | X-H torsion
[ 11005 11000 10999 10996 ] final   36.20 input  -57.11 | X-H torsion

> <Gold.Protein.ActiveResidues>
 VAL166  LYS551  ARG553  GLY616  TRP617  ASP618  TYR619  PRO620  LYS621  CYS622 
 ASP623  PHE694  ASN695  SER759  ASP760  ASP761  ALA762  ILE779  LEU786  VAL792 
 PHE793  MET794  SER795  GLU796  ALA797  LYS798  CYS799  TRP800  GLU811  SER814 

> <Gold.Protein.RotatedAtoms>
  151.8909  135.0417  160.0497 H   0  0  0  0  0  0  0  0  0  0  0  0  # atno 6907 bound_to 6896
  152.2437  133.5152  159.5293 H   0  0  0  0  0  0  0  0  0  0  0  0  # atno 6908 bound_to 6896
  150.7061  134.0971  159.3995 H   0  0  0  0  0  0  0  0  0  0  0  0  # atno 6909 bound_to 6896
  145.5867  139.2332  143.2322 H   0  0  0  0  0  0  0  0  0  0  0  0  # atno 7974 bound_to 7965
  156.2523  140.1962  156.6669 H   0  0  0  0  0  0  0  0  0  0  0  0  # atno 8008 bound_to 7997
  154.6422  140.0582  156.9884 H   0  0  0  0  0  0  0  0  0  0  0  0  # atno 8009 bound_to 7997
  155.1546  140.3254  155.4427 H   0  0  0  0  0  0  0  0  0  0  0  0  # atno 8010 bound_to 7997
  139.5086  144.3340  152.0083 H   0  0  0  0  0  0  0  0  0  0  0  0  # atno 10167 bound_to 10162
  157.5374  130.8673  149.8773 H   0  0  0  0  0  0  0  0  0  0  0  0  # atno 10718 bound_to 10713
  154.0839  135.6587  153.4842 H   0  0  0  0  0  0  0  0  0  0  0  0  # atno 10763 bound_to 10752
  153.0346  135.5186  154.7447 H   0  0  0  0  0  0  0  0  0  0  0  0  # atno 10764 bound_to 10752
  154.6550  135.3006  154.9907 H   0  0  0  0  0  0  0  0  0  0  0  0  # atno 10765 bound_to 10752
  140.2349  134.3483  155.7948 H   0  0  0  0  0  0  0  0  0  0  0  0  # atno 11005 bound_to 11000
  146.1676  140.6694  142.9248 LP  0  0  0  0  0  0  0  0  0  0  0  0  # atno 17320 bound_to 7965
  144.7369  140.4834  143.6897 LP  0  0  0  0  0  0  0  0  0  0  0  0  # atno 17321 bound_to 7965
  140.2779  144.3892  150.6129 LP  0  0  0  0  0  0  0  0  0  0  0  0  # atno 17342 bound_to 10162
  140.6040  143.2167  151.7017 LP  0  0  0  0  0  0  0  0  0  0  0  0  # atno 17343 bound_to 10162
  156.0469  130.3726  150.1295 LP  0  0  0  0  0  0  0  0  0  0  0  0  # atno 17370 bound_to 10713
  156.9476  130.9764  151.3504 LP  0  0  0  0  0  0  0  0  0  0  0  0  # atno 17371 bound_to 10713
  141.2215  133.7266  156.8792 LP  0  0  0  0  0  0  0  0  0  0  0  0  # atno 17394 bound_to 11000
  140.1712  134.9099  157.2835 LP  0  0  0  0  0  0  0  0  0  0  0  0  # atno 17395 bound_to 11000

$$$$
