AV-unprocessed.smi:794|AV-procd|sdf|3757|dock5
  -GOLD-   22720 1193D 1   1.00000     0.00000
 Structure written by MMmdl.
 41 43  0  0  0  0  0  0  0  0  1 V2000
  147.6410  136.3951  163.1938 C   0  0  0  0  0  0  0  0  0  0  0  0
  147.7804  136.1354  161.7251 C   0  0  0  0  0  0  0  0  0  0  0  0
  148.0657  137.1961  160.8599 N   0  0  0  0  0  0  0  0  0  0  0  0
  148.1600  136.7994  159.5868 C   0  0  0  0  0  0  0  0  0  0  0  0
  148.4461  137.6624  158.4970 N   0  0  0  0  0  0  0  0  0  0  0  0
  147.6915  137.9120  157.4128 C   0  0  0  0  0  0  0  0  0  0  0  0
  146.5994  137.3976  157.1705 O   0  0  0  0  0  0  0  0  0  0  0  0
  148.2861  138.8027  156.6064 N   0  0  0  0  0  0  0  0  0  0  0  0
  147.7316  139.3190  155.3538 C   0  0  1  0  0  0  0  0  0  0  0  0
  147.3033  140.8032  155.4699 C   0  0  1  0  0  0  0  0  0  0  0  0
  148.4328  141.6708  156.0661 C   0  0  0  0  0  0  0  0  0  0  0  0
  149.4735  141.6908  154.9324 C   0  0  0  0  0  0  0  0  0  0  0  0
  148.7915  140.8641  153.8220 C   0  0  2  0  0  0  0  0  0  0  0  0
  147.3315  141.2573  154.0140 C   0  0  0  0  0  0  0  0  0  0  0  0
  148.7390  139.3554  154.1676 C   0  0  1  0  0  0  0  0  0  0  0  0
  150.1041  138.6589  154.3679 C   0  0  0  0  0  0  0  0  0  0  0  0
  149.9403  137.2570  154.3978 O   0  0  0  0  0  0  0  0  0  0  0  0
  147.8989  135.0785  159.3642 S   0  0  0  0  0  0  0  0  0  0  0  0
  147.6561  134.9230  161.0863 C   0  0  0  0  0  0  0  0  0  0  0  0
  147.3575  133.5959  161.7007 C   0  0  0  0  0  0  0  0  0  0  0  0
  148.2637  135.7140  163.7743 H   0  0  0  0  0  0  0  0  0  0  0  0
  146.6096  136.2584  163.5194 H   0  0  0  0  0  0  0  0  0  0  0  0
  147.9370  137.4121  163.4543 H   0  0  0  0  0  0  0  0  0  0  0  0
  149.3241  138.1567  158.5557 H   0  0  0  0  0  0  0  0  0  0  0  0
  149.1851  139.1678  156.8841 H   0  0  0  0  0  0  0  0  0  0  0  0
  146.8600  138.7274  155.0655 H   0  0  0  0  0  0  0  0  0  0  0  0
  146.3442  140.9396  155.9703 H   0  0  0  0  0  0  0  0  0  0  0  0
  148.0714  142.6811  156.2621 H   0  0  0  0  0  0  0  0  0  0  0  0
  148.8371  141.2880  157.0028 H   0  0  0  0  0  0  0  0  0  0  0  0
  149.6430  142.7146  154.5965 H   0  0  0  0  0  0  0  0  0  0  0  0
  150.4382  141.2891  155.2390 H   0  0  0  0  0  0  0  0  0  0  0  0
  149.1850  141.0675  152.8255 H   0  0  0  0  0  0  0  0  0  0  0  0
  146.6429  140.7027  153.3738 H   0  0  0  0  0  0  0  0  0  0  0  0
  147.1494  142.3262  153.8885 H   0  0  0  0  0  0  0  0  0  0  0  0
  148.2578  138.8505  153.3276 H   0  0  0  0  0  0  0  0  0  0  0  0
  150.8201  138.9207  153.5898 H   0  0  0  0  0  0  0  0  0  0  0  0
  150.5437  138.9652  155.3174 H   0  0  0  0  0  0  0  0  0  0  0  0
  149.6540  136.9693  153.5444 H   0  0  0  0  0  0  0  0  0  0  0  0
  146.4768  133.6545  162.3410 H   0  0  0  0  0  0  0  0  0  0  0  0
  148.1956  133.2558  162.3094 H   0  0  0  0  0  0  0  0  0  0  0  0
  147.1669  132.8405  160.9377 H   0  0  0  0  0  0  0  0  0  0  0  0
  1  2  1  0  0  0  0
  1 21  1  0  0  0  0
  1 22  1  0  0  0  0
  1 23  1  0  0  0  0
  2 19  2  0  0  0  0
  2  3  1  0  0  0  0
  3  4  2  0  0  0  0
  4  5  1  0  0  0  0
  4 18  1  0  0  0  0
  5  6  1  0  0  0  0
  5 24  1  0  0  0  0
  6  7  2  0  0  0  0
  6  8  1  0  0  0  0
  8  9  1  0  0  0  0
  8 25  1  0  0  0  0
  9 15  1  0  0  0  0
  9 10  1  0  0  0  0
  9 26  1  0  0  0  0
 10 14  1  0  0  0  0
 10 11  1  0  0  0  0
 10 27  1  0  0  0  0
 11 12  1  0  0  0  0
 11 28  1  0  0  0  0
 11 29  1  0  0  0  0
 12 13  1  0  0  0  0
 12 30  1  0  0  0  0
 12 31  1  0  0  0  0
 13 14  1  0  0  0  0
 13 15  1  0  0  0  0
 13 32  1  0  0  0  0
 14 33  1  0  0  0  0
 14 34  1  0  0  0  0
 15 16  1  0  0  0  0
 15 35  1  0  0  0  0
 16 17  1  0  0  0  0
 16 36  1  0  0  0  0
 16 37  1  0  0  0  0
 17 38  1  0  0  0  0
 18 19  1  0  0  0  0
 19 20  1  0  0  0  0
 20 39  1  0  0  0  0
 20 40  1  0  0  0  0
 20 41  1  0  0  0  0
M  END
> <s_m_source_file>
AV-unprocessed.smi

> <i_m_source_file_index>
794

> <i_lp_mmshare_version>
43012

> <i_f3d_flags>
0

> <s_epik_input>
W0NIM11jMW5jKHNjMVtDSDNdKVtOSF1DKD1PKVtOSF1bQ0BIXShbQ0BASF0yMylbQ0BIXShbQ0gyXVtPSF0pW0NAQEhdKFtDSDJdMylbQ0gyXVtDSDJdMg==

> <s_epik_cmdline>
J2VwaWtfcHl0aG9uJywgJy1waCcsICc3LjAnLCAnLXRuJywgJzgnLCAnLW1hJywgJzIwMCcsICctbWV0YWxfYmluZGluZycsICctaW1hZScsICc8aW5maWxlLm1hZT4nLCAnLW9tYWUnLCAnPG91dGZpbGUubWFlPic=

> <r_lp_tautomer_probability>
0.999

> <r_epik_Ionization_Penalty>
0.000713029

> <r_epik_Ionization_Penalty_Charging>
0

> <r_epik_Ionization_Penalty_Neutral>
0.000713029

> <r_epik_State_Penalty>
0.000177984

> <r_epik_Charging_Adjusted_Penalty>
0.000177984

> <i_epik_Tot_Q>
0

> <i_epik_Tot_abs_Q>
0

> <r_epik_Metal_State_Penalty>
-0

> <b_epik_Metal_Only>
0

> <s_lp_Force_Field>
OPLS_2005

> <r_lp_Energy>
49.1423

> <b_lp_Chiralities_Consistent>
1

> <s_lp_Variant>
AV-unprocessed.smi:794-2

> <Gold.Version>
5.8.1

> <Gold.Id.Protein>
6NUR|6NUR_protein|mol2

> <Gold.PLP.Fitness>
37.8728

> <Gold.PLP.PLP>
-31.5588

> <Gold.PLP.part.hbond>
-3.0000

> <Gold.PLP.part.metal>
0.0000

> <Gold.PLP.part.buried>
1.2100

> <Gold.PLP.part.nonpolar>
-28.9533

> <Gold.PLP.part.repulsive>
0.1525

> <Gold.PLP.ligand.clash>
0.0000

> <Gold.PLP.ligand.torsion>
0.7713

> <Gold.PLP.Chemscore.Hbond>
2.6160

> <Gold.PLP.Chemscore.CHOScore>
0.0000

> <Gold.PLP.Chemscore.Metal>
0.0000

> <Gold.Chemscore.Hbonds>
donor molecule, donor type, donor heavy atom, donor atom, acceptor molecule, acceptor atom, score
      L1  H    17    38       P1  7948  1.00
      P1  H  6931  6943       L1     3  0.90
      P1  H  6934  6947       L1     3  0.72

> <Gold.PLP.Chemscore.Internal.Correction>
0.0086

> <Gold.Rescore>
     Score         DG    S(hbond)    S(metal)    S(lipo)     H(rot)  DE(clash)    DE(int)     intcor
     16.10     -17.29       2.01        0.00      82.43       1.78       0.37       0.82       ----

> <Gold.Chemscore.Fitness>
16.0998

> <Gold.Chemscore.DG>
-17.2896

> <Gold.Chemscore.ZeroCoef>
-5.4800

> <Gold.Chemscore.Hbond>
2.0124

> <Gold.Chemscore.Metal>
0.0000

> <Gold.Chemscore.Lipo>
82.4319

> <Gold.Chemscore.Internal_Hbond>
0.0000

> <Gold.Chemscore.DEClash>
0.3666

> <Gold.Chemscore.DEInternal>
0.8232

> <Gold.Chemscore.Rot>
1.7798

> <Gold.Chemscore.Internal.Correction>
   9.000000E+99

> <Gold.Chemscore.Hbonds>
donor molecule, donor type, donor heavy atom, donor atom, acceptor molecule, acceptor atom, score
      L1  H    17    38       P1  7948  0.70
      P1  H  6931  6943       L1     3  0.31
      P1  H  6934  6947       L1     3  0.47

> <Gold.Chemscore.Hbond.Weighted>
-6.7213

> <Gold.Chemscore.Metal.Weighted>
-0.0000

> <Gold.Chemscore.Lipo.Weighted>
-9.6445

> <Gold.Chemscore.Internal_Hbond.Weighted>
0.0000

> <Gold.Chemscore.DEClash.Weighted>
0.3666

> <Gold.Chemscore.DEInternal.Weighted>
0.8232

> <Gold.Chemscore.Rot.Weighted>
4.5562

> <Gold.Chemscore.Internal.Correction.Weighted>
   9.000000E+99

> <Gold.Protein.RotatedTorsions>
[ 6907 6896 6895 6894 ] final   86.13 input  -60.11 | X-H torsion
[ 7974 7965 7964 7962 ] final   77.68 input  175.53 | X-H torsion
[ 8008 7997 7996 7995 ] final  168.29 input   59.86 | X-H torsion
[ 10167 10162 10161 10158 ] final -163.92 input  -65.29 | X-H torsion
[ 10718 10713 10712 10709 ] final -115.02 input   66.30 | X-H torsion
[ 10763 10752 10751 10750 ] final  117.93 input  -60.55 | X-H torsion
[ 11005 11000 10999 10996 ] final  -63.63 input  -57.11 | X-H torsion

> <Gold.Protein.ActiveResidues>
 VAL166  LYS551  ARG553  GLY616  TRP617  ASP618  TYR619  PRO620  LYS621  CYS622 
 ASP623  PHE694  ASN695  SER759  ASP760  ASP761  ALA762  ILE779  LEU786  VAL792 
 PHE793  MET794  SER795  GLU796  ALA797  LYS798  CYS799  TRP800  GLU811  SER814 

> <Gold.Protein.RotatedAtoms>
  152.5388  134.2479  159.8887 H   0  0  0  0  0  0  0  0  0  0  0  0  # atno 6907 bound_to 6896
  151.2444  133.4376  159.2616 H   0  0  0  0  0  0  0  0  0  0  0  0  # atno 6908 bound_to 6896
  151.0597  134.9742  159.8310 H   0  0  0  0  0  0  0  0  0  0  0  0  # atno 6909 bound_to 6896
  145.6869  139.2540  143.1782 H   0  0  0  0  0  0  0  0  0  0  0  0  # atno 7974 bound_to 7965
  156.1560  140.1594  156.8692 H   0  0  0  0  0  0  0  0  0  0  0  0  # atno 8008 bound_to 7997
  154.5115  140.0800  156.8035 H   0  0  0  0  0  0  0  0  0  0  0  0  # atno 8009 bound_to 7997
  155.3803  140.3405  155.4249 H   0  0  0  0  0  0  0  0  0  0  0  0  # atno 8010 bound_to 7997
  139.6287  144.0482  152.1997 H   0  0  0  0  0  0  0  0  0  0  0  0  # atno 10167 bound_to 10162
  156.0868  130.6058  150.8851 H   0  0  0  0  0  0  0  0  0  0  0  0  # atno 10718 bound_to 10713
  153.5599  135.3523  155.2795 H   0  0  0  0  0  0  0  0  0  0  0  0  # atno 10763 bound_to 10752
  154.8696  135.4134  154.2842 H   0  0  0  0  0  0  0  0  0  0  0  0  # atno 10764 bound_to 10752
  153.3586  135.7059  153.6800 H   0  0  0  0  0  0  0  0  0  0  0  0  # atno 10765 bound_to 10752
  141.1399  133.6654  156.5710 H   0  0  0  0  0  0  0  0  0  0  0  0  # atno 11005 bound_to 11000
  146.0915  140.7650  142.9593 LP  0  0  0  0  0  0  0  0  0  0  0  0  # atno 17320 bound_to 7965
  144.7008  140.3645  143.7157 LP  0  0  0  0  0  0  0  0  0  0  0  0  # atno 17321 bound_to 7965
  140.0142  144.6201  150.7621 LP  0  0  0  0  0  0  0  0  0  0  0  0  # atno 17342 bound_to 10162
  140.7426  143.2834  151.3532 LP  0  0  0  0  0  0  0  0  0  0  0  0  # atno 17343 bound_to 10162
  157.6005  131.0941  150.8969 LP  0  0  0  0  0  0  0  0  0  0  0  0  # atno 17370 bound_to 10713
  156.9127  130.5286  149.5280 LP  0  0  0  0  0  0  0  0  0  0  0  0  # atno 17371 bound_to 10713
  140.3913  134.7438  157.4723 LP  0  0  0  0  0  0  0  0  0  0  0  0  # atno 17394 bound_to 11000
  140.0564  134.6057  155.8800 LP  0  0  0  0  0  0  0  0  0  0  0  0  # atno 17395 bound_to 11000

$$$$
