AV-unprocessed.smi:209|AV-procd|sdf|1608|dock3
  -GOLD-   2262019523D 1   1.00000     0.00000
 Structure written by MMmdl.
 48 52  0  0  0  0  0  0  0  0  1 V2000
  151.2938  144.9130  159.3741 O   0  0  0  0  0  0  0  0  0  0  0  0
  151.1918  143.8349  158.7929 C   0  0  0  0  0  0  0  0  0  0  0  0
  150.5145  143.5947  157.6637 N   0  0  0  0  0  0  0  0  0  0  0  0
  150.6755  142.2212  157.1961 C   0  0  0  0  0  0  0  0  0  0  0  0
  151.9331  141.7773  157.9593 C   0  0  1  0  0  0  0  0  0  0  0  0
  151.8085  142.5341  159.2734 C   0  0  1  0  0  0  0  0  0  0  0  0
  153.1562  142.5199  159.9965 C   0  0  0  0  0  0  0  0  0  0  0  0
  153.5036  141.0334  160.2490 C   0  0  0  0  0  0  0  0  0  0  0  0
  153.4095  140.1643  158.9650 C   0  0  0  0  0  0  0  0  0  0  0  0
  152.1452  140.3614  158.2391 N   0  0  0  0  0  0  0  0  0  0  0  0
  152.0102  139.5660  157.1550 C   0  0  0  0  0  0  0  0  0  0  0  0
  152.8546  139.6971  156.0979 N   0  0  0  0  0  0  0  0  0  0  0  0
  152.7042  138.9152  155.0242 C   0  0  0  0  0  0  0  0  0  0  0  0
  151.7936  137.9632  154.8050 N   0  0  0  0  0  0  0  0  0  0  0  0
  150.9434  137.8359  155.8645 C   0  0  0  0  0  0  0  0  0  0  0  0
  150.9814  138.5930  157.0680 C   0  0  0  0  0  0  0  0  0  0  0  0
  149.9598  138.1921  157.9181 N   0  0  0  0  0  0  0  0  0  0  0  0
  149.3528  137.2449  157.2560 C   0  0  0  0  0  0  0  0  0  0  0  0
  149.8718  136.9712  156.0097 N   0  0  0  0  0  0  0  0  0  0  0  0
  149.3956  135.9710  155.0663 C   0  0  0  0  0  0  0  0  0  0  0  0
  149.7552  134.5250  155.4558 C   0  0  0  0  0  0  0  0  0  0  0  0
  149.5611  133.6202  154.2219 C   0  0  0  0  0  0  0  0  0  0  0  0
  148.3188  133.8361  153.5823 O   0  0  0  0  0  0  0  0  0  0  0  0
  151.0840  134.3711  156.2099 C   0  0  0  0  0  0  0  0  0  0  0  0
  150.4548  133.6546  157.2951 O   0  0  0  0  0  0  0  0  0  0  0  0
  149.1555  134.0083  156.7717 C   0  0  0  0  0  0  0  0  0  0  0  0
  152.8053  142.1489  157.4157 H   0  0  0  0  0  0  0  0  0  0  0  0
  151.0581  142.0597  159.9095 H   0  0  0  0  0  0  0  0  0  0  0  0
  150.0092  144.2964  157.1422 H   0  0  0  0  0  0  0  0  0  0  0  0
  149.7989  141.6363  157.4793 H   0  0  0  0  0  0  0  0  0  0  0  0
  150.8032  142.1676  156.1146 H   0  0  0  0  0  0  0  0  0  0  0  0
  153.9269  142.9979  159.3903 H   0  0  0  0  0  0  0  0  0  0  0  0
  153.0994  143.0658  160.9387 H   0  0  0  0  0  0  0  0  0  0  0  0
  154.5005  140.9506  160.6821 H   0  0  0  0  0  0  0  0  0  0  0  0
  152.8149  140.6324  160.9939 H   0  0  0  0  0  0  0  0  0  0  0  0
  154.2464  140.4118  158.3104 H   0  0  0  0  0  0  0  0  0  0  0  0
  153.5181  139.1109  159.2266 H   0  0  0  0  0  0  0  0  0  0  0  0
  153.4145  139.0759  154.2266 H   0  0  0  0  0  0  0  0  0  0  0  0
  148.5037  136.7170  157.6643 H   0  0  0  0  0  0  0  0  0  0  0  0
  148.3154  136.0806  154.9616 H   0  0  0  0  0  0  0  0  0  0  0  0
  149.8113  136.2183  154.0885 H   0  0  0  0  0  0  0  0  0  0  0  0
  150.3394  133.7952  153.4789 H   0  0  0  0  0  0  0  0  0  0  0  0
  149.6196  132.5674  154.4997 H   0  0  0  0  0  0  0  0  0  0  0  0
  148.4239  134.5264  152.9456 H   0  0  0  0  0  0  0  0  0  0  0  0
  151.8324  133.7726  155.6896 H   0  0  0  0  0  0  0  0  0  0  0  0
  151.5145  135.3150  156.5474 H   0  0  0  0  0  0  0  0  0  0  0  0
  148.6783  134.7786  157.3786 H   0  0  0  0  0  0  0  0  0  0  0  0
  148.4997  133.1446  156.6566 H   0  0  0  0  0  0  0  0  0  0  0  0
  1  2  2  0  0  0  0
  2  6  1  0  0  0  0
  2  3  1  0  0  0  0
  3  4  1  0  0  0  0
  3 29  1  0  0  0  0
  4  5  1  0  0  0  0
  4 30  1  0  0  0  0
  4 31  1  0  0  0  0
  5 27  1  0  0  0  0
  5 10  1  0  0  0  0
  5  6  1  0  0  0  0
  6 28  1  0  0  0  0
  6  7  1  0  0  0  0
  7  8  1  0  0  0  0
  7 32  1  0  0  0  0
  7 33  1  0  0  0  0
  8  9  1  0  0  0  0
  8 34  1  0  0  0  0
  8 35  1  0  0  0  0
  9 10  1  0  0  0  0
  9 36  1  0  0  0  0
  9 37  1  0  0  0  0
 10 11  1  0  0  0  0
 11 16  1  0  0  0  0
 11 12  2  0  0  0  0
 12 13  1  0  0  0  0
 13 14  2  0  0  0  0
 13 38  1  0  0  0  0
 14 15  1  0  0  0  0
 15 19  1  0  0  0  0
 15 16  2  0  0  0  0
 16 17  1  0  0  0  0
 17 18  2  0  0  0  0
 18 19  1  0  0  0  0
 18 39  1  0  0  0  0
 19 20  1  0  0  0  0
 20 21  1  0  0  0  0
 20 40  1  0  0  0  0
 20 41  1  0  0  0  0
 21 26  1  0  0  0  0
 21 22  1  0  0  0  0
 21 24  1  0  0  0  0
 22 23  1  0  0  0  0
 22 42  1  0  0  0  0
 22 43  1  0  0  0  0
 23 44  1  0  0  0  0
 24 25  1  0  0  0  0
 24 45  1  0  0  0  0
 24 46  1  0  0  0  0
 25 26  1  0  0  0  0
 26 47  1  0  0  0  0
 26 48  1  0  0  0  0
M  END
> <s_m_source_file>
AV-unprocessed.smi

> <i_m_source_file_index>
209

> <i_lp_mmshare_version>
43012

> <i_f3d_flags>
0

> <s_epik_input>
W0NIMl0xW05IXUMoPU8pW0NAQEhdKFtDQEBIXTEyKVtDSDJdW0NIMl1bQ0gyXU4yYyhuW2NIXW4zKWMoYzM0KW5bY0hdbjRbQ0gyXUM1KFtDSDJdW09IXSlbQ0gyXU9bQ0gyXTU=

> <s_epik_cmdline>
J2VwaWtfcHl0aG9uJywgJy1waCcsICc3LjAnLCAnLXRuJywgJzgnLCAnLW1hJywgJzIwMCcsICctbWV0YWxfYmluZGluZycsICctaW1hZScsICc8aW5maWxlLm1hZT4nLCAnLW9tYWUnLCAnPG91dGZpbGUubWFlPic=

> <r_lp_tautomer_probability>
1

> <r_epik_Ionization_Penalty>
0.00113306

> <r_epik_Ionization_Penalty_Charging>
0

> <r_epik_Ionization_Penalty_Neutral>
0.00113306

> <r_epik_State_Penalty>
0.000624042

> <r_epik_Charging_Adjusted_Penalty>
0.000624042

> <i_epik_Tot_Q>
0

> <i_epik_Tot_abs_Q>
0

> <r_epik_Metal_State_Penalty>
-0

> <b_epik_Metal_Only>
0

> <s_lp_Force_Field>
OPLS_2005

> <r_lp_Energy>
56.9818

> <b_lp_Chiralities_Consistent>
1

> <s_lp_Variant>
AV-unprocessed.smi:209-2

> <Gold.Version>
5.8.1

> <Gold.Id.Protein>
6NUR|6NUR_protein|mol2

> <Gold.PLP.Fitness>
49.3495

> <Gold.PLP.PLP>
-38.3798

> <Gold.PLP.part.hbond>
-3.9805

> <Gold.PLP.part.metal>
0.0000

> <Gold.PLP.part.buried>
-6.5405

> <Gold.PLP.part.nonpolar>
-27.6319

> <Gold.PLP.part.repulsive>
0.1930

> <Gold.PLP.ligand.clash>
0.0000

> <Gold.PLP.ligand.torsion>
0.6175

> <Gold.PLP.Chemscore.Hbond>
3.9360

> <Gold.PLP.Chemscore.CHOScore>
0.0000

> <Gold.PLP.Chemscore.Metal>
0.0000

> <Gold.Chemscore.Hbonds>
donor molecule, donor type, donor heavy atom, donor atom, acceptor molecule, acceptor atom, score
      L1  H     3    29       P1  8028  0.99
      L1  H    23    44       P1  7948  0.96
      P1  H  6896  6908       L1    25  0.86
      P1  H  7997  8008       L1    12  1.00

> <Gold.PLP.Chemscore.Internal.Correction>
0.3967

> <Gold.Rescore>
     Score         DG    S(hbond)    S(metal)    S(lipo)     H(rot)  DE(clash)    DE(int)     intcor
     17.89     -18.89       3.27        0.00      79.66       2.66       0.46       0.54       ----

> <Gold.Chemscore.Fitness>
17.8860

> <Gold.Chemscore.DG>
-18.8920

> <Gold.Chemscore.ZeroCoef>
-5.4800

> <Gold.Chemscore.Hbond>
3.2654

> <Gold.Chemscore.Metal>
0.0000

> <Gold.Chemscore.Lipo>
79.6603

> <Gold.Chemscore.Internal_Hbond>
0.0000

> <Gold.Chemscore.DEClash>
0.4635

> <Gold.Chemscore.DEInternal>
0.5424

> <Gold.Chemscore.Rot>
2.6620

> <Gold.Chemscore.Internal.Correction>
   9.000000E+99

> <Gold.Chemscore.Hbonds>
donor molecule, donor type, donor heavy atom, donor atom, acceptor molecule, acceptor atom, score
      L1  H     3    29       P1  8028  0.62
      L1  H    23    44       P1  7948  0.27
      P1  H  6896  6908       L1    25  0.82
      P1  H  7997  8008       L1    12  0.68

> <Gold.Chemscore.Hbond.Weighted>
-10.9066

> <Gold.Chemscore.Metal.Weighted>
-0.0000

> <Gold.Chemscore.Lipo.Weighted>
-9.3203

> <Gold.Chemscore.Internal_Hbond.Weighted>
0.0000

> <Gold.Chemscore.DEClash.Weighted>
0.4635

> <Gold.Chemscore.DEInternal.Weighted>
0.5424

> <Gold.Chemscore.Rot.Weighted>
6.8148

> <Gold.Chemscore.Internal.Correction.Weighted>
   9.000000E+99

> <Gold.Protein.RotatedTorsions>
[ 6907 6896 6895 6894 ] final  112.99 input  -60.11 | X-H torsion
[ 7974 7965 7964 7962 ] final    7.68 input  175.53 | X-H torsion
[ 8008 7997 7996 7995 ] final  -33.23 input   59.86 | X-H torsion
[ 10167 10162 10161 10158 ] final  114.16 input  -65.29 | X-H torsion
[ 10718 10713 10712 10709 ] final   56.76 input   66.30 | X-H torsion
[ 10763 10752 10751 10750 ] final   12.43 input  -60.55 | X-H torsion
[ 11005 11000 10999 10996 ] final  -40.59 input  -57.11 | X-H torsion

> <Gold.Protein.ActiveResidues>
 VAL166  LYS551  ARG553  GLY616  TRP617  ASP618  TYR619  PRO620  LYS621  CYS622 
 ASP623  PHE694  ASN695  SER759  ASP760  ASP761  ALA762  ILE779  LEU786  VAL792 
 PHE793  MET794  SER795  GLU796  ALA797  LYS798  CYS799  TRP800  GLU811  SER814 

> <Gold.Protein.RotatedAtoms>
  152.4886  133.8438  159.7166 H   0  0  0  0  0  0  0  0  0  0  0  0  # atno 6907 bound_to 6896
  150.8994  133.7129  159.2889 H   0  0  0  0  0  0  0  0  0  0  0  0  # atno 6908 bound_to 6896
  151.4575  135.1039  159.9767 H   0  0  0  0  0  0  0  0  0  0  0  0  # atno 6909 bound_to 6896
  146.2424  140.0047  142.8412 H   0  0  0  0  0  0  0  0  0  0  0  0  # atno 7974 bound_to 7965
  154.4155  140.1716  156.1854 H   0  0  0  0  0  0  0  0  0  0  0  0  # atno 8008 bound_to 7997
  155.9647  140.3390  155.6498 H   0  0  0  0  0  0  0  0  0  0  0  0  # atno 8009 bound_to 7997
  155.6703  140.0711  157.2513 H   0  0  0  0  0  0  0  0  0  0  0  0  # atno 8010 bound_to 7997
  139.6408  144.7123  151.2240 H   0  0  0  0  0  0  0  0  0  0  0  0  # atno 10167 bound_to 10162
  157.5458  130.8730  149.8889 H   0  0  0  0  0  0  0  0  0  0  0  0  # atno 10718 bound_to 10713
  153.1823  135.6829  153.8461 H   0  0  0  0  0  0  0  0  0  0  0  0  # atno 10763 bound_to 10752
  153.7789  135.3185  155.3364 H   0  0  0  0  0  0  0  0  0  0  0  0  # atno 10764 bound_to 10752
  154.8067  135.4744  154.0506 H   0  0  0  0  0  0  0  0  0  0  0  0  # atno 10765 bound_to 10752
  141.0185  133.6874  156.2342 H   0  0  0  0  0  0  0  0  0  0  0  0  # atno 11005 bound_to 11000
  145.1383  140.9557  143.4503 LP  0  0  0  0  0  0  0  0  0  0  0  0  # atno 17320 bound_to 7965
  145.0320  139.3332  143.6019 LP  0  0  0  0  0  0  0  0  0  0  0  0  # atno 17321 bound_to 7965
  140.7490  143.6315  150.8419 LP  0  0  0  0  0  0  0  0  0  0  0  0  # atno 17342 bound_to 10162
  139.9952  143.5804  152.2896 LP  0  0  0  0  0  0  0  0  0  0  0  0  # atno 17343 bound_to 10162
  156.0534  130.3713  150.1147 LP  0  0  0  0  0  0  0  0  0  0  0  0  # atno 17370 bound_to 10713
  156.9324  130.9718  151.3530 LP  0  0  0  0  0  0  0  0  0  0  0  0  # atno 17371 bound_to 10713
  140.6613  134.4965  157.5583 LP  0  0  0  0  0  0  0  0  0  0  0  0  # atno 17394 bound_to 11000
  139.9132  134.8301  156.1457 LP  0  0  0  0  0  0  0  0  0  0  0  0  # atno 17395 bound_to 11000

$$$$
