#       Name:                AV-unprocessed.smi:37
#       Creating user name   scv26
#       Creation time:       Thu Mar 26 16:14:21 2020


#       File generated by GOLD software.
#

@<TRIPOS>MOLECULE
AV-unprocessed.smi:37
    54    55     1
SMALL
NO_CHARGES


@<TRIPOS>ATOM
      1 ****        -5.0119   1.0443  -0.6004 C.3            1 S1                 0.0000
      2 ****        -3.4914   0.8335  -0.6527 C.3            1 S1                 0.0000
      3 ****        -3.0704  -0.6309  -0.5132 C.2            1 S1                 0.0000
      4 ****        -3.8842  -1.5414  -0.3473 O.2            1 S1                 0.0000
      5 ****        -1.7413  -0.7755  -0.5928 O.3            1 S1                 0.0000
      6 ****        -1.1593  -2.0650  -0.4920 C.3            1 S1                 0.0000
      7 ****         0.3732  -1.9672  -0.3931 C.3            1 S1                 0.0000
      8 ****         0.9004  -1.3264  -1.5522 O.3            1 S1                 0.0000
      9 ****         2.1039  -0.7340  -1.1792 C.3            1 S1                 0.0000
     10 ****         2.6002   0.1863  -2.2823 N.am           1 S1                 0.0000
     11 ****         3.1249   1.4384  -1.9999 C.2            1 S1                 0.0000
     12 ****         3.6101   2.2368  -2.9723 C.2            1 S1                 0.0000
     13 ****         4.1069   3.4461  -2.6598 F              1 S1                 0.0000
     14 ****         3.6084   1.7715  -4.3564 C.2            1 S1                 0.0000
     15 ****         4.0185   2.5167  -5.2451 O.2            1 S1                 0.0000
     16 ****         3.1549   0.5088  -4.6004 N.pl3          1 S1                -1.0000
     17 ****         2.6833  -0.3105  -3.6149 C.2            1 S1                 0.0000
     18 ****         2.3372  -1.4726  -3.8268 O.2            1 S1                 0.0000
     19 ****         1.7285  -0.0547   0.1459 C.3            1 S1                 0.0000
     20 ****         0.4937   1.5015  -0.1301 Br             1 S1                 0.0000
     21 ****         0.9647  -1.1995   0.8107 C.3            1 S1                 0.0000
     22 ****        -0.0019  -0.7631   1.7616 O.3            1 S1                 0.0000
     23 ****         0.3674  -0.4581   3.0173 C.2            1 S1                 0.0000
     24 ****         1.5155  -0.5134   3.4617 O.2            1 S1                 0.0000
     25 ****        -0.8222  -0.0101   3.8683 C.3            1 S1                 0.0000
     26 ****        -0.4364   0.3955   5.2989 C.3            1 S1                 0.0000
     27 ****        -5.2565   2.1001  -0.7158 H              1 S1                 0.0000
     28 ****        -5.4276   0.7119   0.3515 H              1 S1                 0.0000
     29 ****        -5.5166   0.5002  -1.3998 H              1 S1                 0.0000
     30 ****        -3.1008   1.2154  -1.5964 H              1 S1                 0.0000
     31 ****        -3.0124   1.4080   0.1405 H              1 S1                 0.0000
     32 ****        -1.5497  -2.5825   0.3855 H              1 S1                 0.0000
     33 ****        -1.4388  -2.6545  -1.3659 H              1 S1                 0.0000
     34 ****         0.7738  -2.9815  -0.3719 H              1 S1                 0.0000
     35 ****         2.8899  -1.4839  -1.0672 H              1 S1                 0.0000
     36 ****         3.1671   1.7971  -0.9837 H              1 S1                 0.0000
     37 ****         2.6050   0.2715   0.7061 H              1 S1                 0.0000
     38 ****         1.6802  -1.8665   1.2951 H              1 S1                 0.0000
     39 ****        -1.3072   0.8283   3.3674 H              1 S1                 0.0000
     40 ****        -1.5491  -0.8218   3.9000 H              1 S1                 0.0000
     41 ****        -1.3150   0.7202   5.8563 H              1 S1                 0.0000
     42 ****         0.2770   1.2207   5.3002 H              1 S1                 0.0000
     43 ****         0.0087  -0.4386   5.8426 H              1 S1                 0.0000
     44 ****        -4.8617  -1.3358  -0.2992 LP             1 S1                 0.0000
     45 ****        -3.5671  -2.4858  -0.2606 LP             1 S1                 0.0000
     46 ****         0.2619  -0.6299  -1.8796 LP             1 S1                 0.0000
     47 ****         1.0585  -1.9996  -2.2745 LP             1 S1                 0.0000
     48 ****         4.3492   3.4324  -5.0167 LP             1 S1                 0.0000
     49 ****         4.0211   2.2068  -6.1958 LP             1 S1                 0.0000
     50 ****         3.1682   0.1684  -5.5406 LP             1 S1                 0.0000
     51 ****         2.0082  -2.0417  -3.0731 LP             1 S1                 0.0000
     52 ****         2.3850  -1.8477  -4.7525 LP             1 S1                 0.0000
     53 ****         2.2670  -0.8056   2.8703 LP             1 S1                 0.0000
     54 ****         1.6956  -0.2661   4.4138 LP             1 S1                 0.0000
@<TRIPOS>BOND
    1    1    2 1     
    2    1   27 1     
    3    1   28 1     
    4    1   29 1     
    5    2    3 1     
    6    2   30 1     
    7    2   31 1     
    8    3    4 2     
    9    3    5 1     
   10    5    6 1     
   11    6    7 1     
   12    6   32 1     
   13    6   33 1     
   14    7   21 1     
   15    7    8 1     
   16    7   34 1     
   17    8    9 1     
   18    9   10 1     
   19    9   19 1     
   20    9   35 1     
   21   10   17 am    
   22   10   11 1     
   23   11   12 2     
   24   11   36 1     
   25   12   13 1     
   26   12   14 1     
   27   14   15 2     
   28   14   16 1     
   29   16   17 1     
   30   17   18 2     
   31   19   20 1     
   32   19   21 1     
   33   19   37 1     
   34   21   22 1     
   35   21   38 1     
   36   22   23 1     
   37   23   24 2     
   38   23   25 1     
   39   25   26 1     
   40   25   39 1     
   41   25   40 1     
   42   26   41 1     
   43   26   42 1     
   44   26   43 1     
   45    4   44 1     
   46    4   45 1     
   47    8   46 1     
   48    8   47 1     
   49   15   48 1     
   50   15   49 1     
   51   16   50 1     
   52   18   51 1     
   53   18   52 1     
   54   24   53 1     
   55   24   54 1     
@<TRIPOS>SUBSTRUCTURE
      1 S1             1
@<TRIPOS>SET
LONE_PAIRS      STATIC     ATOMS    <user>   **** ""
11 44 45 46 47 48 49 50 51 52 53 54
ATOM$BLUE        STATIC     ATOMS    COLORGROUP SYSTEM
11 44 45 46 47 48 49 50 51 52 53 54
