AV-unprocessed.smi:2545|AV-procd|sdf|9995|dock3
  -GOLD-   2272014 43D 1   1.00000     0.00000
 Structure written by MMmdl.
 27 28  0  0  0  0  0  0  0  0  2 V2000
  147.7257  138.7548  152.8140 N   0  0  0  0  0  0  0  0  0  0  0  0
  148.0081  139.9163  153.5353 C   0  0  0  0  0  0  0  0  0  0  0  0
  147.0924  140.9902  153.5048 C   0  0  0  0  0  0  0  0  0  0  0  0
  147.3783  142.1623  154.2329 C   0  0  0  0  0  0  0  0  0  0  0  0
  148.5195  142.2463  154.9490 N   0  3  0  0  0  0  0  0  0  0  0  0
  149.4226  141.2440  155.0065 C   0  0  0  0  0  0  0  0  0  0  0  0
  149.1975  140.0389  154.2987 C   0  0  0  0  0  0  0  0  0  0  0  0
  150.1281  138.9880  154.3471 N   0  0  0  0  0  0  0  0  0  0  0  0
  151.4385  139.3920  154.8409 C   0  0  0  0  0  0  0  0  0  0  0  0
  152.4260  138.2168  154.7343 C   0  0  0  0  0  0  0  0  0  0  0  0
  151.9030  137.0907  155.4335 O   0  0  0  0  0  0  0  0  0  0  0  0
  150.6597  136.6544  154.8911 C   0  0  0  0  0  0  0  0  0  0  0  0
  149.6247  137.7874  155.0029 C   0  0  0  0  0  0  0  0  0  0  0  0
  148.3536  137.9638  152.8088 H   0  0  0  0  0  0  0  0  0  0  0  0
  146.8769  138.6699  152.2725 H   0  0  0  0  0  0  0  0  0  0  0  0
  146.1799  140.9197  152.9305 H   0  0  0  0  0  0  0  0  0  0  0  0
  146.7333  143.0285  154.2633 H   0  0  0  0  0  0  0  0  0  0  0  0
  150.2949  141.4364  155.6139 H   0  0  0  0  0  0  0  0  0  0  0  0
  151.8057  140.2421  154.2646 H   0  0  0  0  0  0  0  0  0  0  0  0
  151.3609  139.7140  155.8802 H   0  0  0  0  0  0  0  0  0  0  0  0
  152.6111  137.9566  153.6908 H   0  0  0  0  0  0  0  0  0  0  0  0
  153.3868  138.4918  155.1695 H   0  0  0  0  0  0  0  0  0  0  0  0
  150.7915  136.3477  153.8522 H   0  0  0  0  0  0  0  0  0  0  0  0
  150.3188  135.7775  155.4415 H   0  0  0  0  0  0  0  0  0  0  0  0
  149.4198  137.9955  156.0539 H   0  0  0  0  0  0  0  0  0  0  0  0
  148.6841  137.4813  154.5435 H   0  0  0  0  0  0  0  0  0  0  0  0
  148.7086  143.1036  155.4692 H   0  0  0  0  0  0  0  0  0  0  0  0
  1  2  1  0  0  0  0
  1 14  1  0  0  0  0
  1 15  1  0  0  0  0
  2  7  1  0  0  0  0
  2  3  2  0  0  0  0
  3  4  1  0  0  0  0
  3 16  1  0  0  0  0
  4  5  2  0  0  0  0
  4 17  1  0  0  0  0
  5  6  1  0  0  0  0
  5 27  1  0  0  0  0
  6  7  2  0  0  0  0
  6 18  1  0  0  0  0
  7  8  1  0  0  0  0
  8 13  1  0  0  0  0
  8  9  1  0  0  0  0
  9 10  1  0  0  0  0
  9 19  1  0  0  0  0
  9 20  1  0  0  0  0
 10 11  1  0  0  0  0
 10 21  1  0  0  0  0
 10 22  1  0  0  0  0
 11 12  1  0  0  0  0
 12 13  1  0  0  0  0
 12 23  1  0  0  0  0
 12 24  1  0  0  0  0
 13 25  1  0  0  0  0
 13 26  1  0  0  0  0
M  CHG  1   5   1
M  END
> <s_m_source_file>
AV-unprocessed.smi

> <i_m_source_file_index>
2545

> <i_lp_mmshare_version>
43012

> <i_f3d_flags>
0

> <s_epik_input>
W05IMl1jMVtjSF1bY0hdbltjSF1jMU4yW0NIMl1bQ0gyXU9bQ0gyXVtDSDJdMg==

> <s_epik_cmdline>
J2VwaWtfcHl0aG9uJywgJy1waCcsICc3LjAnLCAnLXRuJywgJzgnLCAnLW1hJywgJzIwMCcsICctbWV0YWxfYmluZGluZycsICctaW1hZScsICc8aW5maWxlLm1hZT4nLCAnLW9tYWUnLCAnPG91dGZpbGUubWFlPic=

> <r_lp_tautomer_probability>
1

> <r_epik_Ionization_Penalty>
0.0125888

> <r_epik_Ionization_Penalty_Charging>
0.0125847

> <r_epik_Ionization_Penalty_Neutral>
4.08722e-06

> <r_epik_State_Penalty>
0.00974947

> <r_epik_Charging_Adjusted_Penalty>
0.0223342

> <i_epik_Tot_Q>
1

> <i_epik_Tot_abs_Q>
1

> <r_epik_Metal_State_Penalty>
1.6989

> <b_epik_Metal_Only>
0

> <s_lp_Force_Field>
OPLS_2005

> <r_lp_Energy>
29.9348

> <b_lp_Chiralities_Consistent>
1

> <s_lp_Variant>
AV-unprocessed.smi:2545-1

> <Gold.Version>
5.8.1

> <Gold.Id.Protein>
6NUR|6NUR_protein|mol2

> <Gold.PLP.Fitness>
37.1503

> <Gold.PLP.PLP>
-26.0824

> <Gold.PLP.part.hbond>
-4.0000

> <Gold.PLP.part.metal>
0.0000

> <Gold.PLP.part.buried>
-0.1944

> <Gold.PLP.part.nonpolar>
-23.1333

> <Gold.PLP.part.repulsive>
0.4837

> <Gold.PLP.ligand.clash>
0.2720

> <Gold.PLP.ligand.torsion>
0.2446

> <Gold.PLP.Chemscore.Hbond>
3.9040

> <Gold.PLP.Chemscore.CHOScore>
0.0000

> <Gold.PLP.Chemscore.Metal>
0.0000

> <Gold.Chemscore.Hbonds>
donor molecule, donor type, donor heavy atom, donor atom, acceptor molecule, acceptor atom, score
      L1  H     1    14       P1  7948  0.91
      L1  H     5    27       P1  8028  2.00
      P1  H 10752 10765       L1    11  0.93

> <Gold.PLP.Chemscore.Internal.Correction>
0.1170

> <Gold.Rescore>
     Score         DG    S(hbond)    S(metal)    S(lipo)     H(rot)  DE(clash)    DE(int)     intcor
     16.14     -17.10       2.10        0.00      61.20       1.00       0.60       0.35       ----

> <Gold.Chemscore.Fitness>
16.1449

> <Gold.Chemscore.DG>
-17.0982

> <Gold.Chemscore.ZeroCoef>
-5.4800

> <Gold.Chemscore.Hbond>
2.1010

> <Gold.Chemscore.Metal>
0.0000

> <Gold.Chemscore.Lipo>
61.2033

> <Gold.Chemscore.Internal_Hbond>
0.0000

> <Gold.Chemscore.DEClash>
0.6031

> <Gold.Chemscore.DEInternal>
0.3502

> <Gold.Chemscore.Rot>
1.0000

> <Gold.Chemscore.Internal.Correction>
   9.000000E+99

> <Gold.Chemscore.Hbonds>
donor molecule, donor type, donor heavy atom, donor atom, acceptor molecule, acceptor atom, score
      L1  H     1    14       P1  7948  0.83
      L1  H     5    27       P1  8028  0.97
      P1  H 10752 10765       L1    11  0.12

> <Gold.Chemscore.Hbond.Weighted>
-7.0175

> <Gold.Chemscore.Metal.Weighted>
-0.0000

> <Gold.Chemscore.Lipo.Weighted>
-7.1608

> <Gold.Chemscore.Internal_Hbond.Weighted>
0.0000

> <Gold.Chemscore.DEClash.Weighted>
0.6031

> <Gold.Chemscore.DEInternal.Weighted>
0.3502

> <Gold.Chemscore.Rot.Weighted>
2.5600

> <Gold.Chemscore.Internal.Correction.Weighted>
   9.000000E+99

> <Gold.Protein.RotatedTorsions>
[ 6907 6896 6895 6894 ] final  -21.39 input  -60.11 | X-H torsion
[ 7974 7965 7964 7962 ] final  -45.15 input  175.53 | X-H torsion
[ 8008 7997 7996 7995 ] final -130.99 input   59.86 | X-H torsion
[ 10167 10162 10161 10158 ] final  151.54 input  -65.29 | X-H torsion
[ 10718 10713 10712 10709 ] final -139.44 input   66.30 | X-H torsion
[ 10763 10752 10751 10750 ] final -158.71 input  -60.55 | X-H torsion
[ 11005 11000 10999 10996 ] final   59.84 input  -57.11 | X-H torsion

> <Gold.Protein.ActiveResidues>
 VAL166  LYS551  ARG553  GLY616  TRP617  ASP618  TYR619  PRO620  LYS621  CYS622 
 ASP623  PHE694  ASN695  SER759  ASP760  ASP761  ALA762  ILE779  LEU786  VAL792 
 PHE793  MET794  SER795  GLU796  ALA797  LYS798  CYS799  TRP800  GLU811  SER814 

> <Gold.Protein.RotatedAtoms>
  151.2341  135.0565  159.8998 H   0  0  0  0  0  0  0  0  0  0  0  0  # atno 6907 bound_to 6896
  152.5401  134.0505  159.8118 H   0  0  0  0  0  0  0  0  0  0  0  0  # atno 6908 bound_to 6896
  151.0689  133.5433  159.2660 H   0  0  0  0  0  0  0  0  0  0  0  0  # atno 6909 bound_to 6896
  145.9849  140.7244  142.9345 H   0  0  0  0  0  0  0  0  0  0  0  0  # atno 7974 bound_to 7965
  155.3048  140.0454  157.3031 H   0  0  0  0  0  0  0  0  0  0  0  0  # atno 8008 bound_to 7997
  154.5466  140.2304  155.8520 H   0  0  0  0  0  0  0  0  0  0  0  0  # atno 8009 bound_to 7997
  156.1929  140.3046  155.9376 H   0  0  0  0  0  0  0  0  0  0  0  0  # atno 8010 bound_to 7997
  139.4840  144.5432  151.7528 H   0  0  0  0  0  0  0  0  0  0  0  0  # atno 10167 bound_to 10162
  156.3108  130.7480  151.1555 H   0  0  0  0  0  0  0  0  0  0  0  0  # atno 10718 bound_to 10713
  154.7534  135.3098  154.8515 H   0  0  0  0  0  0  0  0  0  0  0  0  # atno 10763 bound_to 10752
  153.9296  135.6787  153.4750 H   0  0  0  0  0  0  0  0  0  0  0  0  # atno 10764 bound_to 10752
  153.1130  135.4857  154.8997 H   0  0  0  0  0  0  0  0  0  0  0  0  # atno 10765 bound_to 10752
  140.0275  134.6062  155.9553 H   0  0  0  0  0  0  0  0  0  0  0  0  # atno 11005 bound_to 11000
  144.6872  140.2971  143.7269 LP  0  0  0  0  0  0  0  0  0  0  0  0  # atno 17320 bound_to 7965
  145.7715  139.1859  143.2209 LP  0  0  0  0  0  0  0  0  0  0  0  0  # atno 17321 bound_to 7965
  140.4975  144.1219  150.5963 LP  0  0  0  0  0  0  0  0  0  0  0  0  # atno 17342 bound_to 10162
  140.4100  143.2661  151.9844 LP  0  0  0  0  0  0  0  0  0  0  0  0  # atno 17343 bound_to 10162
  157.7390  131.0534  150.5257 LP  0  0  0  0  0  0  0  0  0  0  0  0  # atno 17370 bound_to 10713
  156.5397  130.4205  149.6160 LP  0  0  0  0  0  0  0  0  0  0  0  0  # atno 17371 bound_to 10713
  141.1811  133.6547  156.5024 LP  0  0  0  0  0  0  0  0  0  0  0  0  # atno 17394 bound_to 11000
  140.4282  134.7125  157.4927 LP  0  0  0  0  0  0  0  0  0  0  0  0  # atno 17395 bound_to 11000

$$$$
