AV-unprocessed.smi:2993|AV-procd|sdf|11403|dock9
  -GOLD-   2272016323D 1   1.00000     0.00000
 Structure written by MMmdl.
 34 35  0  0  0  0  0  0  0  0  1 V2000
  155.0213  138.1676  162.9649 C   0  0  0  0  0  0  0  0  0  0  0  0
  154.2023  137.9006  161.7346 C   0  0  0  0  0  0  0  0  0  0  0  0
  153.5620  136.7489  161.6251 N   0  0  0  0  0  0  0  0  0  0  0  0
  152.9097  136.7879  160.3891 O   0  0  0  0  0  0  0  0  0  0  0  0
  153.1888  137.9755  159.7944 C   0  0  0  0  0  0  0  0  0  0  0  0
  152.5879  138.2110  158.4502 C   0  0  0  0  0  0  0  0  0  0  0  0
  154.0009  138.7316  160.5940 C   0  0  0  0  0  0  0  0  0  0  0  0
  154.5556  140.1074  160.3265 C   0  0  0  0  0  0  0  0  0  0  0  0
  153.4050  141.1047  160.1980 C   0  0  0  0  0  0  0  0  0  0  0  0
  152.6105  141.0093  159.2631 O   0  0  0  0  0  0  0  0  0  0  0  0
  153.3380  142.0609  161.1374 N   0  0  0  0  0  0  0  0  0  0  0  0
  152.3628  143.1446  161.1762 C   0  0  1  0  0  0  0  0  0  0  0  0
  152.5251  143.9027  162.5007 C   0  0  0  0  0  0  0  0  0  0  0  0
  152.4733  144.0926  159.9939 C   0  0  0  0  0  0  0  0  0  0  0  0
  151.2569  144.8064  159.4539 C   0  0  0  0  0  0  0  0  0  0  0  0
  151.9252  143.7257  158.6350 C   0  0  0  0  0  0  0  0  0  0  0  0
  155.9394  137.5798  162.9559 H   0  0  0  0  0  0  0  0  0  0  0  0
  154.4696  137.9123  163.8699 H   0  0  0  0  0  0  0  0  0  0  0  0
  155.3027  139.2176  163.0381 H   0  0  0  0  0  0  0  0  0  0  0  0
  153.3200  138.6508  157.7725 H   0  0  0  0  0  0  0  0  0  0  0  0
  151.7405  138.8929  158.5216 H   0  0  0  0  0  0  0  0  0  0  0  0
  152.2373  137.2785  158.0074 H   0  0  0  0  0  0  0  0  0  0  0  0
  155.2159  140.4316  161.1319 H   0  0  0  0  0  0  0  0  0  0  0  0
  155.1592  140.1296  159.4187 H   0  0  0  0  0  0  0  0  0  0  0  0
  154.0355  142.0530  161.8671 H   0  0  0  0  0  0  0  0  0  0  0  0
  151.3607  142.7112  161.1710 H   0  0  0  0  0  0  0  0  0  0  0  0
  151.7769  144.6902  162.5962 H   0  0  0  0  0  0  0  0  0  0  0  0
  153.5081  144.3692  162.5731 H   0  0  0  0  0  0  0  0  0  0  0  0
  152.4081  143.2344  163.3547 H   0  0  0  0  0  0  0  0  0  0  0  0
  153.3942  144.6734  159.9901 H   0  0  0  0  0  0  0  0  0  0  0  0
  150.2918  144.5729  159.8993 H   0  0  0  0  0  0  0  0  0  0  0  0
  151.3835  145.8369  159.1281 H   0  0  0  0  0  0  0  0  0  0  0  0
  152.4999  144.0346  157.7641 H   0  0  0  0  0  0  0  0  0  0  0  0
  151.4007  142.7776  158.5351 H   0  0  0  0  0  0  0  0  0  0  0  0
  1  2  1  0  0  0  0
  1 17  1  0  0  0  0
  1 18  1  0  0  0  0
  1 19  1  0  0  0  0
  2  7  1  0  0  0  0
  2  3  2  0  0  0  0
  3  4  1  0  0  0  0
  4  5  1  0  0  0  0
  5  6  1  0  0  0  0
  5  7  2  0  0  0  0
  6 20  1  0  0  0  0
  6 21  1  0  0  0  0
  6 22  1  0  0  0  0
  7  8  1  0  0  0  0
  8  9  1  0  0  0  0
  8 23  1  0  0  0  0
  8 24  1  0  0  0  0
  9 10  2  0  0  0  0
  9 11  1  0  0  0  0
 11 12  1  0  0  0  0
 11 25  1  0  0  0  0
 12 13  1  0  0  0  0
 12 14  1  0  0  0  0
 12 26  1  0  0  0  0
 13 27  1  0  0  0  0
 13 28  1  0  0  0  0
 13 29  1  0  0  0  0
 14 16  1  0  0  0  0
 14 15  1  0  0  0  0
 14 30  1  0  0  0  0
 15 16  1  0  0  0  0
 15 31  1  0  0  0  0
 15 32  1  0  0  0  0
 16 33  1  0  0  0  0
 16 34  1  0  0  0  0
M  END
> <s_m_source_file>
AV-unprocessed.smi

> <i_m_source_file_index>
2993

> <i_lp_mmshare_version>
43012

> <i_f3d_flags>
0

> <s_epik_input>
W0NIM11jMW5vYyhbQ0gzXSljMVtDSDJdQyg9TylbTkhdW0NASF0oW0NIM10pW0NIXTJbQ0gyXVtDSDJdMg==

> <s_epik_cmdline>
J2VwaWtfcHl0aG9uJywgJy1waCcsICc3LjAnLCAnLXRuJywgJzgnLCAnLW1hJywgJzIwMCcsICctbWV0YWxfYmluZGluZycsICctaW1hZScsICc8aW5maWxlLm1hZT4nLCAnLW9tYWUnLCAnPG91dGZpbGUubWFlPic=

> <r_lp_tautomer_probability>
1

> <r_epik_Ionization_Penalty>
1.92533e-08

> <r_epik_Ionization_Penalty_Charging>
0

> <r_epik_Ionization_Penalty_Neutral>
1.92533e-08

> <r_epik_State_Penalty>
-0

> <r_epik_Charging_Adjusted_Penalty>
0

> <i_epik_Tot_Q>
0

> <i_epik_Tot_abs_Q>
0

> <r_epik_Metal_State_Penalty>
-0

> <b_epik_Metal_Only>
0

> <s_lp_Force_Field>
OPLS_2005

> <r_lp_Energy>
6.29181

> <b_lp_Chiralities_Consistent>
1

> <s_lp_Variant>
AV-unprocessed.smi:2993-2

> <Gold.Version>
5.8.1

> <Gold.Id.Protein>
6NUR|6NUR_protein|mol2

> <Gold.PLP.Fitness>
35.7824

> <Gold.PLP.PLP>
-32.9415

> <Gold.PLP.part.hbond>
-0.9544

> <Gold.PLP.part.metal>
0.0000

> <Gold.PLP.part.buried>
-4.3316

> <Gold.PLP.part.nonpolar>
-28.4314

> <Gold.PLP.part.repulsive>
0.0395

> <Gold.PLP.ligand.clash>
0.0000

> <Gold.PLP.ligand.torsion>
0.5971

> <Gold.PLP.Chemscore.Hbond>
0.9913

> <Gold.PLP.Chemscore.CHOScore>
0.0000

> <Gold.PLP.Chemscore.Metal>
0.0000

> <Gold.Chemscore.Hbonds>
donor molecule, donor type, donor heavy atom, donor atom, acceptor molecule, acceptor atom, score
      P1  H  6896  6909       L1     4  1.00

> <Gold.PLP.Chemscore.Internal.Correction>
1.0614

> <Gold.Rescore>
     Score         DG    S(hbond)    S(metal)    S(lipo)     H(rot)  DE(clash)    DE(int)     intcor
     14.35     -16.47       0.95        0.00      98.86       1.46       0.01       2.11       ----

> <Gold.Chemscore.Fitness>
14.3514

> <Gold.Chemscore.DG>
-16.4705

> <Gold.Chemscore.ZeroCoef>
-5.4800

> <Gold.Chemscore.Hbond>
0.9455

> <Gold.Chemscore.Metal>
0.0000

> <Gold.Chemscore.Lipo>
98.8560

> <Gold.Chemscore.Internal_Hbond>
0.0000

> <Gold.Chemscore.DEClash>
0.0137

> <Gold.Chemscore.DEInternal>
2.1055

> <Gold.Chemscore.Rot>
1.4584

> <Gold.Chemscore.Internal.Correction>
   9.000000E+99

> <Gold.Chemscore.Hbonds>
donor molecule, donor type, donor heavy atom, donor atom, acceptor molecule, acceptor atom, score
      P1  H  6896  6909       L1     4  0.69

> <Gold.Chemscore.Hbond.Weighted>
-3.1578

> <Gold.Chemscore.Metal.Weighted>
-0.0000

> <Gold.Chemscore.Lipo.Weighted>
-11.5661

> <Gold.Chemscore.Internal_Hbond.Weighted>
0.0000

> <Gold.Chemscore.DEClash.Weighted>
0.0137

> <Gold.Chemscore.DEInternal.Weighted>
2.1055

> <Gold.Chemscore.Rot.Weighted>
3.7334

> <Gold.Chemscore.Internal.Correction.Weighted>
   9.000000E+99

> <Gold.Protein.RotatedTorsions>
[ 6907 6896 6895 6894 ] final  146.66 input  -60.11 | X-H torsion
[ 7974 7965 7964 7962 ] final -107.58 input  175.53 | X-H torsion
[ 8008 7997 7996 7995 ] final -110.16 input   59.86 | X-H torsion
[ 10167 10162 10161 10158 ] final   10.50 input  -65.29 | X-H torsion
[ 10718 10713 10712 10709 ] final  -30.82 input   66.30 | X-H torsion
[ 10763 10752 10751 10750 ] final -154.92 input  -60.55 | X-H torsion
[ 11005 11000 10999 10996 ] final  159.49 input  -57.11 | X-H torsion

> <Gold.Protein.ActiveResidues>
 VAL166  LYS551  ARG553  GLY616  TRP617  ASP618  TYR619  PRO620  LYS621  CYS622 
 ASP623  PHE694  ASN695  SER759  ASP760  ASP761  ALA762  ILE779  LEU786  VAL792 
 PHE793  MET794  SER795  GLU796  ALA797  LYS798  CYS799  TRP800  GLU811  SER814 

> <Gold.Protein.RotatedAtoms>
  152.1650  133.4606  159.4879 H   0  0  0  0  0  0  0  0  0  0  0  0  # atno 6907 bound_to 6896
  150.6912  134.2024  159.4336 H   0  0  0  0  0  0  0  0  0  0  0  0  # atno 6908 bound_to 6896
  151.9928  134.9969  160.0613 H   0  0  0  0  0  0  0  0  0  0  0  0  # atno 6909 bound_to 6896
  145.2036  140.9067  143.3355 H   0  0  0  0  0  0  0  0  0  0  0  0  # atno 7974 bound_to 7965
  154.9703  140.0397  157.2231 H   0  0  0  0  0  0  0  0  0  0  0  0  # atno 8008 bound_to 7997
  154.7808  140.2818  155.6043 H   0  0  0  0  0  0  0  0  0  0  0  0  # atno 8009 bound_to 7997
  156.2936  140.2592  156.2632 H   0  0  0  0  0  0  0  0  0  0  0  0  # atno 8010 bound_to 7997
  140.6190  143.8245  150.7153 H   0  0  0  0  0  0  0  0  0  0  0  0  # atno 10167 bound_to 10162
  156.3950  130.4379  149.7366 H   0  0  0  0  0  0  0  0  0  0  0  0  # atno 10718 bound_to 10713
  154.7825  135.3179  154.7959 H   0  0  0  0  0  0  0  0  0  0  0  0  # atno 10763 bound_to 10752
  153.8667  135.6848  153.4782 H   0  0  0  0  0  0  0  0  0  0  0  0  # atno 10764 bound_to 10752
  153.1465  135.4717  154.9512 H   0  0  0  0  0  0  0  0  0  0  0  0  # atno 10765 bound_to 10752
  140.1967  134.8368  157.2972 H   0  0  0  0  0  0  0  0  0  0  0  0  # atno 11005 bound_to 11000
  144.9924  139.3677  143.6208 LP  0  0  0  0  0  0  0  0  0  0  0  0  # atno 17320 bound_to 7965
  146.3412  139.9112  142.8780 LP  0  0  0  0  0  0  0  0  0  0  0  0  # atno 17321 bound_to 7965
  140.1831  143.4098  152.1918 LP  0  0  0  0  0  0  0  0  0  0  0  0  # atno 17342 bound_to 10162
  139.5423  144.7267  151.4695 LP  0  0  0  0  0  0  0  0  0  0  0  0  # atno 17343 bound_to 10162
  156.4404  130.7858  151.2879 LP  0  0  0  0  0  0  0  0  0  0  0  0  # atno 17370 bound_to 10713
  157.7501  131.0126  150.3392 LP  0  0  0  0  0  0  0  0  0  0  0  0  # atno 17371 bound_to 10713
  140.2100  134.4151  155.7618 LP  0  0  0  0  0  0  0  0  0  0  0  0  # atno 17394 bound_to 11000
  141.2227  133.7113  156.8322 LP  0  0  0  0  0  0  0  0  0  0  0  0  # atno 17395 bound_to 11000

$$$$
