AV-unprocessed.smi:1904|AV-procd|sdf|7723|dock8
  -GOLD-   22720 9463D 1   1.00000     0.00000
 Structure written by MMmdl.
 50 51  0  0  0  0  0  0  0  0  2 V2000
  148.8821  137.1977  158.8347 C   0  0  0  0  0  0  0  0  0  0  0  0
  148.2825  136.5444  160.0469 C   0  0  0  0  0  0  0  0  0  0  0  0
  148.0850  137.2640  161.1384 N   0  0  0  0  0  0  0  0  0  0  0  0
  147.5546  136.4015  162.0282 N   0  0  0  0  0  0  0  0  0  0  0  0
  147.2087  136.8724  163.3554 C   0  0  0  0  0  0  0  0  0  0  0  0
  147.4248  135.1316  161.5003 C   0  0  0  0  0  0  0  0  0  0  0  0
  146.8747  133.9915  162.2956 C   0  0  0  0  0  0  0  0  0  0  0  0
  147.8823  135.1851  160.2106 C   0  0  0  0  0  0  0  0  0  0  0  0
  147.9622  134.0761  159.1923 C   0  0  0  0  0  0  0  0  0  0  0  0
  147.0847  134.4275  157.9916 C   0  0  0  0  0  0  0  0  0  0  0  0
  146.4309  135.4706  157.9894 O   0  0  0  0  0  0  0  0  0  0  0  0
  147.0601  133.5393  156.9861 N   0  0  0  0  0  0  0  0  0  0  0  0
  146.2385  133.6584  155.7885 C   0  0  0  0  0  0  0  0  0  0  0  0
  146.3277  132.3837  154.9276 C   0  0  0  0  0  0  0  0  0  0  0  0
  145.4819  132.4552  153.7093 N   0  3  2  0  0  0  0  0  0  0  0  0
  145.8750  131.4404  152.6975 C   0  0  0  0  0  0  0  0  0  0  0  0
  144.9008  131.4319  151.5077 C   0  0  0  0  0  0  0  0  0  0  0  0
  144.7993  132.8216  150.8577 C   0  0  1  0  0  0  0  0  0  0  0  0
  143.8013  132.8312  149.6912 C   0  0  0  0  0  0  0  0  0  0  0  0
  144.4288  133.8561  151.9333 C   0  0  0  0  0  0  0  0  0  0  0  0
  145.4150  133.8161  153.1127 C   0  0  0  0  0  0  0  0  0  0  0  0
  148.3495  136.9073  157.9293 H   0  0  0  0  0  0  0  0  0  0  0  0
  149.9258  136.9070  158.7147 H   0  0  0  0  0  0  0  0  0  0  0  0
  148.8460  138.2856  158.9029 H   0  0  0  0  0  0  0  0  0  0  0  0
  146.2022  136.5419  163.6128 H   0  0  0  0  0  0  0  0  0  0  0  0
  147.2404  137.9620  163.3976 H   0  0  0  0  0  0  0  0  0  0  0  0
  147.9137  136.4685  164.0822 H   0  0  0  0  0  0  0  0  0  0  0  0
  147.0154  133.0425  161.7790 H   0  0  0  0  0  0  0  0  0  0  0  0
  145.8073  134.1241  162.4718 H   0  0  0  0  0  0  0  0  0  0  0  0
  147.3713  133.9168  163.2633 H   0  0  0  0  0  0  0  0  0  0  0  0
  148.9838  133.9199  158.8451 H   0  0  0  0  0  0  0  0  0  0  0  0
  147.6444  133.1235  159.6182 H   0  0  0  0  0  0  0  0  0  0  0  0
  147.6313  132.7107  157.0709 H   0  0  0  0  0  0  0  0  0  0  0  0
  145.2023  133.8676  156.0602 H   0  0  0  0  0  0  0  0  0  0  0  0
  146.5977  134.5272  155.2384 H   0  0  0  0  0  0  0  0  0  0  0  0
  147.3622  132.1769  154.6483 H   0  0  0  0  0  0  0  0  0  0  0  0
  145.9989  131.5385  155.5345 H   0  0  0  0  0  0  0  0  0  0  0  0
  146.8903  131.6432  152.3526 H   0  0  0  0  0  0  0  0  0  0  0  0
  145.8873  130.4496  153.1532 H   0  0  0  0  0  0  0  0  0  0  0  0
  145.2297  130.6986  150.7704 H   0  0  0  0  0  0  0  0  0  0  0  0
  143.9157  131.1075  151.8461 H   0  0  0  0  0  0  0  0  0  0  0  0
  145.7803  133.0828  150.4575 H   0  0  0  0  0  0  0  0  0  0  0  0
  142.7956  132.5760  150.0267 H   0  0  0  0  0  0  0  0  0  0  0  0
  144.0883  132.1125  148.9231 H   0  0  0  0  0  0  0  0  0  0  0  0
  143.7556  133.8141  149.2215 H   0  0  0  0  0  0  0  0  0  0  0  0
  144.4161  134.8568  151.4999 H   0  0  0  0  0  0  0  0  0  0  0  0
  143.4183  133.6657  152.2981 H   0  0  0  0  0  0  0  0  0  0  0  0
  145.0961  134.5448  153.8566 H   0  0  0  0  0  0  0  0  0  0  0  0
  146.4094  134.1189  152.7810 H   0  0  0  0  0  0  0  0  0  0  0  0
  144.5448  132.2132  153.9988 H   0  0  0  0  0  0  0  0  0  0  0  0
  1  2  1  0  0  0  0
  1 22  1  0  0  0  0
  1 23  1  0  0  0  0
  1 24  1  0  0  0  0
  2  8  1  0  0  0  0
  2  3  2  0  0  0  0
  3  4  1  0  0  0  0
  4  5  1  0  0  0  0
  4  6  1  0  0  0  0
  5 25  1  0  0  0  0
  5 26  1  0  0  0  0
  5 27  1  0  0  0  0
  6  7  1  0  0  0  0
  6  8  2  0  0  0  0
  7 28  1  0  0  0  0
  7 29  1  0  0  0  0
  7 30  1  0  0  0  0
  8  9  1  0  0  0  0
  9 10  1  0  0  0  0
  9 31  1  0  0  0  0
  9 32  1  0  0  0  0
 10 11  2  0  0  0  0
 10 12  1  0  0  0  0
 12 13  1  0  0  0  0
 12 33  1  0  0  0  0
 13 14  1  0  0  0  0
 13 34  1  0  0  0  0
 13 35  1  0  0  0  0
 14 15  1  0  0  0  0
 14 36  1  0  0  0  0
 14 37  1  0  0  0  0
 15 21  1  0  0  0  0
 15 16  1  0  0  0  0
 15 50  1  0  0  0  0
 16 17  1  0  0  0  0
 16 38  1  0  0  0  0
 16 39  1  0  0  0  0
 17 18  1  0  0  0  0
 17 40  1  0  0  0  0
 17 41  1  0  0  0  0
 18 19  1  0  0  0  0
 18 20  1  0  0  0  0
 18 42  1  0  0  0  0
 19 43  1  0  0  0  0
 19 44  1  0  0  0  0
 19 45  1  0  0  0  0
 20 21  1  0  0  0  0
 20 46  1  0  0  0  0
 20 47  1  0  0  0  0
 21 48  1  0  0  0  0
 21 49  1  0  0  0  0
M  CHG  1  15   1
M  END
> <s_m_source_file>
AV-unprocessed.smi

> <i_m_source_file_index>
1904

> <i_lp_mmshare_version>
43012

> <i_f3d_flags>
0

> <s_epik_input>
W0NIM11jMW5uKFtDSDNdKWMoW0NIM10pYzFbQ0gyXUMoPU8pW05IXVtDSDJdW0NIMl1OMltDSDJdW0NIMl1bQ0hdKFtDSDNdKVtDSDJdW0NIMl0y

> <s_epik_cmdline>
J2VwaWtfcHl0aG9uJywgJy1waCcsICc3LjAnLCAnLXRuJywgJzgnLCAnLW1hJywgJzIwMCcsICctbWV0YWxfYmluZGluZycsICctaW1hZScsICc8aW5maWxlLm1hZT4nLCAnLW9tYWUnLCAnPG91dGZpbGUubWFlPic=

> <r_lp_tautomer_probability>
1

> <r_epik_Ionization_Penalty>
0.00374255

> <r_epik_Ionization_Penalty_Charging>
0.00158211

> <r_epik_Ionization_Penalty_Neutral>
0.00216044

> <r_epik_State_Penalty>
-0

> <r_epik_Charging_Adjusted_Penalty>
0.00158211

> <i_epik_Tot_Q>
1

> <i_epik_Tot_abs_Q>
1

> <r_epik_Metal_State_Penalty>
-0

> <b_epik_Metal_Only>
0

> <s_lp_Force_Field>
OPLS_2005

> <r_lp_Energy>
10.069

> <b_lp_Chiralities_Consistent>
1

> <s_lp_Variant>
AV-unprocessed.smi:1904-1

> <Gold.Version>
5.8.1

> <Gold.Id.Protein>
6NUR|6NUR_protein|mol2

> <Gold.PLP.Fitness>
45.1116

> <Gold.PLP.PLP>
-35.0650

> <Gold.PLP.part.hbond>
-2.7715

> <Gold.PLP.part.metal>
0.0000

> <Gold.PLP.part.buried>
-4.3210

> <Gold.PLP.part.nonpolar>
-28.6610

> <Gold.PLP.part.repulsive>
0.0000

> <Gold.PLP.ligand.clash>
0.0000

> <Gold.PLP.ligand.torsion>
0.2363

> <Gold.PLP.Chemscore.Hbond>
3.4940

> <Gold.PLP.Chemscore.CHOScore>
0.0000

> <Gold.PLP.Chemscore.Metal>
0.0000

> <Gold.Chemscore.Hbonds>
donor molecule, donor type, donor heavy atom, donor atom, acceptor molecule, acceptor atom, score
      L1  H    15    50       P1 10957  1.73
      P1  H  6931  6943       L1     3  0.98
      P1  H  6934  6947       L1     3  0.66

> <Gold.PLP.Chemscore.Internal.Correction>
0.0372

> <Gold.Rescore>
     Score         DG    S(hbond)    S(metal)    S(lipo)     H(rot)  DE(clash)    DE(int)     intcor
     15.15     -17.70       1.92        0.00      84.84       1.61       1.23       1.32       ----

> <Gold.Chemscore.Fitness>
15.1453

> <Gold.Chemscore.DG>
-17.6991

> <Gold.Chemscore.ZeroCoef>
-5.4800

> <Gold.Chemscore.Hbond>
1.9236

> <Gold.Chemscore.Metal>
0.0000

> <Gold.Chemscore.Lipo>
84.8448

> <Gold.Chemscore.Internal_Hbond>
0.0000

> <Gold.Chemscore.DEClash>
1.2343

> <Gold.Chemscore.DEInternal>
1.3194

> <Gold.Chemscore.Rot>
1.6142

> <Gold.Chemscore.Internal.Correction>
   9.000000E+99

> <Gold.Chemscore.Hbonds>
donor molecule, donor type, donor heavy atom, donor atom, acceptor molecule, acceptor atom, score
      L1  H    15    50       P1 10957  0.19
      P1  H  6931  6943       L1     3  0.63
      P1  H  6934  6947       L1     3  0.59

> <Gold.Chemscore.Hbond.Weighted>
-6.4247

> <Gold.Chemscore.Metal.Weighted>
-0.0000

> <Gold.Chemscore.Lipo.Weighted>
-9.9268

> <Gold.Chemscore.Internal_Hbond.Weighted>
0.0000

> <Gold.Chemscore.DEClash.Weighted>
1.2343

> <Gold.Chemscore.DEInternal.Weighted>
1.3194

> <Gold.Chemscore.Rot.Weighted>
4.1324

> <Gold.Chemscore.Internal.Correction.Weighted>
   9.000000E+99

> <Gold.Protein.RotatedTorsions>
[ 6907 6896 6895 6894 ] final   63.33 input  -60.11 | X-H torsion
[ 7974 7965 7964 7962 ] final   22.13 input  175.53 | X-H torsion
[ 8008 7997 7996 7995 ] final  125.83 input   59.86 | X-H torsion
[ 10167 10162 10161 10158 ] final   96.25 input  -65.29 | X-H torsion
[ 10718 10713 10712 10709 ] final   47.91 input   66.30 | X-H torsion
[ 10763 10752 10751 10750 ] final   95.30 input  -60.55 | X-H torsion
[ 11005 11000 10999 10996 ] final  -75.95 input  -57.11 | X-H torsion

> <Gold.Protein.ActiveResidues>
 VAL166  LYS551  ARG553  GLY616  TRP617  ASP618  TYR619  PRO620  LYS621  CYS622 
 ASP623  PHE694  ASN695  SER759  ASP760  ASP761  ALA762  ILE779  LEU786  VAL792 
 PHE793  MET794  SER795  GLU796  ALA797  LYS798  CYS799  TRP800  GLU811  SER814 

> <Gold.Protein.RotatedAtoms>
  152.4244  134.5895  159.9970 H   0  0  0  0  0  0  0  0  0  0  0  0  # atno 6907 bound_to 6896
  151.6036  133.3348  159.3060 H   0  0  0  0  0  0  0  0  0  0  0  0  # atno 6908 bound_to 6896
  150.8133  134.7338  159.6773 H   0  0  0  0  0  0  0  0  0  0  0  0  # atno 6909 bound_to 6896
  146.2042  139.7929  142.8738 H   0  0  0  0  0  0  0  0  0  0  0  0  # atno 7974 bound_to 7965
  156.2846  140.2707  156.2013 H   0  0  0  0  0  0  0  0  0  0  0  0  # atno 8008 bound_to 7997
  155.0358  140.0386  157.2509 H   0  0  0  0  0  0  0  0  0  0  0  0  # atno 8009 bound_to 7997
  154.7316  140.2707  155.6457 H   0  0  0  0  0  0  0  0  0  0  0  0  # atno 8010 bound_to 7997
  139.7912  144.6851  150.9890 H   0  0  0  0  0  0  0  0  0  0  0  0  # atno 10167 bound_to 10162
  157.4633  130.8210  149.7909 H   0  0  0  0  0  0  0  0  0  0  0  0  # atno 10718 bound_to 10713
  153.2516  135.4259  155.0803 H   0  0  0  0  0  0  0  0  0  0  0  0  # atno 10763 bound_to 10752
  154.8384  135.3427  154.6505 H   0  0  0  0  0  0  0  0  0  0  0  0  # atno 10764 bound_to 10752
  153.6926  135.7033  153.5142 H   0  0  0  0  0  0  0  0  0  0  0  0  # atno 10765 bound_to 10752
  141.1650  133.6965  156.7595 H   0  0  0  0  0  0  0  0  0  0  0  0  # atno 11005 bound_to 11000
  145.3378  141.0281  143.3410 LP  0  0  0  0  0  0  0  0  0  0  0  0  # atno 17320 bound_to 7965
  144.8753  139.4980  143.6748 LP  0  0  0  0  0  0  0  0  0  0  0  0  # atno 17321 bound_to 7965
  140.7820  143.4379  151.0596 LP  0  0  0  0  0  0  0  0  0  0  0  0  # atno 17342 bound_to 10162
  139.8055  143.8023  152.3167 LP  0  0  0  0  0  0  0  0  0  0  0  0  # atno 17343 bound_to 10162
  156.0038  130.3866  150.2504 LP  0  0  0  0  0  0  0  0  0  0  0  0  # atno 17370 bound_to 10713
  157.0683  131.0109  151.3199 LP  0  0  0  0  0  0  0  0  0  0  0  0  # atno 17371 bound_to 10713
  140.2544  134.8515  157.3699 LP  0  0  0  0  0  0  0  0  0  0  0  0  # atno 17394 bound_to 11000
  140.1671  134.4655  155.7856 LP  0  0  0  0  0  0  0  0  0  0  0  0  # atno 17395 bound_to 11000

$$$$
