#       Name:                AV-unprocessed.smi:532
#       Creating user name   scv26
#       Creation time:       Thu Mar 26 23:34:08 2020


#       File generated by GOLD software.
#

@<TRIPOS>MOLECULE
AV-unprocessed.smi:532
    56    58     1
SMALL
NO_CHARGES


@<TRIPOS>ATOM
      1 ****        -4.0268   2.3413  -0.9861 C.3            1 S1                 0.0000
      2 ****        -3.4115   1.0658  -0.9467 O.3            1 S1                 0.0000
      3 ****        -2.0237   1.1263  -1.2268 C.3            1 S1                 0.0000
      4 ****        -1.4356  -0.2868  -1.1389 C.3            1 S1                 0.0000
      5 ****         0.0120  -0.2728  -1.2967 N.pl3          1 S1                 0.0000
      6 ****         0.9598  -0.2500  -0.3256 C.2            1 S1                 0.0000
      7 ****         0.6130  -0.2247   1.0220 N.pl3          1 S1                 0.0000
      8 ****         0.5369   1.0169   1.7933 C.3            1 S1                 0.0000
      9 ****        -0.5261   0.9915   2.9150 C.3            1 S1                 0.0000
     10 ****        -1.9642   1.1362   2.3904 C.3            1 S1                 0.0000
     11 ****        -0.3433  -0.2472   3.8088 C.3            1 S1                 0.0000
     12 ****        -0.2398  -1.5296   2.9678 C.3            1 S1                 0.0000
     13 ****         0.0174  -2.7587   3.8500 C.3            1 S1                 0.0000
     14 ****         0.8594  -1.3628   1.9035 C.3            1 S1                 0.0000
     15 ****         2.2199  -0.2605  -0.7693 N.2            1 S1                 0.0000
     16 ****         2.0582  -0.2763  -2.1472 C.2            1 S1                 0.0000
     17 ****         0.7436  -0.2792  -2.4830 C.2            1 S1                 0.0000
     18 ****         0.2855  -0.2871  -3.8768 C.2            1 S1                 0.0000
     19 ****        -0.9002  -0.2774  -4.2000 O.2            1 S1                 0.0000
     20 ****         1.3058  -0.3026  -4.7689 N.am           1 S1                 0.0000
     21 ****         2.6479  -0.3025  -4.5002 C.2            1 S1                 0.0000
     22 ****         3.4550  -0.3156  -5.4291 O.2            1 S1                 0.0000
     23 ****         3.0338  -0.2870  -3.1822 N.am           1 S1                 0.0000
     24 ****         4.4435  -0.2823  -2.7867 C.3            1 S1                 0.0000
     25 ****         1.0463  -0.3126  -5.7444 H              1 S1                 0.0000
     26 ****        -5.0896   2.2430  -0.7651 H              1 S1                 0.0000
     27 ****        -3.9284   2.7961  -1.9726 H              1 S1                 0.0000
     28 ****        -3.5905   3.0130  -0.2456 H              1 S1                 0.0000
     29 ****        -1.8591   1.5425  -2.2218 H              1 S1                 0.0000
     30 ****        -1.5274   1.7848  -0.5132 H              1 S1                 0.0000
     31 ****        -1.6849  -0.7491  -0.1846 H              1 S1                 0.0000
     32 ****        -1.8738  -0.9331  -1.8989 H              1 S1                 0.0000
     33 ****         1.5200   1.2003   2.2287 H              1 S1                 0.0000
     34 ****         0.3459   1.8518   1.1181 H              1 S1                 0.0000
     35 ****        -0.3494   1.8674   3.5400 H              1 S1                 0.0000
     36 ****        -2.2532   0.3036   1.7520 H              1 S1                 0.0000
     37 ****        -2.0796   2.0547   1.8151 H              1 S1                 0.0000
     38 ****        -2.6772   1.1782   3.2140 H              1 S1                 0.0000
     39 ****         0.5693  -0.1295   4.3951 H              1 S1                 0.0000
     40 ****        -1.1603  -0.3236   4.5273 H              1 S1                 0.0000
     41 ****        -1.1892  -1.6896   2.4551 H              1 S1                 0.0000
     42 ****         0.9638  -2.6723   4.3849 H              1 S1                 0.0000
     43 ****         0.0541  -3.6695   3.2516 H              1 S1                 0.0000
     44 ****        -0.7735  -2.8829   4.5901 H              1 S1                 0.0000
     45 ****         0.9236  -2.2681   1.2984 H              1 S1                 0.0000
     46 ****         1.8332  -1.2385   2.3790 H              1 S1                 0.0000
     47 ****         5.1411  -0.2979  -3.6246 H              1 S1                 0.0000
     48 ****         4.6583  -1.1535  -2.1668 H              1 S1                 0.0000
     49 ****         4.6604   0.6095  -2.1980 H              1 S1                 0.0000
     50 ****        -3.8506   0.4764  -1.6248 LP             1 S1                 0.0000
     51 ****        -3.5383   0.6762  -0.0345 LP             1 S1                 0.0000
     52 ****         3.0684  -0.2577  -0.2401 LP             1 S1                 0.0000
     53 ****        -1.6103  -0.2633  -3.4960 LP             1 S1                 0.0000
     54 ****        -1.1549  -0.2835  -5.1670 LP             1 S1                 0.0000
     55 ****         3.1292  -0.3262  -6.3745 LP             1 S1                 0.0000
     56 ****         4.4367  -0.3156  -5.2386 LP             1 S1                 0.0000
@<TRIPOS>BOND
    1    1    2 1     
    2    1   26 1     
    3    1   27 1     
    4    1   28 1     
    5    2    3 1     
    6    3    4 1     
    7    3   29 1     
    8    3   30 1     
    9    4    5 1     
   10    4   31 1     
   11    4   32 1     
   12    5   17 1     
   13    5    6 1     
   14    6    7 1     
   15    6   15 2     
   16    7   14 1     
   17    7    8 1     
   18    8    9 1     
   19    8   33 1     
   20    8   34 1     
   21    9   10 1     
   22    9   11 1     
   23    9   35 1     
   24   10   36 1     
   25   10   37 1     
   26   10   38 1     
   27   11   12 1     
   28   11   39 1     
   29   11   40 1     
   30   12   13 1     
   31   12   14 1     
   32   12   41 1     
   33   13   42 1     
   34   13   43 1     
   35   13   44 1     
   36   14   45 1     
   37   14   46 1     
   38   15   16 1     
   39   16   23 1     
   40   16   17 2     
   41   17   18 1     
   42   18   19 2     
   43   18   20 1     
   44   20   25 1     
   45   20   21 1     
   46   21   22 2     
   47   21   23 1     
   48   23   24 1     
   49   24   47 1     
   50   24   48 1     
   51   24   49 1     
   52    2   50 1     
   53    2   51 1     
   54   15   52 1     
   55   19   53 1     
   56   19   54 1     
   57   22   55 1     
   58   22   56 1     
@<TRIPOS>SUBSTRUCTURE
      1 S1             1
@<TRIPOS>SET
LONE_PAIRS      STATIC     ATOMS    <user>   **** ""
7 50 51 52 53 54 55 56
DONOR_HYDROGENS      STATIC     ATOMS    <user>   **** ""
1 25
ATOM$BLUE        STATIC     ATOMS    COLORGROUP SYSTEM
7 50 51 52 53 54 55 56
ATOM$RED        STATIC     ATOMS    COLORGROUP SYSTEM
1 25
