#       Name:                AV-unprocessed.smi:1046
#       Creating user name   scv26
#       Creation time:       Fri Mar 27 02:59:54 2020


#       File generated by GOLD software.
#

@<TRIPOS>MOLECULE
AV-unprocessed.smi:1046
    59    61     1
SMALL
NO_CHARGES


@<TRIPOS>ATOM
      1 ****        -6.7287   2.1539  -1.8431 C.3            1 S1                 0.0000
      2 ****        -5.5153   1.7015  -1.0485 C.ar           1 S1                 0.0000
      3 ****        -5.6872   1.3699   0.3144 C.ar           1 S1                 0.0000
      4 ****        -4.5597   0.9560   1.0138 C.ar           1 S1                 0.0000
      5 ****        -4.4024   0.5631   2.3447 N.pl3          1 S1                 1.0000
      6 ****        -3.0995   0.2394   2.5724 C.2            1 S1                 0.0000
      7 ****        -2.4211   0.4214   1.4070 N.pl3          1 S1                 0.0000
      8 ****        -0.9960   0.2191   1.1084 C.3            1 S1                 0.0000
      9 ****        -0.6795  -1.2246   0.6691 C.3            1 S1                 0.0000
     10 ****        -1.3426  -1.5427  -0.5384 O.3            1 S1                 0.0000
     11 ****         0.8172  -1.5820   0.5259 C.3            1 S1                 0.0000
     12 ****         1.5909  -0.7737  -0.4283 N.3            1 S1                 0.0000
     13 ****         2.1940   0.4377   0.1420 C.3            1 S1                 0.0000
     14 ****         3.3809   0.1564   1.0893 C.3            1 S1                 0.0000
     15 ****         4.4185  -0.6538   0.4022 N.4            1 S1                 1.0000
     16 ****         5.6064  -0.9002   1.2581 C.3            1 S1                 0.0000
     17 ****         6.8676  -1.2258   0.4397 C.3            1 S1                 0.0000
     18 ****         7.2539  -0.1001  -0.3196 O.3            1 S1                 0.0000
     19 ****         3.8217  -1.8926  -0.1611 C.3            1 S1                 0.0000
     20 ****         2.6479  -1.5361  -1.0933 C.3            1 S1                 0.0000
     21 ****        -3.2924   0.8680   0.4056 C.ar           1 S1                 0.0000
     22 ****        -3.1063   1.1916  -0.9365 C.ar           1 S1                 0.0000
     23 ****        -4.2412   1.6112  -1.6664 C.ar           1 S1                 0.0000
     24 ****        -4.0681   1.9629  -3.1342 C.3            1 S1                 0.0000
     25 ****        -7.6091   2.2483  -1.2071 H              1 S1                 0.0000
     26 ****        -6.9592   1.4341  -2.6287 H              1 S1                 0.0000
     27 ****        -6.5484   3.1252  -2.3042 H              1 S1                 0.0000
     28 ****        -6.6545   1.4332   0.7907 H              1 S1                 0.0000
     29 ****        -2.6811  -0.0999   3.5090 H              1 S1                 0.0000
     30 ****        -0.6952   0.9435   0.3521 H              1 S1                 0.0000
     31 ****        -0.4427   0.4614   2.0164 H              1 S1                 0.0000
     32 ****        -1.0917  -1.8955   1.4240 H              1 S1                 0.0000
     33 ****        -1.1785  -2.4507  -0.7424 H              1 S1                 0.0000
     34 ****         1.2868  -1.5616   1.5085 H              1 S1                 0.0000
     35 ****         0.8566  -2.6290   0.2216 H              1 S1                 0.0000
     36 ****         2.5445   1.0707  -0.6745 H              1 S1                 0.0000
     37 ****         1.4528   1.0327   0.6690 H              1 S1                 0.0000
     38 ****         3.8151   1.1049   1.4075 H              1 S1                 0.0000
     39 ****         3.0519  -0.3534   1.9952 H              1 S1                 0.0000
     40 ****         5.8107  -0.0186   1.8680 H              1 S1                 0.0000
     41 ****         5.3886  -1.7091   1.9569 H              1 S1                 0.0000
     42 ****         7.6870  -1.4792   1.1128 H              1 S1                 0.0000
     43 ****         6.7248  -2.0829  -0.2172 H              1 S1                 0.0000
     44 ****         8.0653  -0.2986  -0.7631 H              1 S1                 0.0000
     45 ****         4.5680  -2.4463  -0.7294 H              1 S1                 0.0000
     46 ****         3.4888  -2.5479   0.6453 H              1 S1                 0.0000
     47 ****         2.2311  -2.4445  -1.5299 H              1 S1                 0.0000
     48 ****         3.0295  -0.9558  -1.9347 H              1 S1                 0.0000
     49 ****        -2.1384   1.1172  -1.4098 H              1 S1                 0.0000
     50 ****        -3.0434   1.7947  -3.4668 H              1 S1                 0.0000
     51 ****        -4.3069   3.0126  -3.3061 H              1 S1                 0.0000
     52 ****        -4.7230   1.3516  -3.7554 H              1 S1                 0.0000
     53 ****         4.7394  -0.0974  -0.3776 H              1 S1                 0.0000
     54 ****        -5.1291   0.5178   3.0475 H              1 S1                 0.0000
     55 ****        -0.9954  -0.9636  -1.2761 LP             1 S1                 0.0000
     56 ****        -2.3257  -1.3936  -0.4323 LP             1 S1                 0.0000
     57 ****         0.8985  -0.4932  -1.0931 LP             1 S1                 0.0000
     58 ****         7.3842   0.6855   0.2853 LP             1 S1                 0.0000
     59 ****         6.5452   0.1114  -0.9927 LP             1 S1                 0.0000
@<TRIPOS>BOND
    1    1    2 1     
    2    1   25 1     
    3    1   26 1     
    4    1   27 1     
    5    2   23 ar    
    6    2    3 ar    
    7    3    4 ar    
    8    3   28 1     
    9    4   21 ar    
   10    4    5 1     
   11    5    6 2     
   12    5   54 1     
   13    6    7 1     
   14    6   29 1     
   15    7    8 1     
   16    7   21 1     
   17    8    9 1     
   18    8   30 1     
   19    8   31 1     
   20    9   10 1     
   21    9   11 1     
   22    9   32 1     
   23   10   33 1     
   24   11   12 1     
   25   11   34 1     
   26   11   35 1     
   27   12   20 1     
   28   12   13 1     
   29   13   14 1     
   30   13   36 1     
   31   13   37 1     
   32   14   15 1     
   33   14   38 1     
   34   14   39 1     
   35   15   16 1     
   36   15   19 1     
   37   15   53 1     
   38   16   17 1     
   39   16   40 1     
   40   16   41 1     
   41   17   18 1     
   42   17   42 1     
   43   17   43 1     
   44   18   44 1     
   45   19   20 1     
   46   19   45 1     
   47   19   46 1     
   48   20   47 1     
   49   20   48 1     
   50   21   22 ar    
   51   22   23 ar    
   52   22   49 1     
   53   23   24 1     
   54   24   50 1     
   55   24   51 1     
   56   24   52 1     
   57   10   55 1     
   58   10   56 1     
   59   12   57 1     
   60   18   58 1     
   61   18   59 1     
@<TRIPOS>SUBSTRUCTURE
      1 S1             1
@<TRIPOS>SET
LONE_PAIRS      STATIC     ATOMS    <user>   **** ""
5 55 56 57 58 59
DONOR_HYDROGENS      STATIC     ATOMS    <user>   **** ""
4 54 33 53 44
ATOM$BLUE        STATIC     ATOMS    COLORGROUP SYSTEM
5 55 56 57 58 59
ATOM$RED        STATIC     ATOMS    COLORGROUP SYSTEM
4 54 33 53 44
