AV-unprocessed.smi:2433|AV-procd|sdf|9589|dock6
  -GOLD-   2272013223D 1   1.00000     0.00000
 Structure written by MMmdl.
 38 40  0  0  0  0  0  0  0  0  1 V2000
  148.9993  139.2979  158.2127 O   0  0  0  0  0  0  0  0  0  0  0  0
  149.6993  140.2576  157.8877 C   0  0  0  0  0  0  0  0  0  0  0  0
  150.8168  140.7308  158.7043 C   0  0  0  0  0  0  0  0  0  0  0  0
  151.5738  141.7812  158.3083 C   0  0  0  0  0  0  0  0  0  0  0  0
  152.7332  142.2695  159.1754 C   0  0  0  0  0  0  0  0  0  0  0  0
  152.4140  142.6931  160.6237 C   0  0  0  0  0  0  0  0  0  0  0  0
  152.3012  144.1398  160.1321 C   0  0  0  0  0  0  0  0  0  0  0  0
  153.1258  143.7318  158.9061 C   0  0  0  0  0  0  0  0  0  0  0  0
  151.2905  142.4444  157.1073 N   0  0  0  0  0  0  0  0  0  0  0  0
  150.3063  142.0470  156.3658 C   0  0  0  0  0  0  0  0  0  0  0  0
  149.4929  140.9593  156.7356 N   0  0  0  0  0  0  0  0  0  0  0  0
  148.4037  140.6112  155.8086 C   0  0  0  0  0  0  0  0  0  0  0  0
  148.9265  140.0058  154.4873 C   0  0  2  0  0  0  0  0  0  0  0  0
  149.2868  141.0598  153.6160 O   0  0  0  0  0  0  0  0  0  0  0  0
  147.8813  139.0977  153.8573 C   0  0  0  0  0  0  0  0  0  0  0  0
  147.4558  139.3306  152.5318 C   0  0  0  0  0  0  0  0  0  0  0  0
  146.4991  138.4870  151.9344 C   0  0  0  0  0  0  0  0  0  0  0  0
  145.9651  137.4033  152.6576 C   0  0  0  0  0  0  0  0  0  0  0  0
  145.0472  136.5911  152.0818 F   0  0  0  0  0  0  0  0  0  0  0  0
  146.3878  137.1637  153.9790 C   0  0  0  0  0  0  0  0  0  0  0  0
  147.3440  138.0073  154.5773 C   0  0  0  0  0  0  0  0  0  0  0  0
  151.0394  140.2293  159.6351 H   0  0  0  0  0  0  0  0  0  0  0  0
  153.5811  141.5860  159.1163 H   0  0  0  0  0  0  0  0  0  0  0  0
  151.5065  142.2875  161.0704 H   0  0  0  0  0  0  0  0  0  0  0  0
  153.2666  142.5528  161.2899 H   0  0  0  0  0  0  0  0  0  0  0  0
  151.2780  144.4201  159.8770 H   0  0  0  0  0  0  0  0  0  0  0  0
  152.7755  144.8800  160.7769 H   0  0  0  0  0  0  0  0  0  0  0  0
  154.1936  143.9105  159.0421 H   0  0  0  0  0  0  0  0  0  0  0  0
  152.7690  144.1474  157.9628 H   0  0  0  0  0  0  0  0  0  0  0  0
  150.0508  142.5235  155.4177 H   0  0  0  0  0  0  0  0  0  0  0  0
  147.7636  139.8804  156.3076 H   0  0  0  0  0  0  0  0  0  0  0  0
  147.7415  141.4562  155.6078 H   0  0  0  0  0  0  0  0  0  0  0  0
  149.8235  139.4130  154.6716 H   0  0  0  0  0  0  0  0  0  0  0  0
  149.1920  140.7569  152.7258 H   0  0  0  0  0  0  0  0  0  0  0  0
  147.8639  140.1560  151.9666 H   0  0  0  0  0  0  0  0  0  0  0  0
  146.1770  138.6703  150.9199 H   0  0  0  0  0  0  0  0  0  0  0  0
  145.9811  136.3307  154.5334 H   0  0  0  0  0  0  0  0  0  0  0  0
  147.6663  137.8118  155.5895 H   0  0  0  0  0  0  0  0  0  0  0  0
  1  2  2  0  0  0  0
  2 11  1  0  0  0  0
  2  3  1  0  0  0  0
  3  4  2  0  0  0  0
  3 22  1  0  0  0  0
  4  5  1  0  0  0  0
  4  9  1  0  0  0  0
  5  8  1  0  0  0  0
  5  6  1  0  0  0  0
  5 23  1  0  0  0  0
  6  7  1  0  0  0  0
  6 24  1  0  0  0  0
  6 25  1  0  0  0  0
  7  8  1  0  0  0  0
  7 26  1  0  0  0  0
  7 27  1  0  0  0  0
  8 28  1  0  0  0  0
  8 29  1  0  0  0  0
  9 10  2  0  0  0  0
 10 11  1  0  0  0  0
 10 30  1  0  0  0  0
 11 12  1  0  0  0  0
 12 13  1  0  0  0  0
 12 31  1  0  0  0  0
 12 32  1  0  0  0  0
 13 14  1  0  0  0  0
 13 15  1  0  0  0  0
 13 33  1  0  0  0  0
 14 34  1  0  0  0  0
 15 21  1  0  0  0  0
 15 16  2  0  0  0  0
 16 17  1  0  0  0  0
 16 35  1  0  0  0  0
 17 18  2  0  0  0  0
 17 36  1  0  0  0  0
 18 19  1  0  0  0  0
 18 20  1  0  0  0  0
 20 21  2  0  0  0  0
 20 37  1  0  0  0  0
 21 38  1  0  0  0  0
M  END
> <s_m_source_file>
AV-unprocessed.smi

> <i_m_source_file_index>
2433

> <i_lp_mmshare_version>
43012

> <i_f3d_flags>
0

> <s_epik_input>
W0NIMl0xW0NIMl1bQ0gyXVtDSF0xYyhbY0hdYzI9TyluW2NIXW4yW0NIMl1bQ0BIXShbT0hdKWMzW2NIXVtjSF1jKEYpW2NIXVtjSF0z

> <s_epik_cmdline>
J2VwaWtfcHl0aG9uJywgJy1waCcsICc3LjAnLCAnLXRuJywgJzgnLCAnLW1hJywgJzIwMCcsICctbWV0YWxfYmluZGluZycsICctaW1hZScsICc8aW5maWxlLm1hZT4nLCAnLW9tYWUnLCAnPG91dGZpbGUubWFlPic=

> <r_lp_tautomer_probability>
1

> <r_epik_Ionization_Penalty>
2.57762e-05

> <r_epik_Ionization_Penalty_Charging>
5.39435e-08

> <r_epik_Ionization_Penalty_Neutral>
2.57223e-05

> <r_epik_State_Penalty>
-0

> <r_epik_Charging_Adjusted_Penalty>
5.39435e-08

> <i_epik_Tot_Q>
0

> <i_epik_Tot_abs_Q>
0

> <r_epik_Metal_State_Penalty>
-0

> <b_epik_Metal_Only>
0

> <s_lp_Force_Field>
OPLS_2005

> <r_lp_Energy>
28.7145

> <b_lp_Chiralities_Consistent>
1

> <s_lp_Variant>
AV-unprocessed.smi:2433-1

> <Gold.Version>
5.8.1

> <Gold.Id.Protein>
6NUR|6NUR_protein|mol2

> <Gold.PLP.Fitness>
42.6378

> <Gold.PLP.PLP>
-38.6665

> <Gold.PLP.part.hbond>
-3.0000

> <Gold.PLP.part.metal>
0.0000

> <Gold.PLP.part.buried>
1.2314

> <Gold.PLP.part.nonpolar>
-36.9757

> <Gold.PLP.part.repulsive>
0.0845

> <Gold.PLP.ligand.clash>
0.2925

> <Gold.PLP.ligand.torsion>
0.7119

> <Gold.PLP.Chemscore.Hbond>
1.0163

> <Gold.PLP.Chemscore.CHOScore>
0.7494

> <Gold.PLP.Chemscore.Metal>
0.0000

> <Gold.Chemscore.Hbonds>
donor molecule, donor type, donor heavy atom, donor atom, acceptor molecule, acceptor atom, score
      L1  H    14    34       P1  7957  1.00
      P1  H  7989  7998       L1    14  0.04
      L1  C    10    30       P1  8028  0.69

> <Gold.PLP.Chemscore.Internal.Correction>
0.3904

> <Gold.Rescore>
     Score         DG    S(hbond)    S(metal)    S(lipo)     H(rot)  DE(clash)    DE(int)     intcor
     13.37     -15.78       1.00        0.00     106.36       2.14       1.63       0.78       ----

> <Gold.Chemscore.Fitness>
13.3664

> <Gold.Chemscore.DG>
-15.7778

> <Gold.Chemscore.ZeroCoef>
-5.4800

> <Gold.Chemscore.Hbond>
0.9955

> <Gold.Chemscore.Metal>
0.0000

> <Gold.Chemscore.Lipo>
106.3562

> <Gold.Chemscore.Internal_Hbond>
0.0000

> <Gold.Chemscore.DEClash>
1.6314

> <Gold.Chemscore.DEInternal>
0.7800

> <Gold.Chemscore.Rot>
2.1370

> <Gold.Chemscore.Internal.Correction>
   9.000000E+99

> <Gold.Chemscore.Hbonds>
donor molecule, donor type, donor heavy atom, donor atom, acceptor molecule, acceptor atom, score
      L1  H    14    34       P1  7957  1.00

> <Gold.Chemscore.Hbond.Weighted>
-3.3248

> <Gold.Chemscore.Metal.Weighted>
-0.0000

> <Gold.Chemscore.Lipo.Weighted>
-12.4437

> <Gold.Chemscore.Internal_Hbond.Weighted>
0.0000

> <Gold.Chemscore.DEClash.Weighted>
1.6314

> <Gold.Chemscore.DEInternal.Weighted>
0.7800

> <Gold.Chemscore.Rot.Weighted>
5.4707

> <Gold.Chemscore.Internal.Correction.Weighted>
   9.000000E+99

> <Gold.Protein.RotatedTorsions>
[ 6907 6896 6895 6894 ] final  -32.56 input  -60.11 | X-H torsion
[ 7974 7965 7964 7962 ] final  -93.96 input  175.53 | X-H torsion
[ 8008 7997 7996 7995 ] final   47.01 input   59.86 | X-H torsion
[ 10167 10162 10161 10158 ] final  151.65 input  -65.29 | X-H torsion
[ 10718 10713 10712 10709 ] final -125.18 input   66.30 | X-H torsion
[ 10763 10752 10751 10750 ] final  -68.90 input  -60.55 | X-H torsion
[ 11005 11000 10999 10996 ] final -128.22 input  -57.11 | X-H torsion

> <Gold.Protein.ActiveResidues>
 VAL166  LYS551  ARG553  GLY616  TRP617  ASP618  TYR619  PRO620  LYS621  CYS622 
 ASP623  PHE694  ASN695  SER759  ASP760  ASP761  ALA762  ILE779  LEU786  VAL792 
 PHE793  MET794  SER795  GLU796  ALA797  LYS798  CYS799  TRP800  GLU811  SER814 

> <Gold.Protein.RotatedAtoms>
  151.0771  134.9835  159.8337 H   0  0  0  0  0  0  0  0  0  0  0  0  # atno 6907 bound_to 6896
  152.5415  134.2228  159.8804 H   0  0  0  0  0  0  0  0  0  0  0  0  # atno 6908 bound_to 6896
  151.2256  133.4435  159.2635 H   0  0  0  0  0  0  0  0  0  0  0  0  # atno 6909 bound_to 6896
  145.3796  140.9516  143.2401 H   0  0  0  0  0  0  0  0  0  0  0  0  # atno 7974 bound_to 7965
  155.3619  140.3419  155.4241 H   0  0  0  0  0  0  0  0  0  0  0  0  # atno 8008 bound_to 7997
  156.1709  140.1631  156.8484 H   0  0  0  0  0  0  0  0  0  0  0  0  # atno 8009 bound_to 7997
  154.5232  140.0762  156.8193 H   0  0  0  0  0  0  0  0  0  0  0  0  # atno 8010 bound_to 7997
  139.4839  144.5423  151.7544 H   0  0  0  0  0  0  0  0  0  0  0  0  # atno 10167 bound_to 10162
  156.1653  130.6630  151.0105 H   0  0  0  0  0  0  0  0  0  0  0  0  # atno 10718 bound_to 10713
  154.3957  135.6042  153.5868 H   0  0  0  0  0  0  0  0  0  0  0  0  # atno 10763 bound_to 10752
  152.9787  135.5894  154.4244 H   0  0  0  0  0  0  0  0  0  0  0  0  # atno 10764 bound_to 10752
  154.4035  135.2843  155.2060 H   0  0  0  0  0  0  0  0  0  0  0  0  # atno 10765 bound_to 10752
  140.9534  134.1034  157.4039 H   0  0  0  0  0  0  0  0  0  0  0  0  # atno 11005 bound_to 11000
  144.8517  139.5312  143.6853 LP  0  0  0  0  0  0  0  0  0  0  0  0  # atno 17320 bound_to 7965
  146.2848  139.6974  142.9203 LP  0  0  0  0  0  0  0  0  0  0  0  0  # atno 17321 bound_to 7965
  140.4964  144.1234  150.5961 LP  0  0  0  0  0  0  0  0  0  0  0  0  # atno 17342 bound_to 10162
  140.4112  143.2656  151.9830 LP  0  0  0  0  0  0  0  0  0  0  0  0  # atno 17343 bound_to 10162
  157.6763  131.0849  150.7486 LP  0  0  0  0  0  0  0  0  0  0  0  0  # atno 17370 bound_to 10713
  156.7547  130.4780  149.5449 LP  0  0  0  0  0  0  0  0  0  0  0  0  # atno 17371 bound_to 10713
  139.8855  135.0072  156.6436 LP  0  0  0  0  0  0  0  0  0  0  0  0  # atno 17394 bound_to 11000
  140.7570  133.8849  155.8389 LP  0  0  0  0  0  0  0  0  0  0  0  0  # atno 17395 bound_to 11000

$$$$
