AV-unprocessed.smi:3335|AV-procd|sdf|12839|dock7
  -GOLD-   2272019223D 1   1.00000     0.00000
 Structure written by MMmdl.
 47 48  0  0  0  0  0  0  0  0  2 V2000
  151.4794  141.9910  158.0486 C   0  0  0  0  0  0  0  0  0  0  0  0
  151.0687  141.2817  156.7907 C   0  0  0  0  0  0  0  0  0  0  0  0
  151.8791  140.4896  155.9292 C   0  0  0  0  0  0  0  0  0  0  0  0
  151.2098  140.0087  154.8948 N   0  0  0  0  0  0  0  0  0  0  0  0
  149.9484  140.4667  155.0612 N   0  0  0  0  0  0  0  0  0  0  0  0
  148.9161  140.1509  154.0812 C   0  0  2  0  0  0  0  0  0  0  0  0
  147.9661  141.3551  153.9237 C   0  0  0  0  0  0  0  0  0  0  0  0
  148.1808  138.8240  154.4276 C   0  0  1  0  0  0  0  0  0  0  0  0
  146.9951  138.5450  153.4885 C   0  0  0  0  0  0  0  0  0  0  0  0
  149.1044  137.6624  154.3531 N   0  3  0  0  0  0  0  0  0  0  0  0
  148.8594  136.5542  155.3080 C   0  0  2  0  0  0  0  0  0  0  0  0
  149.1078  137.0488  156.7408 C   0  0  0  0  0  0  0  0  0  0  0  0
  149.7541  135.3358  155.0067 C   0  0  0  0  0  0  0  0  0  0  0  0
  150.9736  135.4480  155.1429 O   0  0  0  0  0  0  0  0  0  0  0  0
  149.1822  134.1779  154.6115 N   0  0  0  0  0  0  0  0  0  0  0  0
  149.8793  132.9337  154.2836 C   0  0  0  0  0  0  0  0  0  0  0  0
  148.8222  132.0116  153.6766 C   0  0  0  0  0  0  0  0  0  0  0  0
  147.5117  132.5094  154.2687 C   0  0  0  0  0  0  0  0  0  0  0  0
  147.7374  134.0085  154.4645 C   0  0  0  0  0  0  0  0  0  0  0  0
  149.8377  141.2375  156.2000 C   0  0  0  0  0  0  0  0  0  0  0  0
  152.5617  141.9895  158.1803 H   0  0  0  0  0  0  0  0  0  0  0  0
  151.0474  141.5220  158.9327 H   0  0  0  0  0  0  0  0  0  0  0  0
  151.1581  143.0327  158.0468 H   0  0  0  0  0  0  0  0  0  0  0  0
  152.9296  140.2557  156.0217 H   0  0  0  0  0  0  0  0  0  0  0  0
  149.4211  140.0165  153.1232 H   0  0  0  0  0  0  0  0  0  0  0  0
  147.3126  141.2428  153.0589 H   0  0  0  0  0  0  0  0  0  0  0  0
  148.5273  142.2787  153.7764 H   0  0  0  0  0  0  0  0  0  0  0  0
  147.3360  141.4876  154.8041 H   0  0  0  0  0  0  0  0  0  0  0  0
  147.7724  138.8976  155.4366 H   0  0  0  0  0  0  0  0  0  0  0  0
  146.2084  139.2912  153.5977 H   0  0  0  0  0  0  0  0  0  0  0  0
  146.5421  137.5779  153.7098 H   0  0  0  0  0  0  0  0  0  0  0  0
  147.3071  138.5341  152.4436 H   0  0  0  0  0  0  0  0  0  0  0  0
  149.0335  137.2682  153.4257 H   0  0  0  0  0  0  0  0  0  0  0  0
  147.8118  136.2782  155.2350 H   0  0  0  0  0  0  0  0  0  0  0  0
  148.9165  136.2634  157.4729 H   0  0  0  0  0  0  0  0  0  0  0  0
  148.4507  137.8847  156.9829 H   0  0  0  0  0  0  0  0  0  0  0  0
  150.1365  137.3857  156.8770 H   0  0  0  0  0  0  0  0  0  0  0  0
  150.7059  133.0891  153.5891 H   0  0  0  0  0  0  0  0  0  0  0  0
  150.2793  132.4974  155.2000 H   0  0  0  0  0  0  0  0  0  0  0  0
  148.8041  132.1382  152.5933 H   0  0  0  0  0  0  0  0  0  0  0  0
  149.0086  130.9581  153.8867 H   0  0  0  0  0  0  0  0  0  0  0  0
  146.6506  132.2899  153.6368 H   0  0  0  0  0  0  0  0  0  0  0  0
  147.3456  132.0349  155.2368 H   0  0  0  0  0  0  0  0  0  0  0  0
  147.1882  134.3810  155.3308 H   0  0  0  0  0  0  0  0  0  0  0  0
  147.4029  134.5639  153.5870 H   0  0  0  0  0  0  0  0  0  0  0  0
  148.9024  141.6924  156.4917 H   0  0  0  0  0  0  0  0  0  0  0  0
  150.0459  138.0037  154.4815 H   0  0  0  0  0  0  0  0  0  0  0  0
  1  2  1  0  0  0  0
  1 21  1  0  0  0  0
  1 22  1  0  0  0  0
  1 23  1  0  0  0  0
  2 20  2  0  0  0  0
  2  3  1  0  0  0  0
  3  4  2  0  0  0  0
  3 24  1  0  0  0  0
  4  5  1  0  0  0  0
  5  6  1  0  0  0  0
  5 20  1  0  0  0  0
  6  7  1  0  0  0  0
  6  8  1  0  0  0  0
  6 25  1  0  0  0  0
  7 26  1  0  0  0  0
  7 27  1  0  0  0  0
  7 28  1  0  0  0  0
  8  9  1  0  0  0  0
  8 10  1  0  0  0  0
  8 29  1  0  0  0  0
  9 30  1  0  0  0  0
  9 31  1  0  0  0  0
  9 32  1  0  0  0  0
 10 11  1  0  0  0  0
 10 33  1  0  0  0  0
 10 47  1  0  0  0  0
 11 12  1  0  0  0  0
 11 13  1  0  0  0  0
 11 34  1  0  0  0  0
 12 35  1  0  0  0  0
 12 36  1  0  0  0  0
 12 37  1  0  0  0  0
 13 14  2  0  0  0  0
 13 15  1  0  0  0  0
 15 19  1  0  0  0  0
 15 16  1  0  0  0  0
 16 17  1  0  0  0  0
 16 38  1  0  0  0  0
 16 39  1  0  0  0  0
 17 18  1  0  0  0  0
 17 40  1  0  0  0  0
 17 41  1  0  0  0  0
 18 19  1  0  0  0  0
 18 42  1  0  0  0  0
 18 43  1  0  0  0  0
 19 44  1  0  0  0  0
 19 45  1  0  0  0  0
 20 46  1  0  0  0  0
M  CHG  1  10   1
M  END
> <s_m_source_file>
AV-unprocessed.smi

> <i_m_source_file_index>
3335

> <i_lp_mmshare_version>
43012

> <i_f3d_flags>
0

> <s_epik_input>
W0NIM11jMVtjSF1ubihbY0hdMSlbQ0BIXShbQ0gzXSlbQ0BIXShbQ0gzXSlbTkhdW0NASF0oW0NIM10pQyg9TylOMltDSDJdW0NIMl1bQ0gyXVtDSDJdMg==

> <s_epik_cmdline>
J2VwaWtfcHl0aG9uJywgJy1waCcsICc3LjAnLCAnLXRuJywgJzgnLCAnLW1hJywgJzIwMCcsICctbWV0YWxfYmluZGluZycsICctaW1hZScsICc8aW5maWxlLm1hZT4nLCAnLW9tYWUnLCAnPG91dGZpbGUubWFlPic=

> <r_lp_tautomer_probability>
1

> <r_epik_Ionization_Penalty>
0.14175

> <r_epik_Ionization_Penalty_Charging>
0.141731

> <r_epik_Ionization_Penalty_Neutral>
1.91261e-05

> <r_epik_State_Penalty>
0.131043

> <r_epik_Charging_Adjusted_Penalty>
0.272773

> <i_epik_Tot_Q>
1

> <i_epik_Tot_abs_Q>
1

> <r_epik_Metal_State_Penalty>
0.131408

> <b_epik_Metal_Only>
0

> <s_lp_Force_Field>
OPLS_2005

> <r_lp_Energy>
35.8146

> <b_lp_Chiralities_Consistent>
1

> <s_lp_Variant>
AV-unprocessed.smi:3335-3

> <Gold.Version>
5.8.1

> <Gold.Id.Protein>
6NUR|6NUR_protein|mol2

> <Gold.PLP.Fitness>
42.0100

> <Gold.PLP.PLP>
-32.3889

> <Gold.PLP.part.hbond>
-3.0000

> <Gold.PLP.part.metal>
0.0000

> <Gold.PLP.part.buried>
-3.0920

> <Gold.PLP.part.nonpolar>
-26.0058

> <Gold.PLP.part.repulsive>
0.1856

> <Gold.PLP.ligand.clash>
0.0000

> <Gold.PLP.ligand.torsion>
1.2425

> <Gold.PLP.Chemscore.Hbond>
4.0000

> <Gold.PLP.Chemscore.CHOScore>
0.0000

> <Gold.PLP.Chemscore.Metal>
0.0000

> <Gold.Chemscore.Hbonds>
donor molecule, donor type, donor heavy atom, donor atom, acceptor molecule, acceptor atom, score
      L1  H    10    33       P1  7948  2.00
      P1  H  7989  7998       L1     4  1.00
      P1  H 10752 10765       L1    14  1.00

> <Gold.PLP.Chemscore.Internal.Correction>
0.1061

> <Gold.Rescore>
     Score         DG    S(hbond)    S(metal)    S(lipo)     H(rot)  DE(clash)    DE(int)     intcor
     17.76     -18.93       2.82        0.00      71.33       1.68       0.30       0.88       ----

> <Gold.Chemscore.Fitness>
17.7598

> <Gold.Chemscore.DG>
-18.9343

> <Gold.Chemscore.ZeroCoef>
-5.4800

> <Gold.Chemscore.Hbond>
2.8154

> <Gold.Chemscore.Metal>
0.0000

> <Gold.Chemscore.Lipo>
71.3325

> <Gold.Chemscore.Internal_Hbond>
0.0000

> <Gold.Chemscore.DEClash>
0.2970

> <Gold.Chemscore.DEInternal>
0.8775

> <Gold.Chemscore.Rot>
1.6778

> <Gold.Chemscore.Internal.Correction>
   9.000000E+99

> <Gold.Chemscore.Hbonds>
donor molecule, donor type, donor heavy atom, donor atom, acceptor molecule, acceptor atom, score
      L1  H    10    33       P1  7948  1.00
      P1  H  7989  7998       L1     4  0.18
      P1  H 10752 10765       L1    14  0.91

> <Gold.Chemscore.Hbond.Weighted>
-9.4035

> <Gold.Chemscore.Metal.Weighted>
-0.0000

> <Gold.Chemscore.Lipo.Weighted>
-8.3459

> <Gold.Chemscore.Internal_Hbond.Weighted>
0.0000

> <Gold.Chemscore.DEClash.Weighted>
0.2970

> <Gold.Chemscore.DEInternal.Weighted>
0.8775

> <Gold.Chemscore.Rot.Weighted>
4.2952

> <Gold.Chemscore.Internal.Correction.Weighted>
   9.000000E+99

> <Gold.Protein.RotatedTorsions>
[ 6907 6896 6895 6894 ] final   27.89 input  -60.11 | X-H torsion
[ 7974 7965 7964 7962 ] final   73.17 input  175.53 | X-H torsion
[ 8008 7997 7996 7995 ] final  -40.92 input   59.86 | X-H torsion
[ 10167 10162 10161 10158 ] final   42.81 input  -65.29 | X-H torsion
[ 10718 10713 10712 10709 ] final  -15.23 input   66.30 | X-H torsion
[ 10763 10752 10751 10750 ] final -178.13 input  -60.55 | X-H torsion
[ 11005 11000 10999 10996 ] final   93.74 input  -57.11 | X-H torsion

> <Gold.Protein.ActiveResidues>
 VAL166  LYS551  ARG553  GLY616  TRP617  ASP618  TYR619  PRO620  LYS621  CYS622 
 ASP623  PHE694  ASN695  SER759  ASP760  ASP761  ALA762  ILE779  LEU786  VAL792 
 PHE793  MET794  SER795  GLU796  ALA797  LYS798  CYS799  TRP800  GLU811  SER814 

> <Gold.Protein.RotatedAtoms>
  152.0090  134.9887  160.0567 H   0  0  0  0  0  0  0  0  0  0  0  0  # atno 6907 bound_to 6896
  152.1447  133.4480  159.4792 H   0  0  0  0  0  0  0  0  0  0  0  0  # atno 6908 bound_to 6896
  150.6869  134.2180  159.4428 H   0  0  0  0  0  0  0  0  0  0  0  0  # atno 6909 bound_to 6896
  145.7442  139.2733  143.1469 H   0  0  0  0  0  0  0  0  0  0  0  0  # atno 7974 bound_to 7965
  154.4008  140.1513  156.3106 H   0  0  0  0  0  0  0  0  0  0  0  0  # atno 8008 bound_to 7997
  155.8619  140.3453  155.5740 H   0  0  0  0  0  0  0  0  0  0  0  0  # atno 8009 bound_to 7997
  155.7871  140.0851  157.2019 H   0  0  0  0  0  0  0  0  0  0  0  0  # atno 8010 bound_to 7997
  140.3507  144.2354  150.6146 H   0  0  0  0  0  0  0  0  0  0  0  0  # atno 10167 bound_to 10162
  156.6048  130.4833  149.6225 H   0  0  0  0  0  0  0  0  0  0  0  0  # atno 10718 bound_to 10713
  154.5516  135.2813  155.1003 H   0  0  0  0  0  0  0  0  0  0  0  0  # atno 10763 bound_to 10752
  154.2447  135.6350  153.5223 H   0  0  0  0  0  0  0  0  0  0  0  0  # atno 10764 bound_to 10752
  153.0004  135.5568  154.6084 H   0  0  0  0  0  0  0  0  0  0  0  0  # atno 10765 bound_to 10752
  139.8806  134.8807  156.3762 H   0  0  0  0  0  0  0  0  0  0  0  0  # atno 11005 bound_to 11000
  146.0419  140.8157  142.9824 LP  0  0  0  0  0  0  0  0  0  0  0  0  # atno 17320 bound_to 7965
  144.6864  140.2922  143.7276 LP  0  0  0  0  0  0  0  0  0  0  0  0  # atno 17321 bound_to 7965
  140.5222  143.2263  151.8371 LP  0  0  0  0  0  0  0  0  0  0  0  0  # atno 17342 bound_to 10162
  139.4827  144.4823  151.9291 LP  0  0  0  0  0  0  0  0  0  0  0  0  # atno 17343 bound_to 10162
  156.2439  130.6867  151.1582 LP  0  0  0  0  0  0  0  0  0  0  0  0  # atno 17370 bound_to 10713
  157.7270  131.0642  150.5884 LP  0  0  0  0  0  0  0  0  0  0  0  0  # atno 17371 bound_to 10713
  140.9430  133.7501  156.0172 LP  0  0  0  0  0  0  0  0  0  0  0  0  # atno 17394 bound_to 11000
  140.8196  134.3304  157.5386 LP  0  0  0  0  0  0  0  0  0  0  0  0  # atno 17395 bound_to 11000

$$$$
