AV-unprocessed.smi:193|AV-procd|sdf|1496|dock6
  -GOLD-   2262019323D 1   1.00000     0.00000
 Structure written by MMmdl.
 62 66  0  0  0  0  0  0  0  0  2 V2000
  146.7142  141.6174  157.7128 C   0  0  0  0  0  0  0  0  0  0  0  0
  148.1583  141.8795  157.2559 C   0  0  2  0  0  0  0  0  0  0  0  0
  148.8327  140.5379  156.9026 C   0  0  0  0  0  0  0  0  0  0  0  0
  149.9979  140.6579  156.0279 N   0  0  0  0  0  0  0  0  0  0  0  0
  150.6409  139.5052  155.7422 C   0  0  0  0  0  0  0  0  0  0  0  0
  151.8116  139.5958  155.0642 N   0  0  0  0  0  0  0  0  0  0  0  0
  152.4903  138.4870  154.7531 C   0  0  0  0  0  0  0  0  0  0  0  0
  152.1850  137.2170  155.0278 N   0  0  0  0  0  0  0  0  0  0  0  0
  151.0177  137.1261  155.7275 C   0  0  0  0  0  0  0  0  0  0  0  0
  150.1883  138.2118  156.1258 C   0  0  0  0  0  0  0  0  0  0  0  0
  149.0928  137.7355  156.8361 N   0  0  0  0  0  0  0  0  0  0  0  0
  149.2589  136.4409  156.8463 C   0  0  0  0  0  0  0  0  0  0  0  0
  150.3912  135.9891  156.2068 N   0  0  0  0  0  0  0  0  0  0  0  0
  150.8178  134.6053  156.0674 C   0  0  0  0  0  0  0  0  0  0  0  0
  149.7623  133.6843  155.4070 C   0  0  0  0  0  0  0  0  0  0  0  0
  148.6846  133.5420  156.3169 O   0  0  0  0  0  0  0  0  0  0  0  0
  149.2255  134.3276  154.1127 C   0  0  0  0  0  0  0  0  0  0  0  0
  148.3018  133.3770  153.3309 C   0  0  0  0  0  0  0  0  0  0  0  0
  148.9787  132.1561  153.0586 O   0  0  0  0  0  0  0  0  0  0  0  0
  149.3332  131.4480  154.2402 C   0  0  0  0  0  0  0  0  0  0  0  0
  150.3170  132.2799  155.0820 C   0  0  0  0  0  0  0  0  0  0  0  0
  150.8372  141.8516  155.9957 C   0  0  0  0  0  0  0  0  0  0  0  0
  151.1970  142.3740  157.3929 C   0  0  0  0  0  0  0  0  0  0  0  0
  150.1615  143.3056  157.9008 N   0  3  2  0  0  0  0  0  0  0  0  0
  150.7078  144.2100  158.9377 C   0  0  2  0  0  0  0  0  0  0  0  0
  152.1568  144.5796  158.7188 C   0  0  0  0  0  0  0  0  0  0  0  0
  151.7858  143.5785  159.7915 C   0  0  1  0  0  0  0  0  0  0  0  0
  151.9217  143.9418  161.2538 C   0  0  0  0  0  0  0  0  0  0  0  0
  148.9263  142.6287  158.3695 C   0  0  0  0  0  0  0  0  0  0  0  0
  146.6875  140.9940  158.6074 H   0  0  0  0  0  0  0  0  0  0  0  0
  146.1402  141.1096  156.9369 H   0  0  0  0  0  0  0  0  0  0  0  0
  146.1951  142.5490  157.9404 H   0  0  0  0  0  0  0  0  0  0  0  0
  148.0959  142.5070  156.3656 H   0  0  0  0  0  0  0  0  0  0  0  0
  149.0832  140.0050  157.8190 H   0  0  0  0  0  0  0  0  0  0  0  0
  148.1161  139.9066  156.3750 H   0  0  0  0  0  0  0  0  0  0  0  0
  153.4097  138.6383  154.2069 H   0  0  0  0  0  0  0  0  0  0  0  0
  148.5585  135.7738  157.3281 H   0  0  0  0  0  0  0  0  0  0  0  0
  151.7444  134.5920  155.4915 H   0  0  0  0  0  0  0  0  0  0  0  0
  151.0734  134.2295  157.0590 H   0  0  0  0  0  0  0  0  0  0  0  0
  148.5449  134.3718  156.7472 H   0  0  0  0  0  0  0  0  0  0  0  0
  148.7027  135.2589  154.3355 H   0  0  0  0  0  0  0  0  0  0  0  0
  150.0646  134.5961  153.4695 H   0  0  0  0  0  0  0  0  0  0  0  0
  147.3804  133.1811  153.8814 H   0  0  0  0  0  0  0  0  0  0  0  0
  148.0116  133.8349  152.3851 H   0  0  0  0  0  0  0  0  0  0  0  0
  148.4377  131.2008  154.8123 H   0  0  0  0  0  0  0  0  0  0  0  0
  149.7950  130.5023  153.9558 H   0  0  0  0  0  0  0  0  0  0  0  0
  151.2480  132.3828  154.5230 H   0  0  0  0  0  0  0  0  0  0  0  0
  150.5663  131.7375  155.9947 H   0  0  0  0  0  0  0  0  0  0  0  0
  151.7627  141.6226  155.4642 H   0  0  0  0  0  0  0  0  0  0  0  0
  150.3472  142.6276  155.4067 H   0  0  0  0  0  0  0  0  0  0  0  0
  151.3930  141.5671  158.1006 H   0  0  0  0  0  0  0  0  0  0  0  0
  152.1321  142.9277  157.2986 H   0  0  0  0  0  0  0  0  0  0  0  0
  150.0129  144.9332  159.3621 H   0  0  0  0  0  0  0  0  0  0  0  0
  152.6597  144.1988  157.8317 H   0  0  0  0  0  0  0  0  0  0  0  0
  152.4737  145.5697  159.0408 H   0  0  0  0  0  0  0  0  0  0  0  0
  152.0348  142.5403  159.5776 H   0  0  0  0  0  0  0  0  0  0  0  0
  151.6618  144.9879  161.4190 H   0  0  0  0  0  0  0  0  0  0  0  0
  152.9477  143.7818  161.5857 H   0  0  0  0  0  0  0  0  0  0  0  0
  151.2596  143.3199  161.8565 H   0  0  0  0  0  0  0  0  0  0  0  0
  148.2714  143.3970  158.7829 H   0  0  0  0  0  0  0  0  0  0  0  0
  149.1609  141.9567  159.1967 H   0  0  0  0  0  0  0  0  0  0  0  0
  149.8981  143.8973  157.1258 H   0  0  0  0  0  0  0  0  0  0  0  0
  1  2  1  0  0  0  0
  1 30  1  0  0  0  0
  1 31  1  0  0  0  0
  1 32  1  0  0  0  0
  2 29  1  0  0  0  0
  2  3  1  0  0  0  0
  2 33  1  0  0  0  0
  3  4  1  0  0  0  0
  3 34  1  0  0  0  0
  3 35  1  0  0  0  0
  4  5  1  0  0  0  0
  4 22  1  0  0  0  0
  5 10  1  0  0  0  0
  5  6  2  0  0  0  0
  6  7  1  0  0  0  0
  7  8  2  0  0  0  0
  7 36  1  0  0  0  0
  8  9  1  0  0  0  0
  9 13  1  0  0  0  0
  9 10  2  0  0  0  0
 10 11  1  0  0  0  0
 11 12  2  0  0  0  0
 12 13  1  0  0  0  0
 12 37  1  0  0  0  0
 13 14  1  0  0  0  0
 14 15  1  0  0  0  0
 14 38  1  0  0  0  0
 14 39  1  0  0  0  0
 15 21  1  0  0  0  0
 15 16  1  0  0  0  0
 15 17  1  0  0  0  0
 16 40  1  0  0  0  0
 17 18  1  0  0  0  0
 17 41  1  0  0  0  0
 17 42  1  0  0  0  0
 18 19  1  0  0  0  0
 18 43  1  0  0  0  0
 18 44  1  0  0  0  0
 19 20  1  0  0  0  0
 20 21  1  0  0  0  0
 20 45  1  0  0  0  0
 20 46  1  0  0  0  0
 21 47  1  0  0  0  0
 21 48  1  0  0  0  0
 22 23  1  0  0  0  0
 22 49  1  0  0  0  0
 22 50  1  0  0  0  0
 23 24  1  0  0  0  0
 23 51  1  0  0  0  0
 23 52  1  0  0  0  0
 24 25  1  0  0  0  0
 24 29  1  0  0  0  0
 24 62  1  0  0  0  0
 25 27  1  0  0  0  0
 25 26  1  0  0  0  0
 25 53  1  0  0  0  0
 26 27  1  0  0  0  0
 26 54  1  0  0  0  0
 26 55  1  0  0  0  0
 27 28  1  0  0  0  0
 27 56  1  0  0  0  0
 28 57  1  0  0  0  0
 28 58  1  0  0  0  0
 28 59  1  0  0  0  0
 29 60  1  0  0  0  0
 29 61  1  0  0  0  0
M  CHG  1  24   1
M  END
> <s_m_source_file>
AV-unprocessed.smi

> <i_m_source_file_index>
193

> <i_lp_mmshare_version>
43012

> <i_f3d_flags>
0

> <s_epik_input>
W0NIM11bQ0BASF0xW0NIMl1bQ0BIXTFOKFtDSDJdMilbQ0gyXVtDSDJdTihbQ0gyXVtDQEhdMltDSDNdKWMobltjSF1uMyljKGMzNCluW2NIXW40W0NIMl1DNShbT0hdKVtDSDJdW0NIMl1PW0NIMl1bQ0gyXTU=

> <s_epik_cmdline>
J2VwaWtfcHl0aG9uJywgJy1waCcsICc3LjAnLCAnLXRuJywgJzgnLCAnLW1hJywgJzIwMCcsICctbWV0YWxfYmluZGluZycsICctaW1hZScsICc8aW5maWxlLm1hZT4nLCAnLW9tYWUnLCAnPG91dGZpbGUubWFlPic=

> <r_lp_tautomer_probability>
1

> <r_epik_Ionization_Penalty>
0.0540825

> <r_epik_Ionization_Penalty_Charging>
0.0538476

> <r_epik_Ionization_Penalty_Neutral>
0.000234891

> <r_epik_State_Penalty>
0.0200719

> <r_epik_Charging_Adjusted_Penalty>
0.0739194

> <i_epik_Tot_Q>
1

> <i_epik_Tot_abs_Q>
1

> <r_epik_Metal_State_Penalty>
0.0199414

> <b_epik_Metal_Only>
0

> <s_lp_Force_Field>
OPLS_2005

> <r_lp_Energy>
53.912

> <b_lp_Chiralities_Consistent>
1

> <s_lp_Variant>
AV-unprocessed.smi:193-1

> <Gold.Version>
5.8.1

> <Gold.Id.Protein>
6NUR|6NUR_protein|mol2

> <Gold.PLP.Fitness>
60.8936

> <Gold.PLP.PLP>
-49.8260

> <Gold.PLP.part.hbond>
-3.0000

> <Gold.PLP.part.metal>
0.0000

> <Gold.PLP.part.buried>
-8.6353

> <Gold.PLP.part.nonpolar>
-38.9945

> <Gold.PLP.part.repulsive>
0.2593

> <Gold.PLP.ligand.clash>
0.1979

> <Gold.PLP.ligand.torsion>
0.8250

> <Gold.PLP.Chemscore.Hbond>
3.8160

> <Gold.PLP.Chemscore.CHOScore>
0.0000

> <Gold.PLP.Chemscore.Metal>
0.0000

> <Gold.Chemscore.Hbonds>
donor molecule, donor type, donor heavy atom, donor atom, acceptor molecule, acceptor atom, score
      L1  H    24    62       P1  8028  2.00
      P1  H  7989  7998       L1     6  1.00
      P1  H 10752 10765       L1     8  0.80

> <Gold.PLP.Chemscore.Internal.Correction>
1.4674

> <Gold.Rescore>
     Score         DG    S(hbond)    S(metal)    S(lipo)     H(rot)  DE(clash)    DE(int)     intcor
     20.20     -22.55       2.86        0.00     106.48       1.93       0.02       2.34       ----

> <Gold.Chemscore.Fitness>
20.1958

> <Gold.Chemscore.DG>
-22.5493

> <Gold.Chemscore.ZeroCoef>
-5.4800

> <Gold.Chemscore.Hbond>
2.8593

> <Gold.Chemscore.Metal>
0.0000

> <Gold.Chemscore.Lipo>
106.4752

> <Gold.Chemscore.Internal_Hbond>
0.0000

> <Gold.Chemscore.DEClash>
0.0154

> <Gold.Chemscore.DEInternal>
2.3380

> <Gold.Chemscore.Rot>
1.9290

> <Gold.Chemscore.Internal.Correction>
   9.000000E+99

> <Gold.Chemscore.Hbonds>
donor molecule, donor type, donor heavy atom, donor atom, acceptor molecule, acceptor atom, score
      L1  H    24    62       P1  8028  0.87
      P1  H  7989  7998       L1     6  0.61
      P1  H 10752 10765       L1     8  0.76

> <Gold.Chemscore.Hbond.Weighted>
-9.5500

> <Gold.Chemscore.Metal.Weighted>
-0.0000

> <Gold.Chemscore.Lipo.Weighted>
-12.4576

> <Gold.Chemscore.Internal_Hbond.Weighted>
0.0000

> <Gold.Chemscore.DEClash.Weighted>
0.0154

> <Gold.Chemscore.DEInternal.Weighted>
2.3380

> <Gold.Chemscore.Rot.Weighted>
4.9383

> <Gold.Chemscore.Internal.Correction.Weighted>
   9.000000E+99

> <Gold.Protein.RotatedTorsions>
[ 6907 6896 6895 6894 ] final -138.36 input  -60.11 | X-H torsion
[ 7974 7965 7964 7962 ] final  -98.75 input  175.53 | X-H torsion
[ 8008 7997 7996 7995 ] final   36.37 input   59.86 | X-H torsion
[ 10167 10162 10161 10158 ] final  102.27 input  -65.29 | X-H torsion
[ 10718 10713 10712 10709 ] final  -85.33 input   66.30 | X-H torsion
[ 10763 10752 10751 10750 ] final  170.55 input  -60.55 | X-H torsion
[ 11005 11000 10999 10996 ] final   51.21 input  -57.11 | X-H torsion

> <Gold.Protein.ActiveResidues>
 VAL166  LYS551  ARG553  GLY616  TRP617  ASP618  TYR619  PRO620  LYS621  CYS622 
 ASP623  PHE694  ASN695  SER759  ASP760  ASP761  ALA762  ILE779  LEU786  VAL792 
 PHE793  MET794  SER795  GLU796  ALA797  LYS798  CYS799  TRP800  GLU811  SER814 

> <Gold.Protein.RotatedAtoms>
  151.0341  133.5764  159.2657 H   0  0  0  0  0  0  0  0  0  0  0  0  # atno 6907 bound_to 6896
  151.2835  135.0720  159.9188 H   0  0  0  0  0  0  0  0  0  0  0  0  # atno 6908 bound_to 6896
  152.5351  134.0051  159.7967 H   0  0  0  0  0  0  0  0  0  0  0  0  # atno 6909 bound_to 6896
  145.3166  140.9412  143.2739 H   0  0  0  0  0  0  0  0  0  0  0  0  # atno 7974 bound_to 7965
  155.1863  140.3304  155.4366 H   0  0  0  0  0  0  0  0  0  0  0  0  # atno 8008 bound_to 7997
  156.2458  140.1918  156.6909 H   0  0  0  0  0  0  0  0  0  0  0  0  # atno 8009 bound_to 7997
  154.6236  140.0592  156.9632 H   0  0  0  0  0  0  0  0  0  0  0  0  # atno 8010 bound_to 7997
  139.7364  144.7023  151.0642 H   0  0  0  0  0  0  0  0  0  0  0  0  # atno 10167 bound_to 10162
  155.9998  130.4727  150.4546 H   0  0  0  0  0  0  0  0  0  0  0  0  # atno 10718 bound_to 10713
  154.3992  135.2755  155.2107 H   0  0  0  0  0  0  0  0  0  0  0  0  # atno 10763 bound_to 10752
  154.4140  135.6015  153.5973 H   0  0  0  0  0  0  0  0  0  0  0  0  # atno 10764 bound_to 10752
  152.9831  135.5956  154.4257 H   0  0  0  0  0  0  0  0  0  0  0  0  # atno 10765 bound_to 10752
  140.0952  134.5156  155.8814 H   0  0  0  0  0  0  0  0  0  0  0  0  # atno 11005 bound_to 11000
  144.8973  139.4696  143.6649 LP  0  0  0  0  0  0  0  0  0  0  0  0  # atno 17320 bound_to 7965
  146.3098  139.7706  142.9028 LP  0  0  0  0  0  0  0  0  0  0  0  0  # atno 17321 bound_to 7965
  140.7779  143.4979  150.9809 LP  0  0  0  0  0  0  0  0  0  0  0  0  # atno 17342 bound_to 10162
  139.8667  143.7245  152.3169 LP  0  0  0  0  0  0  0  0  0  0  0  0  # atno 17343 bound_to 10162
  157.2576  131.0560  151.2340 LP  0  0  0  0  0  0  0  0  0  0  0  0  # atno 17370 bound_to 10713
  157.3466  130.7061  149.6415 LP  0  0  0  0  0  0  0  0  0  0  0  0  # atno 17371 bound_to 10713
  141.2090  133.6679  156.6407 LP  0  0  0  0  0  0  0  0  0  0  0  0  # atno 17394 bound_to 11000
  140.3297  134.7939  157.4316 LP  0  0  0  0  0  0  0  0  0  0  0  0  # atno 17395 bound_to 11000

$$$$
