#       Name:                AV-unprocessed.smi:1463
#       Creating user name   scv26
#       Creation time:       Fri Mar 27 06:01:34 2020


#       File generated by GOLD software.
#

@<TRIPOS>MOLECULE
AV-unprocessed.smi:1463
    55    56     1
SMALL
NO_CHARGES


@<TRIPOS>ATOM
      1 ****        -3.2589   3.0942   0.7718 C.3            1 S1                 0.0000
      2 ****        -3.2416   1.7414   0.3531 O.3            1 S1                 0.0000
      3 ****        -3.8556   1.5541  -0.9115 C.3            1 S1                 0.0000
      4 ****        -3.7409   0.0776  -1.2988 C.3            1 S1                 0.0000
      5 ****        -2.3797  -0.1847  -1.6176 O.3            1 S1                 0.0000
      6 ****        -1.9856  -1.4869  -1.8539 C.ar           1 S1                 0.0000
      7 ****        -2.9452  -2.4426  -1.9389 N.ar           1 S1                 0.0000
      8 ****        -2.5671  -3.7129  -2.1920 C.ar           1 S1                 0.0000
      9 ****        -1.2259  -4.0958  -2.3794 C.ar           1 S1                 0.0000
     10 ****        -0.2295  -3.1061  -2.2897 C.ar           1 S1                 0.0000
     11 ****        -0.6055  -1.7765  -2.0037 C.ar           1 S1                 0.0000
     12 ****         0.4444  -0.7025  -1.9307 C.2            1 S1                 0.0000
     13 ****         1.1897  -0.5469  -2.8987 O.2            1 S1                 0.0000
     14 ****         0.5174   0.0624  -0.8117 N.am           1 S1                 0.0000
     15 ****        -0.0750  -0.2624   0.4948 C.3            1 S1                 0.0000
     16 ****         1.0490  -0.6339   1.4788 C.3            1 S1                 0.0000
     17 ****         2.0989   0.4916   1.5997 C.3            1 S1                 0.0000
     18 ****         3.2580   0.0667   2.5298 C.3            1 S1                 0.0000
     19 ****         4.2411   1.1953   2.8635 C.2            1 S1                 0.0000
     20 ****         5.5377   0.8784   2.8965 N.am           1 S1                 0.0000
     21 ****         3.8404   2.3345   3.0946 O.2            1 S1                 0.0000
     22 ****         2.5802   0.9284   0.1956 C.3            1 S1                 0.0000
     23 ****         1.3902   1.2392  -0.7285 C.3            1 S1                 0.0000
     24 ****        -2.7775   3.1817   1.7458 H              1 S1                 0.0000
     25 ****        -4.2802   3.4653   0.8653 H              1 S1                 0.0000
     26 ****        -2.7169   3.7303   0.0709 H              1 S1                 0.0000
     27 ****        -4.9070   1.8382  -0.8488 H              1 S1                 0.0000
     28 ****        -3.3882   2.1833  -1.6707 H              1 S1                 0.0000
     29 ****        -4.0889  -0.5512  -0.4774 H              1 S1                 0.0000
     30 ****        -4.3652  -0.1251  -2.1702 H              1 S1                 0.0000
     31 ****        -3.3585  -4.4452  -2.2526 H              1 S1                 0.0000
     32 ****        -0.9680  -5.1235  -2.5884 H              1 S1                 0.0000
     33 ****         0.8087  -3.3695  -2.4318 H              1 S1                 0.0000
     34 ****        -0.6304   0.6016   0.8628 H              1 S1                 0.0000
     35 ****        -0.7888  -1.0831   0.4629 H              1 S1                 0.0000
     36 ****         0.6208  -0.8509   2.4579 H              1 S1                 0.0000
     37 ****         1.5309  -1.5534   1.1427 H              1 S1                 0.0000
     38 ****         1.5928   1.3454   2.0537 H              1 S1                 0.0000
     39 ****         2.8528  -0.2989   3.4740 H              1 S1                 0.0000
     40 ****         3.7974  -0.7706   2.0841 H              1 S1                 0.0000
     41 ****         6.2258   1.5856   3.1106 H              1 S1                 0.0000
     42 ****         5.8257  -0.0704   2.7057 H              1 S1                 0.0000
     43 ****         3.2188   1.8090   0.2662 H              1 S1                 0.0000
     44 ****         3.1887   0.1400  -0.2498 H              1 S1                 0.0000
     45 ****         1.7514   1.5635  -1.7055 H              1 S1                 0.0000
     46 ****         0.8191   2.0805  -0.3328 H              1 S1                 0.0000
     47 ****        -3.7288   1.1902   1.0305 LP             1 S1                 0.0000
     48 ****        -2.2911   1.4359   0.2960 LP             1 S1                 0.0000
     49 ****        -1.8296   0.1538  -0.8542 LP             1 S1                 0.0000
     50 ****        -2.1655   0.3402  -2.4414 LP             1 S1                 0.0000
     51 ****        -3.9103  -2.2108  -1.8168 LP             1 S1                 0.0000
     52 ****         1.0879  -1.1275  -3.7065 LP             1 S1                 0.0000
     53 ****         1.8966   0.1600  -2.8769 LP             1 S1                 0.0000
     54 ****         2.8612   2.5354   3.0664 LP             1 S1                 0.0000
     55 ****         4.4937   3.0601   3.3107 LP             1 S1                 0.0000
@<TRIPOS>BOND
    1    1    2 1     
    2    1   24 1     
    3    1   25 1     
    4    1   26 1     
    5    2    3 1     
    6    3    4 1     
    7    3   27 1     
    8    3   28 1     
    9    4    5 1     
   10    4   29 1     
   11    4   30 1     
   12    5    6 1     
   13    6   11 ar    
   14    6    7 ar    
   15    7    8 ar    
   16    8    9 ar    
   17    8   31 1     
   18    9   10 ar    
   19    9   32 1     
   20   10   11 ar    
   21   10   33 1     
   22   11   12 1     
   23   12   13 2     
   24   12   14 am    
   25   14   23 1     
   26   14   15 1     
   27   15   16 1     
   28   15   34 1     
   29   15   35 1     
   30   16   17 1     
   31   16   36 1     
   32   16   37 1     
   33   17   18 1     
   34   17   22 1     
   35   17   38 1     
   36   18   19 1     
   37   18   39 1     
   38   18   40 1     
   39   19   20 am    
   40   19   21 2     
   41   20   41 1     
   42   20   42 1     
   43   22   23 1     
   44   22   43 1     
   45   22   44 1     
   46   23   45 1     
   47   23   46 1     
   48    2   47 1     
   49    2   48 1     
   50    5   49 1     
   51    5   50 1     
   52    7   51 1     
   53   13   52 1     
   54   13   53 1     
   55   21   54 1     
   56   21   55 1     
@<TRIPOS>SUBSTRUCTURE
      1 S1             1
@<TRIPOS>SET
LONE_PAIRS      STATIC     ATOMS    <user>   **** ""
9 47 48 49 50 51 52 53 54 55
DONOR_HYDROGENS      STATIC     ATOMS    <user>   **** ""
2 41 42
ATOM$BLUE        STATIC     ATOMS    COLORGROUP SYSTEM
9 47 48 49 50 51 52 53 54 55
ATOM$RED        STATIC     ATOMS    COLORGROUP SYSTEM
2 41 42
