AV-unprocessed.smi:35|AV-procd|sdf|266|dock3
  -GOLD-   2262016 33D 1   1.00000     0.00000
 Structure written by MMmdl.
 28 29  0  0  0  0  0  0  0  0  2 V2000
  151.3219  134.3242  157.0261 O   0  0  0  0  0  0  0  0  0  0  0  0
  151.3259  135.4565  156.5467 C   0  0  0  0  0  0  0  0  0  0  0  0
  152.4197  136.2717  156.5800 N   0  5  0  0  0  0  0  0  0  0  0  0
  152.4187  137.5281  156.0453 C   0  0  0  0  0  0  0  0  0  0  0  0
  153.3939  138.2785  156.0858 O   0  0  0  0  0  0  0  0  0  0  0  0
  151.2359  138.0097  155.4203 N   0  0  0  0  0  0  0  0  0  0  0  0
  151.2377  139.4055  154.8257 C   0  0  1  0  0  0  0  0  0  0  0  0
  150.0443  139.6131  154.1228 O   0  0  0  0  0  0  0  0  0  0  0  0
  149.2506  140.5764  154.8038 C   0  0  2  0  0  0  0  0  0  0  0  0
  148.2225  141.2107  153.8499 C   0  0  0  0  0  0  0  0  0  0  0  0
  147.6657  140.2651  152.9599 O   0  0  0  0  0  0  0  0  0  0  0  0
  150.2801  141.5078  155.4434 C   0  0  1  0  0  0  0  0  0  0  0  0
  149.7440  142.2887  156.4959 O   0  0  0  0  0  0  0  0  0  0  0  0
  151.3547  140.5224  155.8958 C   0  0  1  0  0  0  0  0  0  0  0  0
  151.1353  140.0643  157.2221 O   0  0  0  0  0  0  0  0  0  0  0  0
  150.1078  137.2067  155.3766 C   0  0  0  0  0  0  0  0  0  0  0  0
  150.1153  135.9686  155.9102 C   0  0  0  0  0  0  0  0  0  0  0  0
  148.4317  134.9319  155.7775 Br  0  0  0  0  0  0  0  0  0  0  0  0
  152.0507  139.4169  154.0979 H   0  0  0  0  0  0  0  0  0  0  0  0
  148.7110  140.0474  155.5914 H   0  0  0  0  0  0  0  0  0  0  0  0
  147.4257  141.6957  154.4143 H   0  0  0  0  0  0  0  0  0  0  0  0
  148.7068  141.9839  153.2530 H   0  0  0  0  0  0  0  0  0  0  0  0
  148.2593  140.1504  152.2336 H   0  0  0  0  0  0  0  0  0  0  0  0
  150.7119  142.1722  154.6943 H   0  0  0  0  0  0  0  0  0  0  0  0
  149.3299  143.0500  156.1194 H   0  0  0  0  0  0  0  0  0  0  0  0
  152.3496  140.9664  155.8489 H   0  0  0  0  0  0  0  0  0  0  0  0
  151.6940  139.3166  157.3729 H   0  0  0  0  0  0  0  0  0  0  0  0
  149.2007  137.5634  154.9140 H   0  0  0  0  0  0  0  0  0  0  0  0
  1  2  2  0  0  0  0
  2 17  1  0  0  0  0
  2  3  1  0  0  0  0
  3  4  1  0  0  0  0
  4  5  2  0  0  0  0
  4  6  1  0  0  0  0
  6  7  1  0  0  0  0
  6 16  1  0  0  0  0
  7 14  1  0  0  0  0
  7  8  1  0  0  0  0
  7 19  1  0  0  0  0
  8  9  1  0  0  0  0
  9 10  1  0  0  0  0
  9 12  1  0  0  0  0
  9 20  1  0  0  0  0
 10 11  1  0  0  0  0
 10 21  1  0  0  0  0
 10 22  1  0  0  0  0
 11 23  1  0  0  0  0
 12 13  1  0  0  0  0
 12 14  1  0  0  0  0
 12 24  1  0  0  0  0
 13 25  1  0  0  0  0
 14 15  1  0  0  0  0
 14 26  1  0  0  0  0
 15 27  1  0  0  0  0
 16 17  2  0  0  0  0
 16 28  1  0  0  0  0
 17 18  1  0  0  0  0
M  CHG  1   3  -1
M  END
> <s_m_source_file>
AV-unprocessed.smi

> <i_m_source_file_index>
35

> <i_lp_mmshare_version>
43012

> <i_f3d_flags>
0

> <s_epik_input>
Tz1jMVtuSF1jKD1PKW4oW2NIXWMxQnIpW0NAQEhdMk9bQ0BASF0oW0NIMl1bT0hdKVtDQEBIXShbT0hdKVtDQEhdMltPSF0=

> <s_epik_cmdline>
J2VwaWtfcHl0aG9uJywgJy1waCcsICc3LjAnLCAnLXRuJywgJzgnLCAnLW1hJywgJzIwMCcsICctbWV0YWxfYmluZGluZycsICctaW1hZScsICc8aW5maWxlLm1hZT4nLCAnLW9tYWUnLCAnPG91dGZpbGUubWFlPic=

> <r_epik_Ionization_Penalty>
1.06112

> <r_epik_Ionization_Penalty_Charging>
2.1796e-09

> <r_epik_Ionization_Penalty_Neutral>
1.06112

> <r_epik_State_Penalty>
1.11484

> <r_epik_Charging_Adjusted_Penalty>
1.11484

> <i_epik_Tot_Q>
-1

> <i_epik_Tot_abs_Q>
1

> <r_epik_Metal_State_Penalty>
0.0032876

> <b_epik_Metal_Only>
0

> <s_epik_Chemistry_Notes>
This compound contains an acetal/aminal-like group ( X-CH(R)-Y where X, Y are N, S, or O) that may be acid/base labile, releasing an aldehyde.

> <s_lp_Force_Field>
OPLS_2005

> <r_lp_Energy>
48.0259

> <b_lp_Chiralities_Consistent>
1

> <s_lp_Variant>
AV-unprocessed.smi:35-20

> <Gold.Version>
5.8.1

> <Gold.Id.Protein>
6NUR|6NUR_protein|mol2

> <Gold.PLP.Fitness>
40.4147

> <Gold.PLP.PLP>
-26.8312

> <Gold.PLP.part.hbond>
-5.9630

> <Gold.PLP.part.metal>
0.0000

> <Gold.PLP.part.buried>
-2.6510

> <Gold.PLP.part.nonpolar>
-19.1910

> <Gold.PLP.part.repulsive>
0.8351

> <Gold.PLP.ligand.clash>
0.0000

> <Gold.PLP.ligand.torsion>
0.3223

> <Gold.PLP.Chemscore.Hbond>
4.7254

> <Gold.PLP.Chemscore.CHOScore>
0.0000

> <Gold.PLP.Chemscore.Metal>
0.0000

> <Gold.Chemscore.Hbonds>
donor molecule, donor type, donor heavy atom, donor atom, acceptor molecule, acceptor atom, score
      L1  H    11    23       P1  7957  1.00
      L1  H    13    25       P1  8028  1.00
      P1  H  6896  6908       L1     1  0.05
      P1  H  7997  8009       L1     5  0.74
      P1  H 10752 10764       L1     3  1.92

> <Gold.PLP.Chemscore.Internal.Correction>
0.0519

> <Gold.Rescore>
     Score         DG    S(hbond)    S(metal)    S(lipo)     H(rot)  DE(clash)    DE(int)     intcor
      9.93     -10.48       2.96        0.00      37.73       3.63       0.07       0.49       ----

> <Gold.Chemscore.Fitness>
9.9261

> <Gold.Chemscore.DG>
-10.4825

> <Gold.Chemscore.ZeroCoef>
-5.4800

> <Gold.Chemscore.Hbond>
2.9555

> <Gold.Chemscore.Metal>
0.0000

> <Gold.Chemscore.Lipo>
37.7266

> <Gold.Chemscore.Internal_Hbond>
0.0000

> <Gold.Chemscore.DEClash>
0.0650

> <Gold.Chemscore.DEInternal>
0.4914

> <Gold.Chemscore.Rot>
3.6261

> <Gold.Chemscore.Internal.Correction>
   9.000000E+99

> <Gold.Chemscore.Hbonds>
donor molecule, donor type, donor heavy atom, donor atom, acceptor molecule, acceptor atom, score
      L1  H    11    23       P1  7957  1.00
      L1  H    13    25       P1  8028  1.00
      P1  H  6896  6908       L1     1  0.05
      P1  H  7997  8009       L1     5  0.69
      P1  H 10752 10764       L1     3  0.07

> <Gold.Chemscore.Hbond.Weighted>
-9.8713

> <Gold.Chemscore.Metal.Weighted>
-0.0000

> <Gold.Chemscore.Lipo.Weighted>
-4.4140

> <Gold.Chemscore.Internal_Hbond.Weighted>
0.0000

> <Gold.Chemscore.DEClash.Weighted>
0.0650

> <Gold.Chemscore.DEInternal.Weighted>
0.4914

> <Gold.Chemscore.Rot.Weighted>
9.2828

> <Gold.Chemscore.Internal.Correction.Weighted>
   9.000000E+99

> <Gold.Protein.RotatedTorsions>
[ 6907 6896 6895 6894 ] final   80.27 input  -60.11 | X-H torsion
[ 7974 7965 7964 7962 ] final -117.00 input  175.53 | X-H torsion
[ 8008 7997 7996 7995 ] final -162.19 input   59.86 | X-H torsion
[ 10167 10162 10161 10158 ] final   90.33 input  -65.29 | X-H torsion
[ 10718 10713 10712 10709 ] final  144.45 input   66.30 | X-H torsion
[ 10763 10752 10751 10750 ] final    3.21 input  -60.55 | X-H torsion
[ 11005 11000 10999 10996 ] final    0.46 input  -57.11 | X-H torsion

> <Gold.Protein.ActiveResidues>
 VAL166  LYS551  ARG553  GLY616  TRP617  ASP618  TYR619  PRO620  LYS621  CYS622 
 ASP623  PHE694  ASN695  SER759  ASP760  ASP761  ALA762  ILE779  LEU786  VAL792 
 PHE793  MET794  SER795  GLU796  ALA797  LYS798  CYS799  TRP800  GLU811  SER814 

> <Gold.Protein.RotatedAtoms>
  152.5229  134.3383  159.9207 H   0  0  0  0  0  0  0  0  0  0  0  0  # atno 6907 bound_to 6896
  151.3332  133.3985  159.2672 H   0  0  0  0  0  0  0  0  0  0  0  0  # atno 6908 bound_to 6896
  150.9863  134.9226  159.7931 H   0  0  0  0  0  0  0  0  0  0  0  0  # atno 6909 bound_to 6896
  145.0903  140.8485  143.3987 H   0  0  0  0  0  0  0  0  0  0  0  0  # atno 7974 bound_to 7965
  155.8032  140.0895  157.1945 H   0  0  0  0  0  0  0  0  0  0  0  0  # atno 8008 bound_to 7997
  154.3981  140.1468  156.3358 H   0  0  0  0  0  0  0  0  0  0  0  0  # atno 8009 bound_to 7997
  155.8441  140.3437  155.5653 H   0  0  0  0  0  0  0  0  0  0  0  0  # atno 8010 bound_to 7997
  139.8484  144.6606  150.9199 H   0  0  0  0  0  0  0  0  0  0  0  0  # atno 10167 bound_to 10162
  157.3570  131.0959  151.0949 H   0  0  0  0  0  0  0  0  0  0  0  0  # atno 10718 bound_to 10713
  153.2861  135.6944  153.7338 H   0  0  0  0  0  0  0  0  0  0  0  0  # atno 10763 bound_to 10752
  153.6307  135.3410  155.3041 H   0  0  0  0  0  0  0  0  0  0  0  0  # atno 10764 bound_to 10752
  154.8510  135.4408  154.1929 H   0  0  0  0  0  0  0  0  0  0  0  0  # atno 10765 bound_to 10752
  140.6263  133.9615  155.8251 H   0  0  0  0  0  0  0  0  0  0  0  0  # atno 11005 bound_to 11000
  145.1074  139.2780  143.5655 LP  0  0  0  0  0  0  0  0  0  0  0  0  # atno 17320 bound_to 7965
  146.3531  140.0660  142.8626 LP  0  0  0  0  0  0  0  0  0  0  0  0  # atno 17321 bound_to 7965
  140.7790  143.3849  151.1410 LP  0  0  0  0  0  0  0  0  0  0  0  0  # atno 17342 bound_to 10162
  139.7490  143.8808  152.3071 LP  0  0  0  0  0  0  0  0  0  0  0  0  # atno 17343 bound_to 10162
  157.2104  130.6435  149.5772 LP  0  0  0  0  0  0  0  0  0  0  0  0  # atno 17370 bound_to 10713
  155.9731  130.4662  150.6280 LP  0  0  0  0  0  0  0  0  0  0  0  0  # atno 17371 bound_to 10713
  141.0707  134.0210  157.3531 LP  0  0  0  0  0  0  0  0  0  0  0  0  # atno 17394 bound_to 11000
  139.9133  135.0193  156.7781 LP  0  0  0  0  0  0  0  0  0  0  0  0  # atno 17395 bound_to 11000

$$$$
