#       Name:                AV-unprocessed.smi:2668
#       Creating user name   scv26
#       Creation time:       Fri Mar 27 14:36:05 2020


#       File generated by GOLD software.
#

@<TRIPOS>MOLECULE
AV-unprocessed.smi:2668
    57    58     1
SMALL
NO_CHARGES


@<TRIPOS>ATOM
      1 ****        -6.0008  -0.8793  -1.9399 C.3            1 S1                 0.0000
      2 ****        -5.3898  -0.3068  -0.7143 N.4            1 S1                 1.0000
      3 ****        -6.0960  -0.8094   0.4907 C.3            1 S1                 0.0000
      4 ****        -3.9013  -0.4677  -0.6484 C.3            1 S1                 0.0000
      5 ****        -3.2924   0.2273   0.5909 C.3            1 S1                 0.0000
      6 ****        -1.7595   0.1112   0.6341 C.3            1 S1                 0.0000
      7 ****        -1.1321   0.6857  -0.5916 N.4            1 S1                 1.0000
      8 ****         0.3669   0.8537  -0.5374 C.3            1 S1                 0.0000
      9 ****         0.8597   1.6143  -1.7949 C.3            1 S1                 0.0000
     10 ****         0.7466   1.7471   0.6716 C.3            1 S1                 0.0000
     11 ****         1.0850  -0.5267  -0.4472 C.3            1 S1                 0.0000
     12 ****         2.5433  -0.4247  -0.4083 N.am           1 S1                 0.0000
     13 ****         3.3005  -0.5182   0.6945 C.2            1 S1                 0.0000
     14 ****         2.8366  -0.6887   1.8216 O.2            1 S1                 0.0000
     15 ****         4.6068  -0.4146   0.3970 N.am           1 S1                 0.0000
     16 ****         5.7218  -0.4571   1.2774 C.ar           1 S1                 0.0000
     17 ****         5.6549  -0.1844   2.6656 C.ar           1 S1                 0.0000
     18 ****         6.8377  -0.2424   3.4275 C.ar           1 S1                 0.0000
     19 ****         8.0439  -0.5630   2.7748 C.ar           1 S1                 0.0000
     20 ****         8.1249  -0.8117   1.4508 N.ar           1 S1                 0.0000
     21 ****         6.9870  -0.7539   0.7266 C.ar           1 S1                 0.0000
     22 ****        -1.6592  -0.0081  -1.8023 C.3            1 S1                 0.0000
     23 ****        -3.1903   0.1048  -1.8963 C.3            1 S1                 0.0000
     24 ****        -5.7412  -1.9327  -2.0525 H              1 S1                 0.0000
     25 ****        -5.6887  -0.3441  -2.8357 H              1 S1                 0.0000
     26 ****        -7.0883  -0.8030  -1.9070 H              1 S1                 0.0000
     27 ****        -5.8443  -1.8527   0.6857 H              1 S1                 0.0000
     28 ****        -7.1775  -0.7419   0.3676 H              1 S1                 0.0000
     29 ****        -5.8559  -0.2210   1.3751 H              1 S1                 0.0000
     30 ****        -3.6839  -1.5357  -0.5884 H              1 S1                 0.0000
     31 ****        -3.5784   1.2802   0.6048 H              1 S1                 0.0000
     32 ****        -3.6752  -0.2117   1.5113 H              1 S1                 0.0000
     33 ****        -1.4250   0.6227   1.5340 H              1 S1                 0.0000
     34 ****        -1.4796  -0.9368   0.7447 H              1 S1                 0.0000
     35 ****         1.8969   1.9353  -1.6915 H              1 S1                 0.0000
     36 ****         0.2658   2.5109  -1.9767 H              1 S1                 0.0000
     37 ****         0.8279   0.9999  -2.6943 H              1 S1                 0.0000
     38 ****         1.7850   2.0768   0.6221 H              1 S1                 0.0000
     39 ****         0.6448   1.2269   1.6236 H              1 S1                 0.0000
     40 ****         0.1312   2.6466   0.7110 H              1 S1                 0.0000
     41 ****         0.7352  -1.0956   0.4146 H              1 S1                 0.0000
     42 ****         0.8474  -1.1352  -1.3191 H              1 S1                 0.0000
     43 ****         3.0122  -0.2861  -1.2918 H              1 S1                 0.0000
     44 ****         4.8362  -0.3562  -0.5845 H              1 S1                 0.0000
     45 ****         4.7318   0.0807   3.1567 H              1 S1                 0.0000
     46 ****         6.8212  -0.0399   4.4883 H              1 S1                 0.0000
     47 ****         8.9689  -0.6141   3.3298 H              1 S1                 0.0000
     48 ****         7.0906  -0.9560  -0.3297 H              1 S1                 0.0000
     49 ****        -1.2508   0.4157  -2.7172 H              1 S1                 0.0000
     50 ****        -1.3732  -1.0603  -1.7859 H              1 S1                 0.0000
     51 ****        -3.4981  -0.4248  -2.7972 H              1 S1                 0.0000
     52 ****        -3.4702   1.1499  -2.0372 H              1 S1                 0.0000
     53 ****        -5.5742   0.6859  -0.7508 H              1 S1                 0.0000
     54 ****        -1.4845   1.6304  -0.6522 H              1 S1                 0.0000
     55 ****         1.8477  -0.7647   1.9490 LP             1 S1                 0.0000
     56 ****         3.4486  -0.7513   2.6100 LP             1 S1                 0.0000
     57 ****         9.0000  -1.0318   1.0199 LP             1 S1                 0.0000
@<TRIPOS>BOND
    1    1    2 1     
    2    1   24 1     
    3    1   25 1     
    4    1   26 1     
    5    2    3 1     
    6    2    4 1     
    7    2   53 1     
    8    3   27 1     
    9    3   28 1     
   10    3   29 1     
   11    4   23 1     
   12    4    5 1     
   13    4   30 1     
   14    5    6 1     
   15    5   31 1     
   16    5   32 1     
   17    6    7 1     
   18    6   33 1     
   19    6   34 1     
   20    7    8 1     
   21    7   22 1     
   22    7   54 1     
   23    8    9 1     
   24    8   10 1     
   25    8   11 1     
   26    9   35 1     
   27    9   36 1     
   28    9   37 1     
   29   10   38 1     
   30   10   39 1     
   31   10   40 1     
   32   11   12 1     
   33   11   41 1     
   34   11   42 1     
   35   12   13 am    
   36   12   43 1     
   37   13   14 2     
   38   13   15 am    
   39   15   16 1     
   40   15   44 1     
   41   16   21 ar    
   42   16   17 ar    
   43   17   18 ar    
   44   17   45 1     
   45   18   19 ar    
   46   18   46 1     
   47   19   20 ar    
   48   19   47 1     
   49   20   21 ar    
   50   21   48 1     
   51   22   23 1     
   52   22   49 1     
   53   22   50 1     
   54   23   51 1     
   55   23   52 1     
   56   14   55 1     
   57   14   56 1     
   58   20   57 1     
@<TRIPOS>SUBSTRUCTURE
      1 S1             1
@<TRIPOS>SET
LONE_PAIRS      STATIC     ATOMS    <user>   **** ""
3 55 56 57
DONOR_HYDROGENS      STATIC     ATOMS    <user>   **** ""
4 53 54 43 44
ATOM$BLUE        STATIC     ATOMS    COLORGROUP SYSTEM
3 55 56 57
ATOM$RED        STATIC     ATOMS    COLORGROUP SYSTEM
4 53 54 43 44
