AV-unprocessed.smi:2181|AV-procd|sdf|8861|dock7
  -GOLD-   2272012 53D 1   1.00000     0.00000
 Structure written by MMmdl.
 38 39  0  0  0  0  0  0  0  0  1 V2000
  149.8555  135.0630  157.0405 C   0  0  0  0  0  0  0  0  0  0  0  0
  150.1070  133.6266  156.6804 C   0  0  0  0  0  0  0  0  0  0  0  0
  150.3630  132.7535  157.6401 N   0  0  0  0  0  0  0  0  0  0  0  0
  150.5365  131.5215  157.0020 O   0  0  0  0  0  0  0  0  0  0  0  0
  150.3747  131.7033  155.6668 C   0  0  0  0  0  0  0  0  0  0  0  0
  150.5120  130.4954  154.8027 C   0  0  0  0  0  0  0  0  0  0  0  0
  150.1012  133.0151  155.3928 C   0  0  0  0  0  0  0  0  0  0  0  0
  149.8465  133.6579  154.0538 C   0  0  0  0  0  0  0  0  0  0  0  0
  148.5961  133.0468  153.4229 C   0  0  0  0  0  0  0  0  0  0  0  0
  148.3346  131.8574  153.6007 O   0  0  0  0  0  0  0  0  0  0  0  0
  147.8320  133.8753  152.6944 N   0  0  0  0  0  0  0  0  0  0  0  0
  146.5726  133.5274  152.0383 C   0  0  2  0  0  0  0  0  0  0  0  0
  146.2585  134.5234  150.8921 C   0  0  0  0  0  0  0  0  0  0  0  0
  144.7703  134.6755  150.5137 C   0  0  0  0  0  0  0  0  0  0  0  0
  144.0304  133.3628  150.1847 C   0  0  0  0  0  0  0  0  0  0  0  0
  144.0743  132.2509  151.2603 C   0  0  0  0  0  0  0  0  0  0  0  0
  144.3046  132.7355  152.6209 N   0  0  0  0  0  0  0  0  0  0  0  0
  145.4370  133.3127  153.0583 C   0  0  0  0  0  0  0  0  0  0  0  0
  145.5608  133.6796  154.2264 O   0  0  0  0  0  0  0  0  0  0  0  0
  148.8013  135.2274  157.2639 H   0  0  0  0  0  0  0  0  0  0  0  0
  150.1284  135.7305  156.2234 H   0  0  0  0  0  0  0  0  0  0  0  0
  150.4323  135.3627  157.9160 H   0  0  0  0  0  0  0  0  0  0  0  0
  149.5406  130.1898  154.4136 H   0  0  0  0  0  0  0  0  0  0  0  0
  150.9329  129.6581  155.3599 H   0  0  0  0  0  0  0  0  0  0  0  0
  151.1668  130.6990  153.9553 H   0  0  0  0  0  0  0  0  0  0  0  0
  149.7208  134.7373  154.1460 H   0  0  0  0  0  0  0  0  0  0  0  0
  150.6879  133.5115  153.3755 H   0  0  0  0  0  0  0  0  0  0  0  0
  148.1273  134.8373  152.6108 H   0  0  0  0  0  0  0  0  0  0  0  0
  146.7339  132.5484  151.5849 H   0  0  0  0  0  0  0  0  0  0  0  0
  146.6284  135.5134  151.1625 H   0  0  0  0  0  0  0  0  0  0  0  0
  146.8254  134.2313  150.0071 H   0  0  0  0  0  0  0  0  0  0  0  0
  144.2439  135.1938  151.3164 H   0  0  0  0  0  0  0  0  0  0  0  0
  144.6962  135.3422  149.6539 H   0  0  0  0  0  0  0  0  0  0  0  0
  142.9864  133.6149  149.9948 H   0  0  0  0  0  0  0  0  0  0  0  0
  144.4064  132.9580  149.2444 H   0  0  0  0  0  0  0  0  0  0  0  0
  143.1355  131.6967  151.2481 H   0  0  0  0  0  0  0  0  0  0  0  0
  144.8416  131.5180  151.0088 H   0  0  0  0  0  0  0  0  0  0  0  0
  143.5538  132.6082  153.2842 H   0  0  0  0  0  0  0  0  0  0  0  0
  1  2  1  0  0  0  0
  1 20  1  0  0  0  0
  1 21  1  0  0  0  0
  1 22  1  0  0  0  0
  2  7  1  0  0  0  0
  2  3  2  0  0  0  0
  3  4  1  0  0  0  0
  4  5  1  0  0  0  0
  5  6  1  0  0  0  0
  5  7  2  0  0  0  0
  6 23  1  0  0  0  0
  6 24  1  0  0  0  0
  6 25  1  0  0  0  0
  7  8  1  0  0  0  0
  8  9  1  0  0  0  0
  8 26  1  0  0  0  0
  8 27  1  0  0  0  0
  9 10  2  0  0  0  0
  9 11  1  0  0  0  0
 11 12  1  0  0  0  0
 11 28  1  0  0  0  0
 12 18  1  0  0  0  0
 12 13  1  0  0  0  0
 12 29  1  0  0  0  0
 13 14  1  0  0  0  0
 13 30  1  0  0  0  0
 13 31  1  0  0  0  0
 14 15  1  0  0  0  0
 14 32  1  0  0  0  0
 14 33  1  0  0  0  0
 15 16  1  0  0  0  0
 15 34  1  0  0  0  0
 15 35  1  0  0  0  0
 16 17  1  0  0  0  0
 16 36  1  0  0  0  0
 16 37  1  0  0  0  0
 17 18  1  0  0  0  0
 17 38  1  0  0  0  0
 18 19  2  0  0  0  0
M  END
> <s_m_source_file>
AV-unprocessed.smi

> <i_m_source_file_index>
2181

> <i_lp_mmshare_version>
43012

> <i_f3d_flags>
0

> <s_epik_input>
W0NIM11jMW5vYyhbQ0gzXSljMVtDSDJdQyg9TylbTkhdW0NAQEhdMltDSDJdW0NIMl1bQ0gyXVtDSDJdW05IXUMyPU8=

> <s_epik_cmdline>
J2VwaWtfcHl0aG9uJywgJy1waCcsICc3LjAnLCAnLXRuJywgJzgnLCAnLW1hJywgJzIwMCcsICctbWV0YWxfYmluZGluZycsICctaW1hZScsICc8aW5maWxlLm1hZT4nLCAnLW9tYWUnLCAnPG91dGZpbGUubWFlPic=

> <r_lp_tautomer_probability>
1

> <r_epik_Ionization_Penalty>
5.91376e-08

> <r_epik_Ionization_Penalty_Charging>
0

> <r_epik_Ionization_Penalty_Neutral>
5.91376e-08

> <r_epik_State_Penalty>
-0

> <r_epik_Charging_Adjusted_Penalty>
0

> <i_epik_Tot_Q>
0

> <i_epik_Tot_abs_Q>
0

> <r_epik_Metal_State_Penalty>
-0

> <b_epik_Metal_Only>
0

> <s_lp_Force_Field>
OPLS_2005

> <r_lp_Energy>
8.47239

> <b_lp_Chiralities_Consistent>
1

> <s_lp_Variant>
AV-unprocessed.smi:2181-1

> <Gold.Version>
5.8.1

> <Gold.Id.Protein>
6NUR|6NUR_protein|mol2

> <Gold.PLP.Fitness>
36.1039

> <Gold.PLP.PLP>
-28.1838

> <Gold.PLP.part.hbond>
-3.0000

> <Gold.PLP.part.metal>
0.0000

> <Gold.PLP.part.buried>
-2.3604

> <Gold.PLP.part.nonpolar>
-22.0695

> <Gold.PLP.part.repulsive>
0.2033

> <Gold.PLP.ligand.clash>
0.0000

> <Gold.PLP.ligand.torsion>
0.5661

> <Gold.PLP.Chemscore.Hbond>
3.0000

> <Gold.PLP.Chemscore.CHOScore>
0.0000

> <Gold.PLP.Chemscore.Metal>
0.0000

> <Gold.Chemscore.Hbonds>
donor molecule, donor type, donor heavy atom, donor atom, acceptor molecule, acceptor atom, score
      L1  H    11    28       P1  7948  1.00
      L1  H    17    38       P1 10957  1.00
      P1  H  6896  6907       L1     3  1.00

> <Gold.PLP.Chemscore.Internal.Correction>
0.0523

> <Gold.Rescore>
     Score         DG    S(hbond)    S(metal)    S(lipo)     H(rot)  DE(clash)    DE(int)     intcor
     16.01     -16.81       2.41        0.00      60.74       1.49       0.12       0.69       ----

> <Gold.Chemscore.Fitness>
16.0106

> <Gold.Chemscore.DG>
-16.8109

> <Gold.Chemscore.ZeroCoef>
-5.4800

> <Gold.Chemscore.Hbond>
2.4104

> <Gold.Chemscore.Metal>
0.0000

> <Gold.Chemscore.Lipo>
60.7444

> <Gold.Chemscore.Internal_Hbond>
0.0000

> <Gold.Chemscore.DEClash>
0.1153

> <Gold.Chemscore.DEInternal>
0.6850

> <Gold.Chemscore.Rot>
1.4949

> <Gold.Chemscore.Internal.Correction>
   9.000000E+99

> <Gold.Chemscore.Hbonds>
donor molecule, donor type, donor heavy atom, donor atom, acceptor molecule, acceptor atom, score
      L1  H    11    28       P1  7948  0.68
      L1  H    17    38       P1 10957  0.29
      P1  H  6896  6907       L1     3  0.94

> <Gold.Chemscore.Hbond.Weighted>
-8.0507

> <Gold.Chemscore.Metal.Weighted>
-0.0000

> <Gold.Chemscore.Lipo.Weighted>
-7.1071

> <Gold.Chemscore.Internal_Hbond.Weighted>
0.0000

> <Gold.Chemscore.DEClash.Weighted>
0.1153

> <Gold.Chemscore.DEInternal.Weighted>
0.6850

> <Gold.Chemscore.Rot.Weighted>
3.8269

> <Gold.Chemscore.Internal.Correction.Weighted>
   9.000000E+99

> <Gold.Protein.RotatedTorsions>
[ 6907 6896 6895 6894 ] final -151.77 input  -60.11 | X-H torsion
[ 7974 7965 7964 7962 ] final -179.13 input  175.53 | X-H torsion
[ 8008 7997 7996 7995 ] final  151.19 input   59.86 | X-H torsion
[ 10167 10162 10161 10158 ] final   95.44 input  -65.29 | X-H torsion
[ 10718 10713 10712 10709 ] final  -78.54 input   66.30 | X-H torsion
[ 10763 10752 10751 10750 ] final -116.07 input  -60.55 | X-H torsion
[ 11005 11000 10999 10996 ] final -101.08 input  -57.11 | X-H torsion

> <Gold.Protein.ActiveResidues>
 VAL166  LYS551  ARG553  GLY616  TRP617  ASP618  TYR619  PRO620  LYS621  CYS622 
 ASP623  PHE694  ASN695  SER759  ASP760  ASP761  ALA762  ILE779  LEU786  VAL792 
 PHE793  MET794  SER795  GLU796  ALA797  LYS798  CYS799  TRP800  GLU811  SER814 

> <Gold.Protein.RotatedAtoms>
  151.2179  133.4519  159.2599 H   0  0  0  0  0  0  0  0  0  0  0  0  # atno 6907 bound_to 6896
  151.0913  134.9918  159.8414 H   0  0  0  0  0  0  0  0  0  0  0  0  # atno 6908 bound_to 6896
  152.5435  134.2113  159.8804 H   0  0  0  0  0  0  0  0  0  0  0  0  # atno 6909 bound_to 6896
  144.7134  140.0764  143.6427 H   0  0  0  0  0  0  0  0  0  0  0  0  # atno 7974 bound_to 7965
  156.2684  140.2054  156.6137 H   0  0  0  0  0  0  0  0  0  0  0  0  # atno 8008 bound_to 7997
  154.6811  140.0540  157.0291 H   0  0  0  0  0  0  0  0  0  0  0  0  # atno 8009 bound_to 7997
  155.0999  140.3205  155.4553 H   0  0  0  0  0  0  0  0  0  0  0  0  # atno 8010 bound_to 7997
  139.7988  144.6822  150.9792 H   0  0  0  0  0  0  0  0  0  0  0  0  # atno 10167 bound_to 10162
  156.0115  130.4521  150.3511 H   0  0  0  0  0  0  0  0  0  0  0  0  # atno 10718 bound_to 10713
  154.8506  135.4358  154.1764 H   0  0  0  0  0  0  0  0  0  0  0  0  # atno 10763 bound_to 10752
  153.2865  135.6958  153.7341 H   0  0  0  0  0  0  0  0  0  0  0  0  # atno 10764 bound_to 10752
  153.6524  135.3449  155.3078 H   0  0  0  0  0  0  0  0  0  0  0  0  # atno 10765 bound_to 10752
  141.1245  133.8449  157.1185 H   0  0  0  0  0  0  0  0  0  0  0  0  # atno 11005 bound_to 11000
  145.9740  139.2890  143.1082 LP  0  0  0  0  0  0  0  0  0  0  0  0  # atno 17320 bound_to 7965
  145.9085  140.9196  143.0466 LP  0  0  0  0  0  0  0  0  0  0  0  0  # atno 17321 bound_to 7965
  140.7820  143.4303  151.0705 LP  0  0  0  0  0  0  0  0  0  0  0  0  # atno 17342 bound_to 10162
  139.7976  143.8130  152.3159 LP  0  0  0  0  0  0  0  0  0  0  0  0  # atno 17343 bound_to 10162
  157.1604  131.0343  151.2844 LP  0  0  0  0  0  0  0  0  0  0  0  0  # atno 17370 bound_to 10713
  157.4316  130.7494  149.6995 LP  0  0  0  0  0  0  0  0  0  0  0  0  # atno 17371 bound_to 10713
  140.0231  134.9936  157.0632 LP  0  0  0  0  0  0  0  0  0  0  0  0  # atno 17394 bound_to 11000
  140.4406  134.1684  155.7173 LP  0  0  0  0  0  0  0  0  0  0  0  0  # atno 17395 bound_to 11000

$$$$
