AV-unprocessed.smi:1|AV-procd|sdf|8|dock3
  -GOLD-   2262015 93D 1   1.00000     0.00000
 Structure written by MMmdl.
 57 62  0  0  0  0  0  0  0  0  1 V2000
  150.4543  129.1184  154.5864 O   0  0  0  0  0  0  0  0  0  0  0  0
  149.3883  129.6211  154.2292 C   0  0  0  0  0  0  0  0  0  0  0  0
  148.9288  130.9021  154.7364 N   0  0  0  0  0  0  0  0  0  0  0  0
  149.5047  131.6843  155.6790 C   0  0  0  0  0  0  0  0  0  0  0  0
  149.9427  131.1915  156.8664 N   0  0  0  0  0  0  0  0  0  0  0  0
  150.5028  132.0050  157.7641 C   0  0  0  0  0  0  0  0  0  0  0  0
  150.7173  133.3189  157.6773 N   0  0  0  0  0  0  0  0  0  0  0  0
  150.2865  133.8278  156.4853 C   0  0  0  0  0  0  0  0  0  0  0  0
  149.6708  133.0742  155.4452 C   0  0  0  0  0  0  0  0  0  0  0  0
  149.3499  133.9072  154.3832 N   0  0  0  0  0  0  0  0  0  0  0  0
  149.7518  135.0847  154.7754 C   0  0  0  0  0  0  0  0  0  0  0  0
  150.3404  135.1320  156.0204 N   0  0  0  0  0  0  0  0  0  0  0  0
  150.8850  136.3605  156.6971 C   0  0  1  0  0  0  0  0  0  0  0  0
  150.7390  137.4721  155.8677 O   0  0  0  0  0  0  0  0  0  0  0  0
  149.6248  138.2484  156.2909 C   0  0  2  0  0  0  0  0  0  0  0  0
  149.7469  139.6820  155.7682 C   0  0  0  0  0  0  0  0  0  0  0  0
  150.2205  140.5062  156.8198 O   0  0  0  0  0  0  0  0  0  0  0  0
  151.5353  140.5559  157.1038 C   0  0  0  0  0  0  0  0  0  0  0  0
  152.3589  139.7489  156.6678 O   0  0  0  0  0  0  0  0  0  0  0  0
  151.8887  141.6883  158.0078 C   0  0  0  0  0  0  0  0  0  0  0  0
  152.8568  141.4942  159.0205 C   0  0  0  0  0  0  0  0  0  0  0  0
  153.2065  142.5468  159.8892 C   0  0  0  0  0  0  0  0  0  0  0  0
  152.5933  143.8062  159.7548 C   0  0  0  0  0  0  0  0  0  0  0  0
  151.6307  144.0127  158.7493 C   0  0  0  0  0  0  0  0  0  0  0  0
  151.2804  142.9612  157.8802 C   0  0  0  0  0  0  0  0  0  0  0  0
  149.6955  138.1320  157.8117 C   0  0  1  0  0  0  0  0  0  0  0  0
  148.4285  138.3202  158.4174 O   0  0  0  0  0  0  0  0  0  0  0  0
  147.6869  136.8327  158.5887 S   0  0  0  0  0  0  0  0  0  0  0  0
  147.4014  136.6234  160.0163 O   0  0  0  0  0  0  0  0  0  0  0  0
  146.6562  136.7063  157.5472 O   0  0  0  0  0  0  0  0  0  0  0  0
  148.9762  135.8618  158.1640 O   0  0  0  0  0  0  0  0  0  0  0  0
  150.1318  136.6728  158.0069 C   0  0  1  0  0  0  0  0  0  0  0  0
  148.5274  128.9803  153.1796 C   0  0  0  0  0  0  0  0  0  0  0  0
  147.3122  129.5900  152.7946 C   0  0  0  0  0  0  0  0  0  0  0  0
  146.5052  129.0061  151.7991 C   0  0  0  0  0  0  0  0  0  0  0  0
  146.9098  127.8111  151.1748 C   0  0  0  0  0  0  0  0  0  0  0  0
  148.1244  127.2029  151.5437 C   0  0  0  0  0  0  0  0  0  0  0  0
  148.9325  127.7860  152.5392 C   0  0  0  0  0  0  0  0  0  0  0  0
  148.0597  131.2430  154.3521 H   0  0  0  0  0  0  0  0  0  0  0  0
  150.8253  131.5342  158.6807 H   0  0  0  0  0  0  0  0  0  0  0  0
  149.6382  135.9627  154.1560 H   0  0  0  0  0  0  0  0  0  0  0  0
  151.9424  136.1380  156.8442 H   0  0  0  0  0  0  0  0  0  0  0  0
  148.7022  137.7907  155.9319 H   0  0  0  0  0  0  0  0  0  0  0  0
  150.4564  139.7121  154.9403 H   0  0  0  0  0  0  0  0  0  0  0  0
  148.7867  140.0437  155.3980 H   0  0  0  0  0  0  0  0  0  0  0  0
  153.3398  140.5354  159.1431 H   0  0  0  0  0  0  0  0  0  0  0  0
  153.9463  142.3865  160.6595 H   0  0  0  0  0  0  0  0  0  0  0  0
  152.8617  144.6131  160.4208 H   0  0  0  0  0  0  0  0  0  0  0  0
  151.1604  144.9791  158.6426 H   0  0  0  0  0  0  0  0  0  0  0  0
  150.5424  143.1527  157.1159 H   0  0  0  0  0  0  0  0  0  0  0  0
  150.4390  138.8151  158.2245 H   0  0  0  0  0  0  0  0  0  0  0  0
  150.7911  136.5495  158.8665 H   0  0  0  0  0  0  0  0  0  0  0  0
  146.9881  130.5080  153.2637 H   0  0  0  0  0  0  0  0  0  0  0  0
  145.5756  129.4765  151.5141 H   0  0  0  0  0  0  0  0  0  0  0  0
  146.2908  127.3637  150.4112 H   0  0  0  0  0  0  0  0  0  0  0  0
  148.4384  126.2894  151.0607 H   0  0  0  0  0  0  0  0  0  0  0  0
  149.8651  127.3068  152.8000 H   0  0  0  0  0  0  0  0  0  0  0  0
  1  2  2  0  0  0  0
  2  3  1  0  0  0  0
  2 33  1  0  0  0  0
  3  4  1  0  0  0  0
  3 39  1  0  0  0  0
  4  9  1  0  0  0  0
  4  5  2  0  0  0  0
  5  6  1  0  0  0  0
  6  7  2  0  0  0  0
  6 40  1  0  0  0  0
  7  8  1  0  0  0  0
  8 12  1  0  0  0  0
  8  9  2  0  0  0  0
  9 10  1  0  0  0  0
 10 11  2  0  0  0  0
 11 12  1  0  0  0  0
 11 41  1  0  0  0  0
 12 13  1  0  0  0  0
 13 32  1  0  0  0  0
 13 14  1  0  0  0  0
 13 42  1  0  0  0  0
 14 15  1  0  0  0  0
 15 16  1  0  0  0  0
 15 26  1  0  0  0  0
 15 43  1  0  0  0  0
 16 17  1  0  0  0  0
 16 44  1  0  0  0  0
 16 45  1  0  0  0  0
 17 18  1  0  0  0  0
 18 19  2  0  0  0  0
 18 20  1  0  0  0  0
 20 25  1  0  0  0  0
 20 21  2  0  0  0  0
 21 22  1  0  0  0  0
 21 46  1  0  0  0  0
 22 23  2  0  0  0  0
 22 47  1  0  0  0  0
 23 24  1  0  0  0  0
 23 48  1  0  0  0  0
 24 25  2  0  0  0  0
 24 49  1  0  0  0  0
 25 50  1  0  0  0  0
 26 32  1  0  0  0  0
 26 27  1  0  0  0  0
 26 51  1  0  0  0  0
 27 28  1  0  0  0  0
 28 29  2  0  0  0  0
 28 30  2  0  0  0  0
 28 31  1  0  0  0  0
 31 32  1  0  0  0  0
 32 52  1  0  0  0  0
 33 38  1  0  0  0  0
 33 34  2  0  0  0  0
 34 35  1  0  0  0  0
 34 53  1  0  0  0  0
 35 36  2  0  0  0  0
 35 54  1  0  0  0  0
 36 37  1  0  0  0  0
 36 55  1  0  0  0  0
 37 38  2  0  0  0  0
 37 56  1  0  0  0  0
 38 57  1  0  0  0  0
M  END
> <s_m_source_file>
AV-unprocessed.smi

> <i_m_source_file_index>
1

> <i_lp_mmshare_version>
43012

> <i_f3d_flags>
0

> <s_epik_input>
W2NIXTFbY0hdW2NIXVtjSF1bY0hdYzFDKD1PKVtOSF1jKG5bY0hdbjIpYyhjMjMpbltjSF1uM1tDQEBIXShbQ0BIXShbQ0BIXTQ1KU9TKE81KSg9Tyk9TylPW0NASF00W0NIMl1PQyg9TyljNltjSF1bY0hdW2NIXVtjSF1bY0hdNg==

> <s_epik_cmdline>
J2VwaWtfcHl0aG9uJywgJy1waCcsICc3LjAnLCAnLXRuJywgJzgnLCAnLW1hJywgJzIwMCcsICctbWV0YWxfYmluZGluZycsICctaW1hZScsICc8aW5maWxlLm1hZT4nLCAnLW9tYWUnLCAnPG91dGZpbGUubWFlPic=

> <r_lp_tautomer_probability>
1

> <r_epik_Ionization_Penalty>
0.00195722

> <r_epik_Ionization_Penalty_Charging>
0

> <r_epik_Ionization_Penalty_Neutral>
0.00195722

> <r_epik_State_Penalty>
0.00633741

> <r_epik_Charging_Adjusted_Penalty>
0.00633741

> <i_epik_Tot_Q>
0

> <i_epik_Tot_abs_Q>
0

> <r_epik_Metal_State_Penalty>
0.341185

> <b_epik_Metal_Only>
0

> <s_epik_Chemistry_Notes>
This compound has an ester and may undergo hydrolysis at high or low pH. This compound contains an acetal/aminal-like group ( X-CH(R)-Y where X, Y are N, S, or O) that may be acid/base labile, releasing an aldehyde.

> <s_lp_Force_Field>
OPLS_2005

> <r_lp_Energy>
42.577

> <b_lp_Chiralities_Consistent>
1

> <s_lp_Variant>
AV-unprocessed.smi:1-8

> <Gold.Version>
5.8.1

> <Gold.Id.Protein>
6NUR|6NUR_protein|mol2

> <Gold.PLP.Fitness>
58.3806

> <Gold.PLP.PLP>
-53.2023

> <Gold.PLP.part.hbond>
-2.3473

> <Gold.PLP.part.metal>
0.0000

> <Gold.PLP.part.buried>
-6.9203

> <Gold.PLP.part.nonpolar>
-45.4362

> <Gold.PLP.part.repulsive>
0.2916

> <Gold.PLP.ligand.clash>
0.0000

> <Gold.PLP.ligand.torsion>
1.8848

> <Gold.PLP.Chemscore.Hbond>
1.9280

> <Gold.PLP.Chemscore.CHOScore>
1.0000

> <Gold.PLP.Chemscore.Metal>
0.0000

> <Gold.Chemscore.Hbonds>
donor molecule, donor type, donor heavy atom, donor atom, acceptor molecule, acceptor atom, score
      P1  H  6896  6909       L1     7  0.87
      P1  H  7997  8009       L1    19  1.00
      L1  C    11    41       P1  7948  1.00

> <Gold.PLP.Chemscore.Internal.Correction>
0.1638

> <Gold.Rescore>
     Score         DG    S(hbond)    S(metal)    S(lipo)     H(rot)  DE(clash)    DE(int)     intcor
     20.94     -23.94       2.63        0.00     129.49       2.13       0.03       2.97       ----

> <Gold.Chemscore.Fitness>
20.9381

> <Gold.Chemscore.DG>
-23.9369

> <Gold.Chemscore.ZeroCoef>
-5.4800

> <Gold.Chemscore.Hbond>
2.6251

> <Gold.Chemscore.Metal>
0.0000

> <Gold.Chemscore.Lipo>
129.4912

> <Gold.Chemscore.Internal_Hbond>
0.0000

> <Gold.Chemscore.DEClash>
0.0276

> <Gold.Chemscore.DEInternal>
2.9712

> <Gold.Chemscore.Rot>
2.1333

> <Gold.Chemscore.Internal.Correction>
   9.000000E+99

> <Gold.Chemscore.Hbonds>
donor molecule, donor type, donor heavy atom, donor atom, acceptor molecule, acceptor atom, score
      P1  H  6896  6909       L1     7  0.19
      P1  H  7997  8009       L1    19  0.94

> <Gold.Chemscore.Hbond.Weighted>
-8.7678

> <Gold.Chemscore.Metal.Weighted>
-0.0000

> <Gold.Chemscore.Lipo.Weighted>
-15.1505

> <Gold.Chemscore.Internal_Hbond.Weighted>
0.0000

> <Gold.Chemscore.DEClash.Weighted>
0.0276

> <Gold.Chemscore.DEInternal.Weighted>
2.9712

> <Gold.Chemscore.Rot.Weighted>
5.4614

> <Gold.Chemscore.Internal.Correction.Weighted>
   9.000000E+99

> <Gold.Protein.RotatedTorsions>
[ 6907 6896 6895 6894 ] final  -11.56 input  -60.11 | X-H torsion
[ 7974 7965 7964 7962 ] final -100.55 input  175.53 | X-H torsion
[ 8008 7997 7996 7995 ] final -168.47 input   59.86 | X-H torsion
[ 10167 10162 10161 10158 ] final   62.53 input  -65.29 | X-H torsion
[ 10718 10713 10712 10709 ] final    9.67 input   66.30 | X-H torsion
[ 10763 10752 10751 10750 ] final   40.99 input  -60.55 | X-H torsion
[ 11005 11000 10999 10996 ] final  -73.60 input  -57.11 | X-H torsion

> <Gold.Protein.ActiveResidues>
 VAL166  LYS551  ARG553  GLY616  TRP617  ASP618  TYR619  PRO620  LYS621  CYS622 
 ASP623  PHE694  ASN695  SER759  ASP760  ASP761  ALA762  ILE779  LEU786  VAL792 
 PHE793  MET794  SER795  GLU796  ALA797  LYS798  CYS799  TRP800  GLU811  SER814 

> <Gold.Protein.RotatedAtoms>
  151.3843  135.0945  159.9505 H   0  0  0  0  0  0  0  0  0  0  0  0  # atno 6907 bound_to 6896
  152.5099  133.9041  159.7466 H   0  0  0  0  0  0  0  0  0  0  0  0  # atno 6908 bound_to 6896
  150.9481  133.6524  159.2806 H   0  0  0  0  0  0  0  0  0  0  0  0  # atno 6909 bound_to 6896
  145.2931  140.9358  143.2866 H   0  0  0  0  0  0  0  0  0  0  0  0  # atno 7974 bound_to 7965
  155.8919  140.1026  157.1413 H   0  0  0  0  0  0  0  0  0  0  0  0  # atno 8008 bound_to 7997
  154.4016  140.1309  156.4390 H   0  0  0  0  0  0  0  0  0  0  0  0  # atno 8009 bound_to 7997
  155.7524  140.3465  155.5159 H   0  0  0  0  0  0  0  0  0  0  0  0  # atno 8010 bound_to 7997
  140.1429  144.4537  150.6801 H   0  0  0  0  0  0  0  0  0  0  0  0  # atno 10167 bound_to 10162
  156.9697  130.5964  149.5668 H   0  0  0  0  0  0  0  0  0  0  0  0  # atno 10718 bound_to 10713
  152.9920  135.6175  154.2715 H   0  0  0  0  0  0  0  0  0  0  0  0  # atno 10763 bound_to 10752
  154.2448  135.2787  155.2841 H   0  0  0  0  0  0  0  0  0  0  0  0  # atno 10764 bound_to 10752
  154.5338  135.5780  153.6839 H   0  0  0  0  0  0  0  0  0  0  0  0  # atno 10765 bound_to 10752
  141.1625  133.6883  156.7236 H   0  0  0  0  0  0  0  0  0  0  0  0  # atno 11005 bound_to 11000
  144.9156  139.4474  143.6566 LP  0  0  0  0  0  0  0  0  0  0  0  0  # atno 17320 bound_to 7965
  146.3178  139.7989  142.8969 LP  0  0  0  0  0  0  0  0  0  0  0  0  # atno 17321 bound_to 7965
  140.6750  143.2301  151.5531 LP  0  0  0  0  0  0  0  0  0  0  0  0  # atno 17342 bound_to 10162
  139.5463  144.2512  152.1449 LP  0  0  0  0  0  0  0  0  0  0  0  0  # atno 17343 bound_to 10162
  156.0288  130.5380  150.8478 LP  0  0  0  0  0  0  0  0  0  0  0  0  # atno 17370 bound_to 10713
  157.5601  131.0945  150.9572 LP  0  0  0  0  0  0  0  0  0  0  0  0  # atno 17371 bound_to 10713
  140.2797  134.8326  157.3922 LP  0  0  0  0  0  0  0  0  0  0  0  0  # atno 17394 bound_to 11000
  140.1444  134.4930  155.8007 LP  0  0  0  0  0  0  0  0  0  0  0  0  # atno 17395 bound_to 11000

$$$$
