AV-unprocessed.smi:32|AV-procd|sdf|197|dock3
  -GOLD-   2262015463D 1   1.00000     0.00000
 Structure written by MMmdl.
 49 51  0  0  0  0  0  0  0  0  1 V2000
  151.7452  140.2935  156.5485 O   0  0  0  0  0  0  0  0  0  0  0  0
  150.7723  141.0156  156.3250 C   0  0  0  0  0  0  0  0  0  0  0  0
  149.6608  140.5731  155.3610 C   0  0  0  0  0  0  0  0  0  0  0  0
  148.3242  141.0943  155.7219 N   0  0  0  0  0  0  0  0  0  0  0  0
  147.5989  141.8285  154.7509 C   0  0  0  0  0  0  0  0  0  0  0  0
  148.0655  142.0401  153.6306 O   0  0  0  0  0  0  0  0  0  0  0  0
  146.2834  142.2987  155.1701 C   0  0  0  0  0  0  0  0  0  0  0  0
  145.5298  143.0130  154.3170 F   0  0  0  0  0  0  0  0  0  0  0  0
  145.8087  142.0289  156.4035 C   0  0  0  0  0  0  0  0  0  0  0  0
  146.5224  141.2982  157.3369 N   0  0  0  0  0  0  0  0  0  0  0  0
  145.9731  140.9986  158.7157 C   0  0  2  0  0  0  0  0  0  0  0  0
  144.5309  141.5226  158.8506 C   0  0  0  0  0  0  0  0  0  0  0  0
  144.5859  142.3250  160.1353 C   0  0  0  0  0  0  0  0  0  0  0  0
  146.0323  142.7963  160.1489 C   0  0  0  0  0  0  0  0  0  0  0  0
  146.7401  141.6531  159.6865 O   0  0  0  0  0  0  0  0  0  0  0  0
  147.8075  140.8143  157.0092 C   0  0  0  0  0  0  0  0  0  0  0  0
  148.4569  140.1572  157.8258 O   0  0  0  0  0  0  0  0  0  0  0  0
  150.6035  142.2191  156.8941 N   0  0  0  0  0  0  0  0  0  0  0  0
  151.5229  142.8520  157.8370 C   0  0  0  0  0  0  0  0  0  0  0  0
  151.6531  141.9497  159.0820 C   0  0  0  0  0  0  0  0  0  0  0  0
  152.8357  142.3316  159.9881 C   0  0  0  0  0  0  0  0  0  0  0  0
  152.5392  143.4044  161.0505 C   0  0  0  0  0  0  0  0  0  0  0  0
  151.6573  144.5850  160.6077 C   0  0  0  0  0  0  0  0  0  0  0  0
  151.8751  145.0645  159.1636 C   0  0  0  0  0  0  0  0  0  0  0  0
  151.0311  144.2824  158.1422 C   0  0  0  0  0  0  0  0  0  0  0  0
  149.9435  140.8745  154.3515 H   0  0  0  0  0  0  0  0  0  0  0  0
  149.6497  139.4827  155.3165 H   0  0  0  0  0  0  0  0  0  0  0  0
  144.8293  142.4081  156.6508 H   0  0  0  0  0  0  0  0  0  0  0  0
  146.0714  139.9194  158.8458 H   0  0  0  0  0  0  0  0  0  0  0  0
  144.2842  142.1706  158.0079 H   0  0  0  0  0  0  0  0  0  0  0  0
  143.8167  140.6995  158.8865 H   0  0  0  0  0  0  0  0  0  0  0  0
  143.8684  143.1455  160.1587 H   0  0  0  0  0  0  0  0  0  0  0  0
  144.3956  141.6771  160.9921 H   0  0  0  0  0  0  0  0  0  0  0  0
  146.1740  143.6316  159.4616 H   0  0  0  0  0  0  0  0  0  0  0  0
  146.3687  143.1033  161.1393 H   0  0  0  0  0  0  0  0  0  0  0  0
  149.7740  142.7415  156.6519 H   0  0  0  0  0  0  0  0  0  0  0  0
  152.5056  142.9145  157.3656 H   0  0  0  0  0  0  0  0  0  0  0  0
  150.7220  141.9234  159.6497 H   0  0  0  0  0  0  0  0  0  0  0  0
  151.8223  140.9270  158.7417 H   0  0  0  0  0  0  0  0  0  0  0  0
  153.1839  141.4382  160.5076 H   0  0  0  0  0  0  0  0  0  0  0  0
  153.6787  142.6481  159.3724 H   0  0  0  0  0  0  0  0  0  0  0  0
  152.0672  142.9328  161.9132 H   0  0  0  0  0  0  0  0  0  0  0  0
  153.4925  143.7892  161.4148 H   0  0  0  0  0  0  0  0  0  0  0  0
  150.6066  144.3285  160.7490 H   0  0  0  0  0  0  0  0  0  0  0  0
  151.8421  145.4155  161.2901 H   0  0  0  0  0  0  0  0  0  0  0  0
  151.5695  146.1100  159.1092 H   0  0  0  0  0  0  0  0  0  0  0  0
  152.9326  145.0501  158.8972 H   0  0  0  0  0  0  0  0  0  0  0  0
  151.0231  144.8497  157.2107 H   0  0  0  0  0  0  0  0  0  0  0  0
  149.9924  144.2549  158.4748 H   0  0  0  0  0  0  0  0  0  0  0  0
  1  2  2  0  0  0  0
  2  3  1  0  0  0  0
  2 18  1  0  0  0  0
  3  4  1  0  0  0  0
  3 26  1  0  0  0  0
  3 27  1  0  0  0  0
  4 16  1  0  0  0  0
  4  5  1  0  0  0  0
  5  6  2  0  0  0  0
  5  7  1  0  0  0  0
  7  8  1  0  0  0  0
  7  9  2  0  0  0  0
  9 10  1  0  0  0  0
  9 28  1  0  0  0  0
 10 11  1  0  0  0  0
 10 16  1  0  0  0  0
 11 15  1  0  0  0  0
 11 12  1  0  0  0  0
 11 29  1  0  0  0  0
 12 13  1  0  0  0  0
 12 30  1  0  0  0  0
 12 31  1  0  0  0  0
 13 14  1  0  0  0  0
 13 32  1  0  0  0  0
 13 33  1  0  0  0  0
 14 15  1  0  0  0  0
 14 34  1  0  0  0  0
 14 35  1  0  0  0  0
 16 17  2  0  0  0  0
 18 19  1  0  0  0  0
 18 36  1  0  0  0  0
 19 25  1  0  0  0  0
 19 20  1  0  0  0  0
 19 37  1  0  0  0  0
 20 21  1  0  0  0  0
 20 38  1  0  0  0  0
 20 39  1  0  0  0  0
 21 22  1  0  0  0  0
 21 40  1  0  0  0  0
 21 41  1  0  0  0  0
 22 23  1  0  0  0  0
 22 42  1  0  0  0  0
 22 43  1  0  0  0  0
 23 24  1  0  0  0  0
 23 44  1  0  0  0  0
 23 45  1  0  0  0  0
 24 25  1  0  0  0  0
 24 46  1  0  0  0  0
 24 47  1  0  0  0  0
 25 48  1  0  0  0  0
 25 49  1  0  0  0  0
M  END
> <s_m_source_file>
AV-unprocessed.smi

> <i_m_source_file_index>
32

> <i_lp_mmshare_version>
43012

> <i_f3d_flags>
0

> <s_epik_input>
W0NIMl0xW0NIMl1bQ0gyXVtDSDJdW0NIMl1bQ0gyXVtDSF0xW05IXUMoPU8pW0NIMl1uMmMoPU8pYyhGKVtjSF1uKGMyPU8pW0NAQEhdM1tDSDJdW0NIMl1bQ0gyXU8z

> <s_epik_cmdline>
J2VwaWtfcHl0aG9uJywgJy1waCcsICc3LjAnLCAnLXRuJywgJzgnLCAnLW1hJywgJzIwMCcsICctbWV0YWxfYmluZGluZycsICctaW1hZScsICc8aW5maWxlLm1hZT4nLCAnLW9tYWUnLCAnPG91dGZpbGUubWFlPic=

> <r_lp_tautomer_probability>
1

> <r_epik_Ionization_Penalty>
2.43741e-08

> <r_epik_Ionization_Penalty_Charging>
4.15308e-09

> <r_epik_Ionization_Penalty_Neutral>
2.0221e-08

> <r_epik_State_Penalty>
-0

> <r_epik_Charging_Adjusted_Penalty>
4.15308e-09

> <i_epik_Tot_Q>
0

> <i_epik_Tot_abs_Q>
0

> <r_epik_Metal_State_Penalty>
-0

> <b_epik_Metal_Only>
0

> <s_epik_Chemistry_Notes>
This compound contains an acetal/aminal-like group ( X-CH(R)-Y where X, Y are N, S, or O) that may be acid/base labile, releasing an aldehyde.

> <s_lp_Force_Field>
OPLS_2005

> <r_lp_Energy>
35.2261

> <b_lp_Chiralities_Consistent>
1

> <s_lp_Variant>
AV-unprocessed.smi:32-1

> <Gold.Version>
5.8.1

> <Gold.Id.Protein>
6NUR|6NUR_protein|mol2

> <Gold.PLP.Fitness>
49.4647

> <Gold.PLP.PLP>
-45.1065

> <Gold.PLP.part.hbond>
-2.2417

> <Gold.PLP.part.metal>
0.0000

> <Gold.PLP.part.buried>
-3.2088

> <Gold.PLP.part.nonpolar>
-39.4833

> <Gold.PLP.part.repulsive>
0.2820

> <Gold.PLP.ligand.clash>
0.0000

> <Gold.PLP.ligand.torsion>
0.4580

> <Gold.PLP.Chemscore.Hbond>
1.7490

> <Gold.PLP.Chemscore.CHOScore>
0.0000

> <Gold.PLP.Chemscore.Metal>
0.0000

> <Gold.Chemscore.Hbonds>
donor molecule, donor type, donor heavy atom, donor atom, acceptor molecule, acceptor atom, score
      L1  H    18    36       P1  8028  0.11
      P1  H  6934  6946       L1    15  0.37
      P1  H  8011  8017       L1     6  0.24

> <Gold.PLP.Chemscore.Internal.Correction>
0.0272

> <Gold.Rescore>
     Score         DG    S(hbond)    S(metal)    S(lipo)     H(rot)  DE(clash)    DE(int)     intcor
     14.29     -17.16       1.57        0.00      94.94       1.82       0.03       2.84       ----

> <Gold.Chemscore.Fitness>
14.2921

> <Gold.Chemscore.DG>
-17.1578

> <Gold.Chemscore.ZeroCoef>
-5.4800

> <Gold.Chemscore.Hbond>
1.5692

> <Gold.Chemscore.Metal>
0.0000

> <Gold.Chemscore.Lipo>
94.9396

> <Gold.Chemscore.Internal_Hbond>
0.0000

> <Gold.Chemscore.DEClash>
0.0270

> <Gold.Chemscore.DEInternal>
2.8386

> <Gold.Chemscore.Rot>
1.8248

> <Gold.Chemscore.Internal.Correction>
   9.000000E+99

> <Gold.Chemscore.Hbonds>
donor molecule, donor type, donor heavy atom, donor atom, acceptor molecule, acceptor atom, score
      L1  H    18    36       P1  8028  0.13
      P1  H  6934  6946       L1    15  0.17
      P1  H  8011  8017       L1     6  0.24

> <Gold.Chemscore.Hbond.Weighted>
-5.2413

> <Gold.Chemscore.Metal.Weighted>
-0.0000

> <Gold.Chemscore.Lipo.Weighted>
-11.1079

> <Gold.Chemscore.Internal_Hbond.Weighted>
0.0000

> <Gold.Chemscore.DEClash.Weighted>
0.0270

> <Gold.Chemscore.DEInternal.Weighted>
2.8386

> <Gold.Chemscore.Rot.Weighted>
4.6714

> <Gold.Chemscore.Internal.Correction.Weighted>
   9.000000E+99

> <Gold.Protein.RotatedTorsions>
[ 6907 6896 6895 6894 ] final   14.17 input  -60.11 | X-H torsion
[ 7974 7965 7964 7962 ] final -149.12 input  175.53 | X-H torsion
[ 8008 7997 7996 7995 ] final    1.87 input   59.86 | X-H torsion
[ 10167 10162 10161 10158 ] final  150.78 input  -65.29 | X-H torsion
[ 10718 10713 10712 10709 ] final  146.59 input   66.30 | X-H torsion
[ 10763 10752 10751 10750 ] final  -66.23 input  -60.55 | X-H torsion
[ 11005 11000 10999 10996 ] final  -49.49 input  -57.11 | X-H torsion

> <Gold.Protein.ActiveResidues>
 VAL166  LYS551  ARG553  GLY616  TRP617  ASP618  TYR619  PRO620  LYS621  CYS622 
 ASP623  PHE694  ASN695  SER759  ASP760  ASP761  ALA762  ILE779  LEU786  VAL792 
 PHE793  MET794  SER795  GLU796  ALA797  LYS798  CYS799  TRP800  GLU811  SER814 

> <Gold.Protein.RotatedAtoms>
  151.7979  135.0717  160.0395 H   0  0  0  0  0  0  0  0  0  0  0  0  # atno 6907 bound_to 6896
  152.3110  133.5748  159.5689 H   0  0  0  0  0  0  0  0  0  0  0  0  # atno 6908 bound_to 6896
  150.7320  134.0068  159.3698 H   0  0  0  0  0  0  0  0  0  0  0  0  # atno 6909 bound_to 6896
  144.7987  140.5107  143.5722 H   0  0  0  0  0  0  0  0  0  0  0  0  # atno 7974 bound_to 7965
  154.6848  140.2640  155.6871 H   0  0  0  0  0  0  0  0  0  0  0  0  # atno 8008 bound_to 7997
  156.2710  140.2803  156.1328 H   0  0  0  0  0  0  0  0  0  0  0  0  # atno 8009 bound_to 7997
  155.0980  140.0374  157.2678 H   0  0  0  0  0  0  0  0  0  0  0  0  # atno 8010 bound_to 7997
  139.4847  144.5494  151.7426 H   0  0  0  0  0  0  0  0  0  0  0  0  # atno 10167 bound_to 10162
  157.3313  131.0921  151.1160 H   0  0  0  0  0  0  0  0  0  0  0  0  # atno 10718 bound_to 10713
  154.3567  135.6125  153.5670 H   0  0  0  0  0  0  0  0  0  0  0  0  # atno 10763 bound_to 10752
  152.9795  135.5805  154.4680 H   0  0  0  0  0  0  0  0  0  0  0  0  # atno 10764 bound_to 10752
  154.4411  135.2850  155.1824 H   0  0  0  0  0  0  0  0  0  0  0  0  # atno 10765 bound_to 10752
  141.0762  133.6665  156.3593 H   0  0  0  0  0  0  0  0  0  0  0  0  # atno 11005 bound_to 11000
  145.5608  139.1479  143.3342 LP  0  0  0  0  0  0  0  0  0  0  0  0  # atno 17320 bound_to 7965
  146.2262  140.5744  142.8995 LP  0  0  0  0  0  0  0  0  0  0  0  0  # atno 17321 bound_to 7965
  140.5046  144.1117  150.5979 LP  0  0  0  0  0  0  0  0  0  0  0  0  # atno 17342 bound_to 10162
  140.4022  143.2698  151.9934 LP  0  0  0  0  0  0  0  0  0  0  0  0  # atno 17343 bound_to 10162
  157.2407  130.6568  149.5888 LP  0  0  0  0  0  0  0  0  0  0  0  0  # atno 17370 bound_to 10713
  155.9696  130.4569  150.5943 LP  0  0  0  0  0  0  0  0  0  0  0  0  # atno 17371 bound_to 10713
  140.5568  134.5973  157.5423 LP  0  0  0  0  0  0  0  0  0  0  0  0  # atno 17394 bound_to 11000
  139.9574  134.7511  156.0311 LP  0  0  0  0  0  0  0  0  0  0  0  0  # atno 17395 bound_to 11000

$$$$
