AV-unprocessed.smi:2198|AV-procd|sdf|8914|dock4
  -GOLD-   2272012133D 1   1.00000     0.00000
 Structure written by MMmdl.
 43 44  0  0  0  0  0  0  0  0  1 V2000
  154.8278  140.6554  161.3114 C   0  0  0  0  0  0  0  0  0  0  0  0
  153.7898  141.2783  160.4016 C   0  0  0  0  0  0  0  0  0  0  0  0
  153.4063  142.5097  160.4820 N   0  0  0  0  0  0  0  0  0  0  0  0
  152.4328  142.9734  159.5858 C   0  0  0  0  0  0  0  0  0  0  0  0
  152.0347  144.4306  159.7485 C   0  0  0  0  0  0  0  0  0  0  0  0
  151.8876  142.1574  158.6361 C   0  0  0  0  0  0  0  0  0  0  0  0
  150.8237  142.6300  157.6473 C   0  0  0  0  0  0  0  0  0  0  0  0
  149.5831  141.7413  157.5482 C   0  0  0  0  0  0  0  0  0  0  0  0
  149.5555  140.6574  158.1306 O   0  0  0  0  0  0  0  0  0  0  0  0
  148.5684  142.2095  156.8054 N   0  0  0  0  0  0  0  0  0  0  0  0
  147.2958  141.5286  156.5759 C   0  0  1  0  0  0  0  0  0  0  0  0
  146.3527  142.3839  155.7041 C   0  0  0  0  0  0  0  0  0  0  0  0
  146.8363  142.4772  154.2470 C   0  0  0  0  0  0  0  0  0  0  0  0
  147.0424  141.0821  153.6370 C   0  0  0  0  0  0  0  0  0  0  0  0
  148.0192  140.2364  154.4760 C   0  0  2  0  0  0  0  0  0  0  0  0
  148.2200  138.8424  153.8648 C   0  0  0  0  0  0  0  0  0  0  0  0
  147.5367  140.1449  155.9393 C   0  0  0  0  0  0  0  0  0  0  0  0
  152.3362  140.7539  158.5508 C   0  0  0  0  0  0  0  0  0  0  0  0
  151.9189  139.9360  157.7324 O   0  0  0  0  0  0  0  0  0  0  0  0
  153.2740  140.3941  159.4557 N   0  0  0  0  0  0  0  0  0  0  0  0
  153.6123  139.4430  159.4380 H   0  0  0  0  0  0  0  0  0  0  0  0
  155.7775  141.1815  161.2129 H   0  0  0  0  0  0  0  0  0  0  0  0
  154.9932  139.6035  161.0740 H   0  0  0  0  0  0  0  0  0  0  0  0
  154.5047  140.7231  162.3505 H   0  0  0  0  0  0  0  0  0  0  0  0
  150.9654  144.5207  159.9385 H   0  0  0  0  0  0  0  0  0  0  0  0
  152.2793  144.9975  158.8503 H   0  0  0  0  0  0  0  0  0  0  0  0
  152.5593  144.8925  160.5857 H   0  0  0  0  0  0  0  0  0  0  0  0
  150.4948  143.6404  157.8924 H   0  0  0  0  0  0  0  0  0  0  0  0
  151.2801  142.7259  156.6615 H   0  0  0  0  0  0  0  0  0  0  0  0
  148.6854  143.1093  156.3626 H   0  0  0  0  0  0  0  0  0  0  0  0
  146.8187  141.3657  157.5440 H   0  0  0  0  0  0  0  0  0  0  0  0
  145.3566  141.9402  155.7184 H   0  0  0  0  0  0  0  0  0  0  0  0
  146.2430  143.3834  156.1265 H   0  0  0  0  0  0  0  0  0  0  0  0
  146.1136  143.0374  153.6529 H   0  0  0  0  0  0  0  0  0  0  0  0
  147.7703  143.0386  154.2027 H   0  0  0  0  0  0  0  0  0  0  0  0
  146.0805  140.5725  153.5648 H   0  0  0  0  0  0  0  0  0  0  0  0
  147.4152  141.1819  152.6169 H   0  0  0  0  0  0  0  0  0  0  0  0
  148.9890  140.7362  154.4675 H   0  0  0  0  0  0  0  0  0  0  0  0
  147.2846  138.2826  153.8366 H   0  0  0  0  0  0  0  0  0  0  0  0
  148.9389  138.2606  154.4422 H   0  0  0  0  0  0  0  0  0  0  0  0
  148.5966  138.9122  152.8439 H   0  0  0  0  0  0  0  0  0  0  0  0
  148.2548  139.5820  156.5372 H   0  0  0  0  0  0  0  0  0  0  0  0
  146.6065  139.5763  155.9733 H   0  0  0  0  0  0  0  0  0  0  0  0
  1  2  1  0  0  0  0
  1 22  1  0  0  0  0
  1 23  1  0  0  0  0
  1 24  1  0  0  0  0
  2 20  1  0  0  0  0
  2  3  2  0  0  0  0
  3  4  1  0  0  0  0
  4  5  1  0  0  0  0
  4  6  2  0  0  0  0
  5 25  1  0  0  0  0
  5 26  1  0  0  0  0
  5 27  1  0  0  0  0
  6  7  1  0  0  0  0
  6 18  1  0  0  0  0
  7  8  1  0  0  0  0
  7 28  1  0  0  0  0
  7 29  1  0  0  0  0
  8  9  2  0  0  0  0
  8 10  1  0  0  0  0
 10 11  1  0  0  0  0
 10 30  1  0  0  0  0
 11 17  1  0  0  0  0
 11 12  1  0  0  0  0
 11 31  1  0  0  0  0
 12 13  1  0  0  0  0
 12 32  1  0  0  0  0
 12 33  1  0  0  0  0
 13 14  1  0  0  0  0
 13 34  1  0  0  0  0
 13 35  1  0  0  0  0
 14 15  1  0  0  0  0
 14 36  1  0  0  0  0
 14 37  1  0  0  0  0
 15 16  1  0  0  0  0
 15 17  1  0  0  0  0
 15 38  1  0  0  0  0
 16 39  1  0  0  0  0
 16 40  1  0  0  0  0
 16 41  1  0  0  0  0
 17 42  1  0  0  0  0
 17 43  1  0  0  0  0
 18 19  2  0  0  0  0
 18 20  1  0  0  0  0
 20 21  1  0  0  0  0
M  END
> <s_m_source_file>
AV-unprocessed.smi

> <i_m_source_file_index>
2198

> <i_lp_mmshare_version>
43012

> <i_f3d_flags>
0

> <s_epik_input>
W0NIM11jMW5jKFtDSDNdKWMoYyg9TylbbkhdMSlbQ0gyXUMoPU8pW05IXVtDQEBIXTJbQ0gyXVtDSDJdW0NIMl1bQ0BASF0oW0NIM10pW0NIMl0y

> <s_epik_cmdline>
J2VwaWtfcHl0aG9uJywgJy1waCcsICc3LjAnLCAnLXRuJywgJzgnLCAnLW1hJywgJzIwMCcsICctbWV0YWxfYmluZGluZycsICctaW1hZScsICc8aW5maWxlLm1hZT4nLCAnLW9tYWUnLCAnPG91dGZpbGUubWFlPic=

> <r_lp_tautomer_probability>
0.839158

> <r_epik_Ionization_Penalty>
0.000372587

> <r_epik_Ionization_Penalty_Charging>
0.000337977

> <r_epik_Ionization_Penalty_Neutral>
3.46101e-05

> <r_epik_State_Penalty>
0.09125

> <r_epik_Charging_Adjusted_Penalty>
0.091588

> <i_epik_Tot_Q>
0

> <i_epik_Tot_abs_Q>
0

> <r_epik_Metal_State_Penalty>
0.25197

> <b_epik_Metal_Only>
0

> <s_lp_Force_Field>
OPLS_2005

> <r_lp_Energy>
10.5346

> <b_lp_Chiralities_Consistent>
1

> <s_lp_Variant>
AV-unprocessed.smi:2198-4

> <Gold.Version>
5.8.1

> <Gold.Id.Protein>
6NUR|6NUR_protein|mol2

> <Gold.PLP.Fitness>
39.2562

> <Gold.PLP.PLP>
-36.5382

> <Gold.PLP.part.hbond>
-1.0000

> <Gold.PLP.part.metal>
0.0000

> <Gold.PLP.part.buried>
-4.9246

> <Gold.PLP.part.nonpolar>
-30.8792

> <Gold.PLP.part.repulsive>
0.1201

> <Gold.PLP.ligand.clash>
0.0000

> <Gold.PLP.ligand.torsion>
0.1450

> <Gold.PLP.Chemscore.Hbond>
1.0000

> <Gold.PLP.Chemscore.CHOScore>
0.0000

> <Gold.PLP.Chemscore.Metal>
0.0000

> <Gold.Chemscore.Hbonds>
donor molecule, donor type, donor heavy atom, donor atom, acceptor molecule, acceptor atom, score
      L1  H    10    30       P1  8028  1.00

> <Gold.PLP.Chemscore.Internal.Correction>
0.0080

> <Gold.Rescore>
     Score         DG    S(hbond)    S(metal)    S(lipo)     H(rot)  DE(clash)    DE(int)     intcor
     15.86     -17.13       1.79        0.00      80.78       1.48       0.03       1.25       ----

> <Gold.Chemscore.Fitness>
15.8600

> <Gold.Chemscore.DG>
-17.1339

> <Gold.Chemscore.ZeroCoef>
-5.4800

> <Gold.Chemscore.Hbond>
1.7938

> <Gold.Chemscore.Metal>
0.0000

> <Gold.Chemscore.Lipo>
80.7835

> <Gold.Chemscore.Internal_Hbond>
0.0000

> <Gold.Chemscore.DEClash>
0.0285

> <Gold.Chemscore.DEInternal>
1.2454

> <Gold.Chemscore.Rot>
1.4801

> <Gold.Chemscore.Internal.Correction>
   9.000000E+99

> <Gold.Chemscore.Hbonds>
donor molecule, donor type, donor heavy atom, donor atom, acceptor molecule, acceptor atom, score
      L1  H    10    30       P1  8028  0.94

> <Gold.Chemscore.Hbond.Weighted>
-5.9914

> <Gold.Chemscore.Metal.Weighted>
-0.0000

> <Gold.Chemscore.Lipo.Weighted>
-9.4517

> <Gold.Chemscore.Internal_Hbond.Weighted>
0.0000

> <Gold.Chemscore.DEClash.Weighted>
0.0285

> <Gold.Chemscore.DEInternal.Weighted>
1.2454

> <Gold.Chemscore.Rot.Weighted>
3.7891

> <Gold.Chemscore.Internal.Correction.Weighted>
   9.000000E+99

> <Gold.Protein.RotatedTorsions>
[ 6907 6896 6895 6894 ] final -126.39 input  -60.11 | X-H torsion
[ 7974 7965 7964 7962 ] final   -1.49 input  175.53 | X-H torsion
[ 8008 7997 7996 7995 ] final  -63.72 input   59.86 | X-H torsion
[ 10167 10162 10161 10158 ] final -177.09 input  -65.29 | X-H torsion
[ 10718 10713 10712 10709 ] final  -73.96 input   66.30 | X-H torsion
[ 10763 10752 10751 10750 ] final -157.49 input  -60.55 | X-H torsion
[ 11005 11000 10999 10996 ] final  -10.46 input  -57.11 | X-H torsion

> <Gold.Protein.ActiveResidues>
 VAL166  LYS551  ARG553  GLY616  TRP617  ASP618  TYR619  PRO620  LYS621  CYS622 
 ASP623  PHE694  ASN695  SER759  ASP760  ASP761  ALA762  ILE779  LEU786  VAL792 
 PHE793  MET794  SER795  GLU796  ALA797  LYS798  CYS799  TRP800  GLU811  SER814 

> <Gold.Protein.RotatedAtoms>
  150.8964  133.7175  159.2890 H   0  0  0  0  0  0  0  0  0  0  0  0  # atno 6907 bound_to 6896
  151.4709  135.1044  159.9760 H   0  0  0  0  0  0  0  0  0  0  0  0  # atno 6908 bound_to 6896
  152.4851  133.8304  159.7156 H   0  0  0  0  0  0  0  0  0  0  0  0  # atno 6909 bound_to 6896
  146.2416  140.1429  142.8335 H   0  0  0  0  0  0  0  0  0  0  0  0  # atno 7974 bound_to 7965
  154.4570  140.0969  156.6785 H   0  0  0  0  0  0  0  0  0  0  0  0  # atno 8008 bound_to 7997
  155.5108  140.3476  155.4370 H   0  0  0  0  0  0  0  0  0  0  0  0  # atno 8009 bound_to 7997
  156.0797  140.1370  156.9716 H   0  0  0  0  0  0  0  0  0  0  0  0  # atno 8010 bound_to 7997
  139.5497  144.2142  152.1054 H   0  0  0  0  0  0  0  0  0  0  0  0  # atno 10167 bound_to 10162
  156.0260  130.4406  150.2821 H   0  0  0  0  0  0  0  0  0  0  0  0  # atno 10718 bound_to 10713
  154.7632  135.3123  154.8338 H   0  0  0  0  0  0  0  0  0  0  0  0  # atno 10763 bound_to 10752
  153.9093  135.6807  153.4756 H   0  0  0  0  0  0  0  0  0  0  0  0  # atno 10764 bound_to 10752
  153.1235  135.4812  154.9166 H   0  0  0  0  0  0  0  0  0  0  0  0  # atno 10765 bound_to 10752
  140.7449  133.8639  155.8998 H   0  0  0  0  0  0  0  0  0  0  0  0  # atno 11005 bound_to 11000
  145.0232  140.8810  143.5154 LP  0  0  0  0  0  0  0  0  0  0  0  0  # atno 17320 bound_to 7965
  145.1481  139.2531  143.5455 LP  0  0  0  0  0  0  0  0  0  0  0  0  # atno 17321 bound_to 7965
  140.1635  144.5004  150.6619 LP  0  0  0  0  0  0  0  0  0  0  0  0  # atno 17342 bound_to 10162
  140.6756  143.2304  151.5515 LP  0  0  0  0  0  0  0  0  0  0  0  0  # atno 17343 bound_to 10162
  157.0924  131.0173  151.3116 LP  0  0  0  0  0  0  0  0  0  0  0  0  # atno 17370 bound_to 10713
  157.4843  130.7784  149.7445 LP  0  0  0  0  0  0  0  0  0  0  0  0  # atno 17371 bound_to 10713
  140.9803  134.1414  157.4500 LP  0  0  0  0  0  0  0  0  0  0  0  0  # atno 17394 bound_to 11000
  139.8798  135.0008  156.6032 LP  0  0  0  0  0  0  0  0  0  0  0  0  # atno 17395 bound_to 11000

$$$$
