AV-unprocessed.smi:2859|AV-procd|sdf|11005|dock5
  -GOLD-   2272015463D 1   1.00000     0.00000
 Structure written by MMmdl.
 51 52  0  0  0  0  0  0  0  0  1 V2000
  152.4241  145.1068  159.2101 C   0  0  0  0  0  0  0  0  0  0  0  0
  151.6218  144.0525  160.0003 C   0  0  0  0  0  0  0  0  0  0  0  0
  151.9451  144.1656  161.5045 C   0  0  0  0  0  0  0  0  0  0  0  0
  150.1221  144.3771  159.8203 C   0  0  0  0  0  0  0  0  0  0  0  0
  151.9825  142.6438  159.4986 C   0  0  0  0  0  0  0  0  0  0  0  0
  151.5420  142.1171  158.2607 C   0  0  0  0  0  0  0  0  0  0  0  0
  151.9313  140.7923  157.9433 C   0  0  0  0  0  0  0  0  0  0  0  0
  151.5511  140.1490  156.7438 N   0  0  0  0  0  0  0  0  0  0  0  0
  152.4926  139.2243  156.1211 C   0  0  0  0  0  0  0  0  0  0  0  0
  151.7893  138.3896  155.0400 C   0  0  0  0  0  0  0  0  0  0  0  0
  151.1658  139.2557  154.0998 O   0  0  0  0  0  0  0  0  0  0  0  0
  150.1488  140.0592  154.6987 C   0  0  2  0  0  0  0  0  0  0  0  0
  149.4588  140.8874  153.6039 C   0  0  0  0  0  0  0  0  0  0  0  0
  148.7840  140.2212  152.6626 N   0  0  0  0  0  0  0  0  0  0  0  0
  149.5162  142.1158  153.6107 O   0  0  0  0  0  0  0  0  0  0  0  0
  150.7790  140.9500  155.7935 C   0  0  0  0  0  0  0  0  0  0  0  0
  152.7019  140.0870  158.8030 N   0  0  0  0  0  0  0  0  0  0  0  0
  153.1108  140.6766  159.9308 C   0  0  0  0  0  0  0  0  0  0  0  0
  153.8563  139.8040  160.9540 C   0  0  0  0  0  0  0  0  0  0  0  0
  153.9129  140.4987  162.3344 C   0  0  0  0  0  0  0  0  0  0  0  0
  155.3257  139.5736  160.5275 C   0  0  0  0  0  0  0  0  0  0  0  0
  153.1429  138.4459  161.0842 C   0  0  0  0  0  0  0  0  0  0  0  0
  152.7558  141.9034  160.3250 N   0  0  0  0  0  0  0  0  0  0  0  0
  152.1774  146.1186  159.5336 H   0  0  0  0  0  0  0  0  0  0  0  0
  152.2144  145.0425  158.1417 H   0  0  0  0  0  0  0  0  0  0  0  0
  153.4993  144.9809  159.3422 H   0  0  0  0  0  0  0  0  0  0  0  0
  153.0062  144.0113  161.7039 H   0  0  0  0  0  0  0  0  0  0  0  0
  151.3919  143.4256  162.0841 H   0  0  0  0  0  0  0  0  0  0  0  0
  151.6856  145.1503  161.8946 H   0  0  0  0  0  0  0  0  0  0  0  0
  149.8888  145.3796  160.1811 H   0  0  0  0  0  0  0  0  0  0  0  0
  149.4899  143.6840  160.3770 H   0  0  0  0  0  0  0  0  0  0  0  0
  149.8243  144.3386  158.7717 H   0  0  0  0  0  0  0  0  0  0  0  0
  150.9195  142.6939  157.5962 H   0  0  0  0  0  0  0  0  0  0  0  0
  153.3174  139.7884  155.6840 H   0  0  0  0  0  0  0  0  0  0  0  0
  152.9114  138.5487  156.8676 H   0  0  0  0  0  0  0  0  0  0  0  0
  152.5134  137.7631  154.5194 H   0  0  0  0  0  0  0  0  0  0  0  0
  151.0497  137.7205  155.4828 H   0  0  0  0  0  0  0  0  0  0  0  0
  149.3931  139.4082  155.1422 H   0  0  0  0  0  0  0  0  0  0  0  0
  148.3091  140.7319  151.9322 H   0  0  0  0  0  0  0  0  0  0  0  0
  148.7436  139.2130  152.6911 H   0  0  0  0  0  0  0  0  0  0  0  0
  149.9838  141.4986  156.2988 H   0  0  0  0  0  0  0  0  0  0  0  0
  151.4427  141.6911  155.3457 H   0  0  0  0  0  0  0  0  0  0  0  0
  154.4823  139.9081  163.0531 H   0  0  0  0  0  0  0  0  0  0  0  0
  152.9198  140.6413  162.7617 H   0  0  0  0  0  0  0  0  0  0  0  0
  154.3867  141.4788  162.2666 H   0  0  0  0  0  0  0  0  0  0  0  0
  155.8543  140.5185  160.3955 H   0  0  0  0  0  0  0  0  0  0  0  0
  155.3971  139.0205  159.5901 H   0  0  0  0  0  0  0  0  0  0  0  0
  155.8701  138.9955  161.2749 H   0  0  0  0  0  0  0  0  0  0  0  0
  153.6450  137.7999  161.8049 H   0  0  0  0  0  0  0  0  0  0  0  0
  153.1188  137.9190  160.1297 H   0  0  0  0  0  0  0  0  0  0  0  0
  152.1116  138.5708  161.4164 H   0  0  0  0  0  0  0  0  0  0  0  0
  1  2  1  0  0  0  0
  1 24  1  0  0  0  0
  1 25  1  0  0  0  0
  1 26  1  0  0  0  0
  2  3  1  0  0  0  0
  2  4  1  0  0  0  0
  2  5  1  0  0  0  0
  3 27  1  0  0  0  0
  3 28  1  0  0  0  0
  3 29  1  0  0  0  0
  4 30  1  0  0  0  0
  4 31  1  0  0  0  0
  4 32  1  0  0  0  0
  5 23  1  0  0  0  0
  5  6  2  0  0  0  0
  6  7  1  0  0  0  0
  6 33  1  0  0  0  0
  7  8  1  0  0  0  0
  7 17  2  0  0  0  0
  8 16  1  0  0  0  0
  8  9  1  0  0  0  0
  9 10  1  0  0  0  0
  9 34  1  0  0  0  0
  9 35  1  0  0  0  0
 10 11  1  0  0  0  0
 10 36  1  0  0  0  0
 10 37  1  0  0  0  0
 11 12  1  0  0  0  0
 12 13  1  0  0  0  0
 12 16  1  0  0  0  0
 12 38  1  0  0  0  0
 13 14  1  0  0  0  0
 13 15  2  0  0  0  0
 14 39  1  0  0  0  0
 14 40  1  0  0  0  0
 16 41  1  0  0  0  0
 16 42  1  0  0  0  0
 17 18  1  0  0  0  0
 18 19  1  0  0  0  0
 18 23  2  0  0  0  0
 19 20  1  0  0  0  0
 19 21  1  0  0  0  0
 19 22  1  0  0  0  0
 20 43  1  0  0  0  0
 20 44  1  0  0  0  0
 20 45  1  0  0  0  0
 21 46  1  0  0  0  0
 21 47  1  0  0  0  0
 21 48  1  0  0  0  0
 22 49  1  0  0  0  0
 22 50  1  0  0  0  0
 22 51  1  0  0  0  0
M  END
> <s_m_source_file>
AV-unprocessed.smi

> <i_m_source_file_index>
2859

> <i_lp_mmshare_version>
43012

> <i_f3d_flags>
0

> <s_epik_input>
W0NIM11DKFtDSDNdKShbQ0gzXSljMVtjSF1jKG5jKG4xKUMoW0NIM10pKFtDSDNdKVtDSDNdKU4yW0NIMl1bQ0gyXU9bQ0BIXShbQ0gyXTIpQyg9TylbTkgyXQ==

> <s_epik_cmdline>
J2VwaWtfcHl0aG9uJywgJy1waCcsICc3LjAnLCAnLXRuJywgJzgnLCAnLW1hJywgJzIwMCcsICctbWV0YWxfYmluZGluZycsICctaW1hZScsICc8aW5maWxlLm1hZT4nLCAnLW9tYWUnLCAnPG91dGZpbGUubWFlPic=

> <r_lp_tautomer_probability>
1

> <r_epik_Ionization_Penalty>
0.0011326

> <r_epik_Ionization_Penalty_Charging>
0

> <r_epik_Ionization_Penalty_Neutral>
0.0011326

> <r_epik_State_Penalty>
0.000721507

> <r_epik_Charging_Adjusted_Penalty>
0.000721507

> <i_epik_Tot_Q>
0

> <i_epik_Tot_abs_Q>
0

> <r_epik_Metal_State_Penalty>
-0

> <b_epik_Metal_Only>
0

> <s_lp_Force_Field>
OPLS_2005

> <r_lp_Energy>
9.68103

> <b_lp_Chiralities_Consistent>
1

> <s_lp_Variant>
AV-unprocessed.smi:2859-2

> <Gold.Version>
5.8.1

> <Gold.Id.Protein>
6NUR|6NUR_protein|mol2

> <Gold.PLP.Fitness>
50.7928

> <Gold.PLP.PLP>
-47.4885

> <Gold.PLP.part.hbond>
-3.6472

> <Gold.PLP.part.metal>
0.0000

> <Gold.PLP.part.buried>
-4.5809

> <Gold.PLP.part.nonpolar>
-40.6062

> <Gold.PLP.part.repulsive>
0.5537

> <Gold.PLP.ligand.clash>
0.0000

> <Gold.PLP.ligand.torsion>
1.3113

> <Gold.PLP.Chemscore.Hbond>
1.7762

> <Gold.PLP.Chemscore.CHOScore>
0.0000

> <Gold.PLP.Chemscore.Metal>
0.0000

> <Gold.Chemscore.Hbonds>
donor molecule, donor type, donor heavy atom, donor atom, acceptor molecule, acceptor atom, score
      P1  H  7989  7998       L1    11  0.05
      P1  H  8011  8017       L1    15  0.20

> <Gold.PLP.Chemscore.Internal.Correction>
0.5983

> <Gold.Rescore>
     Score         DG    S(hbond)    S(metal)    S(lipo)     H(rot)  DE(clash)    DE(int)     intcor
     14.29     -16.13       0.44        0.00     118.46       1.83       0.35       1.50       ----

> <Gold.Chemscore.Fitness>
14.2887

> <Gold.Chemscore.DG>
-16.1329

> <Gold.Chemscore.ZeroCoef>
-5.4800

> <Gold.Chemscore.Hbond>
0.4443

> <Gold.Chemscore.Metal>
0.0000

> <Gold.Chemscore.Lipo>
118.4598

> <Gold.Chemscore.Internal_Hbond>
0.0000

> <Gold.Chemscore.DEClash>
0.3474

> <Gold.Chemscore.DEInternal>
1.4969

> <Gold.Chemscore.Rot>
1.8323

> <Gold.Chemscore.Internal.Correction>
   9.000000E+99

> <Gold.Chemscore.Hbonds>
donor molecule, donor type, donor heavy atom, donor atom, acceptor molecule, acceptor atom, score
      P1  H  8011  8017       L1    15  0.09

> <Gold.Chemscore.Hbond.Weighted>
-1.4838

> <Gold.Chemscore.Metal.Weighted>
-0.0000

> <Gold.Chemscore.Lipo.Weighted>
-13.8598

> <Gold.Chemscore.Internal_Hbond.Weighted>
0.0000

> <Gold.Chemscore.DEClash.Weighted>
0.3474

> <Gold.Chemscore.DEInternal.Weighted>
1.4969

> <Gold.Chemscore.Rot.Weighted>
4.6907

> <Gold.Chemscore.Internal.Correction.Weighted>
   9.000000E+99

> <Gold.Protein.RotatedTorsions>
[ 6907 6896 6895 6894 ] final  171.23 input  -60.11 | X-H torsion
[ 7974 7965 7964 7962 ] final    9.88 input  175.53 | X-H torsion
[ 8008 7997 7996 7995 ] final   35.94 input   59.86 | X-H torsion
[ 10167 10162 10161 10158 ] final  -98.17 input  -65.29 | X-H torsion
[ 10718 10713 10712 10709 ] final  118.29 input   66.30 | X-H torsion
[ 10763 10752 10751 10750 ] final  -88.67 input  -60.55 | X-H torsion
[ 11005 11000 10999 10996 ] final  130.92 input  -57.11 | X-H torsion

> <Gold.Protein.ActiveResidues>
 VAL166  LYS551  ARG553  GLY616  TRP617  ASP618  TYR619  PRO620  LYS621  CYS622 
 ASP623  PHE694  ASN695  SER759  ASP760  ASP761  ALA762  ILE779  LEU786  VAL792 
 PHE793  MET794  SER795  GLU796  ALA797  LYS798  CYS799  TRP800  GLU811  SER814 

> <Gold.Protein.RotatedAtoms>
  151.8036  133.3373  159.3533 H   0  0  0  0  0  0  0  0  0  0  0  0  # atno 6907 bound_to 6896
  150.7350  134.5730  159.5909 H   0  0  0  0  0  0  0  0  0  0  0  0  # atno 6908 bound_to 6896
  152.3125  134.7481  160.0384 H   0  0  0  0  0  0  0  0  0  0  0  0  # atno 6909 bound_to 6896
  146.2397  139.9717  142.8446 H   0  0  0  0  0  0  0  0  0  0  0  0  # atno 7974 bound_to 7965
  155.1793  140.3298  155.4378 H   0  0  0  0  0  0  0  0  0  0  0  0  # atno 8008 bound_to 7997
  156.2482  140.1930  156.6842 H   0  0  0  0  0  0  0  0  0  0  0  0  # atno 8009 bound_to 7997
  154.6283  140.0586  156.9686 H   0  0  0  0  0  0  0  0  0  0  0  0  # atno 8010 bound_to 7997
  140.2758  143.3314  152.0490 H   0  0  0  0  0  0  0  0  0  0  0  0  # atno 10167 bound_to 10162
  157.6040  131.1046  150.7736 H   0  0  0  0  0  0  0  0  0  0  0  0  # atno 10718 bound_to 10713
  154.6470  135.5369  153.7856 H   0  0  0  0  0  0  0  0  0  0  0  0  # atno 10763 bound_to 10752
  153.0365  135.6473  154.1074 H   0  0  0  0  0  0  0  0  0  0  0  0  # atno 10764 bound_to 10752
  154.0994  135.2934  155.3234 H   0  0  0  0  0  0  0  0  0  0  0  0  # atno 10765 bound_to 10752
  139.9700  134.9580  156.9364 H   0  0  0  0  0  0  0  0  0  0  0  0  # atno 11005 bound_to 11000
  145.1675  140.9704  143.4341 LP  0  0  0  0  0  0  0  0  0  0  0  0  # atno 17320 bound_to 7965
  145.0059  139.3555  143.6144 LP  0  0  0  0  0  0  0  0  0  0  0  0  # atno 17321 bound_to 7965
  139.4976  144.6625  151.6431 LP  0  0  0  0  0  0  0  0  0  0  0  0  # atno 17342 bound_to 10162
  140.5852  143.9876  150.6292 LP  0  0  0  0  0  0  0  0  0  0  0  0  # atno 17343 bound_to 10162
  156.8128  130.4958  149.5353 LP  0  0  0  0  0  0  0  0  0  0  0  0  # atno 17370 bound_to 10713
  156.1121  130.6048  151.0063 LP  0  0  0  0  0  0  0  0  0  0  0  0  # atno 17371 bound_to 10713
  140.5314  134.0810  155.7317 LP  0  0  0  0  0  0  0  0  0  0  0  0  # atno 17394 bound_to 11000
  141.1380  133.9188  157.2391 LP  0  0  0  0  0  0  0  0  0  0  0  0  # atno 17395 bound_to 11000

$$$$
