AV-unprocessed.smi:1978|AV-procd|sdf|8010|dock9
  -GOLD-   2272010203D 1   1.00000     0.00000
 Structure written by MMmdl.
 44 45  0  0  0  0  0  0  0  0  3 V2000
  152.1167  145.0164  159.9588 C   0  0  0  0  0  0  0  0  0  0  0  0
  151.9306  143.8313  159.0750 C   0  0  0  0  0  0  0  0  0  0  0  0
  151.3930  143.6750  157.8285 C   0  0  0  0  0  0  0  0  0  0  0  0
  151.5296  142.2811  157.5923 C   0  0  0  0  0  0  0  0  0  0  0  0
  151.0749  141.7052  156.3767 N   0  0  0  0  0  0  0  0  0  0  0  0
  151.4878  140.5756  155.7740 C   0  0  0  0  0  0  0  0  0  0  0  0
  152.3758  139.8832  156.2853 O   0  0  0  0  0  0  0  0  0  0  0  0
  150.8273  140.3428  154.6060 N   0  5  0  0  0  0  0  0  0  0  0  0
  149.9176  139.2208  154.3694 C   0  0  0  0  0  0  0  0  0  0  0  0
  148.5941  139.7017  153.6834 C   0  0  2  0  0  0  0  0  0  0  0  0
  147.8098  140.7316  154.5333 C   0  0  0  0  0  0  0  0  0  0  0  0
  147.6756  138.6034  153.2041 N   0  3  2  0  0  0  0  0  0  0  0  0
  146.8032  138.9583  152.0396 C   0  0  0  0  0  0  0  0  0  0  0  0
  146.1931  137.7073  151.3937 C   0  0  0  0  0  0  0  0  0  0  0  0
  145.3873  136.9134  152.4232 C   0  0  0  0  0  0  0  0  0  0  0  0
  146.2803  136.5671  153.6181 C   0  0  0  0  0  0  0  0  0  0  0  0
  146.9231  137.8220  154.2491 C   0  0  1  0  0  0  0  0  0  0  0  0
  147.7924  137.3782  155.4440 C   0  0  0  0  0  0  0  0  0  0  0  0
  152.1063  141.6457  158.6020 N   0  0  0  0  0  0  0  0  0  0  0  0
  152.3654  142.6357  159.5570 O   0  0  0  0  0  0  0  0  0  0  0  0
  151.6295  145.8965  159.5390 H   0  0  0  0  0  0  0  0  0  0  0  0
  153.1757  145.2423  160.0836 H   0  0  0  0  0  0  0  0  0  0  0  0
  151.6903  144.8328  160.9452 H   0  0  0  0  0  0  0  0  0  0  0  0
  150.9668  144.4352  157.1910 H   0  0  0  0  0  0  0  0  0  0  0  0
  150.3407  142.2101  155.9031 H   0  0  0  0  0  0  0  0  0  0  0  0
  150.3855  138.4572  153.7471 H   0  0  0  0  0  0  0  0  0  0  0  0
  149.6674  138.7112  155.2998 H   0  0  0  0  0  0  0  0  0  0  0  0
  148.8742  140.2690  152.7982 H   0  0  0  0  0  0  0  0  0  0  0  0
  148.3740  141.6558  154.6713 H   0  0  0  0  0  0  0  0  0  0  0  0
  147.5536  140.3637  155.5277 H   0  0  0  0  0  0  0  0  0  0  0  0
  146.8787  141.0096  154.0387 H   0  0  0  0  0  0  0  0  0  0  0  0
  146.0006  139.6252  152.3582 H   0  0  0  0  0  0  0  0  0  0  0  0
  147.3678  139.4910  151.2764 H   0  0  0  0  0  0  0  0  0  0  0  0
  145.5516  137.9935  150.5598 H   0  0  0  0  0  0  0  0  0  0  0  0
  146.9843  137.0822  150.9777 H   0  0  0  0  0  0  0  0  0  0  0  0
  144.5295  137.4987  152.7569 H   0  0  0  0  0  0  0  0  0  0  0  0
  144.9907  136.0036  151.9719 H   0  0  0  0  0  0  0  0  0  0  0  0
  145.6893  136.0342  154.3640 H   0  0  0  0  0  0  0  0  0  0  0  0
  147.0616  135.8770  153.2960 H   0  0  0  0  0  0  0  0  0  0  0  0
  146.1175  138.4482  154.6354 H   0  0  0  0  0  0  0  0  0  0  0  0
  147.2403  136.7022  156.0974 H   0  0  0  0  0  0  0  0  0  0  0  0
  148.0960  138.2187  156.0670 H   0  0  0  0  0  0  0  0  0  0  0  0
  148.6902  136.8551  155.1129 H   0  0  0  0  0  0  0  0  0  0  0  0
  148.3222  137.9258  152.8275 H   0  0  0  0  0  0  0  0  0  0  0  0
  1  2  1  0  0  0  0
  1 21  1  0  0  0  0
  1 22  1  0  0  0  0
  1 23  1  0  0  0  0
  2 20  1  0  0  0  0
  2  3  2  0  0  0  0
  3  4  1  0  0  0  0
  3 24  1  0  0  0  0
  4  5  1  0  0  0  0
  4 19  2  0  0  0  0
  5  6  1  0  0  0  0
  5 25  1  0  0  0  0
  6  7  2  0  0  0  0
  6  8  1  0  0  0  0
  8  9  1  0  0  0  0
  9 10  1  0  0  0  0
  9 26  1  0  0  0  0
  9 27  1  0  0  0  0
 10 11  1  0  0  0  0
 10 12  1  0  0  0  0
 10 28  1  0  0  0  0
 11 29  1  0  0  0  0
 11 30  1  0  0  0  0
 11 31  1  0  0  0  0
 12 17  1  0  0  0  0
 12 13  1  0  0  0  0
 12 44  1  0  0  0  0
 13 14  1  0  0  0  0
 13 32  1  0  0  0  0
 13 33  1  0  0  0  0
 14 15  1  0  0  0  0
 14 34  1  0  0  0  0
 14 35  1  0  0  0  0
 15 16  1  0  0  0  0
 15 36  1  0  0  0  0
 15 37  1  0  0  0  0
 16 17  1  0  0  0  0
 16 38  1  0  0  0  0
 16 39  1  0  0  0  0
 17 18  1  0  0  0  0
 17 40  1  0  0  0  0
 18 41  1  0  0  0  0
 18 42  1  0  0  0  0
 18 43  1  0  0  0  0
 19 20  1  0  0  0  0
M  CHG  1   8  -1
M  CHG  1  12   1
M  END
> <s_m_source_file>
AV-unprocessed.smi

> <i_m_source_file_index>
1978

> <i_lp_mmshare_version>
43012

> <i_f3d_flags>
0

> <s_epik_input>
W0NIM11jMVtjSF1jKG5vMSlbTkhdQyg9TylbTkhdW0NIMl1bQ0BIXShbQ0gzXSlOMltDSDJdW0NIMl1bQ0gyXVtDSDJdW0NASF0yW0NIM10=

> <s_epik_cmdline>
J2VwaWtfcHl0aG9uJywgJy1waCcsICc3LjAnLCAnLXRuJywgJzgnLCAnLW1hJywgJzIwMCcsICctbWV0YWxfYmluZGluZycsICctaW1hZScsICc8aW5maWxlLm1hZT4nLCAnLW9tYWUnLCAnPG91dGZpbGUubWFlPic=

> <r_epik_Ionization_Penalty>
6.7666

> <r_epik_Ionization_Penalty_Charging>
6.7666

> <r_epik_Ionization_Penalty_Neutral>
5.77131e-06

> <r_epik_State_Penalty>
6.79217

> <r_epik_Charging_Adjusted_Penalty>
13.5588

> <i_epik_Tot_Q>
0

> <i_epik_Tot_abs_Q>
2

> <r_epik_Metal_State_Penalty>
2.72569

> <b_epik_Metal_Only>
1

> <s_lp_Force_Field>
OPLS_2005

> <r_lp_Energy>
22.3249

> <b_lp_Chiralities_Consistent>
1

> <s_lp_Variant>
AV-unprocessed.smi:1978-19

> <Gold.Version>
5.8.1

> <Gold.Id.Protein>
6NUR|6NUR_protein|mol2

> <Gold.PLP.Fitness>
43.4953

> <Gold.PLP.PLP>
-33.6564

> <Gold.PLP.part.hbond>
-3.4602

> <Gold.PLP.part.metal>
0.0000

> <Gold.PLP.part.buried>
2.0516

> <Gold.PLP.part.nonpolar>
-32.8938

> <Gold.PLP.part.repulsive>
0.2296

> <Gold.PLP.ligand.clash>
0.0000

> <Gold.PLP.ligand.torsion>
1.1417

> <Gold.PLP.Chemscore.Hbond>
3.9750

> <Gold.PLP.Chemscore.CHOScore>
0.0000

> <Gold.PLP.Chemscore.Metal>
0.0000

> <Gold.Chemscore.Hbonds>
donor molecule, donor type, donor heavy atom, donor atom, acceptor molecule, acceptor atom, score
      L1  H    12    44       P1  7948  1.98
      P1  H  7989  7998       L1     8  0.84
      P1  H  7997  8008       L1     7  1.00

> <Gold.PLP.Chemscore.Internal.Correction>
0.1972

> <Gold.Rescore>
     Score         DG    S(hbond)    S(metal)    S(lipo)     H(rot)  DE(clash)    DE(int)     intcor
     15.26     -20.38       2.76        0.00      81.84       1.52       1.74       3.38       ----

> <Gold.Chemscore.Fitness>
15.2647

> <Gold.Chemscore.DG>
-20.3798

> <Gold.Chemscore.ZeroCoef>
-5.4800

> <Gold.Chemscore.Hbond>
2.7586

> <Gold.Chemscore.Metal>
0.0000

> <Gold.Chemscore.Lipo>
81.8358

> <Gold.Chemscore.Internal_Hbond>
0.0000

> <Gold.Chemscore.DEClash>
1.7350

> <Gold.Chemscore.DEInternal>
3.3801

> <Gold.Chemscore.Rot>
1.5190

> <Gold.Chemscore.Internal.Correction>
   9.000000E+99

> <Gold.Chemscore.Hbonds>
donor molecule, donor type, donor heavy atom, donor atom, acceptor molecule, acceptor atom, score
      L1  H    12    44       P1  7948  0.92
      P1  H  7989  7998       L1     8  0.56
      P1  H  7997  8008       L1     7  0.98

> <Gold.Chemscore.Hbond.Weighted>
-9.2137

> <Gold.Chemscore.Metal.Weighted>
-0.0000

> <Gold.Chemscore.Lipo.Weighted>
-9.5748

> <Gold.Chemscore.Internal_Hbond.Weighted>
0.0000

> <Gold.Chemscore.DEClash.Weighted>
1.7350

> <Gold.Chemscore.DEInternal.Weighted>
3.3801

> <Gold.Chemscore.Rot.Weighted>
3.8886

> <Gold.Chemscore.Internal.Correction.Weighted>
   9.000000E+99

> <Gold.Protein.RotatedTorsions>
[ 6907 6896 6895 6894 ] final  109.71 input  -60.11 | X-H torsion
[ 7974 7965 7964 7962 ] final  145.81 input  175.53 | X-H torsion
[ 8008 7997 7996 7995 ] final  -44.19 input   59.86 | X-H torsion
[ 10167 10162 10161 10158 ] final  152.41 input  -65.29 | X-H torsion
[ 10718 10713 10712 10709 ] final -128.47 input   66.30 | X-H torsion
[ 10763 10752 10751 10750 ] final -138.18 input  -60.55 | X-H torsion
[ 11005 11000 10999 10996 ] final -168.76 input  -57.11 | X-H torsion

> <Gold.Protein.ActiveResidues>
 VAL166  LYS551  ARG553  GLY616  TRP617  ASP618  TYR619  PRO620  LYS621  CYS622 
 ASP623  PHE694  ASN695  SER759  ASP760  ASP761  ALA762  ILE779  LEU786  VAL792 
 PHE793  MET794  SER795  GLU796  ALA797  LYS798  CYS799  TRP800  GLU811  SER814 

> <Gold.Protein.RotatedAtoms>
  152.5054  133.8904  159.7390 H   0  0  0  0  0  0  0  0  0  0  0  0  # atno 6907 bound_to 6896
  150.9344  133.6720  159.2810 H   0  0  0  0  0  0  0  0  0  0  0  0  # atno 6908 bound_to 6896
  151.4053  135.0982  159.9621 H   0  0  0  0  0  0  0  0  0  0  0  0  # atno 6909 bound_to 6896
  144.8722  139.5828  143.5881 H   0  0  0  0  0  0  0  0  0  0  0  0  # atno 7974 bound_to 7965
  154.3997  140.1428  156.3642 H   0  0  0  0  0  0  0  0  0  0  0  0  # atno 8008 bound_to 7997
  155.8153  140.3471  155.5461 H   0  0  0  0  0  0  0  0  0  0  0  0  # atno 8009 bound_to 7997
  155.8344  140.0917  157.1763 H   0  0  0  0  0  0  0  0  0  0  0  0  # atno 8010 bound_to 7997
  139.4833  144.5360  151.7644 H   0  0  0  0  0  0  0  0  0  0  0  0  # atno 10167 bound_to 10162
  156.1954  130.6822  151.0475 H   0  0  0  0  0  0  0  0  0  0  0  0  # atno 10718 bound_to 10713
  154.8643  135.3620  154.5343 H   0  0  0  0  0  0  0  0  0  0  0  0  # atno 10763 bound_to 10752
  153.5967  135.7014  153.5406 H   0  0  0  0  0  0  0  0  0  0  0  0  # atno 10764 bound_to 10752
  153.3326  135.4120  155.1469 H   0  0  0  0  0  0  0  0  0  0  0  0  # atno 10765 bound_to 10752
  140.5383  134.5547  157.5093 H   0  0  0  0  0  0  0  0  0  0  0  0  # atno 11005 bound_to 11000
  146.2938  139.7217  142.9141 LP  0  0  0  0  0  0  0  0  0  0  0  0  # atno 17320 bound_to 7965
  145.4109  141.0396  143.3018 LP  0  0  0  0  0  0  0  0  0  0  0  0  # atno 17321 bound_to 7965
  140.4892  144.1335  150.5947 LP  0  0  0  0  0  0  0  0  0  0  0  0  # atno 17342 bound_to 10162
  140.4190  143.2620  151.9739 LP  0  0  0  0  0  0  0  0  0  0  0  0  # atno 17343 bound_to 10162
  157.6954  131.0795  150.6983 LP  0  0  0  0  0  0  0  0  0  0  0  0  # atno 17370 bound_to 10713
  156.7040  130.4632  149.5565 LP  0  0  0  0  0  0  0  0  0  0  0  0  # atno 17371 bound_to 10713
  139.9517  134.7605  156.0433 LP  0  0  0  0  0  0  0  0  0  0  0  0  # atno 17394 bound_to 11000
  141.1242  133.6604  156.3292 LP  0  0  0  0  0  0  0  0  0  0  0  0  # atno 17395 bound_to 11000

$$$$
