#       Name:                AV-unprocessed.smi:3124
#       Creating user name   scv26
#       Creation time:       Fri Mar 27 17:28:48 2020


#       File generated by GOLD software.
#

@<TRIPOS>MOLECULE
AV-unprocessed.smi:3124
    25    25     1
SMALL
NO_CHARGES


@<TRIPOS>ATOM
      1 ****        -2.3541   3.1381  -0.7019 C.3            1 S1                 0.0000
      2 ****        -1.6505   1.9670  -0.1047 C.2            1 S1                 0.0000
      3 ****        -1.3654   0.7290  -0.6083 C.2            1 S1                 0.0000
      4 ****        -0.6786   0.0666   0.4516 C.2            1 S1                 0.0000
      5 ****        -0.1253  -1.3331   0.4650 C.3            1 S1                 0.0000
      6 ****         1.4118  -1.3712   0.3605 C.3            1 S1                 0.0000
      7 ****         1.9543  -2.8012   0.4881 C.3            1 S1                 0.0000
      8 ****         1.8727  -0.7639  -0.9019 N.4            1 S1                 1.0000
      9 ****        -0.5471   0.8327   1.5247 N.2            1 S1                 0.0000
     10 ****        -1.1423   1.9879   1.1735 N.pl3          1 S1                 0.0000
     11 ****        -1.1979   2.7711   1.8096 H              1 S1                 0.0000
     12 ****        -2.8088   2.8743  -1.6571 H              1 S1                 0.0000
     13 ****        -1.6595   3.9602  -0.8750 H              1 S1                 0.0000
     14 ****        -3.1443   3.4954  -0.0412 H              1 S1                 0.0000
     15 ****        -1.6141   0.3504  -1.5887 H              1 S1                 0.0000
     16 ****        -0.5627  -1.9090  -0.3518 H              1 S1                 0.0000
     17 ****        -0.4383  -1.8361   1.3812 H              1 S1                 0.0000
     18 ****         1.8322  -0.7792   1.1744 H              1 S1                 0.0000
     19 ****         1.6596  -3.2494   1.4376 H              1 S1                 0.0000
     20 ****         3.0440  -2.8148   0.4446 H              1 S1                 0.0000
     21 ****         1.5801  -3.4423  -0.3110 H              1 S1                 0.0000
     22 ****         1.5113  -1.2914  -1.6834 H              1 S1                 0.0000
     23 ****         2.8823  -0.7689  -0.9300 H              1 S1                 0.0000
     24 ****         1.5398   0.1885  -0.9562 H              1 S1                 0.0000
     25 ****        -0.1077   0.6054   2.3938 LP             1 S1                 0.0000
@<TRIPOS>BOND
    1    1   12 1     
    2    1   13 1     
    3    1   14 1     
    4    1    2 1     
    5    2   10 1     
    6    2    3 2     
    7    3    4 1     
    8    3   15 1     
    9    4    5 1     
   10    4    9 2     
   11    5    6 1     
   12    5   16 1     
   13    5   17 1     
   14    6    7 1     
   15    6    8 1     
   16    6   18 1     
   17    7   19 1     
   18    7   20 1     
   19    7   21 1     
   20    8   22 1     
   21    8   23 1     
   22    8   24 1     
   23    9   10 1     
   24   10   11 1     
   25    9   25 1     
@<TRIPOS>SUBSTRUCTURE
      1 S1             1
@<TRIPOS>SET
LONE_PAIRS      STATIC     ATOMS    <user>   **** ""
1 25
DONOR_HYDROGENS      STATIC     ATOMS    <user>   **** ""
4 22 23 24 11
ATOM$BLUE        STATIC     ATOMS    COLORGROUP SYSTEM
1 25
ATOM$RED        STATIC     ATOMS    COLORGROUP SYSTEM
4 22 23 24 11
