AV-unprocessed.smi:2879|AV-procd|sdf|11049|dock1
  -GOLD-   2272015513D 1   1.00000     0.00000
 Structure written by MMmdl.
 44 45  0  0  0  0  0  0  0  0  1 V2000
  146.4431  143.0406  153.8671 C   0  0  0  0  0  0  0  0  0  0  0  0
  146.9925  141.6745  154.0985 C   0  0  0  0  0  0  0  0  0  0  0  0
  148.1167  141.2491  154.7486 C   0  0  0  0  0  0  0  0  0  0  0  0
  148.0802  139.8284  154.6257 C   0  0  0  0  0  0  0  0  0  0  0  0
  149.0686  138.8262  155.1617 C   0  0  0  0  0  0  0  0  0  0  0  0
  150.3748  139.5217  155.5499 C   0  0  0  0  0  0  0  0  0  0  0  0
  151.0138  140.1516  154.7073 O   0  0  0  0  0  0  0  0  0  0  0  0
  150.7615  139.3970  156.8278 N   0  0  0  0  0  0  0  0  0  0  0  0
  151.9514  140.0117  157.4003 C   0  0  0  0  0  0  0  0  0  0  0  0
  151.5923  141.2410  158.2569 C   0  0  0  0  0  0  0  0  0  0  0  0
  150.8858  142.3444  157.4410 C   0  0  0  0  0  0  0  0  0  0  0  0
  150.5518  143.5710  158.3094 C   0  0  0  0  0  0  0  0  0  0  0  0
  151.7825  144.1652  159.0369 C   0  0  0  0  0  0  0  0  0  0  0  0
  152.7392  144.8467  158.0345 C   0  0  0  0  0  0  0  0  0  0  0  0
  151.3033  145.2353  160.0369 C   0  0  0  0  0  0  0  0  0  0  0  0
  152.5070  143.0399  159.8155 C   0  0  0  0  0  0  0  0  0  0  0  0
  152.8434  141.8146  158.9467 C   0  0  0  0  0  0  0  0  0  0  0  0
  147.0203  139.4083  153.9474 N   0  0  0  0  0  0  0  0  0  0  0  0
  146.3652  140.5416  153.6344 N   0  0  0  0  0  0  0  0  0  0  0  0
  145.5024  140.5275  153.1091 H   0  0  0  0  0  0  0  0  0  0  0  0
  147.0374  143.7928  154.3863 H   0  0  0  0  0  0  0  0  0  0  0  0
  145.4178  143.1133  154.2304 H   0  0  0  0  0  0  0  0  0  0  0  0
  146.4450  143.2840  152.8045 H   0  0  0  0  0  0  0  0  0  0  0  0
  148.8561  141.8608  155.2442 H   0  0  0  0  0  0  0  0  0  0  0  0
  148.6676  138.3055  156.0326 H   0  0  0  0  0  0  0  0  0  0  0  0
  149.2739  138.0612  154.4117 H   0  0  0  0  0  0  0  0  0  0  0  0
  150.1739  138.8635  157.4525 H   0  0  0  0  0  0  0  0  0  0  0  0
  152.4683  139.2685  158.0092 H   0  0  0  0  0  0  0  0  0  0  0  0
  152.6357  140.3012  156.6009 H   0  0  0  0  0  0  0  0  0  0  0  0
  150.9064  140.9114  159.0391 H   0  0  0  0  0  0  0  0  0  0  0  0
  151.5103  142.6407  156.5981 H   0  0  0  0  0  0  0  0  0  0  0  0
  149.9614  141.9612  157.0078 H   0  0  0  0  0  0  0  0  0  0  0  0
  150.0743  144.3346  157.6943 H   0  0  0  0  0  0  0  0  0  0  0  0
  149.8052  143.2732  159.0471 H   0  0  0  0  0  0  0  0  0  0  0  0
  153.5980  145.2841  158.5448 H   0  0  0  0  0  0  0  0  0  0  0  0
  152.2370  145.6506  157.4953 H   0  0  0  0  0  0  0  0  0  0  0  0
  153.1270  144.1535  157.2894 H   0  0  0  0  0  0  0  0  0  0  0  0
  152.1405  145.6747  160.5804 H   0  0  0  0  0  0  0  0  0  0  0  0
  150.6191  144.8157  160.7755 H   0  0  0  0  0  0  0  0  0  0  0  0
  150.7790  146.0463  159.5300 H   0  0  0  0  0  0  0  0  0  0  0  0
  153.4195  143.4258  160.2716 H   0  0  0  0  0  0  0  0  0  0  0  0
  151.8769  142.7091  160.6425 H   0  0  0  0  0  0  0  0  0  0  0  0
  153.3021  141.0485  159.5726 H   0  0  0  0  0  0  0  0  0  0  0  0
  153.5926  142.0793  158.2003 H   0  0  0  0  0  0  0  0  0  0  0  0
  1  2  1  0  0  0  0
  1 21  1  0  0  0  0
  1 22  1  0  0  0  0
  1 23  1  0  0  0  0
  2 19  1  0  0  0  0
  2  3  2  0  0  0  0
  3  4  1  0  0  0  0
  3 24  1  0  0  0  0
  4  5  1  0  0  0  0
  4 18  2  0  0  0  0
  5  6  1  0  0  0  0
  5 25  1  0  0  0  0
  5 26  1  0  0  0  0
  6  7  2  0  0  0  0
  6  8  1  0  0  0  0
  8  9  1  0  0  0  0
  8 27  1  0  0  0  0
  9 10  1  0  0  0  0
  9 28  1  0  0  0  0
  9 29  1  0  0  0  0
 10 17  1  0  0  0  0
 10 11  1  0  0  0  0
 10 30  1  0  0  0  0
 11 12  1  0  0  0  0
 11 31  1  0  0  0  0
 11 32  1  0  0  0  0
 12 13  1  0  0  0  0
 12 33  1  0  0  0  0
 12 34  1  0  0  0  0
 13 14  1  0  0  0  0
 13 15  1  0  0  0  0
 13 16  1  0  0  0  0
 14 35  1  0  0  0  0
 14 36  1  0  0  0  0
 14 37  1  0  0  0  0
 15 38  1  0  0  0  0
 15 39  1  0  0  0  0
 15 40  1  0  0  0  0
 16 17  1  0  0  0  0
 16 41  1  0  0  0  0
 16 42  1  0  0  0  0
 17 43  1  0  0  0  0
 17 44  1  0  0  0  0
 18 19  1  0  0  0  0
 19 20  1  0  0  0  0
M  END
> <s_m_source_file>
AV-unprocessed.smi

> <i_m_source_file_index>
2879

> <i_lp_mmshare_version>
43012

> <i_f3d_flags>
0

> <s_epik_input>
W0NIM11jMVtjSF1jKG5bbkhdMSlbQ0gyXUMoPU8pW05IXVtDSDJdW0NIXShbQ0gyXVtDSDJdMilbQ0gyXVtDSDJdQzIoW0NIM10pW0NIM10=

> <s_epik_cmdline>
J2VwaWtfcHl0aG9uJywgJy1waCcsICc3LjAnLCAnLXRuJywgJzgnLCAnLW1hJywgJzIwMCcsICctbWV0YWxfYmluZGluZycsICctaW1hZScsICc8aW5maWxlLm1hZT4nLCAnLW9tYWUnLCAnPG91dGZpbGUubWFlPic=

> <r_lp_tautomer_probability>
0.5

> <r_epik_Ionization_Penalty>
7.93509e-05

> <r_epik_Ionization_Penalty_Charging>
0

> <r_epik_Ionization_Penalty_Neutral>
7.93509e-05

> <r_epik_State_Penalty>
0.41068

> <r_epik_Charging_Adjusted_Penalty>
0.41068

> <i_epik_Tot_Q>
0

> <i_epik_Tot_abs_Q>
0

> <r_epik_Metal_State_Penalty>
0.4107

> <b_epik_Metal_Only>
0

> <s_lp_Force_Field>
OPLS_2005

> <r_lp_Energy>
12.5825

> <b_lp_Chiralities_Consistent>
1

> <s_lp_Variant>
AV-unprocessed.smi:2879-1

> <Gold.Version>
5.8.1

> <Gold.Id.Protein>
6NUR|6NUR_protein|mol2

> <Gold.PLP.Fitness>
47.5253

> <Gold.PLP.PLP>
-42.1305

> <Gold.PLP.part.hbond>
-1.9689

> <Gold.PLP.part.metal>
0.0000

> <Gold.PLP.part.buried>
-6.3698

> <Gold.PLP.part.nonpolar>
-34.3431

> <Gold.PLP.part.repulsive>
0.2733

> <Gold.PLP.ligand.clash>
0.0000

> <Gold.PLP.ligand.torsion>
0.3177

> <Gold.PLP.Chemscore.Hbond>
2.0000

> <Gold.PLP.Chemscore.CHOScore>
0.0000

> <Gold.PLP.Chemscore.Metal>
0.0000

> <Gold.Chemscore.Hbonds>
donor molecule, donor type, donor heavy atom, donor atom, acceptor molecule, acceptor atom, score
      L1  H    19    20       P1 10175  1.00
      P1  H  7989  7998       L1     7  1.00

> <Gold.PLP.Chemscore.Internal.Correction>
0.0302

> <Gold.Rescore>
     Score         DG    S(hbond)    S(metal)    S(lipo)     H(rot)  DE(clash)    DE(int)     intcor
     21.42     -21.67       1.95        0.00     116.64       1.55       0.08       0.17       ----

> <Gold.Chemscore.Fitness>
21.4153

> <Gold.Chemscore.DG>
-21.6690

> <Gold.Chemscore.ZeroCoef>
-5.4800

> <Gold.Chemscore.Hbond>
1.9484

> <Gold.Chemscore.Metal>
0.0000

> <Gold.Chemscore.Lipo>
116.6358

> <Gold.Chemscore.Internal_Hbond>
0.0000

> <Gold.Chemscore.DEClash>
0.0802

> <Gold.Chemscore.DEInternal>
0.1735

> <Gold.Chemscore.Rot>
1.5489

> <Gold.Chemscore.Internal.Correction>
   9.000000E+99

> <Gold.Chemscore.Hbonds>
donor molecule, donor type, donor heavy atom, donor atom, acceptor molecule, acceptor atom, score
      L1  H    19    20       P1 10175  0.88
      P1  H  7989  7998       L1     7  0.93

> <Gold.Chemscore.Hbond.Weighted>
-6.5078

> <Gold.Chemscore.Metal.Weighted>
-0.0000

> <Gold.Chemscore.Lipo.Weighted>
-13.6464

> <Gold.Chemscore.Internal_Hbond.Weighted>
0.0000

> <Gold.Chemscore.DEClash.Weighted>
0.0802

> <Gold.Chemscore.DEInternal.Weighted>
0.1735

> <Gold.Chemscore.Rot.Weighted>
3.9652

> <Gold.Chemscore.Internal.Correction.Weighted>
   9.000000E+99

> <Gold.Protein.RotatedTorsions>
[ 6907 6896 6895 6894 ] final   26.13 input  -60.11 | X-H torsion
[ 7974 7965 7964 7962 ] final  145.97 input  175.53 | X-H torsion
[ 8008 7997 7996 7995 ] final -100.22 input   59.86 | X-H torsion
[ 10167 10162 10161 10158 ] final  139.25 input  -65.29 | X-H torsion
[ 10718 10713 10712 10709 ] final  129.15 input   66.30 | X-H torsion
[ 10763 10752 10751 10750 ] final  173.88 input  -60.55 | X-H torsion
[ 11005 11000 10999 10996 ] final   82.46 input  -57.11 | X-H torsion

> <Gold.Protein.ActiveResidues>
 VAL166  LYS551  ARG553  GLY616  TRP617  ASP618  TYR619  PRO620  LYS621  CYS622 
 ASP623  PHE694  ASN695  SER759  ASP760  ASP761  ALA762  ILE779  LEU786  VAL792 
 PHE793  MET794  SER795  GLU796  ALA797  LYS798  CYS799  TRP800  GLU811  SER814 

> <Gold.Protein.RotatedAtoms>
  151.9829  135.0019  160.0557 H   0  0  0  0  0  0  0  0  0  0  0  0  # atno 6907 bound_to 6896
  152.1680  133.4620  159.4903 H   0  0  0  0  0  0  0  0  0  0  0  0  # atno 6908 bound_to 6896
  150.6897  134.1907  159.4327 H   0  0  0  0  0  0  0  0  0  0  0  0  # atno 6909 bound_to 6896
  144.8709  139.5848  143.5887 H   0  0  0  0  0  0  0  0  0  0  0  0  # atno 7974 bound_to 7965
  154.8256  140.0442  157.1441 H   0  0  0  0  0  0  0  0  0  0  0  0  # atno 8008 bound_to 7997
  154.9210  140.3027  155.5196 H   0  0  0  0  0  0  0  0  0  0  0  0  # atno 8009 bound_to 7997
  156.2983  140.2340  156.4260 H   0  0  0  0  0  0  0  0  0  0  0  0  # atno 8010 bound_to 7997
  139.5084  144.6305  151.5828 H   0  0  0  0  0  0  0  0  0  0  0  0  # atno 10167 bound_to 10162
  157.5181  131.1098  150.9195 H   0  0  0  0  0  0  0  0  0  0  0  0  # atno 10718 bound_to 10713
  154.4462  135.2763  155.1813 H   0  0  0  0  0  0  0  0  0  0  0  0  # atno 10763 bound_to 10752
  154.3659  135.6119  153.5718 H   0  0  0  0  0  0  0  0  0  0  0  0  # atno 10764 bound_to 10752
  152.9844  135.5845  154.4799 H   0  0  0  0  0  0  0  0  0  0  0  0  # atno 10765 bound_to 10752
  139.9063  134.8073  156.2178 H   0  0  0  0  0  0  0  0  0  0  0  0  # atno 11005 bound_to 11000
  146.2929  139.7192  142.9148 LP  0  0  0  0  0  0  0  0  0  0  0  0  # atno 17320 bound_to 7965
  145.4133  141.0399  143.3005 LP  0  0  0  0  0  0  0  0  0  0  0  0  # atno 17321 bound_to 7965
  140.6037  143.9564  150.6403 LP  0  0  0  0  0  0  0  0  0  0  0  0  # atno 17342 bound_to 10162
  140.2784  143.3407  152.1174 LP  0  0  0  0  0  0  0  0  0  0  0  0  # atno 17343 bound_to 10162
  156.9814  130.5528  149.5296 LP  0  0  0  0  0  0  0  0  0  0  0  0  # atno 17370 bound_to 10713
  156.0334  130.5423  150.8592 LP  0  0  0  0  0  0  0  0  0  0  0  0  # atno 17371 bound_to 10713
  141.0425  133.6930  156.1623 LP  0  0  0  0  0  0  0  0  0  0  0  0  # atno 17394 bound_to 11000
  140.6934  134.4641  157.5588 LP  0  0  0  0  0  0  0  0  0  0  0  0  # atno 17395 bound_to 11000

$$$$
