AV-unprocessed.smi:2753|AV-procd|sdf|10610|dock9
  -GOLD-   2272015 63D 1   1.00000     0.00000
 Structure written by MMmdl.
 28 29  0  0  0  0  0  0  0  0  2 V2000
  150.3272  133.3552  156.1476 F   0  0  0  0  0  0  0  0  0  0  0  0
  149.3967  134.0743  155.5213 C   0  0  0  0  0  0  0  0  0  0  0  0
  148.4110  134.3024  156.3899 F   0  0  0  0  0  0  0  0  0  0  0  0
  149.9375  135.2508  155.2077 F   0  0  0  0  0  0  0  0  0  0  0  0
  148.9061  133.3647  154.2930 C   0  0  0  0  0  0  0  0  0  0  0  0
  149.3018  132.1423  153.7978 C   0  0  0  0  0  0  0  0  0  0  0  0
  148.5514  131.9450  152.6523 N   0  0  0  0  0  0  0  0  0  0  0  0
  147.7560  133.0098  152.4933 C   0  0  0  0  0  0  0  0  0  0  0  0
  146.7975  133.1360  151.3494 C   0  0  1  0  0  0  0  0  0  0  0  0
  145.8465  131.9271  151.2572 C   0  0  0  0  0  0  0  0  0  0  0  0
  144.8676  132.0986  150.0855 C   0  0  0  0  0  0  0  0  0  0  0  0
  144.1156  133.4361  150.1883 C   0  0  0  0  0  0  0  0  0  0  0  0
  145.0671  134.5658  150.2669 N   0  3  0  0  0  0  0  0  0  0  0  0
  146.0021  134.4566  151.4084 C   0  0  0  0  0  0  0  0  0  0  0  0
  147.9255  133.9095  153.4583 N   0  0  0  0  0  0  0  0  0  0  0  0
  148.5967  131.1385  152.0456 H   0  0  0  0  0  0  0  0  0  0  0  0
  150.0269  131.4257  154.1541 H   0  0  0  0  0  0  0  0  0  0  0  0
  147.3915  133.1531  150.4336 H   0  0  0  0  0  0  0  0  0  0  0  0
  146.4165  131.0055  151.1341 H   0  0  0  0  0  0  0  0  0  0  0  0
  145.2840  131.8238  152.1865 H   0  0  0  0  0  0  0  0  0  0  0  0
  145.4142  132.0560  149.1425 H   0  0  0  0  0  0  0  0  0  0  0  0
  144.1572  131.2714  150.0688 H   0  0  0  0  0  0  0  0  0  0  0  0
  143.4690  133.5747  149.3216 H   0  0  0  0  0  0  0  0  0  0  0  0
  143.4733  133.4449  151.0701 H   0  0  0  0  0  0  0  0  0  0  0  0
  145.6047  134.5929  149.4123 H   0  0  0  0  0  0  0  0  0  0  0  0
  145.4347  134.5223  152.3380 H   0  0  0  0  0  0  0  0  0  0  0  0
  146.6809  135.3098  151.3889 H   0  0  0  0  0  0  0  0  0  0  0  0
  144.5468  135.4276  150.3512 H   0  0  0  0  0  0  0  0  0  0  0  0
  1  2  1  0  0  0  0
  2  3  1  0  0  0  0
  2  4  1  0  0  0  0
  2  5  1  0  0  0  0
  5 15  1  0  0  0  0
  5  6  2  0  0  0  0
  6  7  1  0  0  0  0
  6 17  1  0  0  0  0
  7 16  1  0  0  0  0
  7  8  1  0  0  0  0
  8  9  1  0  0  0  0
  8 15  2  0  0  0  0
  9 14  1  0  0  0  0
  9 10  1  0  0  0  0
  9 18  1  0  0  0  0
 10 11  1  0  0  0  0
 10 19  1  0  0  0  0
 10 20  1  0  0  0  0
 11 12  1  0  0  0  0
 11 21  1  0  0  0  0
 11 22  1  0  0  0  0
 12 13  1  0  0  0  0
 12 23  1  0  0  0  0
 12 24  1  0  0  0  0
 13 14  1  0  0  0  0
 13 25  1  0  0  0  0
 13 28  1  0  0  0  0
 14 26  1  0  0  0  0
 14 27  1  0  0  0  0
M  CHG  1  13   1
M  END
> <s_m_source_file>
AV-unprocessed.smi

> <i_m_source_file_index>
2753

> <i_lp_mmshare_version>
43012

> <i_f3d_flags>
0

> <s_epik_input>
RkMoRikoRiljMVtjSF1bbkhdYyhuMSlbQ0BASF0yW0NIMl1bQ0gyXVtDSDJdW05IXVtDSDJdMg==

> <s_epik_cmdline>
J2VwaWtfcHl0aG9uJywgJy1waCcsICc3LjAnLCAnLXRuJywgJzgnLCAnLW1hJywgJzIwMCcsICctbWV0YWxfYmluZGluZycsICctaW1hZScsICc8aW5maWxlLm1hZT4nLCAnLW9tYWUnLCAnPG91dGZpbGUubWFlPic=

> <r_lp_tautomer_probability>
0.5

> <r_epik_Ionization_Penalty>
0.00052307

> <r_epik_Ionization_Penalty_Charging>
0.000431517

> <r_epik_Ionization_Penalty_Neutral>
9.15529e-05

> <r_epik_State_Penalty>
0.103148

> <r_epik_Charging_Adjusted_Penalty>
0.103579

> <i_epik_Tot_Q>
1

> <i_epik_Tot_abs_Q>
1

> <r_epik_Metal_State_Penalty>
0.166025

> <b_epik_Metal_Only>
0

> <s_lp_Force_Field>
OPLS_2005

> <r_lp_Energy>
16.8068

> <b_lp_Chiralities_Consistent>
1

> <s_lp_Variant>
AV-unprocessed.smi:2753-2

> <Gold.Version>
5.8.1

> <Gold.Id.Protein>
6NUR|6NUR_protein|mol2

> <Gold.PLP.Fitness>
34.2544

> <Gold.PLP.PLP>
-29.1226

> <Gold.PLP.part.hbond>
-2.0000

> <Gold.PLP.part.metal>
0.0000

> <Gold.PLP.part.buried>
-5.1457

> <Gold.PLP.part.nonpolar>
-23.1212

> <Gold.PLP.part.repulsive>
1.2517

> <Gold.PLP.ligand.clash>
0.0000

> <Gold.PLP.ligand.torsion>
0.0277

> <Gold.PLP.Chemscore.Hbond>
1.7200

> <Gold.PLP.Chemscore.CHOScore>
0.0000

> <Gold.PLP.Chemscore.Metal>
0.0000

> <Gold.Chemscore.Hbonds>
donor molecule, donor type, donor heavy atom, donor atom, acceptor molecule, acceptor atom, score
      L1  H     7    16       P1 10747  0.72
      L1  H    13    25       P1  7921  1.00

> <Gold.PLP.Chemscore.Internal.Correction>
0.0273

> <Gold.Rescore>
     Score         DG    S(hbond)    S(metal)    S(lipo)     H(rot)  DE(clash)    DE(int)     intcor
     16.23     -16.29       1.93        0.00      59.30       1.00       0.03       0.03       ----

> <Gold.Chemscore.Fitness>
16.2316

> <Gold.Chemscore.DG>
-16.2926

> <Gold.Chemscore.ZeroCoef>
-5.4800

> <Gold.Chemscore.Hbond>
1.9266

> <Gold.Chemscore.Metal>
0.0000

> <Gold.Chemscore.Lipo>
59.2978

> <Gold.Chemscore.Internal_Hbond>
0.0000

> <Gold.Chemscore.DEClash>
0.0310

> <Gold.Chemscore.DEInternal>
0.0301

> <Gold.Chemscore.Rot>
1.0000

> <Gold.Chemscore.Internal.Correction>
   9.000000E+99

> <Gold.Chemscore.Hbonds>
donor molecule, donor type, donor heavy atom, donor atom, acceptor molecule, acceptor atom, score
      L1  H     7    16       P1 10747  0.69
      L1  H    13    25       P1  7921  0.94

> <Gold.Chemscore.Hbond.Weighted>
-6.4348

> <Gold.Chemscore.Metal.Weighted>
-0.0000

> <Gold.Chemscore.Lipo.Weighted>
-6.9378

> <Gold.Chemscore.Internal_Hbond.Weighted>
0.0000

> <Gold.Chemscore.DEClash.Weighted>
0.0310

> <Gold.Chemscore.DEInternal.Weighted>
0.0301

> <Gold.Chemscore.Rot.Weighted>
2.5600

> <Gold.Chemscore.Internal.Correction.Weighted>
   9.000000E+99

> <Gold.Protein.RotatedTorsions>
[ 6907 6896 6895 6894 ] final -114.06 input  -60.11 | X-H torsion
[ 7974 7965 7964 7962 ] final  -97.57 input  175.53 | X-H torsion
[ 8008 7997 7996 7995 ] final   -2.34 input   59.86 | X-H torsion
[ 10167 10162 10161 10158 ] final   18.66 input  -65.29 | X-H torsion
[ 10718 10713 10712 10709 ] final   -4.88 input   66.30 | X-H torsion
[ 10763 10752 10751 10750 ] final   18.86 input  -60.55 | X-H torsion
[ 11005 11000 10999 10996 ] final  -87.76 input  -57.11 | X-H torsion

> <Gold.Protein.ActiveResidues>
 VAL166  LYS551  ARG553  GLY616  TRP617  ASP618  TYR619  PRO620  LYS621  CYS622 
 ASP623  PHE694  ASN695  SER759  ASP760  ASP761  ALA762  ILE779  LEU786  VAL792 
 PHE793  MET794  SER795  GLU796  ALA797  LYS798  CYS799  TRP800  GLU811  SER814 

> <Gold.Protein.RotatedAtoms>
  150.7874  133.8856  159.3298 H   0  0  0  0  0  0  0  0  0  0  0  0  # atno 6907 bound_to 6896
  151.6703  135.0975  160.0206 H   0  0  0  0  0  0  0  0  0  0  0  0  # atno 6908 bound_to 6896
  152.3941  133.6682  159.6297 H   0  0  0  0  0  0  0  0  0  0  0  0  # atno 6909 bound_to 6896
  145.3320  140.9443  143.2656 H   0  0  0  0  0  0  0  0  0  0  0  0  # atno 7974 bound_to 7965
  154.6368  140.2537  155.7369 H   0  0  0  0  0  0  0  0  0  0  0  0  # atno 8008 bound_to 7997
  156.2508  140.2895  156.0664 H   0  0  0  0  0  0  0  0  0  0  0  0  # atno 8009 bound_to 7997
  155.1659  140.0385  157.2843 H   0  0  0  0  0  0  0  0  0  0  0  0  # atno 8010 bound_to 7997
  140.5637  143.9291  150.6661 H   0  0  0  0  0  0  0  0  0  0  0  0  # atno 10167 bound_to 10162
  156.7548  130.5251  149.5797 H   0  0  0  0  0  0  0  0  0  0  0  0  # atno 10718 bound_to 10713
  153.1212  135.6719  153.9332 H   0  0  0  0  0  0  0  0  0  0  0  0  # atno 10763 bound_to 10752
  153.8847  135.3054  155.3447 H   0  0  0  0  0  0  0  0  0  0  0  0  # atno 10764 bound_to 10752
  154.7623  135.4981  153.9568 H   0  0  0  0  0  0  0  0  0  0  0  0  # atno 10765 bound_to 10752
  141.1612  133.7530  156.9353 H   0  0  0  0  0  0  0  0  0  0  0  0  # atno 11005 bound_to 11000
  144.8856  139.4843  143.6702 LP  0  0  0  0  0  0  0  0  0  0  0  0  # atno 17320 bound_to 7965
  146.3042  139.7524  142.9069 LP  0  0  0  0  0  0  0  0  0  0  0  0  # atno 17321 bound_to 7965
  140.2748  143.3430  152.1205 LP  0  0  0  0  0  0  0  0  0  0  0  0  # atno 17342 bound_to 10162
  139.5082  144.6846  151.5921 LP  0  0  0  0  0  0  0  0  0  0  0  0  # atno 17343 bound_to 10162
  156.1378  130.6223  151.0424 LP  0  0  0  0  0  0  0  0  0  0  0  0  # atno 17370 bound_to 10713
  157.6761  131.0850  150.7490 LP  0  0  0  0  0  0  0  0  0  0  0  0  # atno 17371 bound_to 10713
  140.1358  134.9326  157.2400 LP  0  0  0  0  0  0  0  0  0  0  0  0  # atno 17394 bound_to 11000
  140.2896  134.3255  155.7319 LP  0  0  0  0  0  0  0  0  0  0  0  0  # atno 17395 bound_to 11000

$$$$
