AV-unprocessed.smi:796|AV-procd|sdf|3766|dock2
  -GOLD-   22720 1203D 1   1.00000     0.00000
 Structure written by MMmdl.
 46 47  0  0  0  0  0  0  0  0  1 V2000
  150.2907  130.8212  154.0490 C   0  0  0  0  0  0  0  0  0  0  0  0
  150.4536  132.3493  154.1230 C   0  0  0  0  0  0  0  0  0  0  0  0
  149.1514  133.1784  153.9221 C   0  0  2  0  0  0  0  0  0  0  0  0
  148.1490  132.8757  155.0617 C   0  0  0  0  0  0  0  0  0  0  0  0
  148.4793  132.8532  152.5638 C   0  0  0  0  0  0  0  0  0  0  0  0
  147.4779  133.7881  152.2151 O   0  0  0  0  0  0  0  0  0  0  0  0
  149.4450  134.6193  153.8925 N   0  0  0  0  0  0  0  0  0  0  0  0
  149.9782  135.3883  154.8573 C   0  0  0  0  0  0  0  0  0  0  0  0
  150.3395  134.9659  155.9549 O   0  0  0  0  0  0  0  0  0  0  0  0
  150.0810  136.6650  154.4498 N   0  0  0  0  0  0  0  0  0  0  0  0
  150.5161  137.7988  155.1882 C   0  0  0  0  0  0  0  0  0  0  0  0
  151.0963  137.7380  156.4763 C   0  0  0  0  0  0  0  0  0  0  0  0
  151.4633  138.9366  157.1170 C   0  0  0  0  0  0  0  0  0  0  0  0
  151.2356  140.1714  156.4642 C   0  0  0  0  0  0  0  0  0  0  0  0
  151.5938  141.3860  157.0903 N   0  0  0  0  0  0  0  0  0  0  0  0
  152.1712  141.2699  158.4276 C   0  0  0  0  0  0  0  0  0  0  0  0
  152.7994  142.6065  158.8589 C   0  0  0  0  0  0  0  0  0  0  0  0
  151.8327  143.6472  158.7642 O   0  0  0  0  0  0  0  0  0  0  0  0
  151.3681  143.8169  157.4294 C   0  0  0  0  0  0  0  0  0  0  0  0
  150.6866  142.5241  156.9499 C   0  0  0  0  0  0  0  0  0  0  0  0
  150.6756  140.2246  155.2304 N   0  0  0  0  0  0  0  0  0  0  0  0
  150.3235  139.0735  154.6205 C   0  0  0  0  0  0  0  0  0  0  0  0
  151.2541  130.3296  154.1833 H   0  0  0  0  0  0  0  0  0  0  0  0
  149.8957  130.5017  153.0847 H   0  0  0  0  0  0  0  0  0  0  0  0
  149.6261  130.4478  154.8275 H   0  0  0  0  0  0  0  0  0  0  0  0
  150.9043  132.6034  155.0828 H   0  0  0  0  0  0  0  0  0  0  0  0
  151.1957  132.6466  153.3820 H   0  0  0  0  0  0  0  0  0  0  0  0
  147.8525  131.8266  155.0634 H   0  0  0  0  0  0  0  0  0  0  0  0
  147.2409  133.4715  154.9622 H   0  0  0  0  0  0  0  0  0  0  0  0
  148.5692  133.0808  156.0460 H   0  0  0  0  0  0  0  0  0  0  0  0
  149.2226  132.8409  151.7654 H   0  0  0  0  0  0  0  0  0  0  0  0
  148.0297  131.8603  152.5763 H   0  0  0  0  0  0  0  0  0  0  0  0
  147.8717  134.4732  151.6970 H   0  0  0  0  0  0  0  0  0  0  0  0
  149.2030  135.0871  153.0314 H   0  0  0  0  0  0  0  0  0  0  0  0
  149.8395  136.8447  153.4863 H   0  0  0  0  0  0  0  0  0  0  0  0
  151.2568  136.8041  156.9915 H   0  0  0  0  0  0  0  0  0  0  0  0
  151.9223  138.8907  158.0929 H   0  0  0  0  0  0  0  0  0  0  0  0
  151.3828  140.9862  159.1259 H   0  0  0  0  0  0  0  0  0  0  0  0
  152.9316  140.4923  158.4769 H   0  0  0  0  0  0  0  0  0  0  0  0
  153.1496  142.5410  159.8891 H   0  0  0  0  0  0  0  0  0  0  0  0
  153.6678  142.8447  158.2424 H   0  0  0  0  0  0  0  0  0  0  0  0
  150.6610  144.6460  157.4024 H   0  0  0  0  0  0  0  0  0  0  0  0
  152.1987  144.0849  156.7745 H   0  0  0  0  0  0  0  0  0  0  0  0
  150.3840  142.6422  155.9087 H   0  0  0  0  0  0  0  0  0  0  0  0
  149.7841  142.3389  157.5341 H   0  0  0  0  0  0  0  0  0  0  0  0
  149.8747  139.1771  153.6433 H   0  0  0  0  0  0  0  0  0  0  0  0
  1  2  1  0  0  0  0
  1 23  1  0  0  0  0
  1 24  1  0  0  0  0
  1 25  1  0  0  0  0
  2  3  1  0  0  0  0
  2 26  1  0  0  0  0
  2 27  1  0  0  0  0
  3  4  1  0  0  0  0
  3  5  1  0  0  0  0
  3  7  1  0  0  0  0
  4 28  1  0  0  0  0
  4 29  1  0  0  0  0
  4 30  1  0  0  0  0
  5  6  1  0  0  0  0
  5 31  1  0  0  0  0
  5 32  1  0  0  0  0
  6 33  1  0  0  0  0
  7  8  1  0  0  0  0
  7 34  1  0  0  0  0
  8  9  2  0  0  0  0
  8 10  1  0  0  0  0
 10 11  1  0  0  0  0
 10 35  1  0  0  0  0
 11 22  1  0  0  0  0
 11 12  2  0  0  0  0
 12 13  1  0  0  0  0
 12 36  1  0  0  0  0
 13 14  2  0  0  0  0
 13 37  1  0  0  0  0
 14 15  1  0  0  0  0
 14 21  1  0  0  0  0
 15 20  1  0  0  0  0
 15 16  1  0  0  0  0
 16 17  1  0  0  0  0
 16 38  1  0  0  0  0
 16 39  1  0  0  0  0
 17 18  1  0  0  0  0
 17 40  1  0  0  0  0
 17 41  1  0  0  0  0
 18 19  1  0  0  0  0
 19 20  1  0  0  0  0
 19 42  1  0  0  0  0
 19 43  1  0  0  0  0
 20 44  1  0  0  0  0
 20 45  1  0  0  0  0
 21 22  2  0  0  0  0
 22 46  1  0  0  0  0
M  END
> <s_m_source_file>
AV-unprocessed.smi

> <i_m_source_file_index>
796

> <i_lp_mmshare_version>
43012

> <i_f3d_flags>
0

> <s_epik_input>
W0NIM11bQ0gyXVtDQEBdKFtDSDNdKShbQ0gyXVtPSF0pW05IXUMoPU8pW05IXWMxW2NIXVtjSF1jKG5bY0hdMSlOMltDSDJdW0NIMl1PW0NIMl1bQ0gyXTI=

> <s_epik_cmdline>
J2VwaWtfcHl0aG9uJywgJy1waCcsICc3LjAnLCAnLXRuJywgJzgnLCAnLW1hJywgJzIwMCcsICctbWV0YWxfYmluZGluZycsICctaW1hZScsICc8aW5maWxlLm1hZT4nLCAnLW9tYWUnLCAnPG91dGZpbGUubWFlPic=

> <r_lp_tautomer_probability>
1

> <r_epik_Ionization_Penalty>
0.00214298

> <r_epik_Ionization_Penalty_Charging>
0

> <r_epik_Ionization_Penalty_Neutral>
0.00214298

> <r_epik_State_Penalty>
0.00144388

> <r_epik_Charging_Adjusted_Penalty>
0.00144388

> <i_epik_Tot_Q>
0

> <i_epik_Tot_abs_Q>
0

> <r_epik_Metal_State_Penalty>
-0

> <b_epik_Metal_Only>
0

> <s_lp_Force_Field>
OPLS_2005

> <r_lp_Energy>
24.369

> <b_lp_Chiralities_Consistent>
1

> <s_lp_Variant>
AV-unprocessed.smi:796-2

> <Gold.Version>
5.8.1

> <Gold.Id.Protein>
6NUR|6NUR_protein|mol2

> <Gold.PLP.Fitness>
46.6314

> <Gold.PLP.PLP>
-34.1248

> <Gold.PLP.part.hbond>
-4.0000

> <Gold.PLP.part.metal>
0.0000

> <Gold.PLP.part.buried>
-2.5301

> <Gold.PLP.part.nonpolar>
-27.1672

> <Gold.PLP.part.repulsive>
0.1729

> <Gold.PLP.ligand.clash>
0.0000

> <Gold.PLP.ligand.torsion>
0.4517

> <Gold.PLP.Chemscore.Hbond>
3.5245

> <Gold.PLP.Chemscore.CHOScore>
0.8050

> <Gold.PLP.Chemscore.Metal>
0.0000

> <Gold.Chemscore.Hbonds>
donor molecule, donor type, donor heavy atom, donor atom, acceptor molecule, acceptor atom, score
      L1  H     6    33       P1  7948  0.65
      L1  H     7    34       P1  7948  0.60
      L1  H    10    35       P1  7948  0.98
      P1  H  7989  7998       L1    21  0.48
      L1  C    22    46       P1  7957  0.74

> <Gold.PLP.Chemscore.Internal.Correction>
0.4215

> <Gold.Rescore>
     Score         DG    S(hbond)    S(metal)    S(lipo)     H(rot)  DE(clash)    DE(int)     intcor
     15.43     -17.22       2.44        0.00      79.57       2.24       0.06       1.73       ----

> <Gold.Chemscore.Fitness>
15.4344

> <Gold.Chemscore.DG>
-17.2185

> <Gold.Chemscore.ZeroCoef>
-5.4800

> <Gold.Chemscore.Hbond>
2.4431

> <Gold.Chemscore.Metal>
0.0000

> <Gold.Chemscore.Lipo>
79.5691

> <Gold.Chemscore.Internal_Hbond>
0.0000

> <Gold.Chemscore.DEClash>
0.0560

> <Gold.Chemscore.DEInternal>
1.7281

> <Gold.Chemscore.Rot>
2.2387

> <Gold.Chemscore.Internal.Correction>
   9.000000E+99

> <Gold.Chemscore.Hbonds>
donor molecule, donor type, donor heavy atom, donor atom, acceptor molecule, acceptor atom, score
      L1  H     6    33       P1  7948  0.08
      L1  H     7    34       P1  7948  0.04
      L1  H    10    35       P1  7948  0.37
      P1  H  7989  7998       L1    21  0.03

> <Gold.Chemscore.Hbond.Weighted>
-8.1599

> <Gold.Chemscore.Metal.Weighted>
-0.0000

> <Gold.Chemscore.Lipo.Weighted>
-9.3096

> <Gold.Chemscore.Internal_Hbond.Weighted>
0.0000

> <Gold.Chemscore.DEClash.Weighted>
0.0560

> <Gold.Chemscore.DEInternal.Weighted>
1.7281

> <Gold.Chemscore.Rot.Weighted>
5.7310

> <Gold.Chemscore.Internal.Correction.Weighted>
   9.000000E+99

> <Gold.Protein.RotatedTorsions>
[ 6907 6896 6895 6894 ] final  -55.17 input  -60.11 | X-H torsion
[ 7974 7965 7964 7962 ] final   47.88 input  175.53 | X-H torsion
[ 8008 7997 7996 7995 ] final -131.43 input   59.86 | X-H torsion
[ 10167 10162 10161 10158 ] final -115.23 input  -65.29 | X-H torsion
[ 10718 10713 10712 10709 ] final  -34.47 input   66.30 | X-H torsion
[ 10763 10752 10751 10750 ] final  -41.63 input  -60.55 | X-H torsion
[ 11005 11000 10999 10996 ] final  139.53 input  -57.11 | X-H torsion

> <Gold.Protein.ActiveResidues>
 VAL166  LYS551  ARG553  GLY616  TRP617  ASP618  TYR619  PRO620  LYS621  CYS622 
 ASP623  PHE694  ASN695  SER759  ASP760  ASP761  ALA762  ILE779  LEU786  VAL792 
 PHE793  MET794  SER795  GLU796  ALA797  LYS798  CYS799  TRP800  GLU811  SER814 

> <Gold.Protein.RotatedAtoms>
  150.8275  134.7512  159.6824 H   0  0  0  0  0  0  0  0  0  0  0  0  # atno 6907 bound_to 6896
  152.4384  134.5638  159.9911 H   0  0  0  0  0  0  0  0  0  0  0  0  # atno 6908 bound_to 6896
  151.5807  133.3340  159.3043 H   0  0  0  0  0  0  0  0  0  0  0  0  # atno 6909 bound_to 6896
  146.0257  139.4703  142.9869 H   0  0  0  0  0  0  0  0  0  0  0  0  # atno 7974 bound_to 7965
  155.3121  140.0458  157.3035 H   0  0  0  0  0  0  0  0  0  0  0  0  # atno 8008 bound_to 7997
  154.5427  140.2293  155.8581 H   0  0  0  0  0  0  0  0  0  0  0  0  # atno 8009 bound_to 7997
  156.1895  140.3054  155.9312 H   0  0  0  0  0  0  0  0  0  0  0  0  # atno 8010 bound_to 7997
  140.0923  143.4688  152.1862 H   0  0  0  0  0  0  0  0  0  0  0  0  # atno 10167 bound_to 10162
  156.3502  130.4307  149.7711 H   0  0  0  0  0  0  0  0  0  0  0  0  # atno 10718 bound_to 10713
  153.9657  135.6734  153.4746 H   0  0  0  0  0  0  0  0  0  0  0  0  # atno 10763 bound_to 10752
  153.0817  135.4920  154.8512 H   0  0  0  0  0  0  0  0  0  0  0  0  # atno 10764 bound_to 10752
  154.7248  135.3125  154.8949 H   0  0  0  0  0  0  0  0  0  0  0  0  # atno 10765 bound_to 10752
  140.0261  134.9374  157.0571 H   0  0  0  0  0  0  0  0  0  0  0  0  # atno 11005 bound_to 11000
  145.7122  141.0102  143.1447 LP  0  0  0  0  0  0  0  0  0  0  0  0  # atno 17320 bound_to 7965
  144.7008  139.8771  143.7444 LP  0  0  0  0  0  0  0  0  0  0  0  0  # atno 17321 bound_to 7965
  139.5718  144.7466  151.3871 LP  0  0  0  0  0  0  0  0  0  0  0  0  # atno 17342 bound_to 10162
  140.7022  143.7604  150.7422 LP  0  0  0  0  0  0  0  0  0  0  0  0  # atno 17343 bound_to 10162
  156.4915  130.8087  151.3096 LP  0  0  0  0  0  0  0  0  0  0  0  0  # atno 17370 bound_to 10713
  157.7460  130.9974  150.2814 LP  0  0  0  0  0  0  0  0  0  0  0  0  # atno 17371 bound_to 10713
  140.4304  134.1787  155.7168 LP  0  0  0  0  0  0  0  0  0  0  0  0  # atno 17394 bound_to 11000
  141.1804  133.8427  157.1279 LP  0  0  0  0  0  0  0  0  0  0  0  0  # atno 17395 bound_to 11000

$$$$
