#       Name:                AV-unprocessed.smi:862
#       Creating user name   scv26
#       Creation time:       Fri Mar 27 01:45:49 2020


#       File generated by GOLD software.
#

@<TRIPOS>MOLECULE
AV-unprocessed.smi:862
    47    49     1
SMALL
NO_CHARGES


@<TRIPOS>ATOM
      1 ****        -4.4859  -3.5960   0.4629 N.am           1 S1                 0.0000
      2 ****        -4.1766  -2.7955  -0.5618 C.2            1 S1                 0.0000
      3 ****        -4.3756  -3.1477  -1.7231 O.2            1 S1                 0.0000
      4 ****        -3.6833  -1.5790  -0.2180 N.am           1 S1                 0.0000
      5 ****        -3.1552  -1.1989   1.1027 C.3            1 S1                 0.0000
      6 ****        -1.6183  -1.1418   1.0230 C.3            1 S1                 0.0000
      7 ****        -1.1486  -0.1634  -0.0746 C.3            1 S1                 0.0000
      8 ****         0.3234  -0.2367  -0.2154 N.4            1 S1                 1.0000
      9 ****         1.0230   1.0489  -0.4483 C.3            1 S1                 0.0000
     10 ****         0.8026   1.6206  -1.8521 C.3            1 S1                 0.0000
     11 ****         1.9865   2.5654  -2.0893 C.3            1 S1                 0.0000
     12 ****         3.1110   2.1003  -1.1511 C.3            1 S1                 0.0000
     13 ****         2.5495   0.8923  -0.3819 C.3            1 S1                 0.0000
     14 ****         3.0828   0.7581   0.9839 N.pl3          1 S1                 0.0000
     15 ****         3.7596  -0.3198   1.4969 C.2            1 S1                 0.0000
     16 ****         4.0665  -0.0104   2.7969 C.2            1 S1                 0.0000
     17 ****         3.5636   1.2414   3.0263 N.pl3          1 S1                 1.0000
     18 ****         2.9650   1.7068   1.9252 C.2            1 S1                 0.0000
     19 ****        -1.8585  -0.4662  -1.4139 C.3            1 S1                 0.0000
     20 ****        -3.3837  -0.5538  -1.2248 C.3            1 S1                 0.0000
     21 ****        -4.8699  -4.5123   0.2816 H              1 S1                 0.0000
     22 ****        -4.3477  -3.2810   1.4117 H              1 S1                 0.0000
     23 ****        -3.5518  -0.2209   1.3788 H              1 S1                 0.0000
     24 ****        -3.4560  -1.8699   1.9071 H              1 S1                 0.0000
     25 ****        -1.2097  -0.8426   1.9890 H              1 S1                 0.0000
     26 ****        -1.2329  -2.1426   0.8205 H              1 S1                 0.0000
     27 ****        -1.4267   0.8415   0.2474 H              1 S1                 0.0000
     28 ****         0.6786  -0.6047   0.6554 H              1 S1                 0.0000
     29 ****         0.6982   1.7825   0.2915 H              1 S1                 0.0000
     30 ****         0.8285   0.8191  -2.5923 H              1 S1                 0.0000
     31 ****        -0.1544   2.1339  -1.9510 H              1 S1                 0.0000
     32 ****         2.2982   2.5586  -3.1344 H              1 S1                 0.0000
     33 ****         1.7034   3.5895  -1.8424 H              1 S1                 0.0000
     34 ****         4.0109   1.8284  -1.7039 H              1 S1                 0.0000
     35 ****         3.3825   2.9186  -0.4836 H              1 S1                 0.0000
     36 ****         2.8302  -0.0097  -0.9295 H              1 S1                 0.0000
     37 ****         3.9725  -1.2049   0.9144 H              1 S1                 0.0000
     38 ****         4.5927  -0.5716   3.5556 H              1 S1                 0.0000
     39 ****         2.4870   2.6647   1.8194 H              1 S1                 0.0000
     40 ****        -1.6324   0.2992  -2.1549 H              1 S1                 0.0000
     41 ****        -1.4926  -1.4090  -1.8237 H              1 S1                 0.0000
     42 ****        -3.8689  -0.7529  -2.1815 H              1 S1                 0.0000
     43 ****        -3.7773   0.4073  -0.8909 H              1 S1                 0.0000
     44 ****         0.5538  -0.8901  -0.9507 H              1 S1                 0.0000
     45 ****         3.6378   1.7461   3.9011 H              1 S1                 0.0000
     46 ****        -4.7745  -4.0451  -1.9120 LP             1 S1                 0.0000
     47 ****        -4.1386  -2.5368  -2.4784 LP             1 S1                 0.0000
@<TRIPOS>BOND
    1    1    2 am    
    2    1   21 1     
    3    1   22 1     
    4    2    3 2     
    5    2    4 am    
    6    4   20 1     
    7    4    5 1     
    8    5    6 1     
    9    5   23 1     
   10    5   24 1     
   11    6    7 1     
   12    6   25 1     
   13    6   26 1     
   14    7    8 1     
   15    7   19 1     
   16    7   27 1     
   17    8    9 1     
   18    8   28 1     
   19    8   44 1     
   20    9   13 1     
   21    9   10 1     
   22    9   29 1     
   23   10   11 1     
   24   10   30 1     
   25   10   31 1     
   26   11   12 1     
   27   11   32 1     
   28   11   33 1     
   29   12   13 1     
   30   12   34 1     
   31   12   35 1     
   32   13   14 1     
   33   13   36 1     
   34   14   18 1     
   35   14   15 1     
   36   15   16 2     
   37   15   37 1     
   38   16   17 1     
   39   16   38 1     
   40   17   18 2     
   41   17   45 1     
   42   18   39 1     
   43   19   20 1     
   44   19   40 1     
   45   19   41 1     
   46   20   42 1     
   47   20   43 1     
   48    3   46 1     
   49    3   47 1     
@<TRIPOS>SUBSTRUCTURE
      1 S1             1
@<TRIPOS>SET
LONE_PAIRS      STATIC     ATOMS    <user>   **** ""
2 46 47
DONOR_HYDROGENS      STATIC     ATOMS    <user>   **** ""
5 21 22 28 44 45
ATOM$BLUE        STATIC     ATOMS    COLORGROUP SYSTEM
2 46 47
ATOM$RED        STATIC     ATOMS    COLORGROUP SYSTEM
5 21 22 28 44 45
