AV-unprocessed.smi:1305|AV-procd|sdf|5433|dock9
  -GOLD-   22720 4593D 1   1.00000     0.00000
 Structure written by MMmdl.
 32 33  0  0  0  0  0  0  0  0  1 V2000
  152.2968  143.6903  160.7838 C   0  0  0  0  0  0  0  0  0  0  0  0
  152.3188  144.9575  159.9225 C   0  0  0  0  0  0  0  0  0  0  0  0
  152.9089  144.7109  158.5288 C   0  0  0  0  0  0  0  0  0  0  0  0
  151.6428  144.1138  157.3702 S   0  0  0  0  0  0  0  0  0  0  0  0
  151.6066  142.3963  157.7976 C   0  0  0  0  0  0  0  0  0  0  0  0
  152.3965  141.8273  158.7138 N   0  0  0  0  0  0  0  0  0  0  0  0
  152.0601  140.4933  158.7223 N   0  0  0  0  0  0  0  0  0  0  0  0
  151.0811  140.3704  157.8243 C   0  0  0  0  0  0  0  0  0  0  0  0
  150.4370  139.0641  157.4810 C   0  0  0  0  0  0  0  0  0  0  0  0
  149.5490  138.3481  158.4743 C   0  0  0  0  0  0  0  0  0  0  0  0
  150.8926  137.7691  158.1185 C   0  0  0  0  0  0  0  0  0  0  0  0
  150.7625  141.5252  157.2028 N   0  0  0  0  0  0  0  0  0  0  0  0
  149.7731  141.7626  156.1568 C   0  0  0  0  0  0  0  0  0  0  0  0
  150.1107  141.0158  154.8632 C   0  0  0  0  0  0  0  0  0  0  0  0
  149.2432  141.1071  153.8517 N   0  0  0  0  0  0  0  0  0  0  0  0
  151.1534  140.3718  154.7736 O   0  0  0  0  0  0  0  0  0  0  0  0
  151.8756  143.8965  161.7679 H   0  0  0  0  0  0  0  0  0  0  0  0
  153.3025  143.2952  160.9286 H   0  0  0  0  0  0  0  0  0  0  0  0
  151.6932  142.9097  160.3202 H   0  0  0  0  0  0  0  0  0  0  0  0
  151.3037  145.3441  159.8267 H   0  0  0  0  0  0  0  0  0  0  0  0
  152.8969  145.7288  160.4324 H   0  0  0  0  0  0  0  0  0  0  0  0
  153.3413  145.6336  158.1405 H   0  0  0  0  0  0  0  0  0  0  0  0
  153.7099  143.9734  158.5896 H   0  0  0  0  0  0  0  0  0  0  0  0
  150.1535  139.0391  156.4306 H   0  0  0  0  0  0  0  0  0  0  0  0
  149.4419  138.7819  159.4663 H   0  0  0  0  0  0  0  0  0  0  0  0
  148.6637  137.8496  158.0849 H   0  0  0  0  0  0  0  0  0  0  0  0
  150.9066  136.8797  157.4924 H   0  0  0  0  0  0  0  0  0  0  0  0
  151.6727  137.8182  158.8755 H   0  0  0  0  0  0  0  0  0  0  0  0
  148.7866  141.4615  156.5097 H   0  0  0  0  0  0  0  0  0  0  0  0
  149.7143  142.8339  155.9607 H   0  0  0  0  0  0  0  0  0  0  0  0
  149.4296  140.6294  152.9815 H   0  0  0  0  0  0  0  0  0  0  0  0
  148.4023  141.6551  153.9611 H   0  0  0  0  0  0  0  0  0  0  0  0
  1  2  1  0  0  0  0
  1 17  1  0  0  0  0
  1 18  1  0  0  0  0
  1 19  1  0  0  0  0
  2  3  1  0  0  0  0
  2 20  1  0  0  0  0
  2 21  1  0  0  0  0
  3  4  1  0  0  0  0
  3 22  1  0  0  0  0
  3 23  1  0  0  0  0
  4  5  1  0  0  0  0
  5 12  1  0  0  0  0
  5  6  2  0  0  0  0
  6  7  1  0  0  0  0
  7  8  2  0  0  0  0
  8  9  1  0  0  0  0
  8 12  1  0  0  0  0
  9 11  1  0  0  0  0
  9 10  1  0  0  0  0
  9 24  1  0  0  0  0
 10 11  1  0  0  0  0
 10 25  1  0  0  0  0
 10 26  1  0  0  0  0
 11 27  1  0  0  0  0
 11 28  1  0  0  0  0
 12 13  1  0  0  0  0
 13 14  1  0  0  0  0
 13 29  1  0  0  0  0
 13 30  1  0  0  0  0
 14 15  1  0  0  0  0
 14 16  2  0  0  0  0
 15 31  1  0  0  0  0
 15 32  1  0  0  0  0
M  END
> <s_m_source_file>
AV-unprocessed.smi

> <i_m_source_file_index>
1305

> <i_lp_mmshare_version>
43012

> <i_f3d_flags>
0

> <s_epik_input>
W0NIM11bQ0gyXVtDSDJdU2Mxbm5jKFtDSF0yW0NIMl1bQ0gyXTIpbjFbQ0gyXUMoPU8pW05IMl0=

> <s_epik_cmdline>
J2VwaWtfcHl0aG9uJywgJy1waCcsICc3LjAnLCAnLXRuJywgJzgnLCAnLW1hJywgJzIwMCcsICctbWV0YWxfYmluZGluZycsICctaW1hZScsICc8aW5maWxlLm1hZT4nLCAnLW9tYWUnLCAnPG91dGZpbGUubWFlPic=

> <r_lp_tautomer_probability>
1

> <r_epik_Ionization_Penalty>
4.21319e-06

> <r_epik_Ionization_Penalty_Charging>
0

> <r_epik_Ionization_Penalty_Neutral>
4.21319e-06

> <r_epik_State_Penalty>
-0

> <r_epik_Charging_Adjusted_Penalty>
0

> <i_epik_Tot_Q>
0

> <i_epik_Tot_abs_Q>
0

> <r_epik_Metal_State_Penalty>
-0

> <b_epik_Metal_Only>
0

> <s_lp_Force_Field>
OPLS_2005

> <r_lp_Energy>
5.08374

> <b_lp_Chiralities_Consistent>
1

> <s_lp_Variant>
AV-unprocessed.smi:1305-1

> <Gold.Version>
5.8.1

> <Gold.Id.Protein>
6NUR|6NUR_protein|mol2

> <Gold.PLP.Fitness>
37.8921

> <Gold.PLP.PLP>
-32.4643

> <Gold.PLP.part.hbond>
-2.0000

> <Gold.PLP.part.metal>
0.0000

> <Gold.PLP.part.buried>
-4.4736

> <Gold.PLP.part.nonpolar>
-26.2269

> <Gold.PLP.part.repulsive>
0.2387

> <Gold.PLP.ligand.clash>
0.0000

> <Gold.PLP.ligand.torsion>
0.3602

> <Gold.PLP.Chemscore.Hbond>
2.0000

> <Gold.PLP.Chemscore.CHOScore>
0.0000

> <Gold.PLP.Chemscore.Metal>
0.0000

> <Gold.Chemscore.Hbonds>
donor molecule, donor type, donor heavy atom, donor atom, acceptor molecule, acceptor atom, score
      L1  H    15    31       P1  7957  1.00
      P1  H  7989  7998       L1    16  0.80

> <Gold.PLP.Chemscore.Internal.Correction>
0.1483

> <Gold.Rescore>
     Score         DG    S(hbond)    S(metal)    S(lipo)     H(rot)  DE(clash)    DE(int)     intcor
     12.03     -12.69       1.89        0.00      63.94       2.57       0.00       0.66       ----

> <Gold.Chemscore.Fitness>
12.0260

> <Gold.Chemscore.DG>
-12.6917

> <Gold.Chemscore.ZeroCoef>
-5.4800

> <Gold.Chemscore.Hbond>
1.8884

> <Gold.Chemscore.Metal>
0.0000

> <Gold.Chemscore.Lipo>
63.9445

> <Gold.Chemscore.Internal_Hbond>
0.0000

> <Gold.Chemscore.DEClash>
0.0048

> <Gold.Chemscore.DEInternal>
0.6609

> <Gold.Chemscore.Rot>
2.5691

> <Gold.Chemscore.Internal.Correction>
   9.000000E+99

> <Gold.Chemscore.Hbonds>
donor molecule, donor type, donor heavy atom, donor atom, acceptor molecule, acceptor atom, score
      L1  H    15    31       P1  7957  1.00
      P1  H  7989  7998       L1    16  0.20

> <Gold.Chemscore.Hbond.Weighted>
-6.3072

> <Gold.Chemscore.Metal.Weighted>
-0.0000

> <Gold.Chemscore.Lipo.Weighted>
-7.4815

> <Gold.Chemscore.Internal_Hbond.Weighted>
0.0000

> <Gold.Chemscore.DEClash.Weighted>
0.0048

> <Gold.Chemscore.DEInternal.Weighted>
0.6609

> <Gold.Chemscore.Rot.Weighted>
6.5770

> <Gold.Chemscore.Internal.Correction.Weighted>
   9.000000E+99

> <Gold.Protein.RotatedTorsions>
[ 6907 6896 6895 6894 ] final   42.19 input  -60.11 | X-H torsion
[ 7974 7965 7964 7962 ] final -114.91 input  175.53 | X-H torsion
[ 8008 7997 7996 7995 ] final   31.86 input   59.86 | X-H torsion
[ 10167 10162 10161 10158 ] final  -60.78 input  -65.29 | X-H torsion
[ 10718 10713 10712 10709 ] final   71.87 input   66.30 | X-H torsion
[ 10763 10752 10751 10750 ] final  -26.00 input  -60.55 | X-H torsion
[ 11005 11000 10999 10996 ] final  166.70 input  -57.11 | X-H torsion

> <Gold.Protein.ActiveResidues>
 VAL166  LYS551  ARG553  GLY616  TRP617  ASP618  TYR619  PRO620  LYS621  CYS622 
 ASP623  PHE694  ASN695  SER759  ASP760  ASP761  ALA762  ILE779  LEU786  VAL792 
 PHE793  MET794  SER795  GLU796  ALA797  LYS798  CYS799  TRP800  GLU811  SER814 

> <Gold.Protein.RotatedAtoms>
  152.2047  134.8556  160.0503 H   0  0  0  0  0  0  0  0  0  0  0  0  # atno 6907 bound_to 6896
  151.9397  133.3629  159.3968 H   0  0  0  0  0  0  0  0  0  0  0  0  # atno 6908 bound_to 6896
  150.6962  134.4377  159.5321 H   0  0  0  0  0  0  0  0  0  0  0  0  # atno 6909 bound_to 6896
  145.1146  140.8632  143.3850 H   0  0  0  0  0  0  0  0  0  0  0  0  # atno 7974 bound_to 7965
  155.1133  140.3241  155.4516 H   0  0  0  0  0  0  0  0  0  0  0  0  # atno 8008 bound_to 7997
  156.2684  140.2040  156.6204 H   0  0  0  0  0  0  0  0  0  0  0  0  # atno 8009 bound_to 7997
  154.6739  140.0533  157.0182 H   0  0  0  0  0  0  0  0  0  0  0  0  # atno 8010 bound_to 7997
  140.6049  143.2371  151.5844 H   0  0  0  0  0  0  0  0  0  0  0  0  # atno 10167 bound_to 10162
  157.6473  130.9550  150.0849 H   0  0  0  0  0  0  0  0  0  0  0  0  # atno 10718 bound_to 10713
  153.7090  135.6952  153.5042 H   0  0  0  0  0  0  0  0  0  0  0  0  # atno 10763 bound_to 10752
  153.2287  135.4345  155.0570 H   0  0  0  0  0  0  0  0  0  0  0  0  # atno 10764 bound_to 10752
  154.8321  135.3478  154.6627 H   0  0  0  0  0  0  0  0  0  0  0  0  # atno 10765 bound_to 10752
  140.2691  134.7841  157.3659 H   0  0  0  0  0  0  0  0  0  0  0  0  # atno 11005 bound_to 11000
  145.0808  139.2961  143.5784 LP  0  0  0  0  0  0  0  0  0  0  0  0  # atno 17320 bound_to 7965
  146.3524  140.0314  142.8650 LP  0  0  0  0  0  0  0  0  0  0  0  0  # atno 17321 bound_to 7965
  139.5318  144.2895  152.1163 LP  0  0  0  0  0  0  0  0  0  0  0  0  # atno 17342 bound_to 10162
  140.2083  144.4588  150.6398 LP  0  0  0  0  0  0  0  0  0  0  0  0  # atno 17343 bound_to 10162
  156.1815  130.3650  149.9029 LP  0  0  0  0  0  0  0  0  0  0  0  0  # atno 17370 bound_to 10713
  156.6980  130.8922  151.3596 LP  0  0  0  0  0  0  0  0  0  0  0  0  # atno 17371 bound_to 10713
  140.1390  134.4996  155.8046 LP  0  0  0  0  0  0  0  0  0  0  0  0  # atno 17394 bound_to 11000
  141.2180  133.6818  156.7177 LP  0  0  0  0  0  0  0  0  0  0  0  0  # atno 17395 bound_to 11000

$$$$
