AV-unprocessed.smi:3277|AV-procd|sdf|12538|dock5
  -GOLD-   2272018453D 1   1.00000     0.00000
 Structure written by MMmdl.
 35 37  0  0  0  0  0  0  0  0  1 V2000
  147.0867  140.6883  153.2479 C   0  0  0  0  0  0  0  0  0  0  0  0
  148.4891  140.4358  153.5392 N   0  0  0  0  0  0  0  0  0  0  0  0
  149.0233  140.4775  154.7686 C   0  0  0  0  0  0  0  0  0  0  0  0
  148.3699  140.7268  155.7815 O   0  0  0  0  0  0  0  0  0  0  0  0
  150.5225  140.1930  154.8753 C   0  0  0  0  0  0  0  0  0  0  0  0
  150.9316  140.4076  156.2969 C   0  0  0  0  0  0  0  0  0  0  0  0
  150.6483  141.5151  156.9869 N   0  0  0  0  0  0  0  0  0  0  0  0
  151.1468  141.4895  158.2948 C   0  0  0  0  0  0  0  0  0  0  0  0
  150.9600  142.6556  159.2343 C   0  0  2  0  0  0  0  0  0  0  0  0
  150.2768  143.8964  158.6180 C   0  0  0  0  0  0  0  0  0  0  0  0
  151.2087  145.0420  159.0601 C   0  0  2  0  0  0  0  0  0  0  0  0
  152.5152  144.9808  158.2443 C   0  0  0  0  0  0  0  0  0  0  0  0
  153.2488  143.7762  158.8638 C   0  0  0  0  0  0  0  0  0  0  0  0
  152.2288  143.2511  159.8948 C   0  0  1  0  0  0  0  0  0  0  0  0
  151.6752  144.5682  160.4331 C   0  0  0  0  0  0  0  0  0  0  0  0
  151.8087  140.3221  158.5864 C   0  0  0  0  0  0  0  0  0  0  0  0
  151.8325  139.2232  157.2348 S   0  0  0  0  0  0  0  0  0  0  0  0
  146.9122  140.6219  152.1739 H   0  0  0  0  0  0  0  0  0  0  0  0
  146.7942  141.6854  153.5799 H   0  0  0  0  0  0  0  0  0  0  0  0
  146.4494  139.9547  153.7436 H   0  0  0  0  0  0  0  0  0  0  0  0
  149.0931  140.2237  152.7585 H   0  0  0  0  0  0  0  0  0  0  0  0
  150.7375  139.1657  154.5782 H   0  0  0  0  0  0  0  0  0  0  0  0
  151.0913  140.8550  154.2213 H   0  0  0  0  0  0  0  0  0  0  0  0
  150.3180  142.3171  160.0498 H   0  0  0  0  0  0  0  0  0  0  0  0
  150.1886  143.8526  157.5319 H   0  0  0  0  0  0  0  0  0  0  0  0
  149.2719  144.0224  159.0228 H   0  0  0  0  0  0  0  0  0  0  0  0
  150.7315  146.0222  159.0462 H   0  0  0  0  0  0  0  0  0  0  0  0
  152.3295  144.8493  157.1776 H   0  0  0  0  0  0  0  0  0  0  0  0
  153.1006  145.8922  158.3717 H   0  0  0  0  0  0  0  0  0  0  0  0
  153.5602  143.0358  158.1294 H   0  0  0  0  0  0  0  0  0  0  0  0
  154.1537  144.1124  159.3719 H   0  0  0  0  0  0  0  0  0  0  0  0
  152.6728  142.5999  160.6482 H   0  0  0  0  0  0  0  0  0  0  0  0
  152.4369  145.2118  160.8771 H   0  0  0  0  0  0  0  0  0  0  0  0
  150.8591  144.4397  161.1464 H   0  0  0  0  0  0  0  0  0  0  0  0
  152.2871  140.0442  159.5138 H   0  0  0  0  0  0  0  0  0  0  0  0
  1  2  1  0  0  0  0
  1 18  1  0  0  0  0
  1 19  1  0  0  0  0
  1 20  1  0  0  0  0
  2  3  1  0  0  0  0
  2 21  1  0  0  0  0
  3  4  2  0  0  0  0
  3  5  1  0  0  0  0
  5  6  1  0  0  0  0
  5 22  1  0  0  0  0
  5 23  1  0  0  0  0
  6 17  1  0  0  0  0
  6  7  2  0  0  0  0
  7  8  1  0  0  0  0
  8  9  1  0  0  0  0
  8 16  2  0  0  0  0
  9 14  1  0  0  0  0
  9 10  1  0  0  0  0
  9 24  1  0  0  0  0
 10 11  1  0  0  0  0
 10 25  1  0  0  0  0
 10 26  1  0  0  0  0
 11 15  1  0  0  0  0
 11 12  1  0  0  0  0
 11 27  1  0  0  0  0
 12 13  1  0  0  0  0
 12 28  1  0  0  0  0
 12 29  1  0  0  0  0
 13 14  1  0  0  0  0
 13 30  1  0  0  0  0
 13 31  1  0  0  0  0
 14 15  1  0  0  0  0
 14 32  1  0  0  0  0
 15 33  1  0  0  0  0
 15 34  1  0  0  0  0
 16 17  1  0  0  0  0
 16 35  1  0  0  0  0
M  END
> <s_m_source_file>
AV-unprocessed.smi

> <i_m_source_file_index>
3277

> <i_lp_mmshare_version>
43012

> <i_f3d_flags>
0

> <s_epik_input>
W0NIM11bTkhdQyg9TylbQ0gyXWMxbmMoW2NIXXMxKVtDQEhdKFtDSDJdW0NAQEhdMjMpW0NAQEhdKFtDSDJdMylbQ0gyXVtDSDJdMg==

> <s_epik_cmdline>
J2VwaWtfcHl0aG9uJywgJy1waCcsICc3LjAnLCAnLXRuJywgJzgnLCAnLW1hJywgJzIwMCcsICctbWV0YWxfYmluZGluZycsICctaW1hZScsICc8aW5maWxlLm1hZT4nLCAnLW9tYWUnLCAnPG91dGZpbGUubWFlPic=

> <r_lp_tautomer_probability>
1

> <r_epik_Ionization_Penalty>
8.50008e-05

> <r_epik_Ionization_Penalty_Charging>
0

> <r_epik_Ionization_Penalty_Neutral>
8.50008e-05

> <r_epik_State_Penalty>
-0

> <r_epik_Charging_Adjusted_Penalty>
0

> <i_epik_Tot_Q>
0

> <i_epik_Tot_abs_Q>
0

> <r_epik_Metal_State_Penalty>
-0

> <b_epik_Metal_Only>
0

> <s_lp_Force_Field>
OPLS_2005

> <r_lp_Energy>
46.0194

> <b_lp_Chiralities_Consistent>
1

> <s_lp_Variant>
AV-unprocessed.smi:3277-3

> <Gold.Version>
5.8.1

> <Gold.Id.Protein>
6NUR|6NUR_protein|mol2

> <Gold.PLP.Fitness>
39.9835

> <Gold.PLP.PLP>
-37.2893

> <Gold.PLP.part.hbond>
-1.0000

> <Gold.PLP.part.metal>
0.0000

> <Gold.PLP.part.buried>
-3.3916

> <Gold.PLP.part.nonpolar>
-33.8348

> <Gold.PLP.part.repulsive>
0.2677

> <Gold.PLP.ligand.clash>
0.0000

> <Gold.PLP.ligand.torsion>
0.1553

> <Gold.PLP.Chemscore.Hbond>
1.0000

> <Gold.PLP.Chemscore.CHOScore>
0.0000

> <Gold.PLP.Chemscore.Metal>
0.0000

> <Gold.Chemscore.Hbonds>
donor molecule, donor type, donor heavy atom, donor atom, acceptor molecule, acceptor atom, score
      L1  H     2    21       P1  7957  1.00

> <Gold.PLP.Chemscore.Internal.Correction>
0.0047

> <Gold.Rescore>
     Score         DG    S(hbond)    S(metal)    S(lipo)     H(rot)  DE(clash)    DE(int)     intcor
     17.36     -18.98       0.98        0.00     118.20       1.41       0.10       1.53       ----

> <Gold.Chemscore.Fitness>
17.3567

> <Gold.Chemscore.DG>
-18.9771

> <Gold.Chemscore.ZeroCoef>
-5.4800

> <Gold.Chemscore.Hbond>
0.9827

> <Gold.Chemscore.Metal>
0.0000

> <Gold.Chemscore.Lipo>
118.2046

> <Gold.Chemscore.Internal_Hbond>
0.0000

> <Gold.Chemscore.DEClash>
0.0953

> <Gold.Chemscore.DEInternal>
1.5251

> <Gold.Chemscore.Rot>
1.4122

> <Gold.Chemscore.Internal.Correction>
   9.000000E+99

> <Gold.Chemscore.Hbonds>
donor molecule, donor type, donor heavy atom, donor atom, acceptor molecule, acceptor atom, score
      L1  H     2    21       P1  7957  0.99

> <Gold.Chemscore.Hbond.Weighted>
-3.2823

> <Gold.Chemscore.Metal.Weighted>
-0.0000

> <Gold.Chemscore.Lipo.Weighted>
-13.8299

> <Gold.Chemscore.Internal_Hbond.Weighted>
0.0000

> <Gold.Chemscore.DEClash.Weighted>
0.0953

> <Gold.Chemscore.DEInternal.Weighted>
1.5251

> <Gold.Chemscore.Rot.Weighted>
3.6151

> <Gold.Chemscore.Internal.Correction.Weighted>
   9.000000E+99

> <Gold.Protein.RotatedTorsions>
[ 6907 6896 6895 6894 ] final   12.48 input  -60.11 | X-H torsion
[ 7974 7965 7964 7962 ] final -142.96 input  175.53 | X-H torsion
[ 8008 7997 7996 7995 ] final  109.15 input   59.86 | X-H torsion
[ 10167 10162 10161 10158 ] final  -74.80 input  -65.29 | X-H torsion
[ 10718 10713 10712 10709 ] final  -41.74 input   66.30 | X-H torsion
[ 10763 10752 10751 10750 ] final -163.55 input  -60.55 | X-H torsion
[ 11005 11000 10999 10996 ] final  -19.41 input  -57.11 | X-H torsion

> <Gold.Protein.ActiveResidues>
 VAL166  LYS551  ARG553  GLY616  TRP617  ASP618  TYR619  PRO620  LYS621  CYS622 
 ASP623  PHE694  ASN695  SER759  ASP760  ASP761  ALA762  ILE779  LEU786  VAL792 
 PHE793  MET794  SER795  GLU796  ALA797  LYS798  CYS799  TRP800  GLU811  SER814 

> <Gold.Protein.RotatedAtoms>
  151.7709  135.0786  160.0359 H   0  0  0  0  0  0  0  0  0  0  0  0  # atno 6907 bound_to 6896
  152.3289  133.5931  159.5804 H   0  0  0  0  0  0  0  0  0  0  0  0  # atno 6908 bound_to 6896
  150.7411  133.9814  159.3619 H   0  0  0  0  0  0  0  0  0  0  0  0  # atno 6909 bound_to 6896
  144.8404  140.5894  143.5456 H   0  0  0  0  0  0  0  0  0  0  0  0  # atno 7974 bound_to 7965
  156.1958  140.3063  155.9424 H   0  0  0  0  0  0  0  0  0  0  0  0  # atno 8008 bound_to 7997
  155.3070  140.0449  157.3050 H   0  0  0  0  0  0  0  0  0  0  0  0  # atno 8009 bound_to 7997
  154.5507  140.2290  155.8498 H   0  0  0  0  0  0  0  0  0  0  0  0  # atno 8010 bound_to 7997
  140.4997  143.2363  151.7773 H   0  0  0  0  0  0  0  0  0  0  0  0  # atno 10167 bound_to 10162
  156.2671  130.4203  149.8479 H   0  0  0  0  0  0  0  0  0  0  0  0  # atno 10718 bound_to 10713
  154.7111  135.3006  154.9195 H   0  0  0  0  0  0  0  0  0  0  0  0  # atno 10763 bound_to 10752
  154.0096  135.6696  153.4768 H   0  0  0  0  0  0  0  0  0  0  0  0  # atno 10764 bound_to 10752
  153.0756  135.5036  154.8311 H   0  0  0  0  0  0  0  0  0  0  0  0  # atno 10765 bound_to 10752
  140.8363  133.7959  155.9813 H   0  0  0  0  0  0  0  0  0  0  0  0  # atno 11005 bound_to 11000
  145.4705  139.1504  143.3817 LP  0  0  0  0  0  0  0  0  0  0  0  0  # atno 17320 bound_to 7965
  146.2698  140.4838  142.8819 LP  0  0  0  0  0  0  0  0  0  0  0  0  # atno 17321 bound_to 7965
  139.4869  144.4539  151.9621 LP  0  0  0  0  0  0  0  0  0  0  0  0  # atno 17342 bound_to 10162
  140.3628  144.2952  150.5931 LP  0  0  0  0  0  0  0  0  0  0  0  0  # atno 17343 bound_to 10162
  156.5974  130.8532  151.3423 LP  0  0  0  0  0  0  0  0  0  0  0  0  # atno 17370 bound_to 10713
  157.7271  130.9638  150.1684 LP  0  0  0  0  0  0  0  0  0  0  0  0  # atno 17371 bound_to 10713
  140.8943  134.2456  157.5077 LP  0  0  0  0  0  0  0  0  0  0  0  0  # atno 17394 bound_to 11000
  139.8704  134.9676  156.4604 LP  0  0  0  0  0  0  0  0  0  0  0  0  # atno 17395 bound_to 11000

$$$$
