AV-unprocessed.smi:1088|AV-procd|sdf|4728|dock10
  -GOLD-   22720 3263D 1   1.00000     0.00000
 Structure written by MMmdl.
 48 49  0  0  0  0  0  0  0  0  2 V2000
  143.7248  132.5068  149.9634 C   0  0  0  0  0  0  0  0  0  0  0  0
  143.9361  133.8997  150.1143 O   0  0  0  0  0  0  0  0  0  0  0  0
  145.0346  134.1953  150.9607 C   0  0  0  0  0  0  0  0  0  0  0  0
  144.9139  135.6493  151.4388 C   0  0  0  0  0  0  0  0  0  0  0  0
  145.9158  135.9808  152.4809 N   0  3  2  0  0  0  0  0  0  0  0  0
  146.1077  134.9421  153.5148 C   0  0  0  0  0  0  0  0  0  0  0  0
  146.6928  135.6820  154.7097 C   0  0  0  0  0  0  0  0  0  0  0  0
  145.9658  137.0204  154.6671 C   0  0  0  0  0  0  0  0  0  0  0  0
  145.6786  137.2741  153.1716 C   0  0  1  0  0  0  0  0  0  0  0  0
  146.5437  138.3798  152.5324 C   0  0  0  0  0  0  0  0  0  0  0  0
  146.9813  139.3638  153.5177 N   0  0  0  0  0  0  0  0  0  0  0  0
  147.3561  140.6232  153.2476 C   0  0  0  0  0  0  0  0  0  0  0  0
  147.3173  141.1151  152.1193 O   0  0  0  0  0  0  0  0  0  0  0  0
  147.8535  141.4522  154.4379 C   0  0  0  0  0  0  0  0  0  0  0  0
  149.1092  140.9306  154.9929 N   0  0  0  0  0  0  0  0  0  0  0  0
  149.8141  139.9602  154.3045 C   0  0  0  0  0  0  0  0  0  0  0  0
  150.9726  139.4258  154.7483 C   0  0  0  0  0  0  0  0  0  0  0  0
  151.5562  139.8511  156.0147 C   0  0  0  0  0  0  0  0  0  0  0  0
  152.6211  139.4087  156.4477 O   0  0  0  0  0  0  0  0  0  0  0  0
  150.8064  140.8304  156.7081 N   0  0  0  0  0  0  0  0  0  0  0  0
  151.3308  141.3132  157.9690 C   0  0  0  0  0  0  0  0  0  0  0  0
  149.6060  141.4017  156.2284 C   0  0  0  0  0  0  0  0  0  0  0  0
  149.0040  142.2817  156.8495 O   0  0  0  0  0  0  0  0  0  0  0  0
  142.8721  132.3344  149.3069 H   0  0  0  0  0  0  0  0  0  0  0  0
  143.5114  132.0336  150.9228 H   0  0  0  0  0  0  0  0  0  0  0  0
  144.5948  132.0216  149.5192 H   0  0  0  0  0  0  0  0  0  0  0  0
  145.0185  133.5277  151.8234 H   0  0  0  0  0  0  0  0  0  0  0  0
  145.9801  134.0282  150.4428 H   0  0  0  0  0  0  0  0  0  0  0  0
  145.0516  136.3122  150.5835 H   0  0  0  0  0  0  0  0  0  0  0  0
  143.9105  135.8399  151.8219 H   0  0  0  0  0  0  0  0  0  0  0  0
  145.1454  134.5068  153.7896 H   0  0  0  0  0  0  0  0  0  0  0  0
  146.7576  134.1383  153.1678 H   0  0  0  0  0  0  0  0  0  0  0  0
  146.5516  135.1503  155.6513 H   0  0  0  0  0  0  0  0  0  0  0  0
  147.7630  135.8368  154.5650 H   0  0  0  0  0  0  0  0  0  0  0  0
  145.0213  136.9342  155.2064 H   0  0  0  0  0  0  0  0  0  0  0  0
  146.5396  137.8072  155.1549 H   0  0  0  0  0  0  0  0  0  0  0  0
  144.6273  137.5519  153.0752 H   0  0  0  0  0  0  0  0  0  0  0  0
  147.3914  137.9388  152.0052 H   0  0  0  0  0  0  0  0  0  0  0  0
  145.9623  138.9105  151.7776 H   0  0  0  0  0  0  0  0  0  0  0  0
  147.0386  139.0528  154.4768 H   0  0  0  0  0  0  0  0  0  0  0  0
  147.9856  142.4821  154.1041 H   0  0  0  0  0  0  0  0  0  0  0  0
  147.0920  141.4888  155.2194 H   0  0  0  0  0  0  0  0  0  0  0  0
  149.4216  139.6083  153.3614 H   0  0  0  0  0  0  0  0  0  0  0  0
  151.4753  138.6735  154.1582 H   0  0  0  0  0  0  0  0  0  0  0  0
  150.5079  141.6216  158.6154 H   0  0  0  0  0  0  0  0  0  0  0  0
  151.9918  142.1495  157.7377 H   0  0  0  0  0  0  0  0  0  0  0  0
  151.8669  140.5073  158.4724 H   0  0  0  0  0  0  0  0  0  0  0  0
  146.8067  136.0822  152.0153 H   0  0  0  0  0  0  0  0  0  0  0  0
  1  2  1  0  0  0  0
  1 24  1  0  0  0  0
  1 25  1  0  0  0  0
  1 26  1  0  0  0  0
  2  3  1  0  0  0  0
  3  4  1  0  0  0  0
  3 27  1  0  0  0  0
  3 28  1  0  0  0  0
  4  5  1  0  0  0  0
  4 29  1  0  0  0  0
  4 30  1  0  0  0  0
  5  9  1  0  0  0  0
  5  6  1  0  0  0  0
  5 48  1  0  0  0  0
  6  7  1  0  0  0  0
  6 31  1  0  0  0  0
  6 32  1  0  0  0  0
  7  8  1  0  0  0  0
  7 33  1  0  0  0  0
  7 34  1  0  0  0  0
  8  9  1  0  0  0  0
  8 35  1  0  0  0  0
  8 36  1  0  0  0  0
  9 10  1  0  0  0  0
  9 37  1  0  0  0  0
 10 11  1  0  0  0  0
 10 38  1  0  0  0  0
 10 39  1  0  0  0  0
 11 12  1  0  0  0  0
 11 40  1  0  0  0  0
 12 13  2  0  0  0  0
 12 14  1  0  0  0  0
 14 15  1  0  0  0  0
 14 41  1  0  0  0  0
 14 42  1  0  0  0  0
 15 22  1  0  0  0  0
 15 16  1  0  0  0  0
 16 17  2  0  0  0  0
 16 43  1  0  0  0  0
 17 18  1  0  0  0  0
 17 44  1  0  0  0  0
 18 19  2  0  0  0  0
 18 20  1  0  0  0  0
 20 21  1  0  0  0  0
 20 22  1  0  0  0  0
 21 45  1  0  0  0  0
 21 46  1  0  0  0  0
 21 47  1  0  0  0  0
 22 23  2  0  0  0  0
M  CHG  1   5   1
M  END
> <s_m_source_file>
AV-unprocessed.smi

> <i_m_source_file_index>
1088

> <i_lp_mmshare_version>
43012

> <i_f3d_flags>
0

> <s_epik_input>
W0NIM11PW0NIMl1bQ0gyXU4xW0NIMl1bQ0gyXVtDSDJdW0NASF0xW0NIMl1bTkhdQyg9TylbQ0gyXW4yW2NIXVtjSF1jKD1PKW4oW0NIM10pYzI9Tw==

> <s_epik_cmdline>
J2VwaWtfcHl0aG9uJywgJy1waCcsICc3LjAnLCAnLXRuJywgJzgnLCAnLW1hJywgJzIwMCcsICctbWV0YWxfYmluZGluZycsICctaW1hZScsICc8aW5maWxlLm1hZT4nLCAnLW9tYWUnLCAnPG91dGZpbGUubWFlPic=

> <r_lp_tautomer_probability>
1

> <r_epik_Ionization_Penalty>
0.0127388

> <r_epik_Ionization_Penalty_Charging>
0.0127387

> <r_epik_Ionization_Penalty_Neutral>
8.26414e-08

> <r_epik_State_Penalty>
0.00987716

> <r_epik_Charging_Adjusted_Penalty>
0.0226159

> <i_epik_Tot_Q>
1

> <i_epik_Tot_abs_Q>
1

> <r_epik_Metal_State_Penalty>
0.00987836

> <b_epik_Metal_Only>
0

> <s_lp_Force_Field>
OPLS_2005

> <r_lp_Energy>
37.5103

> <b_lp_Chiralities_Consistent>
1

> <s_lp_Variant>
AV-unprocessed.smi:1088-1

> <Gold.Version>
5.8.1

> <Gold.Id.Protein>
6NUR|6NUR_protein|mol2

> <Gold.PLP.Fitness>
42.2048

> <Gold.PLP.PLP>
-32.0273

> <Gold.PLP.part.hbond>
-2.0000

> <Gold.PLP.part.metal>
0.0000

> <Gold.PLP.part.buried>
0.9812

> <Gold.PLP.part.nonpolar>
-31.4301

> <Gold.PLP.part.repulsive>
1.2914

> <Gold.PLP.ligand.clash>
0.0000

> <Gold.PLP.ligand.torsion>
0.9568

> <Gold.PLP.Chemscore.Hbond>
3.0000

> <Gold.PLP.Chemscore.CHOScore>
1.0000

> <Gold.PLP.Chemscore.Metal>
0.0000

> <Gold.Chemscore.Hbonds>
donor molecule, donor type, donor heavy atom, donor atom, acceptor molecule, acceptor atom, score
      L1  H     5    48       P1  7948  1.50
      P1  H  7997  8008       L1    19  1.00
      L1  C    16    43       P1  7957  1.00

> <Gold.PLP.Chemscore.Internal.Correction>
0.0911

> <Gold.Rescore>
     Score         DG    S(hbond)    S(metal)    S(lipo)     H(rot)  DE(clash)    DE(int)     intcor
     10.57     -11.95       1.99        0.00      54.76       2.57       0.06       1.32       ----

> <Gold.Chemscore.Fitness>
10.5724

> <Gold.Chemscore.DG>
-11.9534

> <Gold.Chemscore.ZeroCoef>
-5.4800

> <Gold.Chemscore.Hbond>
1.9892

> <Gold.Chemscore.Metal>
0.0000

> <Gold.Chemscore.Lipo>
54.7577

> <Gold.Chemscore.Internal_Hbond>
0.0000

> <Gold.Chemscore.DEClash>
0.0605

> <Gold.Chemscore.DEInternal>
1.3206

> <Gold.Chemscore.Rot>
2.5692

> <Gold.Chemscore.Internal.Correction>
   9.000000E+99

> <Gold.Chemscore.Hbonds>
donor molecule, donor type, donor heavy atom, donor atom, acceptor molecule, acceptor atom, score
      L1  H     5    48       P1  7948  0.72
      P1  H  7997  8008       L1    19  1.00

> <Gold.Chemscore.Hbond.Weighted>
-6.6439

> <Gold.Chemscore.Metal.Weighted>
-0.0000

> <Gold.Chemscore.Lipo.Weighted>
-6.4067

> <Gold.Chemscore.Internal_Hbond.Weighted>
0.0000

> <Gold.Chemscore.DEClash.Weighted>
0.0605

> <Gold.Chemscore.DEInternal.Weighted>
1.3206

> <Gold.Chemscore.Rot.Weighted>
6.5772

> <Gold.Chemscore.Internal.Correction.Weighted>
   9.000000E+99

> <Gold.Protein.RotatedTorsions>
[ 6907 6896 6895 6894 ] final  -94.79 input  -60.11 | X-H torsion
[ 7974 7965 7964 7962 ] final  -26.64 input  175.53 | X-H torsion
[ 8008 7997 7996 7995 ] final  -47.27 input   59.86 | X-H torsion
[ 10167 10162 10161 10158 ] final -102.29 input  -65.29 | X-H torsion
[ 10718 10713 10712 10709 ] final   83.76 input   66.30 | X-H torsion
[ 10763 10752 10751 10750 ] final  127.99 input  -60.55 | X-H torsion
[ 11005 11000 10999 10996 ] final   71.10 input  -57.11 | X-H torsion

> <Gold.Protein.ActiveResidues>
 VAL166  LYS551  ARG553  GLY616  TRP617  ASP618  TYR619  PRO620  LYS621  CYS622 
 ASP623  PHE694  ASN695  SER759  ASP760  ASP761  ALA762  ILE779  LEU786  VAL792 
 PHE793  MET794  SER795  GLU796  ALA797  LYS798  CYS799  TRP800  GLU811  SER814 

> <Gold.Protein.RotatedAtoms>
  150.6949  134.1758  159.4229 H   0  0  0  0  0  0  0  0  0  0  0  0  # atno 6907 bound_to 6896
  151.9734  135.0063  160.0563 H   0  0  0  0  0  0  0  0  0  0  0  0  # atno 6908 bound_to 6896
  152.1821  133.4679  159.5000 H   0  0  0  0  0  0  0  0  0  0  0  0  # atno 6909 bound_to 6896
  146.1412  140.5046  142.8651 H   0  0  0  0  0  0  0  0  0  0  0  0  # atno 7974 bound_to 7965
  154.4015  140.1350  156.4148 H   0  0  0  0  0  0  0  0  0  0  0  0  # atno 8008 bound_to 7997
  155.7699  140.3484  155.5221 H   0  0  0  0  0  0  0  0  0  0  0  0  # atno 8009 bound_to 7997
  155.8777  140.0982  157.1497 H   0  0  0  0  0  0  0  0  0  0  0  0  # atno 8010 bound_to 7997
  140.2323  143.3598  152.0876 H   0  0  0  0  0  0  0  0  0  0  0  0  # atno 10167 bound_to 10162
  157.6885  131.0104  150.2571 H   0  0  0  0  0  0  0  0  0  0  0  0  # atno 10718 bound_to 10713
  153.7183  135.3257  155.3261 H   0  0  0  0  0  0  0  0  0  0  0  0  # atno 10763 bound_to 10752
  154.8364  135.4493  154.1243 H   0  0  0  0  0  0  0  0  0  0  0  0  # atno 10764 bound_to 10752
  153.2356  135.6965  153.7920 H   0  0  0  0  0  0  0  0  0  0  0  0  # atno 10765 bound_to 10752
  139.9562  134.7140  156.0748 H   0  0  0  0  0  0  0  0  0  0  0  0  # atno 11005 bound_to 11000
  144.7794  140.5809  143.6616 LP  0  0  0  0  0  0  0  0  0  0  0  0  # atno 17320 bound_to 7965
  145.5043  139.1482  143.3640 LP  0  0  0  0  0  0  0  0  0  0  0  0  # atno 17321 bound_to 7965
  139.5106  144.6886  151.5820 LP  0  0  0  0  0  0  0  0  0  0  0  0  # atno 17342 bound_to 10162
  140.6176  143.9319  150.6500 LP  0  0  0  0  0  0  0  0  0  0  0  0  # atno 17343 bound_to 10162
  156.3157  130.3778  149.7621 LP  0  0  0  0  0  0  0  0  0  0  0  0  # atno 17370 bound_to 10713
  156.5207  130.8213  151.3202 LP  0  0  0  0  0  0  0  0  0  0  0  0  # atno 17371 bound_to 10713
  141.1233  133.6606  156.3272 LP  0  0  0  0  0  0  0  0  0  0  0  0  # atno 17394 bound_to 11000
  140.5605  134.5939  157.5432 LP  0  0  0  0  0  0  0  0  0  0  0  0  # atno 17395 bound_to 11000

$$$$
