AV-unprocessed.smi:2458|AV-procd|sdf|9711|dock3
  -GOLD-   2272013353D 1   1.00000     0.00000
 Structure written by MMmdl.
 47 48  0  0  0  0  0  0  0  0  1 V2000
  150.9650  141.9734  157.6645 C   0  0  0  0  0  0  0  0  0  0  0  0
  150.4286  140.8701  156.7320 C   0  0  0  0  0  0  0  0  0  0  0  0
  151.6079  140.2827  155.9320 C   0  0  0  0  0  0  0  0  0  0  0  0
  149.2685  141.3658  155.8189 C   0  0  1  0  0  0  0  0  0  0  0  0
  149.1747  140.5636  154.4991 C   0  0  0  0  0  0  0  0  0  0  0  0
  148.0422  141.0706  153.5911 C   0  0  0  0  0  0  0  0  0  0  0  0
  146.6623  141.0353  154.2762 C   0  0  1  0  0  0  0  0  0  0  0  0
  146.1045  139.6026  154.3632 C   0  0  0  0  0  0  0  0  0  0  0  0
  145.8576  139.0753  155.4476 O   0  0  0  0  0  0  0  0  0  0  0  0
  145.9159  138.9766  153.1916 N   0  0  0  0  0  0  0  0  0  0  0  0
  145.4692  137.5952  153.0358 C   0  0  0  0  0  0  0  0  0  0  0  0
  145.3583  137.1516  151.5580 C   0  0  1  0  0  0  0  0  0  0  0  0
  146.5160  137.5829  150.8730 O   0  0  0  0  0  0  0  0  0  0  0  0
  145.1207  135.6563  151.3916 C   0  0  0  0  0  0  0  0  0  0  0  0
  144.0140  135.1656  150.6665 C   0  0  0  0  0  0  0  0  0  0  0  0
  143.8586  133.7738  150.5213 C   0  0  0  0  0  0  0  0  0  0  0  0
  144.8190  132.9269  151.1092 C   0  0  0  0  0  0  0  0  0  0  0  0
  145.8817  133.3826  151.8063 N   0  0  0  0  0  0  0  0  0  0  0  0
  146.0213  134.7187  151.9433 C   0  0  0  0  0  0  0  0  0  0  0  0
  146.7281  141.7712  155.6333 C   0  0  0  0  0  0  0  0  0  0  0  0
  147.8964  141.3235  156.5359 C   0  0  0  0  0  0  0  0  0  0  0  0
  149.4717  142.4056  155.5586 H   0  0  0  0  0  0  0  0  0  0  0  0
  145.9666  141.5923  153.6463 H   0  0  0  0  0  0  0  0  0  0  0  0
  151.2815  142.8509  157.0995 H   0  0  0  0  0  0  0  0  0  0  0  0
  151.8247  141.6220  158.2357 H   0  0  0  0  0  0  0  0  0  0  0  0
  150.2209  142.2905  158.3941 H   0  0  0  0  0  0  0  0  0  0  0  0
  150.0414  140.0719  157.3669 H   0  0  0  0  0  0  0  0  0  0  0  0
  151.9826  140.9953  155.1967 H   0  0  0  0  0  0  0  0  0  0  0  0
  151.3328  139.3679  155.4082 H   0  0  0  0  0  0  0  0  0  0  0  0
  152.4375  140.0206  156.5893 H   0  0  0  0  0  0  0  0  0  0  0  0
  150.1024  140.6382  153.9339 H   0  0  0  0  0  0  0  0  0  0  0  0
  149.0342  139.5048  154.7185 H   0  0  0  0  0  0  0  0  0  0  0  0
  148.2627  142.0943  153.2862 H   0  0  0  0  0  0  0  0  0  0  0  0
  148.0238  140.4859  152.6702 H   0  0  0  0  0  0  0  0  0  0  0  0
  146.1374  139.4810  152.3455 H   0  0  0  0  0  0  0  0  0  0  0  0
  146.1165  136.9192  153.5967 H   0  0  0  0  0  0  0  0  0  0  0  0
  144.4870  137.5400  153.5063 H   0  0  0  0  0  0  0  0  0  0  0  0
  144.5164  137.6752  151.1031 H   0  0  0  0  0  0  0  0  0  0  0  0
  147.2340  137.0155  151.1079 H   0  0  0  0  0  0  0  0  0  0  0  0
  143.2994  135.8431  150.2230 H   0  0  0  0  0  0  0  0  0  0  0  0
  143.0242  133.3645  149.9713 H   0  0  0  0  0  0  0  0  0  0  0  0
  144.7312  131.8545  151.0167 H   0  0  0  0  0  0  0  0  0  0  0  0
  146.8858  135.0476  152.5012 H   0  0  0  0  0  0  0  0  0  0  0  0
  146.8288  142.8403  155.4423 H   0  0  0  0  0  0  0  0  0  0  0  0
  145.7857  141.6560  156.1706 H   0  0  0  0  0  0  0  0  0  0  0  0
  147.7158  140.3202  156.9202 H   0  0  0  0  0  0  0  0  0  0  0  0
  147.9025  141.9778  157.4066 H   0  0  0  0  0  0  0  0  0  0  0  0
  1  2  1  0  0  0  0
  1 24  1  0  0  0  0
  1 25  1  0  0  0  0
  1 26  1  0  0  0  0
  2  3  1  0  0  0  0
  2  4  1  0  0  0  0
  2 27  1  0  0  0  0
  3 28  1  0  0  0  0
  3 29  1  0  0  0  0
  3 30  1  0  0  0  0
  4 22  1  0  0  0  0
  4 21  1  0  0  0  0
  4  5  1  0  0  0  0
  5  6  1  0  0  0  0
  5 31  1  0  0  0  0
  5 32  1  0  0  0  0
  6  7  1  0  0  0  0
  6 33  1  0  0  0  0
  6 34  1  0  0  0  0
  7 23  1  0  0  0  0
  7  8  1  0  0  0  0
  7 20  1  0  0  0  0
  8  9  2  0  0  0  0
  8 10  1  0  0  0  0
 10 11  1  0  0  0  0
 10 35  1  0  0  0  0
 11 12  1  0  0  0  0
 11 36  1  0  0  0  0
 11 37  1  0  0  0  0
 12 13  1  0  0  0  0
 12 14  1  0  0  0  0
 12 38  1  0  0  0  0
 13 39  1  0  0  0  0
 14 19  1  0  0  0  0
 14 15  2  0  0  0  0
 15 16  1  0  0  0  0
 15 40  1  0  0  0  0
 16 17  2  0  0  0  0
 16 41  1  0  0  0  0
 17 18  1  0  0  0  0
 17 42  1  0  0  0  0
 18 19  2  0  0  0  0
 19 43  1  0  0  0  0
 20 21  1  0  0  0  0
 20 44  1  0  0  0  0
 20 45  1  0  0  0  0
 21 46  1  0  0  0  0
 21 47  1  0  0  0  0
M  END
> <s_m_source_file>
AV-unprocessed.smi

> <i_m_source_file_index>
2458

> <i_lp_mmshare_version>
43012

> <i_f3d_flags>
0

> <s_epik_input>
W0NIM11bQ0hdKFtDSDNdKVtDQEhdMVtDSDJdW0NIMl1bQ0BASF0oW0NIMl1bQ0gyXTEpQyg9TylbTkhdW0NIMl1bQ0BIXShbT0hdKWMyW2NIXVtjSF1bY0hdbltjSF0y

> <s_epik_cmdline>
J2VwaWtfcHl0aG9uJywgJy1waCcsICc3LjAnLCAnLXRuJywgJzgnLCAnLW1hJywgJzIwMCcsICctbWV0YWxfYmluZGluZycsICctaW1hZScsICc8aW5maWxlLm1hZT4nLCAnLW9tYWUnLCAnPG91dGZpbGUubWFlPic=

> <r_epik_Ionization_Penalty>
0.00169206

> <r_epik_Ionization_Penalty_Charging>
0

> <r_epik_Ionization_Penalty_Neutral>
0.00169206

> <r_epik_State_Penalty>
0.0011427

> <r_epik_Charging_Adjusted_Penalty>
0.0011427

> <i_epik_Tot_Q>
0

> <i_epik_Tot_abs_Q>
0

> <r_epik_Metal_State_Penalty>
-0

> <b_epik_Metal_Only>
0

> <s_lp_Force_Field>
OPLS_2005

> <r_lp_Energy>
12.4203

> <b_lp_Chiralities_Consistent>
1

> <s_lp_Variant>
AV-unprocessed.smi:2458-4

> <Gold.Version>
5.8.1

> <Gold.Id.Protein>
6NUR|6NUR_protein|mol2

> <Gold.PLP.Fitness>
40.0138

> <Gold.PLP.PLP>
-35.4967

> <Gold.PLP.part.hbond>
-3.8197

> <Gold.PLP.part.metal>
0.0000

> <Gold.PLP.part.buried>
-1.7223

> <Gold.PLP.part.nonpolar>
-31.1465

> <Gold.PLP.part.repulsive>
0.1862

> <Gold.PLP.ligand.clash>
0.0000

> <Gold.PLP.ligand.torsion>
0.7993

> <Gold.PLP.Chemscore.Hbond>
1.0000

> <Gold.PLP.Chemscore.CHOScore>
1.0000

> <Gold.PLP.Chemscore.Metal>
0.0000

> <Gold.Chemscore.Hbonds>
donor molecule, donor type, donor heavy atom, donor atom, acceptor molecule, acceptor atom, score
      L1  H    13    39       P1  7948  1.00
      L1  C    19    43       P1  7948  1.00

> <Gold.PLP.Chemscore.Internal.Correction>
0.1156

> <Gold.Rescore>
     Score         DG    S(hbond)    S(metal)    S(lipo)     H(rot)  DE(clash)    DE(int)     intcor
     13.14     -14.06       1.00        0.00      89.90       2.06       0.32       0.60       ----

> <Gold.Chemscore.Fitness>
13.1417

> <Gold.Chemscore.DG>
-14.0577

> <Gold.Chemscore.ZeroCoef>
-5.4800

> <Gold.Chemscore.Hbond>
0.9968

> <Gold.Chemscore.Metal>
0.0000

> <Gold.Chemscore.Lipo>
89.9038

> <Gold.Chemscore.Internal_Hbond>
0.0000

> <Gold.Chemscore.DEClash>
0.3203

> <Gold.Chemscore.DEInternal>
0.5957

> <Gold.Chemscore.Rot>
2.0588

> <Gold.Chemscore.Internal.Correction>
   9.000000E+99

> <Gold.Chemscore.Hbonds>
donor molecule, donor type, donor heavy atom, donor atom, acceptor molecule, acceptor atom, score
      L1  H    13    39       P1  7948  0.97

> <Gold.Chemscore.Hbond.Weighted>
-3.3294

> <Gold.Chemscore.Metal.Weighted>
-0.0000

> <Gold.Chemscore.Lipo.Weighted>
-10.5187

> <Gold.Chemscore.Internal_Hbond.Weighted>
0.0000

> <Gold.Chemscore.DEClash.Weighted>
0.3203

> <Gold.Chemscore.DEInternal.Weighted>
0.5957

> <Gold.Chemscore.Rot.Weighted>
5.2705

> <Gold.Chemscore.Internal.Correction.Weighted>
   9.000000E+99

> <Gold.Protein.RotatedTorsions>
[ 6907 6896 6895 6894 ] final  -34.58 input  -60.11 | X-H torsion
[ 7974 7965 7964 7962 ] final  -27.98 input  175.53 | X-H torsion
[ 8008 7997 7996 7995 ] final  -83.29 input   59.86 | X-H torsion
[ 10167 10162 10161 10158 ] final  -21.87 input  -65.29 | X-H torsion
[ 10718 10713 10712 10709 ] final   -4.60 input   66.30 | X-H torsion
[ 10763 10752 10751 10750 ] final   81.25 input  -60.55 | X-H torsion
[ 11005 11000 10999 10996 ] final  -38.11 input  -57.11 | X-H torsion

> <Gold.Protein.ActiveResidues>
 VAL166  LYS551  ARG553  GLY616  TRP617  ASP618  TYR619  PRO620  LYS621  CYS622 
 ASP623  PHE694  ASN695  SER759  ASP760  ASP761  ALA762  ILE779  LEU786  VAL792 
 PHE793  MET794  SER795  GLU796  ALA797  LYS798  CYS799  TRP800  GLU811  SER814 

> <Gold.Protein.RotatedAtoms>
  151.0508  134.9672  159.8210 H   0  0  0  0  0  0  0  0  0  0  0  0  # atno 6907 bound_to 6896
  152.5380  134.2539  159.8919 H   0  0  0  0  0  0  0  0  0  0  0  0  # atno 6908 bound_to 6896
  151.2555  133.4285  159.2647 H   0  0  0  0  0  0  0  0  0  0  0  0  # atno 6909 bound_to 6896
  146.1320  140.5223  142.8689 H   0  0  0  0  0  0  0  0  0  0  0  0  # atno 7974 bound_to 7965
  154.6175  140.0621  156.9573 H   0  0  0  0  0  0  0  0  0  0  0  0  # atno 8008 bound_to 7997
  155.1871  140.3304  155.4346 H   0  0  0  0  0  0  0  0  0  0  0  0  # atno 8009 bound_to 7997
  156.2413  140.1887  156.6964 H   0  0  0  0  0  0  0  0  0  0  0  0  # atno 8010 bound_to 7997
  140.7284  143.4587  151.0410 H   0  0  0  0  0  0  0  0  0  0  0  0  # atno 10167 bound_to 10162
  156.7590  130.5263  149.5789 H   0  0  0  0  0  0  0  0  0  0  0  0  # atno 10718 bound_to 10713
  153.1101  135.4772  154.9019 H   0  0  0  0  0  0  0  0  0  0  0  0  # atno 10763 bound_to 10752
  154.7471  135.3096  154.8627 H   0  0  0  0  0  0  0  0  0  0  0  0  # atno 10764 bound_to 10752
  153.9218  135.6854  153.4801 H   0  0  0  0  0  0  0  0  0  0  0  0  # atno 10765 bound_to 10752
  141.0003  133.6959  156.2009 H   0  0  0  0  0  0  0  0  0  0  0  0  # atno 11005 bound_to 11000
  144.7700  140.5617  143.6676 LP  0  0  0  0  0  0  0  0  0  0  0  0  # atno 17320 bound_to 7965
  145.5240  139.1476  143.3537 LP  0  0  0  0  0  0  0  0  0  0  0  0  # atno 17321 bound_to 7965
  139.8270  143.7742  152.3179 LP  0  0  0  0  0  0  0  0  0  0  0  0  # atno 17342 bound_to 10162
  139.7845  144.7433  151.0042 LP  0  0  0  0  0  0  0  0  0  0  0  0  # atno 17343 bound_to 10162
  156.1352  130.6206  151.0389 LP  0  0  0  0  0  0  0  0  0  0  0  0  # atno 17370 bound_to 10713
  157.6743  131.0854  150.7533 LP  0  0  0  0  0  0  0  0  0  0  0  0  # atno 17371 bound_to 10713
  140.6900  134.4676  157.5588 LP  0  0  0  0  0  0  0  0  0  0  0  0  # atno 17394 bound_to 11000
  139.9035  134.8501  156.1798 LP  0  0  0  0  0  0  0  0  0  0  0  0  # atno 17395 bound_to 11000

$$$$
