AV-unprocessed.smi:2083|AV-procd|sdf|8491|dock9
  -GOLD-   2272011203D 1   1.00000     0.00000
 Structure written by MMmdl.
 45 46  0  0  0  0  0  0  0  0  2 V2000
  151.1517  140.8556  157.5201 C   0  0  0  0  0  0  0  0  0  0  0  0
  150.7061  139.9312  156.4394 C   0  0  0  0  0  0  0  0  0  0  0  0
  150.1655  138.6763  156.4527 C   0  0  0  0  0  0  0  0  0  0  0  0
  149.9812  138.3930  155.0735 C   0  0  0  0  0  0  0  0  0  0  0  0
  149.4291  137.1563  154.6522 N   0  0  0  0  0  0  0  0  0  0  0  0
  149.0060  136.1435  155.4273 C   0  0  0  0  0  0  0  0  0  0  0  0
  149.0493  136.1257  156.6577 O   0  0  0  0  0  0  0  0  0  0  0  0
  148.5279  135.1304  154.6895 N   0  0  0  0  0  0  0  0  0  0  0  0
  147.9660  133.8905  155.2194 C   0  0  0  0  0  0  0  0  0  0  0  0
  148.4127  132.6442  154.4123 C   0  0  1  0  0  0  0  0  0  0  0  0
  148.6305  131.3935  155.2860 C   0  0  0  0  0  0  0  0  0  0  0  0
  147.5017  132.3285  153.2729 N   0  3  1  0  0  0  0  0  0  0  0  0
  146.3962  131.3809  153.5816 C   0  0  0  0  0  0  0  0  0  0  0  0
  145.6896  130.9379  152.2914 C   0  0  0  0  0  0  0  0  0  0  0  0
  145.1642  132.1517  151.5129 C   0  0  0  0  0  0  0  0  0  0  0  0
  146.3041  133.1475  151.2363 C   0  0  1  0  0  0  0  0  0  0  0  0
  145.7962  134.3874  150.4867 C   0  0  0  0  0  0  0  0  0  0  0  0
  147.0093  133.5333  152.5527 C   0  0  0  0  0  0  0  0  0  0  0  0
  150.3746  139.3844  154.2887 N   0  0  0  0  0  0  0  0  0  0  0  0
  150.8416  140.3753  155.1603 O   0  0  0  0  0  0  0  0  0  0  0  0
  150.9497  140.4314  158.5040 H   0  0  0  0  0  0  0  0  0  0  0  0
  150.6310  141.8107  157.4504 H   0  0  0  0  0  0  0  0  0  0  0  0
  152.2223  141.0469  157.4480 H   0  0  0  0  0  0  0  0  0  0  0  0
  149.9392  138.0632  157.3122 H   0  0  0  0  0  0  0  0  0  0  0  0
  149.3414  137.0344  153.6543 H   0  0  0  0  0  0  0  0  0  0  0  0
  148.5348  135.2325  153.6850 H   0  0  0  0  0  0  0  0  0  0  0  0
  148.2254  133.7874  156.2737 H   0  0  0  0  0  0  0  0  0  0  0  0
  146.8817  133.9938  155.1848 H   0  0  0  0  0  0  0  0  0  0  0  0
  149.3880  132.8690  153.9783 H   0  0  0  0  0  0  0  0  0  0  0  0
  149.4548  131.5364  155.9845 H   0  0  0  0  0  0  0  0  0  0  0  0
  148.8791  130.5252  154.6749 H   0  0  0  0  0  0  0  0  0  0  0  0
  147.7464  131.1470  155.8740 H   0  0  0  0  0  0  0  0  0  0  0  0
  146.7779  130.5010  154.0985 H   0  0  0  0  0  0  0  0  0  0  0  0
  145.6716  131.8528  154.2462 H   0  0  0  0  0  0  0  0  0  0  0  0
  146.3829  130.3718  151.6677 H   0  0  0  0  0  0  0  0  0  0  0  0
  144.8662  130.2640  152.5299 H   0  0  0  0  0  0  0  0  0  0  0  0
  144.7119  131.8243  150.5761 H   0  0  0  0  0  0  0  0  0  0  0  0
  144.3742  132.6392  152.0861 H   0  0  0  0  0  0  0  0  0  0  0  0
  147.0357  132.6534  150.5947 H   0  0  0  0  0  0  0  0  0  0  0  0
  145.0574  134.9326  151.0750 H   0  0  0  0  0  0  0  0  0  0  0  0
  145.3293  134.1106  149.5410 H   0  0  0  0  0  0  0  0  0  0  0  0
  146.6132  135.0733  150.2606 H   0  0  0  0  0  0  0  0  0  0  0  0
  146.3262  134.0938  153.1923 H   0  0  0  0  0  0  0  0  0  0  0  0
  147.8473  134.1942  152.3280 H   0  0  0  0  0  0  0  0  0  0  0  0
  148.0878  131.8494  152.6041 H   0  0  0  0  0  0  0  0  0  0  0  0
  1  2  1  0  0  0  0
  1 21  1  0  0  0  0
  1 22  1  0  0  0  0
  1 23  1  0  0  0  0
  2 20  1  0  0  0  0
  2  3  2  0  0  0  0
  3  4  1  0  0  0  0
  3 24  1  0  0  0  0
  4  5  1  0  0  0  0
  4 19  2  0  0  0  0
  5  6  1  0  0  0  0
  5 25  1  0  0  0  0
  6  7  2  0  0  0  0
  6  8  1  0  0  0  0
  8  9  1  0  0  0  0
  8 26  1  0  0  0  0
  9 10  1  0  0  0  0
  9 27  1  0  0  0  0
  9 28  1  0  0  0  0
 10 11  1  0  0  0  0
 10 12  1  0  0  0  0
 10 29  1  0  0  0  0
 11 30  1  0  0  0  0
 11 31  1  0  0  0  0
 11 32  1  0  0  0  0
 12 18  1  0  0  0  0
 12 13  1  0  0  0  0
 12 45  1  0  0  0  0
 13 14  1  0  0  0  0
 13 33  1  0  0  0  0
 13 34  1  0  0  0  0
 14 15  1  0  0  0  0
 14 35  1  0  0  0  0
 14 36  1  0  0  0  0
 15 16  1  0  0  0  0
 15 37  1  0  0  0  0
 15 38  1  0  0  0  0
 16 17  1  0  0  0  0
 16 18  1  0  0  0  0
 16 39  1  0  0  0  0
 17 40  1  0  0  0  0
 17 41  1  0  0  0  0
 17 42  1  0  0  0  0
 18 43  1  0  0  0  0
 18 44  1  0  0  0  0
 19 20  1  0  0  0  0
M  CHG  1  12   1
M  END
> <s_m_source_file>
AV-unprocessed.smi

> <i_m_source_file_index>
2083

> <i_lp_mmshare_version>
43012

> <i_f3d_flags>
0

> <s_epik_input>
W0NIM11jMVtjSF1jKG5vMSlbTkhdQyg9TylbTkhdW0NIMl1bQ0BIXShbQ0gzXSlOMltDSDJdW0NIMl1bQ0gyXVtDQEBIXShbQ0gzXSlbQ0gyXTI=

> <s_epik_cmdline>
J2VwaWtfcHl0aG9uJywgJy1waCcsICc3LjAnLCAnLXRuJywgJzgnLCAnLW1hJywgJzIwMCcsICctbWV0YWxfYmluZGluZycsICctaW1hZScsICc8aW5maWxlLm1hZT4nLCAnLW9tYWUnLCAnPG91dGZpbGUubWFlPic=

> <r_epik_Ionization_Penalty>
0.00216453

> <r_epik_Ionization_Penalty_Charging>
0.00212879

> <r_epik_Ionization_Penalty_Neutral>
3.57418e-05

> <r_epik_State_Penalty>
0.00146033

> <r_epik_Charging_Adjusted_Penalty>
0.00358912

> <i_epik_Tot_Q>
1

> <i_epik_Tot_abs_Q>
1

> <r_epik_Metal_State_Penalty>
0.0215827

> <b_epik_Metal_Only>
0

> <s_lp_Force_Field>
OPLS_2005

> <r_lp_Energy>
17.3533

> <b_lp_Chiralities_Consistent>
1

> <s_lp_Variant>
AV-unprocessed.smi:2083-2

> <Gold.Version>
5.8.1

> <Gold.Id.Protein>
6NUR|6NUR_protein|mol2

> <Gold.PLP.Fitness>
41.3445

> <Gold.PLP.PLP>
-34.2634

> <Gold.PLP.part.hbond>
-5.3447

> <Gold.PLP.part.metal>
0.0000

> <Gold.PLP.part.buried>
-3.2322

> <Gold.PLP.part.nonpolar>
-24.1417

> <Gold.PLP.part.repulsive>
0.3240

> <Gold.PLP.ligand.clash>
0.0000

> <Gold.PLP.ligand.torsion>
1.0145

> <Gold.PLP.Chemscore.Hbond>
3.0000

> <Gold.PLP.Chemscore.CHOScore>
0.0000

> <Gold.PLP.Chemscore.Metal>
0.0000

> <Gold.Chemscore.Hbonds>
donor molecule, donor type, donor heavy atom, donor atom, acceptor molecule, acceptor atom, score
      L1  H     5    25       P1  7948  1.00
      L1  H     8    26       P1  7948  0.83

> <Gold.PLP.Chemscore.Internal.Correction>
0.1101

> <Gold.Rescore>
     Score         DG    S(hbond)    S(metal)    S(lipo)     H(rot)  DE(clash)    DE(int)     intcor
     14.78     -18.20       2.53        0.00      70.40       1.55       0.04       3.38       ----

> <Gold.Chemscore.Fitness>
14.7769

> <Gold.Chemscore.DG>
-18.1960

> <Gold.Chemscore.ZeroCoef>
-5.4800

> <Gold.Chemscore.Hbond>
2.5270

> <Gold.Chemscore.Metal>
0.0000

> <Gold.Chemscore.Lipo>
70.4034

> <Gold.Chemscore.Internal_Hbond>
0.0000

> <Gold.Chemscore.DEClash>
0.0392

> <Gold.Chemscore.DEInternal>
3.3799

> <Gold.Chemscore.Rot>
1.5474

> <Gold.Chemscore.Internal.Correction>
   9.000000E+99

> <Gold.Chemscore.Hbonds>
donor molecule, donor type, donor heavy atom, donor atom, acceptor molecule, acceptor atom, score
      L1  H     5    25       P1  7948  0.95
      L1  H     8    26       P1  7948  0.76

> <Gold.Chemscore.Hbond.Weighted>
-8.4401

> <Gold.Chemscore.Metal.Weighted>
-0.0000

> <Gold.Chemscore.Lipo.Weighted>
-8.2372

> <Gold.Chemscore.Internal_Hbond.Weighted>
0.0000

> <Gold.Chemscore.DEClash.Weighted>
0.0392

> <Gold.Chemscore.DEInternal.Weighted>
3.3799

> <Gold.Chemscore.Rot.Weighted>
3.9612

> <Gold.Chemscore.Internal.Correction.Weighted>
   9.000000E+99

> <Gold.Protein.RotatedTorsions>
[ 6907 6896 6895 6894 ] final   29.71 input  -60.11 | X-H torsion
[ 7974 7965 7964 7962 ] final   50.25 input  175.53 | X-H torsion
[ 8008 7997 7996 7995 ] final   27.91 input   59.86 | X-H torsion
[ 10167 10162 10161 10158 ] final   32.98 input  -65.29 | X-H torsion
[ 10718 10713 10712 10709 ] final  -14.30 input   66.30 | X-H torsion
[ 10763 10752 10751 10750 ] final  -19.04 input  -60.55 | X-H torsion
[ 11005 11000 10999 10996 ] final  157.35 input  -57.11 | X-H torsion

> <Gold.Protein.ActiveResidues>
 VAL166  LYS551  ARG553  GLY616  TRP617  ASP618  TYR619  PRO620  LYS621  CYS622 
 ASP623  PHE694  ASN695  SER759  ASP760  ASP761  ALA762  ILE779  LEU786  VAL792 
 PHE793  MET794  SER795  GLU796  ALA797  LYS798  CYS799  TRP800  GLU811  SER814 

> <Gold.Protein.RotatedAtoms>
  152.0354  134.9743  160.0572 H   0  0  0  0  0  0  0  0  0  0  0  0  # atno 6907 bound_to 6896
  152.1203  133.4345  159.4680 H   0  0  0  0  0  0  0  0  0  0  0  0  # atno 6908 bound_to 6896
  150.6848  134.2462  159.4535 H   0  0  0  0  0  0  0  0  0  0  0  0  # atno 6909 bound_to 6896
  146.0031  139.4460  143.0003 H   0  0  0  0  0  0  0  0  0  0  0  0  # atno 7974 bound_to 7965
  155.0503  140.3179  155.4694 H   0  0  0  0  0  0  0  0  0  0  0  0  # atno 8008 bound_to 7997
  156.2836  140.2147  156.5573 H   0  0  0  0  0  0  0  0  0  0  0  0  # atno 8009 bound_to 7997
  154.7216  140.0489  157.0632 H   0  0  0  0  0  0  0  0  0  0  0  0  # atno 8010 bound_to 7997
  140.4449  144.1133  150.6180 H   0  0  0  0  0  0  0  0  0  0  0  0  # atno 10167 bound_to 10162
  156.6179  130.4867  149.6176 H   0  0  0  0  0  0  0  0  0  0  0  0  # atno 10718 bound_to 10713
  153.5986  135.7000  153.5393 H   0  0  0  0  0  0  0  0  0  0  0  0  # atno 10763 bound_to 10752
  153.3116  135.4099  155.1340 H   0  0  0  0  0  0  0  0  0  0  0  0  # atno 10764 bound_to 10752
  154.8587  135.3673  154.5521 H   0  0  0  0  0  0  0  0  0  0  0  0  # atno 10765 bound_to 10752
  140.1762  134.8508  157.2748 H   0  0  0  0  0  0  0  0  0  0  0  0  # atno 11005 bound_to 11000
  145.7458  140.9991  143.1277 LP  0  0  0  0  0  0  0  0  0  0  0  0  # atno 17320 bound_to 7965
  144.6926  139.9154  143.7465 LP  0  0  0  0  0  0  0  0  0  0  0  0  # atno 17321 bound_to 7965
  140.4275  143.2583  151.9637 LP  0  0  0  0  0  0  0  0  0  0  0  0  # atno 17342 bound_to 10162
  139.4792  144.5774  151.7989 LP  0  0  0  0  0  0  0  0  0  0  0  0  # atno 17343 bound_to 10162
  156.2336  130.6809  151.1487 LP  0  0  0  0  0  0  0  0  0  0  0  0  # atno 17370 bound_to 10713
  157.7236  131.0665  150.6030 LP  0  0  0  0  0  0  0  0  0  0  0  0  # atno 17371 bound_to 10713
  140.2320  134.3897  155.7517 LP  0  0  0  0  0  0  0  0  0  0  0  0  # atno 17394 bound_to 11000
  141.2220  133.7220  156.8656 LP  0  0  0  0  0  0  0  0  0  0  0  0  # atno 17395 bound_to 11000

$$$$
