AV-unprocessed.smi:1207|AV-procd|sdf|5057|dock3
  -GOLD-   22720 4 93D 1   1.00000     0.00000
 Structure written by MMmdl.
 53 55  0  0  0  0  0  0  0  0  3 V2000
  146.1730  130.3777  151.5091 C   0  0  0  0  0  0  0  0  0  0  0  0
  145.9417  131.8497  151.8066 C   0  0  0  0  0  0  0  0  0  0  0  0
  144.7929  132.4738  151.2698 C   0  0  0  0  0  0  0  0  0  0  0  0
  144.6087  133.8206  151.5594 C   0  0  0  0  0  0  0  0  0  0  0  0
  143.5966  134.7080  151.1862 N   0  3  0  0  0  0  0  0  0  0  0  0
  143.8508  135.9370  151.7153 C   0  0  0  0  0  0  0  0  0  0  0  0
  145.0081  135.8455  152.4262 N   0  0  0  0  0  0  0  0  0  0  0  0
  145.7337  136.8707  153.1882 C   0  0  0  0  0  0  0  0  0  0  0  0
  146.1904  138.0571  152.3163 C   0  0  2  0  0  0  0  0  0  0  0  0
  147.0096  137.5748  151.2689 O   0  0  0  0  0  0  0  0  0  0  0  0
  146.9899  139.0909  153.1348 C   0  0  0  0  0  0  0  0  0  0  0  0
  146.1176  139.9749  153.9530 N   0  3  1  0  0  0  0  0  0  0  0  0
  145.6291  139.3124  155.1883 C   0  0  0  0  0  0  0  0  0  0  0  0
  146.7464  141.2950  154.2198 C   0  0  0  0  0  0  0  0  0  0  0  0
  147.7237  141.2317  155.3660 C   0  0  0  0  0  0  0  0  0  0  0  0
  149.0063  140.6109  155.4031 C   0  0  0  0  0  0  0  0  0  0  0  0
  149.7197  139.8594  154.3156 C   0  0  0  0  0  0  0  0  0  0  0  0
  149.5906  140.7574  156.5800 N   0  0  0  0  0  0  0  0  0  0  0  0
  148.6985  141.4958  157.3631 O   0  0  0  0  0  0  0  0  0  0  0  0
  147.5975  141.7676  156.6182 C   0  0  0  0  0  0  0  0  0  0  0  0
  146.5198  142.5587  157.2793 C   0  0  0  0  0  0  0  0  0  0  0  0
  145.5192  134.5451  152.3527 C   0  0  0  0  0  0  0  0  0  0  0  0
  146.6570  133.9467  152.8883 C   0  0  0  0  0  0  0  0  0  0  0  0
  146.8620  132.5772  152.6054 C   0  0  0  0  0  0  0  0  0  0  0  0
  148.0938  131.8958  153.1767 C   0  0  0  0  0  0  0  0  0  0  0  0
  145.3852  129.9703  150.8748 H   0  0  0  0  0  0  0  0  0  0  0  0
  146.1903  129.7981  152.4323 H   0  0  0  0  0  0  0  0  0  0  0  0
  147.1226  130.2352  150.9925 H   0  0  0  0  0  0  0  0  0  0  0  0
  144.0891  131.9265  150.6596 H   0  0  0  0  0  0  0  0  0  0  0  0
  143.2436  136.8226  151.5937 H   0  0  0  0  0  0  0  0  0  0  0  0
  145.0929  137.2086  154.0037 H   0  0  0  0  0  0  0  0  0  0  0  0
  146.5940  136.3858  153.6522 H   0  0  0  0  0  0  0  0  0  0  0  0
  145.3111  138.5193  151.8707 H   0  0  0  0  0  0  0  0  0  0  0  0
  147.4002  136.7592  151.5445 H   0  0  0  0  0  0  0  0  0  0  0  0
  147.7062  138.5915  153.7888 H   0  0  0  0  0  0  0  0  0  0  0  0
  147.5830  139.6857  152.4384 H   0  0  0  0  0  0  0  0  0  0  0  0
  146.4538  139.1087  155.8721 H   0  0  0  0  0  0  0  0  0  0  0  0
  145.1320  138.3685  154.9708 H   0  0  0  0  0  0  0  0  0  0  0  0
  144.9016  139.9338  155.7100 H   0  0  0  0  0  0  0  0  0  0  0  0
  147.2209  141.6579  153.3072 H   0  0  0  0  0  0  0  0  0  0  0  0
  145.9688  142.0217  154.4575 H   0  0  0  0  0  0  0  0  0  0  0  0
  149.0169  139.3315  153.6716 H   0  0  0  0  0  0  0  0  0  0  0  0
  150.4068  139.1185  154.7256 H   0  0  0  0  0  0  0  0  0  0  0  0
  150.2986  140.5381  153.6891 H   0  0  0  0  0  0  0  0  0  0  0  0
  145.5351  142.2224  156.9543 H   0  0  0  0  0  0  0  0  0  0  0  0
  146.6142  143.6166  157.0341 H   0  0  0  0  0  0  0  0  0  0  0  0
  146.5682  142.4570  158.3637 H   0  0  0  0  0  0  0  0  0  0  0  0
  147.3585  134.5003  153.4943 H   0  0  0  0  0  0  0  0  0  0  0  0
  148.7015  132.5901  153.7581 H   0  0  0  0  0  0  0  0  0  0  0  0
  148.7177  131.4985  152.3759 H   0  0  0  0  0  0  0  0  0  0  0  0
  147.8070  131.0739  153.8334 H   0  0  0  0  0  0  0  0  0  0  0  0
  145.3085  140.1670  153.3793 H   0  0  0  0  0  0  0  0  0  0  0  0
  142.7926  134.4941  150.6098 H   0  0  0  0  0  0  0  0  0  0  0  0
  1  2  1  0  0  0  0
  1 26  1  0  0  0  0
  1 27  1  0  0  0  0
  1 28  1  0  0  0  0
  2 24  1  0  0  0  0
  2  3  2  0  0  0  0
  3  4  1  0  0  0  0
  3 29  1  0  0  0  0
  4 22  2  0  0  0  0
  4  5  1  0  0  0  0
  5  6  2  0  0  0  0
  5 53  1  0  0  0  0
  6  7  1  0  0  0  0
  6 30  1  0  0  0  0
  7  8  1  0  0  0  0
  7 22  1  0  0  0  0
  8  9  1  0  0  0  0
  8 31  1  0  0  0  0
  8 32  1  0  0  0  0
  9 10  1  0  0  0  0
  9 11  1  0  0  0  0
  9 33  1  0  0  0  0
 10 34  1  0  0  0  0
 11 12  1  0  0  0  0
 11 35  1  0  0  0  0
 11 36  1  0  0  0  0
 12 13  1  0  0  0  0
 12 14  1  0  0  0  0
 12 52  1  0  0  0  0
 13 37  1  0  0  0  0
 13 38  1  0  0  0  0
 13 39  1  0  0  0  0
 14 15  1  0  0  0  0
 14 40  1  0  0  0  0
 14 41  1  0  0  0  0
 15 20  2  0  0  0  0
 15 16  1  0  0  0  0
 16 17  1  0  0  0  0
 16 18  2  0  0  0  0
 17 42  1  0  0  0  0
 17 43  1  0  0  0  0
 17 44  1  0  0  0  0
 18 19  1  0  0  0  0
 19 20  1  0  0  0  0
 20 21  1  0  0  0  0
 21 45  1  0  0  0  0
 21 46  1  0  0  0  0
 21 47  1  0  0  0  0
 22 23  1  0  0  0  0
 23 24  2  0  0  0  0
 23 48  1  0  0  0  0
 24 25  1  0  0  0  0
 25 49  1  0  0  0  0
 25 50  1  0  0  0  0
 25 51  1  0  0  0  0
M  CHG  1   5   1
M  CHG  1  12   1
M  END
> <s_m_source_file>
AV-unprocessed.smi

> <i_m_source_file_index>
1207

> <i_lp_mmshare_version>
43012

> <i_f3d_flags>
0

> <s_epik_input>
W0NIM11jKFtjSF0xKWMoW0NIM10pW2NIXWMoYzEyKW4oW2NIXW4yKVtDSDJdW0NASF0oW09IXSlbQ0gyXU4oW0NIM10pW0NIMl1jM2MoW0NIM10pbm9jM1tDSDNd

> <s_epik_cmdline>
J2VwaWtfcHl0aG9uJywgJy1waCcsICc3LjAnLCAnLXRuJywgJzgnLCAnLW1hJywgJzIwMCcsICctbWV0YWxfYmluZGluZycsICctaW1hZScsICc8aW5maWxlLm1hZT4nLCAnLW9tYWUnLCAnPG91dGZpbGUubWFlPic=

> <r_epik_Ionization_Penalty>
1.77463

> <r_epik_Ionization_Penalty_Charging>
1.77463

> <r_epik_Ionization_Penalty_Neutral>
3.70885e-06

> <r_epik_State_Penalty>
1.85225

> <r_epik_Charging_Adjusted_Penalty>
3.62688

> <i_epik_Tot_Q>
2

> <i_epik_Tot_abs_Q>
2

> <r_epik_Metal_State_Penalty>
1.92674

> <b_epik_Metal_Only>
0

> <s_lp_Force_Field>
OPLS_2005

> <r_lp_Energy>
17.578

> <b_lp_Chiralities_Consistent>
1

> <s_lp_Variant>
AV-unprocessed.smi:1207-9

> <Gold.Version>
5.8.1

> <Gold.Id.Protein>
6NUR|6NUR_protein|mol2

> <Gold.PLP.Fitness>
55.8122

> <Gold.PLP.PLP>
-37.7067

> <Gold.PLP.part.hbond>
-3.4511

> <Gold.PLP.part.metal>
0.0000

> <Gold.PLP.part.buried>
-5.4297

> <Gold.PLP.part.nonpolar>
-30.6211

> <Gold.PLP.part.repulsive>
0.1517

> <Gold.PLP.ligand.clash>
0.0000

> <Gold.PLP.ligand.torsion>
0.6568

> <Gold.PLP.Chemscore.Hbond>
5.5720

> <Gold.PLP.Chemscore.CHOScore>
0.8603

> <Gold.PLP.Chemscore.Metal>
0.0000

> <Gold.Chemscore.Hbonds>
donor molecule, donor type, donor heavy atom, donor atom, acceptor molecule, acceptor atom, score
      L1  H     5    53       P1 10186  1.82
      L1  H    10    34       P1  7948  0.70
      L1  H    12    52       P1 10175  2.00
      P1  H  7954  7966       L1    10  0.75
      L1  C     6    30       P1 10171  0.74

> <Gold.PLP.Chemscore.Internal.Correction>
0.1221

> <Gold.Rescore>
     Score         DG    S(hbond)    S(metal)    S(lipo)     H(rot)  DE(clash)    DE(int)     intcor
     18.76     -20.13       2.78        0.00     101.29       2.54       0.62       0.75       ----

> <Gold.Chemscore.Fitness>
18.7637

> <Gold.Chemscore.DG>
-20.1267

> <Gold.Chemscore.ZeroCoef>
-5.4800

> <Gold.Chemscore.Hbond>
2.7802

> <Gold.Chemscore.Metal>
0.0000

> <Gold.Chemscore.Lipo>
101.2885

> <Gold.Chemscore.Internal_Hbond>
0.0000

> <Gold.Chemscore.DEClash>
0.6167

> <Gold.Chemscore.DEInternal>
0.7463

> <Gold.Chemscore.Rot>
2.5351

> <Gold.Chemscore.Internal.Correction>
   9.000000E+99

> <Gold.Chemscore.Hbonds>
donor molecule, donor type, donor heavy atom, donor atom, acceptor molecule, acceptor atom, score
      L1  H     5    53       P1 10186  0.35
      L1  H    10    34       P1  7948  0.70
      L1  H    12    52       P1 10175  1.00
      P1  H  7954  7966       L1    10  0.09

> <Gold.Chemscore.Hbond.Weighted>
-9.2860

> <Gold.Chemscore.Metal.Weighted>
-0.0000

> <Gold.Chemscore.Lipo.Weighted>
-11.8508

> <Gold.Chemscore.Internal_Hbond.Weighted>
0.0000

> <Gold.Chemscore.DEClash.Weighted>
0.6167

> <Gold.Chemscore.DEInternal.Weighted>
0.7463

> <Gold.Chemscore.Rot.Weighted>
6.4900

> <Gold.Chemscore.Internal.Correction.Weighted>
   9.000000E+99

> <Gold.Protein.RotatedTorsions>
[ 6907 6896 6895 6894 ] final -173.52 input  -60.11 | X-H torsion
[ 7974 7965 7964 7962 ] final -172.07 input  175.53 | X-H torsion
[ 8008 7997 7996 7995 ] final   94.02 input   59.86 | X-H torsion
[ 10167 10162 10161 10158 ] final -139.95 input  -65.29 | X-H torsion
[ 10718 10713 10712 10709 ] final  115.71 input   66.30 | X-H torsion
[ 10763 10752 10751 10750 ] final  -24.83 input  -60.55 | X-H torsion
[ 11005 11000 10999 10996 ] final -138.62 input  -57.11 | X-H torsion

> <Gold.Protein.ActiveResidues>
 VAL166  LYS551  ARG553  GLY616  TRP617  ASP618  TYR619  PRO620  LYS621  CYS622 
 ASP623  PHE694  ASN695  SER759  ASP760  ASP761  ALA762  ILE779  LEU786  VAL792 
 PHE793  MET794  SER795  GLU796  ALA797  LYS798  CYS799  TRP800  GLU811  SER814 

> <Gold.Protein.RotatedAtoms>
  151.5574  133.3408  159.2964 H   0  0  0  0  0  0  0  0  0  0  0  0  # atno 6907 bound_to 6896
  150.8443  134.7748  159.6968 H   0  0  0  0  0  0  0  0  0  0  0  0  # atno 6908 bound_to 6896
  152.4504  134.5414  159.9892 H   0  0  0  0  0  0  0  0  0  0  0  0  # atno 6909 bound_to 6896
  144.7150  140.1827  143.6356 H   0  0  0  0  0  0  0  0  0  0  0  0  # atno 7974 bound_to 7965
  156.0533  140.3305  155.7376 H   0  0  0  0  0  0  0  0  0  0  0  0  # atno 8008 bound_to 7997
  155.5568  140.0615  157.2855 H   0  0  0  0  0  0  0  0  0  0  0  0  # atno 8009 bound_to 7997
  154.4446  140.1884  156.0730 H   0  0  0  0  0  0  0  0  0  0  0  0  # atno 8010 bound_to 7997
  139.8329  143.7423  152.2665 H   0  0  0  0  0  0  0  0  0  0  0  0  # atno 10167 bound_to 10162
  157.6205  131.1016  150.7369 H   0  0  0  0  0  0  0  0  0  0  0  0  # atno 10718 bound_to 10713
  153.6901  135.6962  153.5092 H   0  0  0  0  0  0  0  0  0  0  0  0  # atno 10763 bound_to 10752
  153.2419  135.4303  155.0706 H   0  0  0  0  0  0  0  0  0  0  0  0  # atno 10764 bound_to 10752
  154.8375  135.3510  154.6443 H   0  0  0  0  0  0  0  0  0  0  0  0  # atno 10765 bound_to 10752
  140.8599  134.2182  157.4713 H   0  0  0  0  0  0  0  0  0  0  0  0  # atno 11005 bound_to 11000
  145.8841  139.2339  143.1588 LP  0  0  0  0  0  0  0  0  0  0  0  0  # atno 17320 bound_to 7965
  145.9966  140.8556  143.0039 LP  0  0  0  0  0  0  0  0  0  0  0  0  # atno 17321 bound_to 7965
  139.7636  144.7499  151.0327 LP  0  0  0  0  0  0  0  0  0  0  0  0  # atno 17342 bound_to 10162
  140.7805  143.4723  151.0129 LP  0  0  0  0  0  0  0  0  0  0  0  0  # atno 17343 bound_to 10162
  156.7728  130.4834  149.5415 LP  0  0  0  0  0  0  0  0  0  0  0  0  # atno 17370 bound_to 10713
  156.1348  130.6203  151.0385 LP  0  0  0  0  0  0  0  0  0  0  0  0  # atno 17371 bound_to 10713
  139.8706  134.9724  156.4772 LP  0  0  0  0  0  0  0  0  0  0  0  0  # atno 17394 bound_to 11000
  140.8695  133.7999  155.9349 LP  0  0  0  0  0  0  0  0  0  0  0  0  # atno 17395 bound_to 11000

$$$$
