#       Name:                AV-unprocessed.smi:2527
#       Creating user name   scv26
#       Creation time:       Fri Mar 27 13:58:38 2020


#       File generated by GOLD software.
#

@<TRIPOS>MOLECULE
AV-unprocessed.smi:2527
    42    44     1
SMALL
NO_CHARGES


@<TRIPOS>ATOM
      1 ****        -2.1000   3.5763   1.7163 C.3            1 S1                 0.0000
      2 ****        -1.7187   2.2370   1.9749 O.3            1 S1                 0.0000
      3 ****        -2.4220   1.3053   1.1694 C.3            1 S1                 0.0000
      4 ****        -1.9493  -0.1207   1.4858 C.3            1 S1                 0.0000
      5 ****        -0.5100  -0.2987   1.2426 N.pl3          1 S1                 0.0000
      6 ****         0.1520  -0.6529   0.1060 C.2            1 S1                 0.0000
      7 ****        -0.5833  -1.0103  -1.4581 S.3            1 S1                 0.0000
      8 ****         0.7888  -1.4126  -2.5730 C.3            1 S1                 0.0000
      9 ****         0.3535  -1.8032  -3.9693 C.2            1 S1                 0.0000
     10 ****         0.6327  -0.9319  -4.9916 N.am           1 S1                 0.0000
     11 ****         0.1610  -1.4961  -6.0969 C.2            1 S1                 0.0000
     12 ****         0.1997  -1.0543  -7.2427 O.2            1 S1                 0.0000
     13 ****        -0.3651  -2.6544  -5.6810 N.am           1 S1                 0.0000
     14 ****        -0.2554  -2.8721  -4.3467 N.2            1 S1                 0.0000
     15 ****         1.4830  -0.6781   0.3938 N.pl3          1 S1                 1.0000
     16 ****         1.6774  -0.3289   1.7314 C.ar           1 S1                 0.0000
     17 ****         2.8435  -0.2113   2.4815 C.ar           1 S1                 0.0000
     18 ****         2.6950   0.1736   3.8304 C.ar           1 S1                 0.0000
     19 ****         4.0974   0.3415   4.8207 Cl             1 S1                 0.0000
     20 ****         1.4222   0.4249   4.3834 C.ar           1 S1                 0.0000
     21 ****         0.2463   0.3004   3.6149 C.ar           1 S1                 0.0000
     22 ****         0.4022  -0.0816   2.2826 C.ar           1 S1                 0.0000
     23 ****        -0.8171  -3.3488  -6.2586 H              1 S1                 0.0000
     24 ****         1.1015  -0.0419  -4.9082 H              1 S1                 0.0000
     25 ****        -1.5366   4.2486   2.3631 H              1 S1                 0.0000
     26 ****        -3.1617   3.7298   1.9137 H              1 S1                 0.0000
     27 ****        -1.8923   3.8520   0.6817 H              1 S1                 0.0000
     28 ****        -3.4941   1.3871   1.3541 H              1 S1                 0.0000
     29 ****        -2.2558   1.5247   0.1134 H              1 S1                 0.0000
     30 ****        -2.1762  -0.3888   2.5177 H              1 S1                 0.0000
     31 ****        -2.4828  -0.8372   0.8605 H              1 S1                 0.0000
     32 ****         1.4573  -0.5521  -2.6208 H              1 S1                 0.0000
     33 ****         1.3622  -2.2340  -2.1427 H              1 S1                 0.0000
     34 ****         3.8193  -0.4013   2.0588 H              1 S1                 0.0000
     35 ****         1.3446   0.7211   5.4195 H              1 S1                 0.0000
     36 ****        -0.7217   0.5018   4.0496 H              1 S1                 0.0000
     37 ****         2.2029  -0.9142  -0.2765 H              1 S1                 0.0000
     38 ****        -1.9017   2.0317   2.9363 LP             1 S1                 0.0000
     39 ****        -0.7398   2.1420   1.7943 LP             1 S1                 0.0000
     40 ****         0.6258  -0.1677  -7.4226 LP             1 S1                 0.0000
     41 ****        -0.1949  -1.5813  -7.9954 LP             1 S1                 0.0000
     42 ****        -0.5643  -3.6525  -3.8031 LP             1 S1                 0.0000
@<TRIPOS>BOND
    1    1    2 1     
    2    1   25 1     
    3    1   26 1     
    4    1   27 1     
    5    2    3 1     
    6    3    4 1     
    7    3   28 1     
    8    3   29 1     
    9    4    5 1     
   10    4   30 1     
   11    4   31 1     
   12    5   22 1     
   13    5    6 1     
   14    6    7 1     
   15    6   15 2     
   16    7    8 1     
   17    8   32 1     
   18    8   33 1     
   19    8    9 1     
   20    9   14 2     
   21    9   10 1     
   22   10   11 am    
   23   10   24 1     
   24   11   13 am    
   25   11   12 2     
   26   13   14 1     
   27   13   23 1     
   28   15   16 1     
   29   15   37 1     
   30   16   22 ar    
   31   16   17 ar    
   32   17   18 ar    
   33   17   34 1     
   34   18   19 1     
   35   18   20 ar    
   36   20   21 ar    
   37   20   35 1     
   38   21   22 ar    
   39   21   36 1     
   40    2   38 1     
   41    2   39 1     
   42   12   40 1     
   43   12   41 1     
   44   14   42 1     
@<TRIPOS>SUBSTRUCTURE
      1 S1             1
@<TRIPOS>SET
LONE_PAIRS      STATIC     ATOMS    <user>   **** ""
5 38 39 40 41 42
DONOR_HYDROGENS      STATIC     ATOMS    <user>   **** ""
3 24 23 37
ATOM$BLUE        STATIC     ATOMS    COLORGROUP SYSTEM
5 38 39 40 41 42
ATOM$RED        STATIC     ATOMS    COLORGROUP SYSTEM
3 24 23 37
