AV-unprocessed.smi:193|AV-procd|sdf|1507|dock7
  -GOLD-   2262019343D 1   1.00000     0.00000
 Structure written by MMmdl.
 62 66  0  0  0  0  0  0  0  0  2 V2000
  146.2182  134.4532  151.2955 C   0  0  0  0  0  0  0  0  0  0  0  0
  146.9699  133.2582  151.9038 C   0  0  1  0  0  0  0  0  0  0  0  0
  147.2543  133.5361  153.3948 C   0  0  0  0  0  0  0  0  0  0  0  0
  148.3710  132.7685  153.9504 N   0  0  0  0  0  0  0  0  0  0  0  0
  148.9307  133.2045  155.1094 C   0  0  0  0  0  0  0  0  0  0  0  0
  150.1645  132.7512  155.4572 N   0  0  0  0  0  0  0  0  0  0  0  0
  150.7488  133.1733  156.5822 C   0  0  0  0  0  0  0  0  0  0  0  0
  150.2844  134.0314  157.4916 N   0  0  0  0  0  0  0  0  0  0  0  0
  149.0413  134.4811  157.1576 C   0  0  0  0  0  0  0  0  0  0  0  0
  148.2969  134.1208  155.9984 C   0  0  0  0  0  0  0  0  0  0  0  0
  147.0660  134.7678  156.0106 N   0  0  0  0  0  0  0  0  0  0  0  0
  147.0885  135.4795  157.1042 C   0  0  0  0  0  0  0  0  0  0  0  0
  148.2415  135.3745  157.8482 N   0  0  0  0  0  0  0  0  0  0  0  0
  148.5369  136.0589  159.0980 C   0  0  0  0  0  0  0  0  0  0  0  0
  147.6120  135.6471  160.2700 C   0  0  0  0  0  0  0  0  0  0  0  0
  146.2948  136.0550  159.9410 O   0  0  0  0  0  0  0  0  0  0  0  0
  147.6166  134.1154  160.4482 C   0  0  0  0  0  0  0  0  0  0  0  0
  146.8449  133.6747  161.7047 C   0  0  0  0  0  0  0  0  0  0  0  0
  147.3705  134.3291  162.8527 O   0  0  0  0  0  0  0  0  0  0  0  0
  147.2214  135.7425  162.7965 C   0  0  0  0  0  0  0  0  0  0  0  0
  148.0118  136.3127  161.6053 C   0  0  0  0  0  0  0  0  0  0  0  0
  148.6729  131.4031  153.5217 C   0  0  0  0  0  0  0  0  0  0  0  0
  147.4219  130.5494  153.2748 C   0  0  0  0  0  0  0  0  0  0  0  0
  146.9177  130.7230  151.8916 N   0  3  1  0  0  0  0  0  0  0  0  0
  146.1567  129.5396  151.4262 C   0  0  2  0  0  0  0  0  0  0  0  0
  145.8959  128.5148  152.5077 C   0  0  0  0  0  0  0  0  0  0  0  0
  146.9258  128.2297  151.4373 C   0  0  2  0  0  0  0  0  0  0  0  0
  148.3946  128.1203  151.8048 C   0  0  0  0  0  0  0  0  0  0  0  0
  146.1387  131.9717  151.7053 C   0  0  0  0  0  0  0  0  0  0  0  0
  145.2580  134.6103  151.7880 H   0  0  0  0  0  0  0  0  0  0  0  0
  146.0268  134.3020  150.2327 H   0  0  0  0  0  0  0  0  0  0  0  0
  146.7962  135.3730  151.3917 H   0  0  0  0  0  0  0  0  0  0  0  0
  147.9127  133.1712  151.3614 H   0  0  0  0  0  0  0  0  0  0  0  0
  147.5009  134.5930  153.5087 H   0  0  0  0  0  0  0  0  0  0  0  0
  146.3565  133.3667  153.9909 H   0  0  0  0  0  0  0  0  0  0  0  0
  151.7297  132.7666  156.7812 H   0  0  0  0  0  0  0  0  0  0  0  0
  146.2620  136.1101  157.3985 H   0  0  0  0  0  0  0  0  0  0  0  0
  149.5806  135.8691  159.3527 H   0  0  0  0  0  0  0  0  0  0  0  0
  148.4600  137.1326  158.9221 H   0  0  0  0  0  0  0  0  0  0  0  0
  145.7951  136.1287  160.7395 H   0  0  0  0  0  0  0  0  0  0  0  0
  147.2059  133.6249  159.5648 H   0  0  0  0  0  0  0  0  0  0  0  0
  148.6462  133.7669  160.5392 H   0  0  0  0  0  0  0  0  0  0  0  0
  145.7788  133.8853  161.6074 H   0  0  0  0  0  0  0  0  0  0  0  0
  146.9415  132.5975  161.8413 H   0  0  0  0  0  0  0  0  0  0  0  0
  146.1648  136.0059  162.7291 H   0  0  0  0  0  0  0  0  0  0  0  0
  147.5933  136.1705  163.7276 H   0  0  0  0  0  0  0  0  0  0  0  0
  149.0747  136.1461  161.7842 H   0  0  0  0  0  0  0  0  0  0  0  0
  147.8751  137.3938  161.5596 H   0  0  0  0  0  0  0  0  0  0  0  0
  149.3124  131.4264  152.6386 H   0  0  0  0  0  0  0  0  0  0  0  0
  149.2485  130.8981  154.2979 H   0  0  0  0  0  0  0  0  0  0  0  0
  147.7166  129.5074  153.4047 H   0  0  0  0  0  0  0  0  0  0  0  0
  146.6421  130.7346  154.0154 H   0  0  0  0  0  0  0  0  0  0  0  0
  145.3982  129.7307  150.6687 H   0  0  0  0  0  0  0  0  0  0  0  0
  146.2562  128.7243  153.5134 H   0  0  0  0  0  0  0  0  0  0  0  0
  144.9620  127.9585  152.4581 H   0  0  0  0  0  0  0  0  0  0  0  0
  146.6267  127.5144  150.6736 H   0  0  0  0  0  0  0  0  0  0  0  0
  148.6502  128.7858  152.6297 H   0  0  0  0  0  0  0  0  0  0  0  0
  149.0175  128.3703  150.9459 H   0  0  0  0  0  0  0  0  0  0  0  0
  148.6241  127.0989  152.1088 H   0  0  0  0  0  0  0  0  0  0  0  0
  145.2678  131.9693  152.3629 H   0  0  0  0  0  0  0  0  0  0  0  0
  145.7454  131.9661  150.6883 H   0  0  0  0  0  0  0  0  0  0  0  0
  147.7281  130.7848  151.2920 H   0  0  0  0  0  0  0  0  0  0  0  0
  1  2  1  0  0  0  0
  1 30  1  0  0  0  0
  1 31  1  0  0  0  0
  1 32  1  0  0  0  0
  2 29  1  0  0  0  0
  2  3  1  0  0  0  0
  2 33  1  0  0  0  0
  3  4  1  0  0  0  0
  3 34  1  0  0  0  0
  3 35  1  0  0  0  0
  4  5  1  0  0  0  0
  4 22  1  0  0  0  0
  5 10  1  0  0  0  0
  5  6  2  0  0  0  0
  6  7  1  0  0  0  0
  7  8  2  0  0  0  0
  7 36  1  0  0  0  0
  8  9  1  0  0  0  0
  9 13  1  0  0  0  0
  9 10  2  0  0  0  0
 10 11  1  0  0  0  0
 11 12  2  0  0  0  0
 12 13  1  0  0  0  0
 12 37  1  0  0  0  0
 13 14  1  0  0  0  0
 14 15  1  0  0  0  0
 14 38  1  0  0  0  0
 14 39  1  0  0  0  0
 15 21  1  0  0  0  0
 15 16  1  0  0  0  0
 15 17  1  0  0  0  0
 16 40  1  0  0  0  0
 17 18  1  0  0  0  0
 17 41  1  0  0  0  0
 17 42  1  0  0  0  0
 18 19  1  0  0  0  0
 18 43  1  0  0  0  0
 18 44  1  0  0  0  0
 19 20  1  0  0  0  0
 20 21  1  0  0  0  0
 20 45  1  0  0  0  0
 20 46  1  0  0  0  0
 21 47  1  0  0  0  0
 21 48  1  0  0  0  0
 22 23  1  0  0  0  0
 22 49  1  0  0  0  0
 22 50  1  0  0  0  0
 23 24  1  0  0  0  0
 23 51  1  0  0  0  0
 23 52  1  0  0  0  0
 24 25  1  0  0  0  0
 24 29  1  0  0  0  0
 24 62  1  0  0  0  0
 25 27  1  0  0  0  0
 25 26  1  0  0  0  0
 25 53  1  0  0  0  0
 26 27  1  0  0  0  0
 26 54  1  0  0  0  0
 26 55  1  0  0  0  0
 27 28  1  0  0  0  0
 27 56  1  0  0  0  0
 28 57  1  0  0  0  0
 28 58  1  0  0  0  0
 28 59  1  0  0  0  0
 29 60  1  0  0  0  0
 29 61  1  0  0  0  0
M  CHG  1  24   1
M  END
> <s_m_source_file>
AV-unprocessed.smi

> <i_m_source_file_index>
193

> <i_lp_mmshare_version>
43012

> <i_f3d_flags>
0

> <s_epik_input>
W0NIM11bQ0BASF0xW0NIMl1bQ0BIXTFOKFtDSDJdMilbQ0gyXVtDSDJdTihbQ0gyXVtDQEhdMltDSDNdKWMobltjSF1uMyljKGMzNCluW2NIXW40W0NIMl1DNShbT0hdKVtDSDJdW0NIMl1PW0NIMl1bQ0gyXTU=

> <s_epik_cmdline>
J2VwaWtfcHl0aG9uJywgJy1waCcsICc3LjAnLCAnLXRuJywgJzgnLCAnLW1hJywgJzIwMCcsICctbWV0YWxfYmluZGluZycsICctaW1hZScsICc8aW5maWxlLm1hZT4nLCAnLW9tYWUnLCAnPG91dGZpbGUubWFlPic=

> <r_lp_tautomer_probability>
1

> <r_epik_Ionization_Penalty>
0.0540825

> <r_epik_Ionization_Penalty_Charging>
0.0538476

> <r_epik_Ionization_Penalty_Neutral>
0.000234891

> <r_epik_State_Penalty>
0.0200719

> <r_epik_Charging_Adjusted_Penalty>
0.0739194

> <i_epik_Tot_Q>
1

> <i_epik_Tot_abs_Q>
1

> <r_epik_Metal_State_Penalty>
0.0199414

> <b_epik_Metal_Only>
0

> <s_lp_Force_Field>
OPLS_2005

> <r_lp_Energy>
56.3109

> <b_lp_Chiralities_Consistent>
1

> <s_lp_Variant>
AV-unprocessed.smi:193-12

> <Gold.Version>
5.8.1

> <Gold.Id.Protein>
6NUR|6NUR_protein|mol2

> <Gold.PLP.Fitness>
51.2233

> <Gold.PLP.PLP>
-49.8675

> <Gold.PLP.part.hbond>
-2.0000

> <Gold.PLP.part.metal>
0.0000

> <Gold.PLP.part.buried>
-5.6142

> <Gold.PLP.part.nonpolar>
-41.2565

> <Gold.PLP.part.repulsive>
0.0286

> <Gold.PLP.ligand.clash>
3.3406

> <Gold.PLP.ligand.torsion>
1.0823

> <Gold.PLP.Chemscore.Hbond>
1.8320

> <Gold.PLP.Chemscore.CHOScore>
0.0000

> <Gold.PLP.Chemscore.Metal>
0.0000

> <Gold.Chemscore.Hbonds>
donor molecule, donor type, donor heavy atom, donor atom, acceptor molecule, acceptor atom, score
      L1  H    24    62       P1 10747  1.00
      P1  H  6896  6909       L1     8  0.83

> <Gold.PLP.Chemscore.Internal.Correction>
1.3651

> <Gold.Rescore>
     Score         DG    S(hbond)    S(metal)    S(lipo)     H(rot)  DE(clash)    DE(int)     intcor
     16.26     -20.63       1.94        0.00     116.30       1.93       0.29       4.08       ----

> <Gold.Chemscore.Fitness>
16.2641

> <Gold.Chemscore.DG>
-20.6298

> <Gold.Chemscore.ZeroCoef>
-5.4800

> <Gold.Chemscore.Hbond>
1.9403

> <Gold.Chemscore.Metal>
0.0000

> <Gold.Chemscore.Lipo>
116.3032

> <Gold.Chemscore.Internal_Hbond>
0.0000

> <Gold.Chemscore.DEClash>
0.2872

> <Gold.Chemscore.DEInternal>
4.0785

> <Gold.Chemscore.Rot>
1.9290

> <Gold.Chemscore.Internal.Correction>
   9.000000E+99

> <Gold.Chemscore.Hbonds>
donor molecule, donor type, donor heavy atom, donor atom, acceptor molecule, acceptor atom, score
      L1  H    24    62       P1 10747  0.99
      P1  H  6896  6909       L1     8  0.80

> <Gold.Chemscore.Hbond.Weighted>
-6.4806

> <Gold.Chemscore.Metal.Weighted>
-0.0000

> <Gold.Chemscore.Lipo.Weighted>
-13.6075

> <Gold.Chemscore.Internal_Hbond.Weighted>
0.0000

> <Gold.Chemscore.DEClash.Weighted>
0.2872

> <Gold.Chemscore.DEInternal.Weighted>
4.0785

> <Gold.Chemscore.Rot.Weighted>
4.9383

> <Gold.Chemscore.Internal.Correction.Weighted>
   9.000000E+99

> <Gold.Protein.RotatedTorsions>
[ 6907 6896 6895 6894 ] final    4.16 input  -60.11 | X-H torsion
[ 7974 7965 7964 7962 ] final   83.55 input  175.53 | X-H torsion
[ 8008 7997 7996 7995 ] final  120.21 input   59.86 | X-H torsion
[ 10167 10162 10161 10158 ] final   86.24 input  -65.29 | X-H torsion
[ 10718 10713 10712 10709 ] final -163.47 input   66.30 | X-H torsion
[ 10763 10752 10751 10750 ] final   97.93 input  -60.55 | X-H torsion
[ 11005 11000 10999 10996 ] final  103.21 input  -57.11 | X-H torsion

> <Gold.Protein.ActiveResidues>
 VAL166  LYS551  ARG553  GLY616  TRP617  ASP618  TYR619  PRO620  LYS621  CYS622 
 ASP623  PHE694  ASN695  SER759  ASP760  ASP761  ALA762  ILE779  LEU786  VAL792 
 PHE793  MET794  SER795  GLU796  ALA797  LYS798  CYS799  TRP800  GLU811  SER814 

> <Gold.Protein.RotatedAtoms>
  151.6369  135.1017  160.0133 H   0  0  0  0  0  0  0  0  0  0  0  0  # atno 6907 bound_to 6896
  152.4076  133.6908  159.6378 H   0  0  0  0  0  0  0  0  0  0  0  0  # atno 6908 bound_to 6896
  150.7969  133.8599  159.3270 H   0  0  0  0  0  0  0  0  0  0  0  0  # atno 6909 bound_to 6896
  145.6104  139.2367  143.2195 H   0  0  0  0  0  0  0  0  0  0  0  0  # atno 7974 bound_to 7965
  156.2632  140.2836  156.1114 H   0  0  0  0  0  0  0  0  0  0  0  0  # atno 8008 bound_to 7997
  155.1253  140.0393  157.2778 H   0  0  0  0  0  0  0  0  0  0  0  0  # atno 8009 bound_to 7997
  154.6640  140.2573  155.7084 H   0  0  0  0  0  0  0  0  0  0  0  0  # atno 8010 bound_to 7997
  139.8895  144.6394  150.8754 H   0  0  0  0  0  0  0  0  0  0  0  0  # atno 10167 bound_to 10162
  156.6251  130.8906  151.2966 H   0  0  0  0  0  0  0  0  0  0  0  0  # atno 10718 bound_to 10713
  153.2829  135.4166  155.1095 H   0  0  0  0  0  0  0  0  0  0  0  0  # atno 10763 bound_to 10752
  154.8495  135.3499  154.6087 H   0  0  0  0  0  0  0  0  0  0  0  0  # atno 10764 bound_to 10752
  153.6508  135.7053  153.5267 H   0  0  0  0  0  0  0  0  0  0  0  0  # atno 10765 bound_to 10752
  139.8782  134.9254  156.5175 H   0  0  0  0  0  0  0  0  0  0  0  0  # atno 11005 bound_to 11000
  146.1508  140.6927  142.9323 LP  0  0  0  0  0  0  0  0  0  0  0  0  # atno 17320 bound_to 7965
  144.7272  140.4561  143.6964 LP  0  0  0  0  0  0  0  0  0  0  0  0  # atno 17321 bound_to 7965
  140.7729  143.3521  151.1993 LP  0  0  0  0  0  0  0  0  0  0  0  0  # atno 17342 bound_to 10162
  139.7122  143.9357  152.2952 LP  0  0  0  0  0  0  0  0  0  0  0  0  # atno 17343 bound_to 10162
  157.7216  130.9566  150.1463 LP  0  0  0  0  0  0  0  0  0  0  0  0  # atno 17370 bound_to 10713
  156.2280  130.3679  149.8478 LP  0  0  0  0  0  0  0  0  0  0  0  0  # atno 17371 bound_to 10713
  140.8475  133.8158  155.9135 LP  0  0  0  0  0  0  0  0  0  0  0  0  # atno 17394 bound_to 11000
  140.9177  134.2181  157.4946 LP  0  0  0  0  0  0  0  0  0  0  0  0  # atno 17395 bound_to 11000

$$$$
