AV-unprocessed.smi:243|AV-procd|sdf|1861|dock8
  -GOLD-   2262020493D 1   1.00000     0.00000
 Structure written by MMmdl.
 58 61  0  0  0  0  0  0  0  0  2 V2000
  144.3691  132.4674  150.2444 C   0  0  0  0  0  0  0  0  0  0  0  0
  144.1498  133.7243  151.0985 C   0  0  0  0  0  0  0  0  0  0  0  0
  145.3905  134.5294  151.2551 N   0  3  1  0  0  0  0  0  0  0  0  0
  145.1814  135.8015  151.9919 C   0  0  0  0  0  0  0  0  0  0  0  0
  145.0145  135.5623  153.5011 C   0  0  0  0  0  0  0  0  0  0  0  0
  146.2257  134.8055  154.0789 C   0  0  1  0  0  0  0  0  0  0  0  0
  146.0697  134.6005  155.5263 N   0  0  0  0  0  0  0  0  0  0  0  0
  144.8805  133.9510  156.0705 C   0  0  0  0  0  0  0  0  0  0  0  0
  147.0165  135.0570  156.3916 C   0  0  0  0  0  0  0  0  0  0  0  0
  146.7065  135.1414  157.7129 N   0  0  0  0  0  0  0  0  0  0  0  0
  147.6014  135.5911  158.5964 C   0  0  0  0  0  0  0  0  0  0  0  0
  148.8508  136.0018  158.3804 N   0  0  0  0  0  0  0  0  0  0  0  0
  149.1755  135.9226  157.0588 C   0  0  0  0  0  0  0  0  0  0  0  0
  148.3295  135.4649  156.0069 C   0  0  0  0  0  0  0  0  0  0  0  0
  149.0232  135.5082  154.8020 N   0  0  0  0  0  0  0  0  0  0  0  0
  150.2013  135.9676  155.1215 C   0  0  0  0  0  0  0  0  0  0  0  0
  150.3762  136.2555  156.4554 N   0  0  0  0  0  0  0  0  0  0  0  0
  151.5830  136.7708  157.0855 C   0  0  0  0  0  0  0  0  0  0  0  0
  151.9828  138.1973  156.6281 C   0  0  2  0  0  0  0  0  0  0  0  0
  153.1054  138.6315  157.3730 O   0  0  0  0  0  0  0  0  0  0  0  0
  150.8660  139.2348  156.7581 C   0  0  0  0  0  0  0  0  0  0  0  0
  150.2793  139.2794  155.3553 C   0  0  0  0  0  0  0  0  0  0  0  0
  151.4364  139.1953  154.5429 O   0  0  0  0  0  0  0  0  0  0  0  0
  152.3121  138.2342  155.1212 C   0  0  0  0  0  0  0  0  0  0  0  0
  146.4655  133.4881  153.2976 C   0  0  2  0  0  0  0  0  0  0  0  0
  147.7278  132.7486  153.7728 C   0  0  0  0  0  0  0  0  0  0  0  0
  146.5639  133.7799  151.7816 C   0  0  0  0  0  0  0  0  0  0  0  0
  143.4223  131.9578  150.0643 H   0  0  0  0  0  0  0  0  0  0  0  0
  145.0321  131.7516  150.7294 H   0  0  0  0  0  0  0  0  0  0  0  0
  144.7962  132.7202  149.2735 H   0  0  0  0  0  0  0  0  0  0  0  0
  143.3949  134.3329  150.5988 H   0  0  0  0  0  0  0  0  0  0  0  0
  143.7300  133.4575  152.0682 H   0  0  0  0  0  0  0  0  0  0  0  0
  146.0443  136.4465  151.8199 H   0  0  0  0  0  0  0  0  0  0  0  0
  144.3199  136.3363  151.5903 H   0  0  0  0  0  0  0  0  0  0  0  0
  144.9021  136.5205  154.0098 H   0  0  0  0  0  0  0  0  0  0  0  0
  144.0925  135.0097  153.6838 H   0  0  0  0  0  0  0  0  0  0  0  0
  147.0868  135.4485  153.8944 H   0  0  0  0  0  0  0  0  0  0  0  0
  145.1315  133.3389  156.9376 H   0  0  0  0  0  0  0  0  0  0  0  0
  144.4080  133.2993  155.3369 H   0  0  0  0  0  0  0  0  0  0  0  0
  144.1454  134.6973  156.3718 H   0  0  0  0  0  0  0  0  0  0  0  0
  147.2685  135.6281  159.6233 H   0  0  0  0  0  0  0  0  0  0  0  0
  150.9799  136.1126  154.3866 H   0  0  0  0  0  0  0  0  0  0  0  0
  151.4344  136.7529  158.1662 H   0  0  0  0  0  0  0  0  0  0  0  0
  152.3946  136.0711  156.8810 H   0  0  0  0  0  0  0  0  0  0  0  0
  153.2814  137.9943  158.0481 H   0  0  0  0  0  0  0  0  0  0  0  0
  150.1209  139.0091  157.5189 H   0  0  0  0  0  0  0  0  0  0  0  0
  151.2786  140.2177  156.9920 H   0  0  0  0  0  0  0  0  0  0  0  0
  149.6305  138.4213  155.1709 H   0  0  0  0  0  0  0  0  0  0  0  0
  149.7148  140.1917  155.1611 H   0  0  0  0  0  0  0  0  0  0  0  0
  153.3490  138.5022  154.9139 H   0  0  0  0  0  0  0  0  0  0  0  0
  152.1266  137.2680  154.6501 H   0  0  0  0  0  0  0  0  0  0  0  0
  145.6225  132.8169  153.4573 H   0  0  0  0  0  0  0  0  0  0  0  0
  148.6168  133.3703  153.6633 H   0  0  0  0  0  0  0  0  0  0  0  0
  147.8878  131.8361  153.1982 H   0  0  0  0  0  0  0  0  0  0  0  0
  147.6514  132.4601  154.8214 H   0  0  0  0  0  0  0  0  0  0  0  0
  146.7077  132.8555  151.2234 H   0  0  0  0  0  0  0  0  0  0  0  0
  147.4542  134.3806  151.5896 H   0  0  0  0  0  0  0  0  0  0  0  0
  145.6366  134.8059  150.3152 H   0  0  0  0  0  0  0  0  0  0  0  0
  1  2  1  0  0  0  0
  1 28  1  0  0  0  0
  1 29  1  0  0  0  0
  1 30  1  0  0  0  0
  2  3  1  0  0  0  0
  2 31  1  0  0  0  0
  2 32  1  0  0  0  0
  3 27  1  0  0  0  0
  3  4  1  0  0  0  0
  3 58  1  0  0  0  0
  4  5  1  0  0  0  0
  4 33  1  0  0  0  0
  4 34  1  0  0  0  0
  5  6  1  0  0  0  0
  5 35  1  0  0  0  0
  5 36  1  0  0  0  0
  6  7  1  0  0  0  0
  6 25  1  0  0  0  0
  6 37  1  0  0  0  0
  7  8  1  0  0  0  0
  7  9  1  0  0  0  0
  8 38  1  0  0  0  0
  8 39  1  0  0  0  0
  8 40  1  0  0  0  0
  9 14  1  0  0  0  0
  9 10  2  0  0  0  0
 10 11  1  0  0  0  0
 11 12  2  0  0  0  0
 11 41  1  0  0  0  0
 12 13  1  0  0  0  0
 13 17  1  0  0  0  0
 13 14  2  0  0  0  0
 14 15  1  0  0  0  0
 15 16  2  0  0  0  0
 16 17  1  0  0  0  0
 16 42  1  0  0  0  0
 17 18  1  0  0  0  0
 18 19  1  0  0  0  0
 18 43  1  0  0  0  0
 18 44  1  0  0  0  0
 19 24  1  0  0  0  0
 19 20  1  0  0  0  0
 19 21  1  0  0  0  0
 20 45  1  0  0  0  0
 21 22  1  0  0  0  0
 21 46  1  0  0  0  0
 21 47  1  0  0  0  0
 22 23  1  0  0  0  0
 22 48  1  0  0  0  0
 22 49  1  0  0  0  0
 23 24  1  0  0  0  0
 24 50  1  0  0  0  0
 24 51  1  0  0  0  0
 25 26  1  0  0  0  0
 25 27  1  0  0  0  0
 25 52  1  0  0  0  0
 26 53  1  0  0  0  0
 26 54  1  0  0  0  0
 26 55  1  0  0  0  0
 27 56  1  0  0  0  0
 27 57  1  0  0  0  0
M  CHG  1   3   1
M  END
> <s_m_source_file>
AV-unprocessed.smi

> <i_m_source_file_index>
243

> <i_lp_mmshare_version>
43012

> <i_f3d_flags>
0

> <s_epik_input>
W0NIM11bQ0gyXU4xW0NIMl1bQ0gyXVtDQEhdKFtDQEBIXShbQ0gzXSlbQ0gyXTEpTihbQ0gzXSljKG5bY0hdbjIpYyhjMjMpbltjSF1uM1tDSDJdW0NAQF00KFtPSF0pW0NIMl1bQ0gyXU9bQ0gyXTQ=

> <s_epik_cmdline>
J2VwaWtfcHl0aG9uJywgJy1waCcsICc3LjAnLCAnLXRuJywgJzgnLCAnLW1hJywgJzIwMCcsICctbWV0YWxfYmluZGluZycsICctaW1hZScsICc8aW5maWxlLm1hZT4nLCAnLW9tYWUnLCAnPG91dGZpbGUubWFlPic=

> <r_lp_tautomer_probability>
1

> <r_epik_Ionization_Penalty>
0.00253099

> <r_epik_Ionization_Penalty_Charging>
0.00137877

> <r_epik_Ionization_Penalty_Neutral>
0.00115221

> <r_epik_State_Penalty>
-0

> <r_epik_Charging_Adjusted_Penalty>
0.00137877

> <i_epik_Tot_Q>
1

> <i_epik_Tot_abs_Q>
1

> <r_epik_Metal_State_Penalty>
-0

> <b_epik_Metal_Only>
0

> <s_lp_Force_Field>
OPLS_2005

> <r_lp_Energy>
46.8505

> <b_lp_Chiralities_Consistent>
1

> <s_lp_Variant>
AV-unprocessed.smi:243-14

> <Gold.Version>
5.8.1

> <Gold.Id.Protein>
6NUR|6NUR_protein|mol2

> <Gold.PLP.Fitness>
42.5174

> <Gold.PLP.PLP>
-31.0356

> <Gold.PLP.part.hbond>
-3.0000

> <Gold.PLP.part.metal>
0.0000

> <Gold.PLP.part.buried>
-5.5427

> <Gold.PLP.part.nonpolar>
-24.9160

> <Gold.PLP.part.repulsive>
1.9330

> <Gold.PLP.ligand.clash>
0.0000

> <Gold.PLP.ligand.torsion>
0.2372

> <Gold.PLP.Chemscore.Hbond>
2.9424

> <Gold.PLP.Chemscore.CHOScore>
1.0000

> <Gold.PLP.Chemscore.Metal>
0.0000

> <Gold.Chemscore.Hbonds>
donor molecule, donor type, donor heavy atom, donor atom, acceptor molecule, acceptor atom, score
      P1  H  7989  7998       L1    23  1.00
      P1  H  7997  8009       L1    20  1.00
      L1  C    16    42       P1  7949  0.08

> <Gold.PLP.Chemscore.Internal.Correction>
0.1290

> <Gold.Rescore>
     Score         DG    S(hbond)    S(metal)    S(lipo)     H(rot)  DE(clash)    DE(int)     intcor
     14.22     -15.89       2.36        0.00      70.55       2.24       0.05       1.63       ----

> <Gold.Chemscore.Fitness>
14.2174

> <Gold.Chemscore.DG>
-15.8949

> <Gold.Chemscore.ZeroCoef>
-5.4800

> <Gold.Chemscore.Hbond>
2.3623

> <Gold.Chemscore.Metal>
0.0000

> <Gold.Chemscore.Lipo>
70.5455

> <Gold.Chemscore.Internal_Hbond>
0.0000

> <Gold.Chemscore.DEClash>
0.0456

> <Gold.Chemscore.DEInternal>
1.6320

> <Gold.Chemscore.Rot>
2.2379

> <Gold.Chemscore.Internal.Correction>
   9.000000E+99

> <Gold.Chemscore.Hbonds>
donor molecule, donor type, donor heavy atom, donor atom, acceptor molecule, acceptor atom, score
      P1  H  7989  7998       L1    23  0.72
      P1  H  7997  8009       L1    20  0.93

> <Gold.Chemscore.Hbond.Weighted>
-7.8902

> <Gold.Chemscore.Metal.Weighted>
-0.0000

> <Gold.Chemscore.Lipo.Weighted>
-8.2538

> <Gold.Chemscore.Internal_Hbond.Weighted>
0.0000

> <Gold.Chemscore.DEClash.Weighted>
0.0456

> <Gold.Chemscore.DEInternal.Weighted>
1.6320

> <Gold.Chemscore.Rot.Weighted>
5.7291

> <Gold.Chemscore.Internal.Correction.Weighted>
   9.000000E+99

> <Gold.Protein.RotatedTorsions>
[ 6907 6896 6895 6894 ] final   60.52 input  -60.11 | X-H torsion
[ 7974 7965 7964 7962 ] final   63.85 input  175.53 | X-H torsion
[ 8008 7997 7996 7995 ] final  168.79 input   59.86 | X-H torsion
[ 10167 10162 10161 10158 ] final  -85.85 input  -65.29 | X-H torsion
[ 10718 10713 10712 10709 ] final  -22.38 input   66.30 | X-H torsion
[ 10763 10752 10751 10750 ] final  -99.36 input  -60.55 | X-H torsion
[ 11005 11000 10999 10996 ] final -127.11 input  -57.11 | X-H torsion

> <Gold.Protein.ActiveResidues>
 VAL166  LYS551  ARG553  GLY616  TRP617  ASP618  TYR619  PRO620  LYS621  CYS622 
 ASP623  PHE694  ASN695  SER759  ASP760  ASP761  ALA762  ILE779  LEU786  VAL792 
 PHE793  MET794  SER795  GLU796  ALA797  LYS798  CYS799  TRP800  GLU811  SER814 

> <Gold.Protein.RotatedAtoms>
  152.4010  134.6286  160.0069 H   0  0  0  0  0  0  0  0  0  0  0  0  # atno 6907 bound_to 6896
  151.6491  133.3316  159.3156 H   0  0  0  0  0  0  0  0  0  0  0  0  # atno 6908 bound_to 6896
  150.7910  134.6977  159.6577 H   0  0  0  0  0  0  0  0  0  0  0  0  # atno 6909 bound_to 6896
  145.8570  139.3290  143.0841 H   0  0  0  0  0  0  0  0  0  0  0  0  # atno 7974 bound_to 7965
  156.1515  140.1581  156.8761 H   0  0  0  0  0  0  0  0  0  0  0  0  # atno 8008 bound_to 7997
  154.5076  140.0809  156.7962 H   0  0  0  0  0  0  0  0  0  0  0  0  # atno 8009 bound_to 7997
  155.3886  140.3408  155.4252 H   0  0  0  0  0  0  0  0  0  0  0  0  # atno 8010 bound_to 7997
  140.3998  143.2667  151.9157 H   0  0  0  0  0  0  0  0  0  0  0  0  # atno 10167 bound_to 10162
  156.5053  130.4597  149.6678 H   0  0  0  0  0  0  0  0  0  0  0  0  # atno 10718 bound_to 10713
  154.7492  135.4975  153.9258 H   0  0  0  0  0  0  0  0  0  0  0  0  # atno 10763 bound_to 10752
  153.1124  135.6712  153.9484 H   0  0  0  0  0  0  0  0  0  0  0  0  # atno 10764 bound_to 10752
  153.9240  135.3085  155.3426 H   0  0  0  0  0  0  0  0  0  0  0  0  # atno 10765 bound_to 10752
  140.9626  134.0915  157.3953 H   0  0  0  0  0  0  0  0  0  0  0  0  # atno 11005 bound_to 11000
  145.9292  140.9060  143.0365 LP  0  0  0  0  0  0  0  0  0  0  0  0  # atno 17320 bound_to 7965
  144.6727  140.1395  143.7438 LP  0  0  0  0  0  0  0  0  0  0  0  0  # atno 17321 bound_to 7965
  139.4785  144.5645  151.8187 LP  0  0  0  0  0  0  0  0  0  0  0  0  # atno 17342 bound_to 10162
  140.4752  144.1530  150.5924 LP  0  0  0  0  0  0  0  0  0  0  0  0  # atno 17343 bound_to 10162
  156.3293  130.7323  151.2249 LP  0  0  0  0  0  0  0  0  0  0  0  0  # atno 17370 bound_to 10713
  157.7458  131.0434  150.4742 LP  0  0  0  0  0  0  0  0  0  0  0  0  # atno 17371 bound_to 10713
  139.8883  135.0097  156.6614 LP  0  0  0  0  0  0  0  0  0  0  0  0  # atno 17394 bound_to 11000
  140.7445  133.8949  155.8302 LP  0  0  0  0  0  0  0  0  0  0  0  0  # atno 17395 bound_to 11000

$$$$
