#       Name:                AV-unprocessed.smi:2783
#       Creating user name   scv26
#       Creation time:       Fri Mar 27 15:16:19 2020


#       File generated by GOLD software.
#

@<TRIPOS>MOLECULE
AV-unprocessed.smi:2783
    33    33     1
SMALL
NO_CHARGES


@<TRIPOS>ATOM
      1 ****        -2.1780   0.8697  -1.7775 C.3            1 S1                 0.0000
      2 ****        -1.4454  -0.3321  -2.0098 O.3            1 S1                 0.0000
      3 ****        -0.0189  -0.2425  -2.1416 C.3            1 S1                 0.0000
      4 ****         0.4419  -1.6398  -2.5930 C.3            1 S1                 0.0000
      5 ****         0.3647   0.7954  -3.2227 C.3            1 S1                 0.0000
      6 ****         0.6414   0.0825  -0.7809 C.2            1 S1                 0.0000
      7 ****         1.7518   0.6133  -0.7598 O.2            1 S1                 0.0000
      8 ****        -0.0544  -0.2721   0.3172 N.am           1 S1                 0.0000
      9 ****         0.2520  -0.1171   1.7003 C.ar           1 S1                 0.0000
     10 ****         1.3732   0.5999   2.1935 C.ar           1 S1                 0.0000
     11 ****         1.5796   0.6952   3.5846 C.ar           1 S1                 0.0000
     12 ****         0.7127   0.1116   4.4379 N.pl3          1 S1                 1.0000
     13 ****        -0.3706  -0.5741   4.0193 C.ar           1 S1                 0.0000
     14 ****        -0.6320  -0.7060   2.6405 C.ar           1 S1                 0.0000
     15 ****        -1.7384  -1.4023   2.2405 O.co2          1 S1                -1.0000
     16 ****        -3.2179   0.6171  -1.5716 H              1 S1                 0.0000
     17 ****        -2.1716   1.5169  -2.6545 H              1 S1                 0.0000
     18 ****        -1.8035   1.4359  -0.9249 H              1 S1                 0.0000
     19 ****         1.5233  -1.6823  -2.7300 H              1 S1                 0.0000
     20 ****        -0.0199  -1.9170  -3.5413 H              1 S1                 0.0000
     21 ****         0.1705  -2.4048  -1.8642 H              1 S1                 0.0000
     22 ****         1.4269   0.7446  -3.4653 H              1 S1                 0.0000
     23 ****         0.1580   1.8174  -2.9033 H              1 S1                 0.0000
     24 ****        -0.1863   0.6187  -4.1467 H              1 S1                 0.0000
     25 ****        -0.9345  -0.7353   0.1380 H              1 S1                 0.0000
     26 ****         2.0815   1.0864   1.5433 H              1 S1                 0.0000
     27 ****         2.4072   1.2211   4.0370 H              1 S1                 0.0000
     28 ****        -0.9938  -0.9937   4.7956 H              1 S1                 0.0000
     29 ****         0.8803   0.1933   5.4407 H              1 S1                 0.0000
     30 ****        -1.7965  -0.7346  -2.8552 LP             1 S1                 0.0000
     31 ****        -1.6343  -0.9471  -1.2443 LP             1 S1                 0.0000
     32 ****         2.2186   0.8304  -1.6172 LP             1 S1                 0.0000
     33 ****         2.1871   0.8274   0.1146 LP             1 S1                 0.0000
@<TRIPOS>BOND
    1    1    2 1     
    2    1   16 1     
    3    1   17 1     
    4    1   18 1     
    5    2    3 1     
    6    3    4 1     
    7    3    5 1     
    8    3    6 1     
    9    4   19 1     
   10    4   20 1     
   11    4   21 1     
   12    5   22 1     
   13    5   23 1     
   14    5   24 1     
   15    6    7 2     
   16    6    8 am    
   17    8   25 1     
   18    8    9 1     
   19    9   10 ar    
   20    9   14 ar    
   21   10   11 ar    
   22   10   26 1     
   23   11   12 ar    
   24   11   27 1     
   25   12   13 ar    
   26   12   29 1     
   27   13   14 ar    
   28   13   28 1     
   29   14   15 ar    
   30    2   30 1     
   31    2   31 1     
   32    7   32 1     
   33    7   33 1     
@<TRIPOS>SUBSTRUCTURE
      1 S1             1
@<TRIPOS>SET
LONE_PAIRS      STATIC     ATOMS    <user>   **** ""
5 30 31 32 33 15
DONOR_HYDROGENS      STATIC     ATOMS    <user>   **** ""
2 25 29
ATOM$BLUE        STATIC     ATOMS    COLORGROUP SYSTEM
5 30 31 32 33 15
ATOM$RED        STATIC     ATOMS    COLORGROUP SYSTEM
2 25 29
