#       Name:                AV-unprocessed.smi:1855
#       Creating user name   scv26
#       Creation time:       Fri Mar 27 09:24:29 2020


#       File generated by GOLD software.
#

@<TRIPOS>MOLECULE
AV-unprocessed.smi:1855
    50    52     1
SMALL
NO_CHARGES


@<TRIPOS>ATOM
      1 ****        -4.0383   0.8644   0.7232 C.3            1 S1                 0.0000
      2 ****        -2.6356   0.8961   0.9387 O.3            1 S1                 0.0000
      3 ****        -2.0290   2.1212   1.1274 C.ar           1 S1                 0.0000
      4 ****        -2.7286   3.3545   1.1333 C.ar           1 S1                 0.0000
      5 ****        -2.0384   4.5651   1.3273 C.ar           1 S1                 0.0000
      6 ****        -0.6461   4.5584   1.5190 C.ar           1 S1                 0.0000
      7 ****         0.0580   3.3406   1.5150 C.ar           1 S1                 0.0000
      8 ****        -0.6284   2.1169   1.3177 C.ar           1 S1                 0.0000
      9 ****        -0.0081   0.8875   1.3029 O.3            1 S1                 0.0000
     10 ****         1.4109   0.8326   1.2883 C.3            1 S1                 0.0000
     11 ****         1.8435  -0.6227   1.0568 C.3            1 S1                 0.0000
     12 ****         1.2818  -1.1735  -0.1878 N.pl3          1 S1                 0.0000
     13 ****         1.7696  -1.1550  -1.4624 C.2            1 S1                 0.0000
     14 ****         3.0595  -0.5579  -1.9318 C.3            1 S1                 0.0000
     15 ****         4.0130  -1.5591  -2.3946 N.am           1 S1                 0.0000
     16 ****         4.6876  -2.4019  -1.5997 C.2            1 S1                 0.0000
     17 ****         4.5750  -2.4432  -0.3759 O.2            1 S1                 0.0000
     18 ****         0.8548  -1.7845  -2.2533 N.pl3          1 S1                 1.0000
     19 ****        -0.2301  -2.2024  -1.4827 C.ar           1 S1                 0.0000
     20 ****        -1.3980  -2.8691  -1.8405 C.ar           1 S1                 0.0000
     21 ****        -2.3163  -3.1374  -0.8044 C.ar           1 S1                 0.0000
     22 ****        -2.0555  -2.7501   0.5259 C.ar           1 S1                 0.0000
     23 ****        -0.8650  -2.0809   0.8767 C.ar           1 S1                 0.0000
     24 ****         0.0369  -1.8152  -0.1540 C.ar           1 S1                 0.0000
     25 ****        -4.3560  -0.1690   0.5849 H              1 S1                 0.0000
     26 ****        -4.3167   1.4176  -0.1747 H              1 S1                 0.0000
     27 ****        -4.5824   1.2653   1.5792 H              1 S1                 0.0000
     28 ****        -3.7975   3.3990   0.9908 H              1 S1                 0.0000
     29 ****        -2.5791   5.5000   1.3306 H              1 S1                 0.0000
     30 ****        -0.1172   5.4878   1.6709 H              1 S1                 0.0000
     31 ****         1.1257   3.3694   1.6706 H              1 S1                 0.0000
     32 ****         1.8078   1.4591   0.4878 H              1 S1                 0.0000
     33 ****         1.8140   1.1949   2.2349 H              1 S1                 0.0000
     34 ****         2.9295  -0.6878   0.9976 H              1 S1                 0.0000
     35 ****         1.5482  -1.2562   1.8931 H              1 S1                 0.0000
     36 ****         2.8478   0.1217  -2.7574 H              1 S1                 0.0000
     37 ****         3.5065   0.0484  -1.1433 H              1 S1                 0.0000
     38 ****         4.1816  -1.6070  -3.3890 H              1 S1                 0.0000
     39 ****         5.3535  -3.0501  -2.1897 H              1 S1                 0.0000
     40 ****        -1.6011  -3.1646  -2.8592 H              1 S1                 0.0000
     41 ****        -3.2398  -3.6484  -1.0344 H              1 S1                 0.0000
     42 ****        -2.7840  -2.9688   1.2932 H              1 S1                 0.0000
     43 ****        -0.6807  -1.7815   1.8977 H              1 S1                 0.0000
     44 ****         0.9656  -1.9124  -3.2508 H              1 S1                 0.0000
     45 ****        -2.2043   0.4719   0.1425 LP             1 S1                 0.0000
     46 ****        -2.4487   0.3450   1.7520 LP             1 S1                 0.0000
     47 ****        -0.3283   0.4074   0.4863 LP             1 S1                 0.0000
     48 ****        -0.3120   0.3960   2.1191 LP             1 S1                 0.0000
     49 ****         3.9467  -1.8201   0.0898 LP             1 S1                 0.0000
     50 ****         5.1118  -3.1001   0.1537 LP             1 S1                 0.0000
@<TRIPOS>BOND
    1    1    2 1     
    2    1   25 1     
    3    1   26 1     
    4    1   27 1     
    5    2    3 1     
    6    3    8 ar    
    7    3    4 ar    
    8    4    5 ar    
    9    4   28 1     
   10    5    6 ar    
   11    5   29 1     
   12    6    7 ar    
   13    6   30 1     
   14    7    8 ar    
   15    7   31 1     
   16    8    9 1     
   17    9   10 1     
   18   10   11 1     
   19   10   32 1     
   20   10   33 1     
   21   11   12 1     
   22   11   34 1     
   23   11   35 1     
   24   12   24 1     
   25   12   13 1     
   26   13   14 1     
   27   13   18 2     
   28   14   15 1     
   29   14   36 1     
   30   14   37 1     
   31   15   16 am    
   32   15   38 1     
   33   16   17 2     
   34   16   39 1     
   35   18   19 1     
   36   18   44 1     
   37   19   24 ar    
   38   19   20 ar    
   39   20   21 ar    
   40   20   40 1     
   41   21   22 ar    
   42   21   41 1     
   43   22   23 ar    
   44   22   42 1     
   45   23   24 ar    
   46   23   43 1     
   47    2   45 1     
   48    2   46 1     
   49    9   47 1     
   50    9   48 1     
   51   17   49 1     
   52   17   50 1     
@<TRIPOS>SUBSTRUCTURE
      1 S1             1
@<TRIPOS>SET
LONE_PAIRS      STATIC     ATOMS    <user>   **** ""
6 45 46 47 48 49 50
DONOR_HYDROGENS      STATIC     ATOMS    <user>   **** ""
2 38 44
ATOM$BLUE        STATIC     ATOMS    COLORGROUP SYSTEM
6 45 46 47 48 49 50
ATOM$RED        STATIC     ATOMS    COLORGROUP SYSTEM
2 38 44
