AV-unprocessed.smi:2571|AV-procd|sdf|10108|dock6
  -GOLD-   2272014123D 1   1.00000     0.00000
 Structure written by MMmdl.
 38 40  0  0  0  0  0  0  0  0  1 V2000
  153.2102  138.2030  155.4603 C   0  0  0  0  0  0  0  0  0  0  0  0
  152.1749  138.4989  154.5342 O   0  0  0  0  0  0  0  0  0  0  0  0
  151.1894  139.3809  154.9229 C   0  0  0  0  0  0  0  0  0  0  0  0
  150.0754  139.5139  154.0693 C   0  0  0  0  0  0  0  0  0  0  0  0
  149.0223  140.3904  154.3913 C   0  0  0  0  0  0  0  0  0  0  0  0
  149.0734  141.1483  155.5752 C   0  0  0  0  0  0  0  0  0  0  0  0
  150.1807  141.0333  156.4403 C   0  0  0  0  0  0  0  0  0  0  0  0
  150.2342  141.8515  157.7208 C   0  0  2  0  0  0  0  0  0  0  0  0
  149.1490  142.7547  157.8153 O   0  0  0  0  0  0  0  0  0  0  0  0
  151.5731  142.6065  157.8485 C   0  0  0  0  0  0  0  0  0  0  0  0
  151.8408  143.0485  159.2086 N   0  0  0  0  0  0  0  0  0  0  0  0
  151.2407  144.1726  159.6777 N   0  0  0  0  0  0  0  0  0  0  0  0
  151.6796  144.3236  160.9258 C   0  0  0  0  0  0  0  0  0  0  0  0
  152.5856  143.2937  161.3007 C   0  0  0  0  0  0  0  0  0  0  0  0
  153.3485  142.9736  162.5033 C   0  0  0  0  0  0  0  0  0  0  0  0
  154.1030  141.9195  162.4887 N   0  0  0  0  0  0  0  0  0  0  0  0
  154.1914  141.1039  161.3547 N   0  0  0  0  0  0  0  0  0  0  0  0
  155.0837  139.9557  161.4952 C   0  0  0  0  0  0  0  0  0  0  0  0
  153.5230  141.3161  160.1811 C   0  0  0  0  0  0  0  0  0  0  0  0
  153.6189  140.5886  159.1927 O   0  0  0  0  0  0  0  0  0  0  0  0
  152.6542  142.5180  160.1906 C   0  0  0  0  0  0  0  0  0  0  0  0
  151.2327  140.1491  156.1138 C   0  0  0  0  0  0  0  0  0  0  0  0
  153.9045  137.4943  155.0093 H   0  0  0  0  0  0  0  0  0  0  0  0
  152.8147  137.7448  156.3677 H   0  0  0  0  0  0  0  0  0  0  0  0
  153.7771  139.0969  155.7241 H   0  0  0  0  0  0  0  0  0  0  0  0
  150.0272  138.9361  153.1579 H   0  0  0  0  0  0  0  0  0  0  0  0
  148.1742  140.4809  153.7286 H   0  0  0  0  0  0  0  0  0  0  0  0
  148.2599  141.8172  155.8153 H   0  0  0  0  0  0  0  0  0  0  0  0
  150.1407  141.1698  158.5673 H   0  0  0  0  0  0  0  0  0  0  0  0
  149.2399  143.4029  157.1339 H   0  0  0  0  0  0  0  0  0  0  0  0
  152.3929  141.9593  157.5329 H   0  0  0  0  0  0  0  0  0  0  0  0
  151.5998  143.4679  157.1821 H   0  0  0  0  0  0  0  0  0  0  0  0
  151.3314  145.1647  161.5070 H   0  0  0  0  0  0  0  0  0  0  0  0
  153.2820  143.6078  163.3872 H   0  0  0  0  0  0  0  0  0  0  0  0
  154.5393  139.0239  161.3354 H   0  0  0  0  0  0  0  0  0  0  0  0
  155.5352  139.9077  162.4875 H   0  0  0  0  0  0  0  0  0  0  0  0
  155.8939  140.0079  160.7666 H   0  0  0  0  0  0  0  0  0  0  0  0
  152.0665  140.0749  156.7958 H   0  0  0  0  0  0  0  0  0  0  0  0
  1  2  1  0  0  0  0
  1 23  1  0  0  0  0
  1 24  1  0  0  0  0
  1 25  1  0  0  0  0
  2  3  1  0  0  0  0
  3 22  1  0  0  0  0
  3  4  2  0  0  0  0
  4  5  1  0  0  0  0
  4 26  1  0  0  0  0
  5  6  2  0  0  0  0
  5 27  1  0  0  0  0
  6  7  1  0  0  0  0
  6 28  1  0  0  0  0
  7  8  1  0  0  0  0
  7 22  2  0  0  0  0
  8  9  1  0  0  0  0
  8 10  1  0  0  0  0
  8 29  1  0  0  0  0
  9 30  1  0  0  0  0
 10 11  1  0  0  0  0
 10 31  1  0  0  0  0
 10 32  1  0  0  0  0
 11 21  1  0  0  0  0
 11 12  1  0  0  0  0
 12 13  2  0  0  0  0
 13 14  1  0  0  0  0
 13 33  1  0  0  0  0
 14 21  2  0  0  0  0
 14 15  1  0  0  0  0
 15 16  2  0  0  0  0
 15 34  1  0  0  0  0
 16 17  1  0  0  0  0
 17 18  1  0  0  0  0
 17 19  1  0  0  0  0
 18 35  1  0  0  0  0
 18 36  1  0  0  0  0
 18 37  1  0  0  0  0
 19 20  2  0  0  0  0
 19 21  1  0  0  0  0
 22 38  1  0  0  0  0
M  END
> <s_m_source_file>
AV-unprocessed.smi

> <i_m_source_file_index>
2571

> <i_lp_mmshare_version>
43012

> <i_f3d_flags>
0

> <s_epik_input>
W0NIM11PYzFbY0hdW2NIXVtjSF1jKFtjSF0xKVtDQEhdKFtPSF0pW0NIMl1uKG5bY0hdMiljKGMyMyljKD1PKW4oW0NIM10pbltjSF0z

> <s_epik_cmdline>
J2VwaWtfcHl0aG9uJywgJy1waCcsICc3LjAnLCAnLXRuJywgJzgnLCAnLW1hJywgJzIwMCcsICctbWV0YWxfYmluZGluZycsICctaW1hZScsICc8aW5maWxlLm1hZT4nLCAnLW9tYWUnLCAnPG91dGZpbGUubWFlPic=

> <r_lp_tautomer_probability>
1

> <r_epik_Ionization_Penalty>
1.38887e-06

> <r_epik_Ionization_Penalty_Charging>
1.65421e-10

> <r_epik_Ionization_Penalty_Neutral>
1.38871e-06

> <r_epik_State_Penalty>
-0

> <r_epik_Charging_Adjusted_Penalty>
1.65421e-10

> <i_epik_Tot_Q>
0

> <i_epik_Tot_abs_Q>
0

> <r_epik_Metal_State_Penalty>
-0

> <b_epik_Metal_Only>
0

> <s_lp_Force_Field>
OPLS_2005

> <r_lp_Energy>
30.8007

> <b_lp_Chiralities_Consistent>
1

> <s_lp_Variant>
AV-unprocessed.smi:2571-1

> <Gold.Version>
5.8.1

> <Gold.Id.Protein>
6NUR|6NUR_protein|mol2

> <Gold.PLP.Fitness>
51.7818

> <Gold.PLP.PLP>
-49.8819

> <Gold.PLP.part.hbond>
-2.2296

> <Gold.PLP.part.metal>
0.0000

> <Gold.PLP.part.buried>
-3.7801

> <Gold.PLP.part.nonpolar>
-43.5150

> <Gold.PLP.part.repulsive>
0.1835

> <Gold.PLP.ligand.clash>
0.0000

> <Gold.PLP.ligand.torsion>
0.5740

> <Gold.PLP.Chemscore.Hbond>
1.0000

> <Gold.PLP.Chemscore.CHOScore>
0.0000

> <Gold.PLP.Chemscore.Metal>
0.0000

> <Gold.Chemscore.Hbonds>
donor molecule, donor type, donor heavy atom, donor atom, acceptor molecule, acceptor atom, score
      L1  H     9    30       P1  8028  1.00

> <Gold.PLP.Chemscore.Internal.Correction>
0.0478

> <Gold.Rescore>
     Score         DG    S(hbond)    S(metal)    S(lipo)     H(rot)  DE(clash)    DE(int)     intcor
     15.81     -17.37       1.15        0.00     117.20       2.21       0.71       0.85       ----

> <Gold.Chemscore.Fitness>
15.8066

> <Gold.Chemscore.DG>
-17.3651

> <Gold.Chemscore.ZeroCoef>
-5.4800

> <Gold.Chemscore.Hbond>
1.1501

> <Gold.Chemscore.Metal>
0.0000

> <Gold.Chemscore.Lipo>
117.2049

> <Gold.Chemscore.Internal_Hbond>
0.0000

> <Gold.Chemscore.DEClash>
0.7052

> <Gold.Chemscore.DEInternal>
0.8533

> <Gold.Chemscore.Rot>
2.2146

> <Gold.Chemscore.Internal.Correction>
   9.000000E+99

> <Gold.Chemscore.Hbonds>
donor molecule, donor type, donor heavy atom, donor atom, acceptor molecule, acceptor atom, score
      L1  H     9    30       P1  8028  0.75

> <Gold.Chemscore.Hbond.Weighted>
-3.8414

> <Gold.Chemscore.Metal.Weighted>
-0.0000

> <Gold.Chemscore.Lipo.Weighted>
-13.7130

> <Gold.Chemscore.Internal_Hbond.Weighted>
0.0000

> <Gold.Chemscore.DEClash.Weighted>
0.7052

> <Gold.Chemscore.DEInternal.Weighted>
0.8533

> <Gold.Chemscore.Rot.Weighted>
5.6693

> <Gold.Chemscore.Internal.Correction.Weighted>
   9.000000E+99

> <Gold.Protein.RotatedTorsions>
[ 6907 6896 6895 6894 ] final -141.47 input  -60.11 | X-H torsion
[ 7974 7965 7964 7962 ] final -111.17 input  175.53 | X-H torsion
[ 8008 7997 7996 7995 ] final  106.20 input   59.86 | X-H torsion
[ 10167 10162 10161 10158 ] final  178.70 input  -65.29 | X-H torsion
[ 10718 10713 10712 10709 ] final   90.43 input   66.30 | X-H torsion
[ 10763 10752 10751 10750 ] final  -78.79 input  -60.55 | X-H torsion
[ 11005 11000 10999 10996 ] final  179.01 input  -57.11 | X-H torsion

> <Gold.Protein.ActiveResidues>
 VAL166  LYS551  ARG553  GLY616  TRP617  ASP618  TYR619  PRO620  LYS621  CYS622 
 ASP623  PHE694  ASN695  SER759  ASP760  ASP761  ALA762  ILE779  LEU786  VAL792 
 PHE793  MET794  SER795  GLU796  ALA797  LYS798  CYS799  TRP800  GLU811  SER814 

> <Gold.Protein.RotatedAtoms>
  151.0743  133.5441  159.2624 H   0  0  0  0  0  0  0  0  0  0  0  0  # atno 6907 bound_to 6896
  151.2369  135.0574  159.9019 H   0  0  0  0  0  0  0  0  0  0  0  0  # atno 6908 bound_to 6896
  152.5415  134.0523  159.8169 H   0  0  0  0  0  0  0  0  0  0  0  0  # atno 6909 bound_to 6896
  145.1593  140.8870  143.3600 H   0  0  0  0  0  0  0  0  0  0  0  0  # atno 7974 bound_to 7965
  156.1723  140.3117  155.8996 H   0  0  0  0  0  0  0  0  0  0  0  0  # atno 8008 bound_to 7997
  155.3561  140.0474  157.3063 H   0  0  0  0  0  0  0  0  0  0  0  0  # atno 8009 bound_to 7997
  154.5254  140.2212  155.8910 H   0  0  0  0  0  0  0  0  0  0  0  0  # atno 8010 bound_to 7997
  139.5305  144.2649  152.0676 H   0  0  0  0  0  0  0  0  0  0  0  0  # atno 10167 bound_to 10162
  157.6959  131.0370  150.3576 H   0  0  0  0  0  0  0  0  0  0  0  0  # atno 10718 bound_to 10713
  154.5304  135.5718  153.6754 H   0  0  0  0  0  0  0  0  0  0  0  0  # atno 10763 bound_to 10752
  152.9938  135.6203  154.2637 H   0  0  0  0  0  0  0  0  0  0  0  0  # atno 10764 bound_to 10752
  154.2563  135.2857  155.2776 H   0  0  0  0  0  0  0  0  0  0  0  0  # atno 10765 bound_to 10752
  140.4014  134.6774  157.4564 H   0  0  0  0  0  0  0  0  0  0  0  0  # atno 11005 bound_to 11000
  145.0347  139.3310  143.6007 LP  0  0  0  0  0  0  0  0  0  0  0  0  # atno 17320 bound_to 7965
  146.3484  139.9698  142.8707 LP  0  0  0  0  0  0  0  0  0  0  0  0  # atno 17321 bound_to 7965
  140.2111  144.4561  150.6385 LP  0  0  0  0  0  0  0  0  0  0  0  0  # atno 17342 bound_to 10162
  140.6479  143.2218  151.6143 LP  0  0  0  0  0  0  0  0  0  0  0  0  # atno 17343 bound_to 10162
  156.4016  130.3917  149.6955 LP  0  0  0  0  0  0  0  0  0  0  0  0  # atno 17370 bound_to 10713
  156.4270  130.7797  151.2815 LP  0  0  0  0  0  0  0  0  0  0  0  0  # atno 17371 bound_to 10713
  140.0333  134.6373  155.9076 LP  0  0  0  0  0  0  0  0  0  0  0  0  # atno 17394 bound_to 11000
  141.1855  133.6555  156.5201 LP  0  0  0  0  0  0  0  0  0  0  0  0  # atno 17395 bound_to 11000

$$$$
