AV-unprocessed.smi:62|AV-procd|sdf|601|dock5
  -GOLD-   2262016493D 1   1.00000     0.00000
 Structure written by MMmdl.
 31 32  0  0  0  0  0  0  0  0  3 V2000
  151.8647  142.5620  159.2293 C   0  0  0  0  0  0  0  0  0  0  0  0
  151.4801  141.9207  157.9905 N   0  0  0  0  0  0  0  0  0  0  0  0
  150.4397  142.2325  157.1457 C   0  0  0  0  0  0  0  0  0  0  0  0
  150.4692  141.3541  156.0978 C   0  0  0  0  0  0  0  0  0  0  0  0
  149.5116  141.3300  154.9296 C   0  0  0  0  0  0  0  0  0  0  0  0
  148.3128  142.1581  155.1961 N   0  3  1  0  0  0  0  0  0  0  0  0
  147.3671  142.3055  154.0628 C   0  0  0  0  0  0  0  0  0  0  0  0
  145.9562  142.1233  154.6377 C   0  0  0  0  0  0  0  0  0  0  0  0
  146.1382  142.3076  156.1422 C   0  0  1  0  0  0  0  0  0  0  0  0
  145.1511  141.6243  156.8855 O   0  0  0  0  0  0  0  0  0  0  0  0
  147.5367  141.7451  156.3817 C   0  0  0  0  0  0  0  0  0  0  0  0
  151.5965  140.5188  156.4060 C   0  0  0  0  0  0  0  0  0  0  0  0
  152.0186  139.3733  155.5239 C   0  0  0  0  0  0  0  0  0  0  0  0
  153.0228  138.6902  155.8233 O   0  0  0  0  0  0  0  0  0  0  0  0
  151.3435  139.1469  154.4962 O   0  5  0  0  0  0  0  0  0  0  0  0
  152.1898  140.8702  157.5389 N   0  0  0  0  0  0  0  0  0  0  0  0
  151.1824  143.3822  159.4540 H   0  0  0  0  0  0  0  0  0  0  0  0
  152.8773  142.9570  159.1410 H   0  0  0  0  0  0  0  0  0  0  0  0
  151.8319  141.8392  160.0451 H   0  0  0  0  0  0  0  0  0  0  0  0
  149.7670  143.0509  157.3559 H   0  0  0  0  0  0  0  0  0  0  0  0
  149.9932  141.6903  154.0194 H   0  0  0  0  0  0  0  0  0  0  0  0
  149.1959  140.3092  154.7110 H   0  0  0  0  0  0  0  0  0  0  0  0
  147.4921  143.3009  153.6353 H   0  0  0  0  0  0  0  0  0  0  0  0
  147.5532  141.5788  153.2707 H   0  0  0  0  0  0  0  0  0  0  0  0
  145.2319  142.8176  154.2107 H   0  0  0  0  0  0  0  0  0  0  0  0
  145.6114  141.1104  154.4230 H   0  0  0  0  0  0  0  0  0  0  0  0
  146.1179  143.3693  156.3927 H   0  0  0  0  0  0  0  0  0  0  0  0
  144.4761  141.3297  156.2928 H   0  0  0  0  0  0  0  0  0  0  0  0
  147.4996  140.6550  156.4296 H   0  0  0  0  0  0  0  0  0  0  0  0
  147.9870  142.1103  157.3054 H   0  0  0  0  0  0  0  0  0  0  0  0
  148.6509  143.0884  155.4028 H   0  0  0  0  0  0  0  0  0  0  0  0
  1  2  1  0  0  0  0
  1 17  1  0  0  0  0
  1 18  1  0  0  0  0
  1 19  1  0  0  0  0
  2 16  1  0  0  0  0
  2  3  1  0  0  0  0
  3  4  2  0  0  0  0
  3 20  1  0  0  0  0
  4  5  1  0  0  0  0
  4 12  1  0  0  0  0
  5  6  1  0  0  0  0
  5 21  1  0  0  0  0
  5 22  1  0  0  0  0
  6 11  1  0  0  0  0
  6  7  1  0  0  0  0
  6 31  1  0  0  0  0
  7  8  1  0  0  0  0
  7 23  1  0  0  0  0
  7 24  1  0  0  0  0
  8  9  1  0  0  0  0
  8 25  1  0  0  0  0
  8 26  1  0  0  0  0
  9 10  1  0  0  0  0
  9 11  1  0  0  0  0
  9 27  1  0  0  0  0
 10 28  1  0  0  0  0
 11 29  1  0  0  0  0
 11 30  1  0  0  0  0
 12 13  1  0  0  0  0
 12 16  2  0  0  0  0
 13 14  2  0  0  0  0
 13 15  1  0  0  0  0
M  CHG  1   6   1
M  CHG  1  15  -1
M  END
> <s_m_source_file>
AV-unprocessed.smi

> <i_m_source_file_index>
62

> <i_lp_mmshare_version>
43012

> <i_f3d_flags>
0

> <s_epik_input>
W0NIM11uMVtjSF1jKGMobjEpQyg9TylbT0hdKVtDSDJdTjJbQ0gyXVtDSDJdW0NAQEhdKFtPSF0pW0NIMl0y

> <s_epik_cmdline>
J2VwaWtfcHl0aG9uJywgJy1waCcsICc3LjAnLCAnLXRuJywgJzgnLCAnLW1hJywgJzIwMCcsICctbWV0YWxfYmluZGluZycsICctaW1hZScsICc8aW5maWxlLm1hZT4nLCAnLW9tYWUnLCAnPG91dGZpbGUubWFlPic=

> <r_epik_Ionization_Penalty>
0.0522993

> <r_epik_Ionization_Penalty_Charging>
0.0522915

> <r_epik_Ionization_Penalty_Neutral>
7.84975e-06

> <r_epik_State_Penalty>
0.0448084

> <r_epik_Charging_Adjusted_Penalty>
0.0970998

> <i_epik_Tot_Q>
0

> <i_epik_Tot_abs_Q>
2

> <r_epik_Metal_State_Penalty>
0.0448097

> <b_epik_Metal_Only>
0

> <s_lp_Force_Field>
OPLS_2005

> <r_lp_Energy>
17.2463

> <b_lp_Chiralities_Consistent>
1

> <s_lp_Variant>
AV-unprocessed.smi:62-1

> <Gold.Version>
5.8.1

> <Gold.Id.Protein>
6NUR|6NUR_protein|mol2

> <Gold.PLP.Fitness>
46.8350

> <Gold.PLP.PLP>
-29.4021

> <Gold.PLP.part.hbond>
-3.2294

> <Gold.PLP.part.metal>
0.0000

> <Gold.PLP.part.buried>
-2.5135

> <Gold.PLP.part.nonpolar>
-23.4588

> <Gold.PLP.part.repulsive>
0.2702

> <Gold.PLP.ligand.clash>
0.0000

> <Gold.PLP.ligand.torsion>
0.1785

> <Gold.PLP.Chemscore.Hbond>
5.0000

> <Gold.PLP.Chemscore.CHOScore>
0.9261

> <Gold.PLP.Chemscore.Metal>
0.0000

> <Gold.Chemscore.Hbonds>
donor molecule, donor type, donor heavy atom, donor atom, acceptor molecule, acceptor atom, score
      L1  H     6    31       P1  8028  2.00
      P1  H  7989  7998       L1    15  1.00
      P1  H  7997  8008       L1    14  2.00
      L1  C     3    20       P1  8028  0.93

> <Gold.PLP.Chemscore.Internal.Correction>
0.0116

> <Gold.Rescore>
     Score         DG    S(hbond)    S(metal)    S(lipo)     H(rot)  DE(clash)    DE(int)     intcor
     14.45     -15.98       2.62        0.00      54.69       1.81       0.09       1.44       ----

> <Gold.Chemscore.Fitness>
14.4503

> <Gold.Chemscore.DG>
-15.9846

> <Gold.Chemscore.ZeroCoef>
-5.4800

> <Gold.Chemscore.Hbond>
2.6161

> <Gold.Chemscore.Metal>
0.0000

> <Gold.Chemscore.Lipo>
54.6859

> <Gold.Chemscore.Internal_Hbond>
0.0000

> <Gold.Chemscore.DEClash>
0.0940

> <Gold.Chemscore.DEInternal>
1.4402

> <Gold.Chemscore.Rot>
1.8091

> <Gold.Chemscore.Internal.Correction>
   9.000000E+99

> <Gold.Chemscore.Hbonds>
donor molecule, donor type, donor heavy atom, donor atom, acceptor molecule, acceptor atom, score
      L1  H     6    31       P1  8028  1.00
      P1  H  7989  7998       L1    15  0.24
      P1  H  7997  8008       L1    14  0.33

> <Gold.Chemscore.Hbond.Weighted>
-8.7377

> <Gold.Chemscore.Metal.Weighted>
-0.0000

> <Gold.Chemscore.Lipo.Weighted>
-6.3983

> <Gold.Chemscore.Internal_Hbond.Weighted>
0.0000

> <Gold.Chemscore.DEClash.Weighted>
0.0940

> <Gold.Chemscore.DEInternal.Weighted>
1.4402

> <Gold.Chemscore.Rot.Weighted>
4.6314

> <Gold.Chemscore.Internal.Correction.Weighted>
   9.000000E+99

> <Gold.Protein.RotatedTorsions>
[ 6907 6896 6895 6894 ] final  -30.90 input  -60.11 | X-H torsion
[ 7974 7965 7964 7962 ] final -103.23 input  175.53 | X-H torsion
[ 8008 7997 7996 7995 ] final  -41.57 input   59.86 | X-H torsion
[ 10167 10162 10161 10158 ] final  144.83 input  -65.29 | X-H torsion
[ 10718 10713 10712 10709 ] final  -54.80 input   66.30 | X-H torsion
[ 10763 10752 10751 10750 ] final   -2.78 input  -60.55 | X-H torsion
[ 11005 11000 10999 10996 ] final  172.30 input  -57.11 | X-H torsion

> <Gold.Protein.ActiveResidues>
 VAL166  LYS551  ARG553  GLY616  TRP617  ASP618  TYR619  PRO620  LYS621  CYS622 
 ASP623  PHE694  ASN695  SER759  ASP760  ASP761  ALA762  ILE779  LEU786  VAL792 
 PHE793  MET794  SER795  GLU796  ALA797  LYS798  CYS799  TRP800  GLU811  SER814 

> <Gold.Protein.RotatedAtoms>
  151.0993  134.9963  159.8440 H   0  0  0  0  0  0  0  0  0  0  0  0  # atno 6907 bound_to 6896
  152.5435  134.1969  159.8706 H   0  0  0  0  0  0  0  0  0  0  0  0  # atno 6908 bound_to 6896
  151.2011  133.4566  159.2629 H   0  0  0  0  0  0  0  0  0  0  0  0  # atno 6909 bound_to 6896
  145.2585  140.9261  143.3054 H   0  0  0  0  0  0  0  0  0  0  0  0  # atno 7974 bound_to 7965
  154.4003  140.1496  156.3212 H   0  0  0  0  0  0  0  0  0  0  0  0  # atno 8008 bound_to 7997
  155.8528  140.3457  155.5683 H   0  0  0  0  0  0  0  0  0  0  0  0  # atno 8009 bound_to 7997
  155.7966  140.0864  157.1971 H   0  0  0  0  0  0  0  0  0  0  0  0  # atno 8010 bound_to 7997
  139.4938  144.5944  151.6613 H   0  0  0  0  0  0  0  0  0  0  0  0  # atno 10167 bound_to 10162
  156.1420  130.4154  150.0086 H   0  0  0  0  0  0  0  0  0  0  0  0  # atno 10718 bound_to 10713
  153.3626  135.6991  153.6700 H   0  0  0  0  0  0  0  0  0  0  0  0  # atno 10763 bound_to 10752
  153.5382  135.3578  155.2707 H   0  0  0  0  0  0  0  0  0  0  0  0  # atno 10764 bound_to 10752
  154.8670  135.4197  154.2887 H   0  0  0  0  0  0  0  0  0  0  0  0  # atno 10765 bound_to 10752
  140.3282  134.7380  157.4115 H   0  0  0  0  0  0  0  0  0  0  0  0  # atno 11005 bound_to 11000
  144.9439  139.4158  143.6435 LP  0  0  0  0  0  0  0  0  0  0  0  0  # atno 17320 bound_to 7965
  146.3282  139.8413  142.8890 LP  0  0  0  0  0  0  0  0  0  0  0  0  # atno 17321 bound_to 7965
  140.5579  144.0318  150.6156 LP  0  0  0  0  0  0  0  0  0  0  0  0  # atno 17342 bound_to 10162
  140.3394  143.3029  152.0604 LP  0  0  0  0  0  0  0  0  0  0  0  0  # atno 17343 bound_to 10162
  156.7969  130.9276  151.3646 LP  0  0  0  0  0  0  0  0  0  0  0  0  # atno 17370 bound_to 10713
  157.6584  130.8945  149.9778 LP  0  0  0  0  0  0  0  0  0  0  0  0  # atno 17371 bound_to 10713
  140.0883  134.5636  155.8470 LP  0  0  0  0  0  0  0  0  0  0  0  0  # atno 17394 bound_to 11000
  141.2070  133.6660  156.6277 LP  0  0  0  0  0  0  0  0  0  0  0  0  # atno 17395 bound_to 11000

$$$$
