AV-unprocessed.smi:2124|AV-procd|sdf|8671|dock8
  -GOLD-   2272011423D 1   1.00000     0.00000
 Structure written by MMmdl.
 46 48  0  0  0  0  0  0  0  0  2 V2000
  153.6130  136.9228  161.9702 C   0  0  0  0  0  0  0  0  0  0  0  0
  153.2843  137.2660  160.5331 C   0  0  0  0  0  0  0  0  0  0  0  0
  152.0683  137.2153  160.1407 N   0  0  0  0  0  0  0  0  0  0  0  0
  151.7573  137.5398  158.8092 C   0  0  0  0  0  0  0  0  0  0  0  0
  150.2885  137.4575  158.4308 C   0  0  0  0  0  0  0  0  0  0  0  0
  152.7304  137.9078  157.9271 C   0  0  0  0  0  0  0  0  0  0  0  0
  152.4451  138.2788  156.4719 C   0  0  0  0  0  0  0  0  0  0  0  0
  151.8143  139.6523  156.2300 C   0  0  0  0  0  0  0  0  0  0  0  0
  151.4696  139.9952  155.0990 O   0  0  0  0  0  0  0  0  0  0  0  0
  151.6638  140.4223  157.3211 N   0  0  0  0  0  0  0  0  0  0  0  0
  151.0618  141.7564  157.3963 C   0  0  1  0  0  0  0  0  0  0  0  0
  149.5816  141.7126  156.9680 C   0  0  0  0  0  0  0  0  0  0  0  0
  151.2721  142.4269  158.7813 C   0  0  2  0  0  0  0  0  0  0  0  0
  150.6107  143.8217  158.8997 C   0  0  0  0  0  0  0  0  0  0  0  0
  151.7664  144.7237  159.3677 C   0  0  1  0  0  0  0  0  0  0  0  0
  152.1498  144.3631  160.8146 C   0  0  0  0  0  0  0  0  0  0  0  0
  152.8574  143.0054  160.6479 C   0  0  0  0  0  0  0  0  0  0  0  0
  152.7482  142.7496  159.1328 C   0  0  2  0  0  0  0  0  0  0  0  0
  152.9360  144.1567  158.5751 C   0  0  0  0  0  0  0  0  0  0  0  0
  154.1199  137.9434  158.4163 C   0  0  0  0  0  0  0  0  0  0  0  0
  155.0380  138.2494  157.6561 O   0  0  0  0  0  0  0  0  0  0  0  0
  154.3390  137.6234  159.7235 N   0  5  0  0  0  0  0  0  0  0  0  0
  152.7771  136.4153  162.4535 H   0  0  0  0  0  0  0  0  0  0  0  0
  153.8347  137.8310  162.5312 H   0  0  0  0  0  0  0  0  0  0  0  0
  154.4824  136.2660  162.0181 H   0  0  0  0  0  0  0  0  0  0  0  0
  149.9016  138.4471  158.1885 H   0  0  0  0  0  0  0  0  0  0  0  0
  149.6920  137.0555  159.2506 H   0  0  0  0  0  0  0  0  0  0  0  0
  150.1480  136.8076  157.5670 H   0  0  0  0  0  0  0  0  0  0  0  0
  153.3838  138.2432  155.9187 H   0  0  0  0  0  0  0  0  0  0  0  0
  151.8185  137.5208  156.0007 H   0  0  0  0  0  0  0  0  0  0  0  0
  151.9889  140.0374  158.1961 H   0  0  0  0  0  0  0  0  0  0  0  0
  151.5948  142.3467  156.6506 H   0  0  0  0  0  0  0  0  0  0  0  0
  149.1649  142.7146  156.8695 H   0  0  0  0  0  0  0  0  0  0  0  0
  148.9663  141.1750  157.6895 H   0  0  0  0  0  0  0  0  0  0  0  0
  149.4678  141.2195  156.0021 H   0  0  0  0  0  0  0  0  0  0  0  0
  150.8558  141.7708  159.5468 H   0  0  0  0  0  0  0  0  0  0  0  0
  150.2379  144.1724  157.9367 H   0  0  0  0  0  0  0  0  0  0  0  0
  149.7724  143.8248  159.5974 H   0  0  0  0  0  0  0  0  0  0  0  0
  151.5791  145.7870  159.2159 H   0  0  0  0  0  0  0  0  0  0  0  0
  152.8329  145.1028  161.2337 H   0  0  0  0  0  0  0  0  0  0  0  0
  151.2790  144.3012  161.4682 H   0  0  0  0  0  0  0  0  0  0  0  0
  153.9025  143.0793  160.9515 H   0  0  0  0  0  0  0  0  0  0  0  0
  152.3948  142.2154  161.2406 H   0  0  0  0  0  0  0  0  0  0  0  0
  153.4737  142.0172  158.7783 H   0  0  0  0  0  0  0  0  0  0  0  0
  152.8000  144.2204  157.4945 H   0  0  0  0  0  0  0  0  0  0  0  0
  153.8958  144.6036  158.8411 H   0  0  0  0  0  0  0  0  0  0  0  0
  1  2  1  0  0  0  0
  1 23  1  0  0  0  0
  1 24  1  0  0  0  0
  1 25  1  0  0  0  0
  2 22  1  0  0  0  0
  2  3  2  0  0  0  0
  3  4  1  0  0  0  0
  4  5  1  0  0  0  0
  4  6  2  0  0  0  0
  5 26  1  0  0  0  0
  5 27  1  0  0  0  0
  5 28  1  0  0  0  0
  6  7  1  0  0  0  0
  6 20  1  0  0  0  0
  7  8  1  0  0  0  0
  7 29  1  0  0  0  0
  7 30  1  0  0  0  0
  8  9  2  0  0  0  0
  8 10  1  0  0  0  0
 10 11  1  0  0  0  0
 10 31  1  0  0  0  0
 11 12  1  0  0  0  0
 11 13  1  0  0  0  0
 11 32  1  0  0  0  0
 12 33  1  0  0  0  0
 12 34  1  0  0  0  0
 12 35  1  0  0  0  0
 13 18  1  0  0  0  0
 13 14  1  0  0  0  0
 13 36  1  0  0  0  0
 14 15  1  0  0  0  0
 14 37  1  0  0  0  0
 14 38  1  0  0  0  0
 15 19  1  0  0  0  0
 15 16  1  0  0  0  0
 15 39  1  0  0  0  0
 16 17  1  0  0  0  0
 16 40  1  0  0  0  0
 16 41  1  0  0  0  0
 17 18  1  0  0  0  0
 17 42  1  0  0  0  0
 17 43  1  0  0  0  0
 18 19  1  0  0  0  0
 18 44  1  0  0  0  0
 19 45  1  0  0  0  0
 19 46  1  0  0  0  0
 20 21  2  0  0  0  0
 20 22  1  0  0  0  0
M  CHG  1  22  -1
M  END
> <s_m_source_file>
AV-unprocessed.smi

> <i_m_source_file_index>
2124

> <i_lp_mmshare_version>
43012

> <i_f3d_flags>
0

> <s_epik_input>
W0NIM11jMW5jKFtDSDNdKWMoYyg9TylbbkhdMSlbQ0gyXUMoPU8pW05IXVtDQEhdKFtDSDNdKVtDQEhdKFtDSDJdW0NASF0yMylbQ0BIXShbQ0gyXTMpW0NIMl1bQ0gyXTI=

> <s_epik_cmdline>
J2VwaWtfcHl0aG9uJywgJy1waCcsICc3LjAnLCAnLXRuJywgJzgnLCAnLW1hJywgJzIwMCcsICctbWV0YWxfYmluZGluZycsICctaW1hZScsICc8aW5maWxlLm1hZT4nLCAnLW9tYWUnLCAnPG91dGZpbGUubWFlPic=

> <r_lp_tautomer_probability>
0.839158

> <r_epik_Ionization_Penalty>
6.63797

> <r_epik_Ionization_Penalty_Charging>
7.48558e-08

> <r_epik_Ionization_Penalty_Neutral>
6.63797

> <r_epik_State_Penalty>
4.49496

> <r_epik_Charging_Adjusted_Penalty>
4.49496

> <i_epik_Tot_Q>
-1

> <i_epik_Tot_abs_Q>
1

> <r_epik_Metal_State_Penalty>
0.841241

> <b_epik_Metal_Only>
1

> <s_lp_Force_Field>
OPLS_2005

> <r_lp_Energy>
55.5878

> <b_lp_Chiralities_Consistent>
1

> <s_lp_Variant>
AV-unprocessed.smi:2124-22

> <Gold.Version>
5.8.1

> <Gold.Id.Protein>
6NUR|6NUR_protein|mol2

> <Gold.PLP.Fitness>
51.1818

> <Gold.PLP.PLP>
-44.4672

> <Gold.PLP.part.hbond>
-2.2074

> <Gold.PLP.part.metal>
0.0000

> <Gold.PLP.part.buried>
-6.8552

> <Gold.PLP.part.nonpolar>
-36.1697

> <Gold.PLP.part.repulsive>
0.1333

> <Gold.PLP.ligand.clash>
0.0000

> <Gold.PLP.ligand.torsion>
0.3081

> <Gold.PLP.Chemscore.Hbond>
2.4208

> <Gold.PLP.Chemscore.CHOScore>
0.0000

> <Gold.PLP.Chemscore.Metal>
0.0000

> <Gold.Chemscore.Hbonds>
donor molecule, donor type, donor heavy atom, donor atom, acceptor molecule, acceptor atom, score
      P1  H  6896  6908       L1     3  0.78
      P1  H  7989  7998       L1     9  1.00
      P1  H  7997  8009       L1    21  0.62

> <Gold.PLP.Chemscore.Internal.Correction>
0.0686

> <Gold.Rescore>
     Score         DG    S(hbond)    S(metal)    S(lipo)     H(rot)  DE(clash)    DE(int)     intcor
     20.53     -21.13       1.71        0.00     120.02       1.61       0.18       0.42       ----

> <Gold.Chemscore.Fitness>
20.5263

> <Gold.Chemscore.DG>
-21.1313

> <Gold.Chemscore.ZeroCoef>
-5.4800

> <Gold.Chemscore.Hbond>
1.7118

> <Gold.Chemscore.Metal>
0.0000

> <Gold.Chemscore.Lipo>
120.0233

> <Gold.Chemscore.Internal_Hbond>
0.0000

> <Gold.Chemscore.DEClash>
0.1815

> <Gold.Chemscore.DEInternal>
0.4235

> <Gold.Chemscore.Rot>
1.6051

> <Gold.Chemscore.Internal.Correction>
   9.000000E+99

> <Gold.Chemscore.Hbonds>
donor molecule, donor type, donor heavy atom, donor atom, acceptor molecule, acceptor atom, score
      P1  H  6896  6908       L1     3  0.05
      P1  H  7989  7998       L1     9  0.98
      P1  H  7997  8009       L1    21  0.55

> <Gold.Chemscore.Hbond.Weighted>
-5.7175

> <Gold.Chemscore.Metal.Weighted>
-0.0000

> <Gold.Chemscore.Lipo.Weighted>
-14.0427

> <Gold.Chemscore.Internal_Hbond.Weighted>
0.0000

> <Gold.Chemscore.DEClash.Weighted>
0.1815

> <Gold.Chemscore.DEInternal.Weighted>
0.4235

> <Gold.Chemscore.Rot.Weighted>
4.1090

> <Gold.Chemscore.Internal.Correction.Weighted>
   9.000000E+99

> <Gold.Protein.RotatedTorsions>
[ 6907 6896 6895 6894 ] final -111.68 input  -60.11 | X-H torsion
[ 7974 7965 7964 7962 ] final  -83.58 input  175.53 | X-H torsion
[ 8008 7997 7996 7995 ] final  120.74 input   59.86 | X-H torsion
[ 10167 10162 10161 10158 ] final  -60.90 input  -65.29 | X-H torsion
[ 10718 10713 10712 10709 ] final  156.32 input   66.30 | X-H torsion
[ 10763 10752 10751 10750 ] final   -9.36 input  -60.55 | X-H torsion
[ 11005 11000 10999 10996 ] final  142.84 input  -57.11 | X-H torsion

> <Gold.Protein.ActiveResidues>
 VAL166  LYS551  ARG553  GLY616  TRP617  ASP618  TYR619  PRO620  LYS621  CYS622 
 ASP623  PHE694  ASN695  SER759  ASP760  ASP761  ALA762  ILE779  LEU786  VAL792 
 PHE793  MET794  SER795  GLU796  ALA797  LYS798  CYS799  TRP800  GLU811  SER814 

> <Gold.Protein.RotatedAtoms>
  150.7707  133.9200  159.3394 H   0  0  0  0  0  0  0  0  0  0  0  0  # atno 6907 bound_to 6896
  151.7087  135.0915  160.0273 H   0  0  0  0  0  0  0  0  0  0  0  0  # atno 6908 bound_to 6896
  152.3723  133.6397  159.6132 H   0  0  0  0  0  0  0  0  0  0  0  0  # atno 6909 bound_to 6896
  145.5181  140.9534  143.1670 H   0  0  0  0  0  0  0  0  0  0  0  0  # atno 7974 bound_to 7965
  156.2656  140.2824  156.1197 H   0  0  0  0  0  0  0  0  0  0  0  0  # atno 8008 bound_to 7997
  155.1169  140.0391  157.2757 H   0  0  0  0  0  0  0  0  0  0  0  0  # atno 8009 bound_to 7997
  154.6700  140.2585  155.7023 H   0  0  0  0  0  0  0  0  0  0  0  0  # atno 8010 bound_to 7997
  140.6041  143.2369  151.5862 H   0  0  0  0  0  0  0  0  0  0  0  0  # atno 10167 bound_to 10162
  157.2065  131.0688  151.1994 H   0  0  0  0  0  0  0  0  0  0  0  0  # atno 10718 bound_to 10713
  153.4536  135.7015  153.6093 H   0  0  0  0  0  0  0  0  0  0  0  0  # atno 10763 bound_to 10752
  153.4417  135.3778  155.2232 H   0  0  0  0  0  0  0  0  0  0  0  0  # atno 10764 bound_to 10752
  154.8728  135.3975  154.3952 H   0  0  0  0  0  0  0  0  0  0  0  0  # atno 10765 bound_to 10752
  140.0508  134.9257  157.1013 H   0  0  0  0  0  0  0  0  0  0  0  0  # atno 11005 bound_to 11000
  144.7691  139.6776  143.7202 LP  0  0  0  0  0  0  0  0  0  0  0  0  # atno 17320 bound_to 7965
  146.2124  139.5489  142.9672 LP  0  0  0  0  0  0  0  0  0  0  0  0  # atno 17321 bound_to 7965
  139.5312  144.2911  152.1151 LP  0  0  0  0  0  0  0  0  0  0  0  0  # atno 17342 bound_to 10162
  140.2097  144.4575  150.6391 LP  0  0  0  0  0  0  0  0  0  0  0  0  # atno 17343 bound_to 10162
  157.3715  130.7183  149.6568 LP  0  0  0  0  0  0  0  0  0  0  0  0  # atno 17370 bound_to 10713
  155.9695  130.4197  150.4390 LP  0  0  0  0  0  0  0  0  0  0  0  0  # atno 17371 bound_to 10713
  140.3921  134.2173  155.7166 LP  0  0  0  0  0  0  0  0  0  0  0  0  # atno 17394 bound_to 11000
  141.1929  133.8163  157.0820 LP  0  0  0  0  0  0  0  0  0  0  0  0  # atno 17395 bound_to 11000

$$$$
