AV-unprocessed.smi:193|AV-procd|sdf|1509|dock2
  -GOLD-   2262019343D 1   1.00000     0.00000
 Structure written by MMmdl.
 62 66  0  0  0  0  0  0  0  0  2 V2000
  150.5077  132.9128  155.2877 C   0  0  0  0  0  0  0  0  0  0  0  0
  149.5313  134.0990  155.2597 C   0  0  1  0  0  0  0  0  0  0  0  0
  150.2174  135.3549  154.6870 C   0  0  0  0  0  0  0  0  0  0  0  0
  149.6436  136.5882  155.2306 N   0  0  0  0  0  0  0  0  0  0  0  0
  150.4837  137.6460  155.3455 C   0  0  0  0  0  0  0  0  0  0  0  0
  151.8140  137.4864  155.1135 N   0  0  0  0  0  0  0  0  0  0  0  0
  152.6419  138.5319  155.2054 C   0  0  0  0  0  0  0  0  0  0  0  0
  152.3544  139.8004  155.5051 N   0  0  0  0  0  0  0  0  0  0  0  0
  151.0205  139.9644  155.7374 C   0  0  0  0  0  0  0  0  0  0  0  0
  150.0252  138.9494  155.6805 C   0  0  0  0  0  0  0  0  0  0  0  0
  148.7796  139.4854  155.9836 N   0  0  0  0  0  0  0  0  0  0  0  0
  149.0237  140.7493  156.2000 C   0  0  0  0  0  0  0  0  0  0  0  0
  150.3414  141.1252  156.0640 N   0  0  0  0  0  0  0  0  0  0  0  0
  150.8857  142.4630  156.2386 C   0  0  0  0  0  0  0  0  0  0  0  0
  150.9065  142.9422  157.7111 C   0  0  0  0  0  0  0  0  0  0  0  0
  149.5689  142.9521  158.1804 O   0  0  0  0  0  0  0  0  0  0  0  0
  151.7190  141.9655  158.5843 C   0  0  0  0  0  0  0  0  0  0  0  0
  151.9058  142.4890  160.0194 C   0  0  0  0  0  0  0  0  0  0  0  0
  152.5074  143.7775  159.9925 O   0  0  0  0  0  0  0  0  0  0  0  0
  151.6984  144.7491  159.3407 C   0  0  0  0  0  0  0  0  0  0  0  0
  151.4896  144.3642  157.8651 C   0  0  0  0  0  0  0  0  0  0  0  0
  148.2854  136.9825  154.8604 C   0  0  0  0  0  0  0  0  0  0  0  0
  147.2315  135.8966  155.1240 C   0  0  0  0  0  0  0  0  0  0  0  0
  147.3440  134.8113  154.1211 N   0  3  2  0  0  0  0  0  0  0  0  0
  146.0239  134.3169  153.6699 C   0  0  1  0  0  0  0  0  0  0  0  0
  145.5161  135.0093  152.4266 C   0  0  0  0  0  0  0  0  0  0  0  0
  146.0604  133.5995  152.3386 C   0  0  2  0  0  0  0  0  0  0  0  0
  145.1295  132.4397  152.0620 C   0  0  0  0  0  0  0  0  0  0  0  0
  148.2427  133.6925  154.5072 C   0  0  0  0  0  0  0  0  0  0  0  0
  150.8523  132.6569  154.2852 H   0  0  0  0  0  0  0  0  0  0  0  0
  150.0386  132.0263  155.7157 H   0  0  0  0  0  0  0  0  0  0  0  0
  151.3860  133.1402  155.8925 H   0  0  0  0  0  0  0  0  0  0  0  0
  149.2761  134.3024  156.3011 H   0  0  0  0  0  0  0  0  0  0  0  0
  151.2753  135.3189  154.9530 H   0  0  0  0  0  0  0  0  0  0  0  0
  150.1724  135.3623  153.5971 H   0  0  0  0  0  0  0  0  0  0  0  0
  153.6831  138.3233  155.0075 H   0  0  0  0  0  0  0  0  0  0  0  0
  148.2436  141.4498  156.4608 H   0  0  0  0  0  0  0  0  0  0  0  0
  151.8938  142.4759  155.8219 H   0  0  0  0  0  0  0  0  0  0  0  0
  150.2981  143.1505  155.6289 H   0  0  0  0  0  0  0  0  0  0  0  0
  149.0852  143.6011  157.6925 H   0  0  0  0  0  0  0  0  0  0  0  0
  151.2447  140.9836  158.6030 H   0  0  0  0  0  0  0  0  0  0  0  0
  152.7046  141.8192  158.1404 H   0  0  0  0  0  0  0  0  0  0  0  0
  150.9541  142.5297  160.5515 H   0  0  0  0  0  0  0  0  0  0  0  0
  152.5507  141.8129  160.5810 H   0  0  0  0  0  0  0  0  0  0  0  0
  150.7440  144.8512  159.8593 H   0  0  0  0  0  0  0  0  0  0  0  0
  152.1956  145.7172  159.4046 H   0  0  0  0  0  0  0  0  0  0  0  0
  152.4526  144.4139  157.3556 H   0  0  0  0  0  0  0  0  0  0  0  0
  150.8490  145.1031  157.3821 H   0  0  0  0  0  0  0  0  0  0  0  0
  147.9968  137.8717  155.4216 H   0  0  0  0  0  0  0  0  0  0  0  0
  148.2701  137.2724  153.8087 H   0  0  0  0  0  0  0  0  0  0  0  0
  147.2729  135.5153  156.1450 H   0  0  0  0  0  0  0  0  0  0  0  0
  146.2538  136.3705  155.0257 H   0  0  0  0  0  0  0  0  0  0  0  0
  145.3308  134.0075  154.4506 H   0  0  0  0  0  0  0  0  0  0  0  0
  144.4400  135.1417  152.3325 H   0  0  0  0  0  0  0  0  0  0  0  0
  146.1198  135.8070  151.9974 H   0  0  0  0  0  0  0  0  0  0  0  0
  147.0344  133.4967  151.8628 H   0  0  0  0  0  0  0  0  0  0  0  0
  144.1635  132.5936  152.5438 H   0  0  0  0  0  0  0  0  0  0  0  0
  145.5630  131.5140  152.4404 H   0  0  0  0  0  0  0  0  0  0  0  0
  144.9696  132.3363  150.9886 H   0  0  0  0  0  0  0  0  0  0  0  0
  148.5040  133.1573  153.5935 H   0  0  0  0  0  0  0  0  0  0  0  0
  147.6882  132.9855  155.1265 H   0  0  0  0  0  0  0  0  0  0  0  0
  147.7652  135.2437  153.3110 H   0  0  0  0  0  0  0  0  0  0  0  0
  1  2  1  0  0  0  0
  1 30  1  0  0  0  0
  1 31  1  0  0  0  0
  1 32  1  0  0  0  0
  2 29  1  0  0  0  0
  2  3  1  0  0  0  0
  2 33  1  0  0  0  0
  3  4  1  0  0  0  0
  3 34  1  0  0  0  0
  3 35  1  0  0  0  0
  4  5  1  0  0  0  0
  4 22  1  0  0  0  0
  5 10  1  0  0  0  0
  5  6  2  0  0  0  0
  6  7  1  0  0  0  0
  7  8  2  0  0  0  0
  7 36  1  0  0  0  0
  8  9  1  0  0  0  0
  9 13  1  0  0  0  0
  9 10  2  0  0  0  0
 10 11  1  0  0  0  0
 11 12  2  0  0  0  0
 12 13  1  0  0  0  0
 12 37  1  0  0  0  0
 13 14  1  0  0  0  0
 14 15  1  0  0  0  0
 14 38  1  0  0  0  0
 14 39  1  0  0  0  0
 15 21  1  0  0  0  0
 15 16  1  0  0  0  0
 15 17  1  0  0  0  0
 16 40  1  0  0  0  0
 17 18  1  0  0  0  0
 17 41  1  0  0  0  0
 17 42  1  0  0  0  0
 18 19  1  0  0  0  0
 18 43  1  0  0  0  0
 18 44  1  0  0  0  0
 19 20  1  0  0  0  0
 20 21  1  0  0  0  0
 20 45  1  0  0  0  0
 20 46  1  0  0  0  0
 21 47  1  0  0  0  0
 21 48  1  0  0  0  0
 22 23  1  0  0  0  0
 22 49  1  0  0  0  0
 22 50  1  0  0  0  0
 23 24  1  0  0  0  0
 23 51  1  0  0  0  0
 23 52  1  0  0  0  0
 24 25  1  0  0  0  0
 24 29  1  0  0  0  0
 24 62  1  0  0  0  0
 25 27  1  0  0  0  0
 25 26  1  0  0  0  0
 25 53  1  0  0  0  0
 26 27  1  0  0  0  0
 26 54  1  0  0  0  0
 26 55  1  0  0  0  0
 27 28  1  0  0  0  0
 27 56  1  0  0  0  0
 28 57  1  0  0  0  0
 28 58  1  0  0  0  0
 28 59  1  0  0  0  0
 29 60  1  0  0  0  0
 29 61  1  0  0  0  0
M  CHG  1  24   1
M  END
> <s_m_source_file>
AV-unprocessed.smi

> <i_m_source_file_index>
193

> <i_lp_mmshare_version>
43012

> <i_f3d_flags>
0

> <s_epik_input>
W0NIM11bQ0BASF0xW0NIMl1bQ0BIXTFOKFtDSDJdMilbQ0gyXVtDSDJdTihbQ0gyXVtDQEhdMltDSDNdKWMobltjSF1uMyljKGMzNCluW2NIXW40W0NIMl1DNShbT0hdKVtDSDJdW0NIMl1PW0NIMl1bQ0gyXTU=

> <s_epik_cmdline>
J2VwaWtfcHl0aG9uJywgJy1waCcsICc3LjAnLCAnLXRuJywgJzgnLCAnLW1hJywgJzIwMCcsICctbWV0YWxfYmluZGluZycsICctaW1hZScsICc8aW5maWxlLm1hZT4nLCAnLW9tYWUnLCAnPG91dGZpbGUubWFlPic=

> <r_lp_tautomer_probability>
1

> <r_epik_Ionization_Penalty>
0.0540825

> <r_epik_Ionization_Penalty_Charging>
0.0538476

> <r_epik_Ionization_Penalty_Neutral>
0.000234891

> <r_epik_State_Penalty>
0.0200719

> <r_epik_Charging_Adjusted_Penalty>
0.0739194

> <i_epik_Tot_Q>
1

> <i_epik_Tot_abs_Q>
1

> <r_epik_Metal_State_Penalty>
0.0199414

> <b_epik_Metal_Only>
0

> <s_lp_Force_Field>
OPLS_2005

> <r_lp_Energy>
55.1026

> <b_lp_Chiralities_Consistent>
1

> <s_lp_Variant>
AV-unprocessed.smi:193-14

> <Gold.Version>
5.8.1

> <Gold.Id.Protein>
6NUR|6NUR_protein|mol2

> <Gold.PLP.Fitness>
60.1077

> <Gold.PLP.PLP>
-46.1372

> <Gold.PLP.part.hbond>
-4.0000

> <Gold.PLP.part.metal>
0.0000

> <Gold.PLP.part.buried>
-5.6966

> <Gold.PLP.part.nonpolar>
-37.4170

> <Gold.PLP.part.repulsive>
0.2286

> <Gold.PLP.ligand.clash>
0.0000

> <Gold.PLP.ligand.torsion>
1.2032

> <Gold.PLP.Chemscore.Hbond>
4.8480

> <Gold.PLP.Chemscore.CHOScore>
0.0000

> <Gold.PLP.Chemscore.Metal>
0.0000

> <Gold.Chemscore.Hbonds>
donor molecule, donor type, donor heavy atom, donor atom, acceptor molecule, acceptor atom, score
      L1  H    16    40       P1  8028  0.26
      L1  H    24    62       P1  7948  1.66
      P1  H  7997  8009       L1     8  0.33
      P1  H 10752 10765       L1     6  0.39

> <Gold.PLP.Chemscore.Internal.Correction>
1.8328

> <Gold.Rescore>
     Score         DG    S(hbond)    S(metal)    S(lipo)     H(rot)  DE(clash)    DE(int)     intcor
     18.03     -24.26       3.35        0.00     112.89       2.20       2.43       3.79       ----

> <Gold.Chemscore.Fitness>
18.0298

> <Gold.Chemscore.DG>
-24.2553

> <Gold.Chemscore.ZeroCoef>
-5.4800

> <Gold.Chemscore.Hbond>
3.3544

> <Gold.Chemscore.Metal>
0.0000

> <Gold.Chemscore.Lipo>
112.8909

> <Gold.Chemscore.Internal_Hbond>
0.0000

> <Gold.Chemscore.DEClash>
2.4333

> <Gold.Chemscore.DEInternal>
3.7922

> <Gold.Chemscore.Rot>
2.2018

> <Gold.Chemscore.Internal.Correction>
   9.000000E+99

> <Gold.Chemscore.Hbonds>
donor molecule, donor type, donor heavy atom, donor atom, acceptor molecule, acceptor atom, score
      L1  H    16    40       P1  8028  0.05
      L1  H    24    62       P1  7948  0.80
      P1  H  7997  8009       L1     8  0.02
      P1  H 10752 10765       L1     6  0.29

> <Gold.Chemscore.Hbond.Weighted>
-11.2036

> <Gold.Chemscore.Metal.Weighted>
-0.0000

> <Gold.Chemscore.Lipo.Weighted>
-13.2082

> <Gold.Chemscore.Internal_Hbond.Weighted>
0.0000

> <Gold.Chemscore.DEClash.Weighted>
2.4333

> <Gold.Chemscore.DEInternal.Weighted>
3.7922

> <Gold.Chemscore.Rot.Weighted>
5.6366

> <Gold.Chemscore.Internal.Correction.Weighted>
   9.000000E+99

> <Gold.Protein.RotatedTorsions>
[ 6907 6896 6895 6894 ] final -109.51 input  -60.11 | X-H torsion
[ 7974 7965 7964 7962 ] final   96.14 input  175.53 | X-H torsion
[ 8008 7997 7996 7995 ] final -169.23 input   59.86 | X-H torsion
[ 10167 10162 10161 10158 ] final -111.32 input  -65.29 | X-H torsion
[ 10718 10713 10712 10709 ] final  158.93 input   66.30 | X-H torsion
[ 10763 10752 10751 10750 ] final -173.84 input  -60.55 | X-H torsion
[ 11005 11000 10999 10996 ] final  -98.29 input  -57.11 | X-H torsion

> <Gold.Protein.ActiveResidues>
 VAL166  LYS551  ARG553  GLY616  TRP617  ASP618  TYR619  PRO620  LYS621  CYS622 
 ASP623  PHE694  ASN695  SER759  ASP760  ASP761  ALA762  ILE779  LEU786  VAL792 
 PHE793  MET794  SER795  GLU796  ALA797  LYS798  CYS799  TRP800  GLU811  SER814 

> <Gold.Protein.RotatedAtoms>
  150.7567  133.9518  159.3487 H   0  0  0  0  0  0  0  0  0  0  0  0  # atno 6907 bound_to 6896
  151.7436  135.0847  160.0329 H   0  0  0  0  0  0  0  0  0  0  0  0  # atno 6908 bound_to 6896
  152.3512  133.6145  159.5982 H   0  0  0  0  0  0  0  0  0  0  0  0  # atno 6909 bound_to 6896
  145.4428  139.2300  143.3082 H   0  0  0  0  0  0  0  0  0  0  0  0  # atno 7974 bound_to 7965
  155.9021  140.1043  157.1342 H   0  0  0  0  0  0  0  0  0  0  0  0  # atno 8008 bound_to 7997
  154.4028  140.1290  156.4514 H   0  0  0  0  0  0  0  0  0  0  0  0  # atno 8009 bound_to 7997
  155.7410  140.3467  155.5106 H   0  0  0  0  0  0  0  0  0  0  0  0  # atno 8010 bound_to 7997
  140.1348  143.4329  152.1602 H   0  0  0  0  0  0  0  0  0  0  0  0  # atno 10167 bound_to 10162
  157.1712  131.0610  151.2182 H   0  0  0  0  0  0  0  0  0  0  0  0  # atno 10718 bound_to 10713
  154.6032  135.2856  155.0513 H   0  0  0  0  0  0  0  0  0  0  0  0  # atno 10763 bound_to 10752
  154.1770  135.6463  153.5028 H   0  0  0  0  0  0  0  0  0  0  0  0  # atno 10764 bound_to 10752
  153.0165  135.5414  154.6758 H   0  0  0  0  0  0  0  0  0  0  0  0  # atno 10765 bound_to 10752
  141.1350  133.8234  157.0819 H   0  0  0  0  0  0  0  0  0  0  0  0  # atno 11005 bound_to 11000
  146.2547  140.5179  142.8879 LP  0  0  0  0  0  0  0  0  0  0  0  0  # atno 17320 bound_to 7965
  144.8110  140.6386  143.6415 LP  0  0  0  0  0  0  0  0  0  0  0  0  # atno 17321 bound_to 7965
  139.5501  144.7331  151.4461 LP  0  0  0  0  0  0  0  0  0  0  0  0  # atno 17342 bound_to 10162
  140.6795  143.8113  150.7103 LP  0  0  0  0  0  0  0  0  0  0  0  0  # atno 17343 bound_to 10162
  157.4041  130.7349  149.6789 LP  0  0  0  0  0  0  0  0  0  0  0  0  # atno 17370 bound_to 10713
  155.9738  130.4113  150.3972 LP  0  0  0  0  0  0  0  0  0  0  0  0  # atno 17371 bound_to 10713
  140.0446  134.9837  157.1025 LP  0  0  0  0  0  0  0  0  0  0  0  0  # atno 17394 bound_to 11000
  140.4083  134.2009  155.7163 LP  0  0  0  0  0  0  0  0  0  0  0  0  # atno 17395 bound_to 11000

$$$$
