AV-unprocessed.smi:2194|AV-procd|sdf|8903|dock2
  -GOLD-   2272012113D 1   1.00000     0.00000
 Structure written by MMmdl.
 45 47  0  0  0  0  0  0  0  0  1 V2000
  153.7061  142.1518  162.6187 C   0  0  0  0  0  0  0  0  0  0  0  0
  153.0599  142.3652  161.2655 C   0  0  0  0  0  0  0  0  0  0  0  0
  152.5203  143.6216  160.9258 C   0  0  0  0  0  0  0  0  0  0  0  0
  151.9216  143.8159  159.6661 C   0  0  0  0  0  0  0  0  0  0  0  0
  151.8534  142.7650  158.7284 C   0  0  0  0  0  0  0  0  0  0  0  0
  151.2504  143.0428  157.5203 O   0  0  0  0  0  0  0  0  0  0  0  0
  150.9729  141.9600  156.6422 C   0  0  0  0  0  0  0  0  0  0  0  0
  149.5785  141.4012  156.9616 C   0  0  1  0  0  0  0  0  0  0  0  0
  148.7781  142.4582  157.4532 O   0  0  0  0  0  0  0  0  0  0  0  0
  148.9122  140.7477  155.7337 C   0  0  0  0  0  0  0  0  0  0  0  0
  149.3725  139.3859  155.5058 N   0  0  0  0  0  0  0  0  0  0  0  0
  150.0162  138.9415  154.4076 C   0  0  0  0  0  0  0  0  0  0  0  0
  150.3523  137.6514  154.4199 N   0  0  0  0  0  0  0  0  0  0  0  0
  149.8692  137.2360  155.6562 C   0  0  0  0  0  0  0  0  0  0  0  0
  149.2777  138.2584  156.3217 C   0  0  0  0  0  0  0  0  0  0  0  0
  148.6878  138.1059  157.6563 C   0  0  0  0  0  0  0  0  0  0  0  0
  148.1641  139.0551  158.2412 O   0  0  0  0  0  0  0  0  0  0  0  0
  148.7855  136.8389  158.1671 N   0  0  0  0  0  0  0  0  0  0  0  0
  148.2141  136.6266  159.5108 C   0  0  0  0  0  0  0  0  0  0  0  0
  149.4025  135.7709  157.5372 C   0  0  0  0  0  0  0  0  0  0  0  0
  149.4965  134.6682  158.0832 O   0  0  0  0  0  0  0  0  0  0  0  0
  149.9203  135.9628  156.2803 N   0  0  0  0  0  0  0  0  0  0  0  0
  150.5622  134.8499  155.5748 C   0  0  0  0  0  0  0  0  0  0  0  0
  152.4014  141.5041  159.0755 C   0  0  0  0  0  0  0  0  0  0  0  0
  152.9998  141.3087  160.3355 C   0  0  0  0  0  0  0  0  0  0  0  0
  153.2978  142.8399  163.3596 H   0  0  0  0  0  0  0  0  0  0  0  0
  154.7818  142.3164  162.5520 H   0  0  0  0  0  0  0  0  0  0  0  0
  153.5355  141.1346  162.9732 H   0  0  0  0  0  0  0  0  0  0  0  0
  152.5633  144.4404  161.6292 H   0  0  0  0  0  0  0  0  0  0  0  0
  151.5104  144.7831  159.4167 H   0  0  0  0  0  0  0  0  0  0  0  0
  150.9965  142.3182  155.6114 H   0  0  0  0  0  0  0  0  0  0  0  0
  151.7235  141.1743  156.7449 H   0  0  0  0  0  0  0  0  0  0  0  0
  149.6659  140.6642  157.7610 H   0  0  0  0  0  0  0  0  0  0  0  0
  149.0800  143.2672  157.0691 H   0  0  0  0  0  0  0  0  0  0  0  0
  147.8269  140.7564  155.8247 H   0  0  0  0  0  0  0  0  0  0  0  0
  149.1383  141.3304  154.8398 H   0  0  0  0  0  0  0  0  0  0  0  0
  150.2500  139.5868  153.5735 H   0  0  0  0  0  0  0  0  0  0  0  0
  147.9755  135.5855  159.7312 H   0  0  0  0  0  0  0  0  0  0  0  0
  147.2773  137.1694  159.6493 H   0  0  0  0  0  0  0  0  0  0  0  0
  148.9159  136.9720  160.2710 H   0  0  0  0  0  0  0  0  0  0  0  0
  149.8954  133.9880  155.5221 H   0  0  0  0  0  0  0  0  0  0  0  0
  151.4726  134.5463  156.0933 H   0  0  0  0  0  0  0  0  0  0  0  0
  150.8371  135.1025  154.5508 H   0  0  0  0  0  0  0  0  0  0  0  0
  152.3768  140.6692  158.3919 H   0  0  0  0  0  0  0  0  0  0  0  0
  153.4138  140.3427  160.5856 H   0  0  0  0  0  0  0  0  0  0  0  0
  1  2  1  0  0  0  0
  1 26  1  0  0  0  0
  1 27  1  0  0  0  0
  1 28  1  0  0  0  0
  2 25  1  0  0  0  0
  2  3  2  0  0  0  0
  3  4  1  0  0  0  0
  3 29  1  0  0  0  0
  4  5  2  0  0  0  0
  4 30  1  0  0  0  0
  5  6  1  0  0  0  0
  5 24  1  0  0  0  0
  6  7  1  0  0  0  0
  7  8  1  0  0  0  0
  7 31  1  0  0  0  0
  7 32  1  0  0  0  0
  8  9  1  0  0  0  0
  8 10  1  0  0  0  0
  8 33  1  0  0  0  0
  9 34  1  0  0  0  0
 10 11  1  0  0  0  0
 10 35  1  0  0  0  0
 10 36  1  0  0  0  0
 11 15  1  0  0  0  0
 11 12  1  0  0  0  0
 12 13  2  0  0  0  0
 12 37  1  0  0  0  0
 13 14  1  0  0  0  0
 14 22  1  0  0  0  0
 14 15  2  0  0  0  0
 15 16  1  0  0  0  0
 16 17  2  0  0  0  0
 16 18  1  0  0  0  0
 18 19  1  0  0  0  0
 18 20  1  0  0  0  0
 19 38  1  0  0  0  0
 19 39  1  0  0  0  0
 19 40  1  0  0  0  0
 20 21  2  0  0  0  0
 20 22  1  0  0  0  0
 22 23  1  0  0  0  0
 23 41  1  0  0  0  0
 23 42  1  0  0  0  0
 23 43  1  0  0  0  0
 24 25  2  0  0  0  0
 24 44  1  0  0  0  0
 25 45  1  0  0  0  0
M  END
> <s_m_source_file>
AV-unprocessed.smi

> <i_m_source_file_index>
2194

> <i_lp_mmshare_version>
43012

> <i_f3d_flags>
0

> <s_epik_input>
W0NIM11jMVtjSF1bY0hdYyhbY0hdW2NIXTEpT1tDSDJdW0NASF0oW09IXSlbQ0gyXW4oW2NIXW4yKWMoYzIzKWMoPU8pbihbQ0gzXSljKD1PKW4zW0NIM10=

> <s_epik_cmdline>
J2VwaWtfcHl0aG9uJywgJy1waCcsICc3LjAnLCAnLXRuJywgJzgnLCAnLW1hJywgJzIwMCcsICctbWV0YWxfYmluZGluZycsICctaW1hZScsICc8aW5maWxlLm1hZT4nLCAnLW9tYWUnLCAnPG91dGZpbGUubWFlPic=

> <r_lp_tautomer_probability>
1

> <r_epik_Ionization_Penalty>
1.06124e-06

> <r_epik_Ionization_Penalty_Charging>
3.25921e-09

> <r_epik_Ionization_Penalty_Neutral>
1.05798e-06

> <r_epik_State_Penalty>
-0

> <r_epik_Charging_Adjusted_Penalty>
3.25921e-09

> <i_epik_Tot_Q>
0

> <i_epik_Tot_abs_Q>
0

> <r_epik_Metal_State_Penalty>
-0

> <b_epik_Metal_Only>
0

> <s_lp_Force_Field>
OPLS_2005

> <r_lp_Energy>
38.6758

> <b_lp_Chiralities_Consistent>
1

> <s_lp_Variant>
AV-unprocessed.smi:2194-2

> <Gold.Version>
5.8.1

> <Gold.Id.Protein>
6NUR|6NUR_protein|mol2

> <Gold.PLP.Fitness>
51.4755

> <Gold.PLP.PLP>
-44.1531

> <Gold.PLP.part.hbond>
-2.6041

> <Gold.PLP.part.metal>
0.0000

> <Gold.PLP.part.buried>
-7.5532

> <Gold.PLP.part.nonpolar>
-34.6306

> <Gold.PLP.part.repulsive>
0.3514

> <Gold.PLP.ligand.clash>
0.0000

> <Gold.PLP.ligand.torsion>
0.8477

> <Gold.PLP.Chemscore.Hbond>
2.0000

> <Gold.PLP.Chemscore.CHOScore>
1.0000

> <Gold.PLP.Chemscore.Metal>
0.0000

> <Gold.Chemscore.Hbonds>
donor molecule, donor type, donor heavy atom, donor atom, acceptor molecule, acceptor atom, score
      L1  H     9    34       P1  8028  0.99
      P1  H  6896  6908       L1    21  1.00
      L1  C    12    37       P1  7957  1.00

> <Gold.PLP.Chemscore.Internal.Correction>
0.0179

> <Gold.Rescore>
     Score         DG    S(hbond)    S(metal)    S(lipo)     H(rot)  DE(clash)    DE(int)     intcor
     16.28     -17.10       1.97        0.00     101.88       2.69       0.10       0.72       ----

> <Gold.Chemscore.Fitness>
16.2786

> <Gold.Chemscore.DG>
-17.0960

> <Gold.Chemscore.ZeroCoef>
-5.4800

> <Gold.Chemscore.Hbond>
1.9697

> <Gold.Chemscore.Metal>
0.0000

> <Gold.Chemscore.Lipo>
101.8773

> <Gold.Chemscore.Internal_Hbond>
0.0000

> <Gold.Chemscore.DEClash>
0.0998

> <Gold.Chemscore.DEInternal>
0.7175

> <Gold.Chemscore.Rot>
2.6885

> <Gold.Chemscore.Internal.Correction>
   9.000000E+99

> <Gold.Chemscore.Hbonds>
donor molecule, donor type, donor heavy atom, donor atom, acceptor molecule, acceptor atom, score
      L1  H     9    34       P1  8028  0.69
      P1  H  6896  6908       L1    21  0.99

> <Gold.Chemscore.Hbond.Weighted>
-6.5788

> <Gold.Chemscore.Metal.Weighted>
-0.0000

> <Gold.Chemscore.Lipo.Weighted>
-11.9196

> <Gold.Chemscore.Internal_Hbond.Weighted>
0.0000

> <Gold.Chemscore.DEClash.Weighted>
0.0998

> <Gold.Chemscore.DEInternal.Weighted>
0.7175

> <Gold.Chemscore.Rot.Weighted>
6.8825

> <Gold.Chemscore.Internal.Correction.Weighted>
   9.000000E+99

> <Gold.Protein.RotatedTorsions>
[ 6907 6896 6895 6894 ] final  138.74 input  -60.11 | X-H torsion
[ 7974 7965 7964 7962 ] final -132.80 input  175.53 | X-H torsion
[ 8008 7997 7996 7995 ] final  -78.15 input   59.86 | X-H torsion
[ 10167 10162 10161 10158 ] final  -83.24 input  -65.29 | X-H torsion
[ 10718 10713 10712 10709 ] final    6.32 input   66.30 | X-H torsion
[ 10763 10752 10751 10750 ] final -102.33 input  -60.55 | X-H torsion
[ 11005 11000 10999 10996 ] final   94.80 input  -57.11 | X-H torsion

> <Gold.Protein.ActiveResidues>
 VAL166  LYS551  ARG553  GLY616  TRP617  ASP618  TYR619  PRO620  LYS621  CYS622 
 ASP623  PHE694  ASN695  SER759  ASP760  ASP761  ALA762  ILE779  LEU786  VAL792 
 PHE793  MET794  SER795  GLU796  ALA797  LYS798  CYS799  TRP800  GLU811  SER814 

> <Gold.Protein.RotatedAtoms>
  152.2631  133.5314  159.5393 H   0  0  0  0  0  0  0  0  0  0  0  0  # atno 6907 bound_to 6896
  150.7132  134.0803  159.3904 H   0  0  0  0  0  0  0  0  0  0  0  0  # atno 6908 bound_to 6896
  151.8720  135.0486  160.0531 H   0  0  0  0  0  0  0  0  0  0  0  0  # atno 6909 bound_to 6896
  144.9252  140.7062  143.4940 H   0  0  0  0  0  0  0  0  0  0  0  0  # atno 7974 bound_to 7965
  154.5662  140.0699  156.8895 H   0  0  0  0  0  0  0  0  0  0  0  0  # atno 8008 bound_to 7997
  155.2719  140.3365  155.4246 H   0  0  0  0  0  0  0  0  0  0  0  0  # atno 8009 bound_to 7997
  156.2082  140.1748  156.7738 H   0  0  0  0  0  0  0  0  0  0  0  0  # atno 8010 bound_to 7997
  140.4245  143.2572  151.8845 H   0  0  0  0  0  0  0  0  0  0  0  0  # atno 10167 bound_to 10162
  156.9205  130.5789  149.5648 H   0  0  0  0  0  0  0  0  0  0  0  0  # atno 10718 bound_to 10713
  154.7726  135.4864  153.9679 H   0  0  0  0  0  0  0  0  0  0  0  0  # atno 10763 bound_to 10752
  153.1387  135.6768  153.9069 H   0  0  0  0  0  0  0  0  0  0  0  0  # atno 10764 bound_to 10752
  153.8751  135.3139  155.3422 H   0  0  0  0  0  0  0  0  0  0  0  0  # atno 10765 bound_to 10752
  139.8795  134.8865  156.3917 H   0  0  0  0  0  0  0  0  0  0  0  0  # atno 11005 bound_to 11000
  145.3231  139.1782  143.4577 LP  0  0  0  0  0  0  0  0  0  0  0  0  # atno 17320 bound_to 7965
  146.3222  140.3251  142.8636 LP  0  0  0  0  0  0  0  0  0  0  0  0  # atno 17321 bound_to 7965
  139.4783  144.5402  151.8539 LP  0  0  0  0  0  0  0  0  0  0  0  0  # atno 17342 bound_to 10162
  140.4497  144.1872  150.5896 LP  0  0  0  0  0  0  0  0  0  0  0  0  # atno 17343 bound_to 10162
  156.0493  130.5565  150.8953 LP  0  0  0  0  0  0  0  0  0  0  0  0  # atno 17370 bound_to 10713
  157.5911  131.0944  150.9117 LP  0  0  0  0  0  0  0  0  0  0  0  0  # atno 17371 bound_to 10713
  140.9328  133.7567  156.0046 LP  0  0  0  0  0  0  0  0  0  0  0  0  # atno 17394 bound_to 11000
  140.8311  134.3177  157.5348 LP  0  0  0  0  0  0  0  0  0  0  0  0  # atno 17395 bound_to 11000

$$$$
