#       Name:                AV-unprocessed.smi:1807
#       Creating user name   scv26
#       Creation time:       Fri Mar 27 08:55:49 2020


#       File generated by GOLD software.
#

@<TRIPOS>MOLECULE
AV-unprocessed.smi:1807
    49    50     1
SMALL
NO_CHARGES


@<TRIPOS>ATOM
      1 ****        -4.0818  -0.7773  -1.8262 C.3            1 S1                 0.0000
      2 ****        -3.4296  -0.3828  -0.4891 C.3            1 S1                 0.0000
      3 ****        -4.2272   0.7483   0.1912 C.3            1 S1                 0.0000
      4 ****        -3.6104   1.1533   1.5386 C.3            1 S1                 0.0000
      5 ****        -2.1411   1.5635   1.3716 C.3            1 S1                 0.0000
      6 ****        -1.3320   0.4430   0.7046 C.3            1 S1                 0.0000
      7 ****        -1.9428   0.0212  -0.6488 C.3            1 S1                 0.0000
      8 ****        -1.1681  -1.0871  -1.2006 N.am           1 S1                 0.0000
      9 ****        -0.0507  -0.9663  -1.9324 C.2            1 S1                 0.0000
     10 ****         0.4136   0.1167  -2.2912 O.2            1 S1                 0.0000
     11 ****         0.6501  -2.2767  -2.3096 C.3            1 S1                 0.0000
     12 ****         2.0990  -2.1932  -2.1560 N.pl3          1 S1                 0.0000
     13 ****         2.6559  -2.0947  -0.8734 C.2            1 S1                 0.0000
     14 ****         4.0578  -1.9924  -0.6625 C.2            1 S1                 0.0000
     15 ****         4.1619  -1.8797   0.6952 C.2            1 S1                 0.0000
     16 ****         2.8829  -1.9183   1.2157 N.pl3          1 S1                 0.0000
     17 ****         2.4675  -1.8132   2.6035 C.3            1 S1                 0.0000
     18 ****         1.9564  -0.4082   2.9362 C.2            1 S1                 0.0000
     19 ****         2.8453   0.5891   2.9184 N.am           1 S1                 0.0000
     20 ****         0.7739  -0.2266   3.2172 O.2            1 S1                 0.0000
     21 ****         1.9523  -2.0703   0.2488 N.2            1 S1                 0.0000
     22 ****        -4.0409   0.0433  -2.5428 H              1 S1                 0.0000
     23 ****        -5.1296  -1.0442  -1.6868 H              1 S1                 0.0000
     24 ****        -3.5879  -1.6379  -2.2776 H              1 S1                 0.0000
     25 ****        -3.4740  -1.2550   0.1653 H              1 S1                 0.0000
     26 ****        -4.2648   1.6185  -0.4657 H              1 S1                 0.0000
     27 ****        -5.2606   0.4357   0.3457 H              1 S1                 0.0000
     28 ****        -4.1781   1.9748   1.9762 H              1 S1                 0.0000
     29 ****        -3.6805   0.3200   2.2389 H              1 S1                 0.0000
     30 ****        -2.0781   2.4704   0.7686 H              1 S1                 0.0000
     31 ****        -1.7090   1.8054   2.3430 H              1 S1                 0.0000
     32 ****        -0.3000   0.7694   0.5702 H              1 S1                 0.0000
     33 ****        -1.2960  -0.4184   1.3727 H              1 S1                 0.0000
     34 ****        -1.8943   0.8700  -1.3341 H              1 S1                 0.0000
     35 ****        -1.4762  -2.0186  -0.9623 H              1 S1                 0.0000
     36 ****         0.2613  -3.1096  -1.7212 H              1 S1                 0.0000
     37 ****         0.4263  -2.5007  -3.3526 H              1 S1                 0.0000
     38 ****         2.6525  -1.9205  -2.9551 H              1 S1                 0.0000
     39 ****         4.8575  -1.9887  -1.3884 H              1 S1                 0.0000
     40 ****         5.0300  -1.7682   1.3278 H              1 S1                 0.0000
     41 ****         1.6882  -2.5519   2.7976 H              1 S1                 0.0000
     42 ****         3.3119  -2.0603   3.2480 H              1 S1                 0.0000
     43 ****         2.5538   1.5304   3.1372 H              1 S1                 0.0000
     44 ****         3.8098   0.3951   2.6911 H              1 S1                 0.0000
     45 ****        -0.0472   0.9671  -2.0372 LP             1 S1                 0.0000
     46 ****         1.2513   0.1455  -2.8366 LP             1 S1                 0.0000
     47 ****         0.1387  -0.9988   3.2297 LP             1 S1                 0.0000
     48 ****         0.4469   0.6933   3.4334 LP             1 S1                 0.0000
     49 ****         0.9610  -2.1468   0.3554 LP             1 S1                 0.0000
@<TRIPOS>BOND
    1    1    2 1     
    2    1   22 1     
    3    1   23 1     
    4    1   24 1     
    5    2    7 1     
    6    2    3 1     
    7    2   25 1     
    8    3    4 1     
    9    3   26 1     
   10    3   27 1     
   11    4    5 1     
   12    4   28 1     
   13    4   29 1     
   14    5    6 1     
   15    5   30 1     
   16    5   31 1     
   17    6    7 1     
   18    6   32 1     
   19    6   33 1     
   20    7    8 1     
   21    7   34 1     
   22    8    9 am    
   23    8   35 1     
   24    9   10 2     
   25    9   11 1     
   26   11   12 1     
   27   11   36 1     
   28   11   37 1     
   29   12   13 1     
   30   12   38 1     
   31   13   21 2     
   32   13   14 1     
   33   14   15 2     
   34   14   39 1     
   35   15   16 1     
   36   15   40 1     
   37   16   17 1     
   38   16   21 1     
   39   17   18 1     
   40   17   41 1     
   41   17   42 1     
   42   18   19 am    
   43   18   20 2     
   44   19   43 1     
   45   19   44 1     
   46   10   45 1     
   47   10   46 1     
   48   20   47 1     
   49   20   48 1     
   50   21   49 1     
@<TRIPOS>SUBSTRUCTURE
      1 S1             1
@<TRIPOS>SET
LONE_PAIRS      STATIC     ATOMS    <user>   **** ""
5 45 46 47 48 49
DONOR_HYDROGENS      STATIC     ATOMS    <user>   **** ""
4 35 38 43 44
ATOM$BLUE        STATIC     ATOMS    COLORGROUP SYSTEM
5 45 46 47 48 49
ATOM$RED        STATIC     ATOMS    COLORGROUP SYSTEM
4 35 38 43 44
