AV-unprocessed.smi:3009|AV-procd|sdf|11451|dock6
  -GOLD-   2272016383D 1   1.00000     0.00000
 Structure written by MMmdl.
 44 45  0  0  0  0  0  0  0  0  2 V2000
  148.3525  129.0669  153.1924 C   0  0  0  0  0  0  0  0  0  0  0  0
  146.9977  128.8677  152.4924 C   0  0  0  0  0  0  0  0  0  0  0  0
  147.2001  128.2448  151.1030 C   0  0  0  0  0  0  0  0  0  0  0  0
  146.2062  130.1888  152.3825 C   0  0  0  0  0  0  0  0  0  0  0  0
  147.0482  131.3435  151.9652 N   0  3  1  0  0  0  0  0  0  0  0  0
  146.3210  132.3391  151.1409 C   0  0  0  0  0  0  0  0  0  0  0  0
  145.4277  133.2369  152.0153 C   0  0  0  0  0  0  0  0  0  0  0  0
  146.2244  133.8721  153.0075 O   0  0  0  0  0  0  0  0  0  0  0  0
  146.8437  132.9402  153.8892 C   0  0  2  0  0  0  0  0  0  0  0  0
  147.6163  133.7287  154.9616 C   0  0  0  0  0  0  0  0  0  0  0  0
  148.2939  134.8904  154.3955 N   0  0  0  0  0  0  0  0  0  0  0  0
  149.0924  135.7195  155.0821 C   0  0  0  0  0  0  0  0  0  0  0  0
  149.3489  135.5779  156.2782 O   0  0  0  0  0  0  0  0  0  0  0  0
  149.5548  136.7114  154.3041 N   0  0  0  0  0  0  0  0  0  0  0  0
  150.4133  137.7735  154.6851 C   0  0  0  0  0  0  0  0  0  0  0  0
  150.3011  139.1117  154.2197 C   0  0  0  0  0  0  0  0  0  0  0  0
  151.2405  139.8862  154.7432 N   0  0  0  0  0  0  0  0  0  0  0  0
  151.9542  139.0542  155.5348 N   0  0  0  0  0  0  0  0  0  0  0  0
  151.4879  137.7581  155.5296 C   0  0  0  0  0  0  0  0  0  0  0  0
  147.7759  132.0214  153.0694 C   0  0  0  0  0  0  0  0  0  0  0  0
  152.7493  139.3817  156.0649 H   0  0  0  0  0  0  0  0  0  0  0  0
  148.9798  129.7739  152.6486 H   0  0  0  0  0  0  0  0  0  0  0  0
  148.8984  128.1256  153.2628 H   0  0  0  0  0  0  0  0  0  0  0  0
  148.2273  129.4443  154.2076 H   0  0  0  0  0  0  0  0  0  0  0  0
  146.4222  128.1494  153.0752 H   0  0  0  0  0  0  0  0  0  0  0  0
  147.7794  128.9015  150.4532 H   0  0  0  0  0  0  0  0  0  0  0  0
  146.2445  128.0522  150.6144 H   0  0  0  0  0  0  0  0  0  0  0  0
  147.7298  127.2941  151.1715 H   0  0  0  0  0  0  0  0  0  0  0  0
  145.4088  130.0432  151.6520 H   0  0  0  0  0  0  0  0  0  0  0  0
  145.7068  130.4108  153.3253 H   0  0  0  0  0  0  0  0  0  0  0  0
  147.0552  132.9575  150.6228 H   0  0  0  0  0  0  0  0  0  0  0  0
  145.7360  131.8455  150.3641 H   0  0  0  0  0  0  0  0  0  0  0  0
  144.9543  134.0036  151.4017 H   0  0  0  0  0  0  0  0  0  0  0  0
  144.6247  132.6649  152.4826 H   0  0  0  0  0  0  0  0  0  0  0  0
  146.0749  132.3412  154.3787 H   0  0  0  0  0  0  0  0  0  0  0  0
  146.9400  134.0538  155.7542 H   0  0  0  0  0  0  0  0  0  0  0  0
  148.3617  133.0891  155.4350 H   0  0  0  0  0  0  0  0  0  0  0  0
  148.1363  135.0790  153.4163 H   0  0  0  0  0  0  0  0  0  0  0  0
  149.2532  136.7146  153.3407 H   0  0  0  0  0  0  0  0  0  0  0  0
  149.5831  139.5385  153.5348 H   0  0  0  0  0  0  0  0  0  0  0  0
  151.9532  136.9742  156.1083 H   0  0  0  0  0  0  0  0  0  0  0  0
  148.2683  131.2980  153.7178 H   0  0  0  0  0  0  0  0  0  0  0  0
  148.5734  132.6200  152.6271 H   0  0  0  0  0  0  0  0  0  0  0  0
  147.7509  130.9459  151.3579 H   0  0  0  0  0  0  0  0  0  0  0  0
  1  2  1  0  0  0  0
  1 22  1  0  0  0  0
  1 23  1  0  0  0  0
  1 24  1  0  0  0  0
  2  3  1  0  0  0  0
  2  4  1  0  0  0  0
  2 25  1  0  0  0  0
  3 26  1  0  0  0  0
  3 27  1  0  0  0  0
  3 28  1  0  0  0  0
  4  5  1  0  0  0  0
  4 29  1  0  0  0  0
  4 30  1  0  0  0  0
  5 20  1  0  0  0  0
  5  6  1  0  0  0  0
  5 44  1  0  0  0  0
  6  7  1  0  0  0  0
  6 31  1  0  0  0  0
  6 32  1  0  0  0  0
  7  8  1  0  0  0  0
  7 33  1  0  0  0  0
  7 34  1  0  0  0  0
  8  9  1  0  0  0  0
  9 10  1  0  0  0  0
  9 20  1  0  0  0  0
  9 35  1  0  0  0  0
 10 11  1  0  0  0  0
 10 36  1  0  0  0  0
 10 37  1  0  0  0  0
 11 12  1  0  0  0  0
 11 38  1  0  0  0  0
 12 13  2  0  0  0  0
 12 14  1  0  0  0  0
 14 15  1  0  0  0  0
 14 39  1  0  0  0  0
 15 19  2  0  0  0  0
 15 16  1  0  0  0  0
 16 17  2  0  0  0  0
 16 40  1  0  0  0  0
 17 18  1  0  0  0  0
 18 21  1  0  0  0  0
 18 19  1  0  0  0  0
 19 41  1  0  0  0  0
 20 42  1  0  0  0  0
 20 43  1  0  0  0  0
M  CHG  1   5   1
M  END
> <s_m_source_file>
AV-unprocessed.smi

> <i_m_source_file_index>
3009

> <i_lp_mmshare_version>
43012

> <i_f3d_flags>
0

> <s_epik_input>
W0NIM11bQ0hdKFtDSDNdKVtDSDJdTjFbQ0gyXVtDSDJdT1tDQEhdKFtDSDJdMSlbQ0gyXVtOSF1DKD1PKVtOSF1jMltjSF1uW25IXVtjSF0y

> <s_epik_cmdline>
J2VwaWtfcHl0aG9uJywgJy1waCcsICc3LjAnLCAnLXRuJywgJzgnLCAnLW1hJywgJzIwMCcsICctbWV0YWxfYmluZGluZycsICctaW1hZScsICc8aW5maWxlLm1hZT4nLCAnLW9tYWUnLCAnPG91dGZpbGUubWFlPic=

> <r_lp_tautomer_probability>
0.5

> <r_epik_Ionization_Penalty>
0.0974064

> <r_epik_Ionization_Penalty_Charging>
0.0973651

> <r_epik_Ionization_Penalty_Neutral>
4.13573e-05

> <r_epik_State_Penalty>
0.0874853

> <r_epik_Charging_Adjusted_Penalty>
0.18485

> <i_epik_Tot_Q>
1

> <i_epik_Tot_abs_Q>
1

> <r_epik_Metal_State_Penalty>
0.0874855

> <b_epik_Metal_Only>
0

> <s_lp_Force_Field>
OPLS_2005

> <r_lp_Energy>
21.5437

> <b_lp_Chiralities_Consistent>
1

> <s_lp_Variant>
AV-unprocessed.smi:3009-3

> <Gold.Version>
5.8.1

> <Gold.Id.Protein>
6NUR|6NUR_protein|mol2

> <Gold.PLP.Fitness>
42.6968

> <Gold.PLP.PLP>
-30.2714

> <Gold.PLP.part.hbond>
-4.4356

> <Gold.PLP.part.metal>
0.0000

> <Gold.PLP.part.buried>
-2.9056

> <Gold.PLP.part.nonpolar>
-23.3456

> <Gold.PLP.part.repulsive>
0.4112

> <Gold.PLP.ligand.clash>
0.0000

> <Gold.PLP.ligand.torsion>
0.9878

> <Gold.PLP.Chemscore.Hbond>
3.7842

> <Gold.PLP.Chemscore.CHOScore>
1.0000

> <Gold.PLP.Chemscore.Metal>
0.0000

> <Gold.Chemscore.Hbonds>
donor molecule, donor type, donor heavy atom, donor atom, acceptor molecule, acceptor atom, score
      L1  H     5    44       P1 10747  1.00
      L1  H    11    38       P1  7948  0.70
      L1  H    14    39       P1  7948  1.00
      P1  H  7989  7998       L1    17  1.00
      L1  C    16    40       P1  7957  1.00

> <Gold.PLP.Chemscore.Internal.Correction>
0.0485

> <Gold.Rescore>
     Score         DG    S(hbond)    S(metal)    S(lipo)     H(rot)  DE(clash)    DE(int)     intcor
     19.72     -20.92       3.21        0.00      79.49       1.80       0.09       1.11       ----

> <Gold.Chemscore.Fitness>
19.7249

> <Gold.Chemscore.DG>
-20.9192

> <Gold.Chemscore.ZeroCoef>
-5.4800

> <Gold.Chemscore.Hbond>
3.2149

> <Gold.Chemscore.Metal>
0.0000

> <Gold.Chemscore.Lipo>
79.4863

> <Gold.Chemscore.Internal_Hbond>
0.0000

> <Gold.Chemscore.DEClash>
0.0889

> <Gold.Chemscore.DEInternal>
1.1054

> <Gold.Chemscore.Rot>
1.7963

> <Gold.Chemscore.Internal.Correction>
   9.000000E+99

> <Gold.Chemscore.Hbonds>
donor molecule, donor type, donor heavy atom, donor atom, acceptor molecule, acceptor atom, score
      L1  H     5    44       P1 10747  0.99
      L1  H    11    38       P1  7948  0.67
      L1  H    14    39       P1  7948  0.92
      P1  H  7989  7998       L1    17  0.39

> <Gold.Chemscore.Hbond.Weighted>
-10.7378

> <Gold.Chemscore.Metal.Weighted>
-0.0000

> <Gold.Chemscore.Lipo.Weighted>
-9.2999

> <Gold.Chemscore.Internal_Hbond.Weighted>
0.0000

> <Gold.Chemscore.DEClash.Weighted>
0.0889

> <Gold.Chemscore.DEInternal.Weighted>
1.1054

> <Gold.Chemscore.Rot.Weighted>
4.5985

> <Gold.Chemscore.Internal.Correction.Weighted>
   9.000000E+99

> <Gold.Protein.RotatedTorsions>
[ 6907 6896 6895 6894 ] final  -41.20 input  -60.11 | X-H torsion
[ 7974 7965 7964 7962 ] final -143.60 input  175.53 | X-H torsion
[ 8008 7997 7996 7995 ] final -133.14 input   59.86 | X-H torsion
[ 10167 10162 10161 10158 ] final  -80.74 input  -65.29 | X-H torsion
[ 10718 10713 10712 10709 ] final  154.11 input   66.30 | X-H torsion
[ 10763 10752 10751 10750 ] final   -4.97 input  -60.55 | X-H torsion
[ 11005 11000 10999 10996 ] final   12.54 input  -57.11 | X-H torsion

> <Gold.Protein.ActiveResidues>
 VAL166  LYS551  ARG553  GLY616  TRP617  ASP618  TYR619  PRO620  LYS621  CYS622 
 ASP623  PHE694  ASN695  SER759  ASP760  ASP761  ALA762  ILE779  LEU786  VAL792 
 PHE793  MET794  SER795  GLU796  ALA797  LYS798  CYS799  TRP800  GLU811  SER814 

> <Gold.Protein.RotatedAtoms>
  150.9695  134.9070  159.7778 H   0  0  0  0  0  0  0  0  0  0  0  0  # atno 6907 bound_to 6896
  152.5185  134.3561  159.9278 H   0  0  0  0  0  0  0  0  0  0  0  0  # atno 6908 bound_to 6896
  151.3570  133.3863  159.2720 H   0  0  0  0  0  0  0  0  0  0  0  0  # atno 6909 bound_to 6896
  144.8358  140.5815  143.5485 H   0  0  0  0  0  0  0  0  0  0  0  0  # atno 7974 bound_to 7965
  155.3405  140.0472  157.3045 H   0  0  0  0  0  0  0  0  0  0  0  0  # atno 8008 bound_to 7997
  154.5280  140.2247  155.8821 H   0  0  0  0  0  0  0  0  0  0  0  0  # atno 8009 bound_to 7997
  156.1759  140.3085  155.9064 H   0  0  0  0  0  0  0  0  0  0  0  0  # atno 8010 bound_to 7997
  140.4475  143.2494  151.8537 H   0  0  0  0  0  0  0  0  0  0  0  0  # atno 10167 bound_to 10162
  157.2359  131.0749  151.1823 H   0  0  0  0  0  0  0  0  0  0  0  0  # atno 10718 bound_to 10713
  153.3922  135.7002  153.6487 H   0  0  0  0  0  0  0  0  0  0  0  0  # atno 10763 bound_to 10752
  153.5055  135.3643  155.2561 H   0  0  0  0  0  0  0  0  0  0  0  0  # atno 10764 bound_to 10752
  154.8703  135.4122  154.3240 H   0  0  0  0  0  0  0  0  0  0  0  0  # atno 10765 bound_to 10752
  140.4908  134.0842  155.7771 H   0  0  0  0  0  0  0  0  0  0  0  0  # atno 11005 bound_to 11000
  145.4798  139.1496  143.3768 LP  0  0  0  0  0  0  0  0  0  0  0  0  # atno 17320 bound_to 7965
  146.2657  140.4934  142.8835 LP  0  0  0  0  0  0  0  0  0  0  0  0  # atno 17321 bound_to 7965
  139.4794  144.5158  151.8870 LP  0  0  0  0  0  0  0  0  0  0  0  0  # atno 17342 bound_to 10162
  140.4246  144.2198  150.5887 LP  0  0  0  0  0  0  0  0  0  0  0  0  # atno 17343 bound_to 10162
  157.3430  130.7043  149.6393 LP  0  0  0  0  0  0  0  0  0  0  0  0  # atno 17370 bound_to 10713
  155.9672  130.4274  150.4744 LP  0  0  0  0  0  0  0  0  0  0  0  0  # atno 17371 bound_to 10713
  141.1485  133.9012  157.2157 LP  0  0  0  0  0  0  0  0  0  0  0  0  # atno 17394 bound_to 11000
  139.9770  135.0110  156.9656 LP  0  0  0  0  0  0  0  0  0  0  0  0  # atno 17395 bound_to 11000

$$$$
