AV-unprocessed.smi:2748|AV-procd|sdf|10581|dock6
  -GOLD-   2272015 33D 1   1.00000     0.00000
 Structure written by MMmdl.
 30 32  0  0  0  0  0  0  0  0  1 V2000
  146.6867  139.5481  152.3976 O   0  0  0  0  0  0  0  0  0  0  0  0
  147.6298  139.8227  153.1371 C   0  0  0  0  0  0  0  0  0  0  0  0
  148.6800  138.9129  153.2921 N   0  0  0  0  0  0  0  0  0  0  0  0
  149.8037  139.0992  154.0979 C   0  0  0  0  0  0  0  0  0  0  0  0
  150.6740  138.2300  154.1486 O   0  0  0  0  0  0  0  0  0  0  0  0
  149.8735  140.3114  154.8220 N   0  0  0  0  0  0  0  0  0  0  0  0
  151.0335  140.5394  155.6480 C   0  0  0  0  0  0  0  0  0  0  0  0
  150.6845  140.7216  157.1379 C   0  0  2  0  0  0  0  0  0  0  0  0
  150.4599  142.2092  157.5195 C   0  0  0  0  0  0  0  0  0  0  0  0
  151.5068  142.4196  158.5563 C   0  0  0  0  0  0  0  0  0  0  0  0
  151.7972  143.5896  159.2787 C   0  0  0  0  0  0  0  0  0  0  0  0
  152.8542  143.5412  160.2144 C   0  0  0  0  0  0  0  0  0  0  0  0
  153.5875  142.3453  160.4065 C   0  0  0  0  0  0  0  0  0  0  0  0
  153.2734  141.1835  159.6656 C   0  0  0  0  0  0  0  0  0  0  0  0
  152.2188  141.2474  158.7380 C   0  0  0  0  0  0  0  0  0  0  0  0
  151.7748  140.2300  157.9421 O   0  0  0  0  0  0  0  0  0  0  0  0
  148.8596  141.2477  154.6909 C   0  0  0  0  0  0  0  0  0  0  0  0
  147.7732  141.0600  153.9033 C   0  0  0  0  0  0  0  0  0  0  0  0
  146.5510  142.2754  153.7902 Cl  0  0  0  0  0  0  0  0  0  0  0  0
  148.6223  138.0489  152.7731 H   0  0  0  0  0  0  0  0  0  0  0  0
  151.6889  139.6790  155.5022 H   0  0  0  0  0  0  0  0  0  0  0  0
  151.5653  141.3992  155.2351 H   0  0  0  0  0  0  0  0  0  0  0  0
  149.7914  140.1495  157.3928 H   0  0  0  0  0  0  0  0  0  0  0  0
  150.6130  142.8901  156.6815 H   0  0  0  0  0  0  0  0  0  0  0  0
  149.4669  142.3775  157.9372 H   0  0  0  0  0  0  0  0  0  0  0  0
  151.2316  144.4963  159.1230 H   0  0  0  0  0  0  0  0  0  0  0  0
  153.1049  144.4223  160.7867 H   0  0  0  0  0  0  0  0  0  0  0  0
  154.3930  142.3207  161.1257 H   0  0  0  0  0  0  0  0  0  0  0  0
  153.8294  140.2689  159.8089 H   0  0  0  0  0  0  0  0  0  0  0  0
  148.9376  142.1761  155.2388 H   0  0  0  0  0  0  0  0  0  0  0  0
  1  2  2  0  0  0  0
  2 18  1  0  0  0  0
  2  3  1  0  0  0  0
  3 20  1  0  0  0  0
  3  4  1  0  0  0  0
  4  5  2  0  0  0  0
  4  6  1  0  0  0  0
  6  7  1  0  0  0  0
  6 17  1  0  0  0  0
  7  8  1  0  0  0  0
  7 21  1  0  0  0  0
  7 22  1  0  0  0  0
  8 16  1  0  0  0  0
  8  9  1  0  0  0  0
  8 23  1  0  0  0  0
  9 10  1  0  0  0  0
  9 24  1  0  0  0  0
  9 25  1  0  0  0  0
 10 15  2  0  0  0  0
 10 11  1  0  0  0  0
 11 12  2  0  0  0  0
 11 26  1  0  0  0  0
 12 13  1  0  0  0  0
 12 27  1  0  0  0  0
 13 14  2  0  0  0  0
 13 28  1  0  0  0  0
 14 15  1  0  0  0  0
 14 29  1  0  0  0  0
 15 16  1  0  0  0  0
 17 18  2  0  0  0  0
 17 30  1  0  0  0  0
 18 19  1  0  0  0  0
M  END
> <s_m_source_file>
AV-unprocessed.smi

> <i_m_source_file_index>
2748

> <i_lp_mmshare_version>
43012

> <i_f3d_flags>
0

> <s_epik_input>
Tz1jMVtuSF1jKD1PKW4oW2NIXWMxQ2wpW0NIMl1bQ0BIXShbQ0gyXTIpT2MoYzIzKVtjSF1bY0hdW2NIXVtjSF0z

> <s_epik_cmdline>
J2VwaWtfcHl0aG9uJywgJy1waCcsICc3LjAnLCAnLXRuJywgJzgnLCAnLW1hJywgJzIwMCcsICctbWV0YWxfYmluZGluZycsICctaW1hZScsICc8aW5maWxlLm1hZT4nLCAnLW9tYWUnLCAnPG91dGZpbGUubWFlPic=

> <r_lp_tautomer_probability>
0.999537

> <r_epik_Ionization_Penalty>
0.0203523

> <r_epik_Ionization_Penalty_Charging>
0.0203523

> <r_epik_Ionization_Penalty_Neutral>
0

> <r_epik_State_Penalty>
0.0163078

> <r_epik_Charging_Adjusted_Penalty>
0.0366602

> <i_epik_Tot_Q>
0

> <i_epik_Tot_abs_Q>
0

> <r_epik_Metal_State_Penalty>
1.99317

> <b_epik_Metal_Only>
0

> <s_lp_Force_Field>
OPLS_2005

> <r_lp_Energy>
20.6728

> <b_lp_Chiralities_Consistent>
1

> <s_lp_Variant>
AV-unprocessed.smi:2748-1

> <Gold.Version>
5.8.1

> <Gold.Id.Protein>
6NUR|6NUR_protein|mol2

> <Gold.PLP.Fitness>
46.5275

> <Gold.PLP.PLP>
-42.0779

> <Gold.PLP.part.hbond>
-2.0000

> <Gold.PLP.part.metal>
0.0000

> <Gold.PLP.part.buried>
-1.5179

> <Gold.PLP.part.nonpolar>
-38.0697

> <Gold.PLP.part.repulsive>
1.0632

> <Gold.PLP.ligand.clash>
0.0000

> <Gold.PLP.ligand.torsion>
0.4058

> <Gold.PLP.Chemscore.Hbond>
0.9750

> <Gold.PLP.Chemscore.CHOScore>
0.7780

> <Gold.PLP.Chemscore.Metal>
0.0000

> <Gold.Chemscore.Hbonds>
donor molecule, donor type, donor heavy atom, donor atom, acceptor molecule, acceptor atom, score
      L1  H     3    20       P1  7948  0.99
      L1  C    17    30       P1  8028  0.90

> <Gold.PLP.Chemscore.Internal.Correction>
0.0020

> <Gold.Rescore>
     Score         DG    S(hbond)    S(metal)    S(lipo)     H(rot)  DE(clash)    DE(int)     intcor
     17.38     -17.73       0.99        0.00     105.15       1.31       0.14       0.22       ----

> <Gold.Chemscore.Fitness>
17.3768

> <Gold.Chemscore.DG>
-17.7335

> <Gold.Chemscore.ZeroCoef>
-5.4800

> <Gold.Chemscore.Hbond>
0.9915

> <Gold.Chemscore.Metal>
0.0000

> <Gold.Chemscore.Lipo>
105.1540

> <Gold.Chemscore.Internal_Hbond>
0.0000

> <Gold.Chemscore.DEClash>
0.1410

> <Gold.Chemscore.DEInternal>
0.2158

> <Gold.Chemscore.Rot>
1.3129

> <Gold.Chemscore.Internal.Correction>
   9.000000E+99

> <Gold.Chemscore.Hbonds>
donor molecule, donor type, donor heavy atom, donor atom, acceptor molecule, acceptor atom, score
      L1  H     3    20       P1  7948  0.92

> <Gold.Chemscore.Hbond.Weighted>
-3.3115

> <Gold.Chemscore.Metal.Weighted>
-0.0000

> <Gold.Chemscore.Lipo.Weighted>
-12.3030

> <Gold.Chemscore.Internal_Hbond.Weighted>
0.0000

> <Gold.Chemscore.DEClash.Weighted>
0.1410

> <Gold.Chemscore.DEInternal.Weighted>
0.2158

> <Gold.Chemscore.Rot.Weighted>
3.3610

> <Gold.Chemscore.Internal.Correction.Weighted>
   9.000000E+99

> <Gold.Protein.RotatedTorsions>
[ 6907 6896 6895 6894 ] final -132.26 input  -60.11 | X-H torsion
[ 7974 7965 7964 7962 ] final -121.73 input  175.53 | X-H torsion
[ 8008 7997 7996 7995 ] final  -95.86 input   59.86 | X-H torsion
[ 10167 10162 10161 10158 ] final  159.76 input  -65.29 | X-H torsion
[ 10718 10713 10712 10709 ] final  125.73 input   66.30 | X-H torsion
[ 10763 10752 10751 10750 ] final -110.13 input  -60.55 | X-H torsion
[ 11005 11000 10999 10996 ] final   44.53 input  -57.11 | X-H torsion

> <Gold.Protein.ActiveResidues>
 VAL166  LYS551  ARG553  GLY616  TRP617  ASP618  TYR619  PRO620  LYS621  CYS622 
 ASP623  PHE694  ASN695  SER759  ASP760  ASP761  ALA762  ILE779  LEU786  VAL792 
 PHE793  MET794  SER795  GLU796  ALA797  LYS798  CYS799  TRP800  GLU811  SER814 

> <Gold.Protein.RotatedAtoms>
  150.9604  133.6452  159.2755 H   0  0  0  0  0  0  0  0  0  0  0  0  # atno 6907 bound_to 6896
  151.3776  135.0933  159.9495 H   0  0  0  0  0  0  0  0  0  0  0  0  # atno 6908 bound_to 6896
  152.5145  133.9145  159.7559 H   0  0  0  0  0  0  0  0  0  0  0  0  # atno 6909 bound_to 6896
  145.0372  140.8115  143.4288 H   0  0  0  0  0  0  0  0  0  0  0  0  # atno 7974 bound_to 7965
  154.7668  140.0476  157.1019 H   0  0  0  0  0  0  0  0  0  0  0  0  # atno 8008 bound_to 7997
  154.9869  140.3108  155.4903 H   0  0  0  0  0  0  0  0  0  0  0  0  # atno 8009 bound_to 7997
  156.2914  140.2226  156.4971 H   0  0  0  0  0  0  0  0  0  0  0  0  # atno 8010 bound_to 7997
  139.4834  144.4699  151.8590 H   0  0  0  0  0  0  0  0  0  0  0  0  # atno 10167 bound_to 10162
  157.5479  131.1095  150.8751 H   0  0  0  0  0  0  0  0  0  0  0  0  # atno 10718 bound_to 10713
  154.8231  135.4575  154.0837 H   0  0  0  0  0  0  0  0  0  0  0  0  # atno 10763 bound_to 10752
  153.2174  135.6890  153.8047 H   0  0  0  0  0  0  0  0  0  0  0  0  # atno 10764 bound_to 10752
  153.7476  135.3303  155.3292 H   0  0  0  0  0  0  0  0  0  0  0  0  # atno 10765 bound_to 10752
  140.1543  134.4421  155.8360 H   0  0  0  0  0  0  0  0  0  0  0  0  # atno 11005 bound_to 11000
  145.1694  139.2413  143.5350 LP  0  0  0  0  0  0  0  0  0  0  0  0  # atno 17320 bound_to 7965
  146.3505  140.1441  142.8594 LP  0  0  0  0  0  0  0  0  0  0  0  0  # atno 17321 bound_to 7965
  140.4167  144.2297  150.5887 LP  0  0  0  0  0  0  0  0  0  0  0  0  # atno 17342 bound_to 10162
  140.4913  143.2346  151.8814 LP  0  0  0  0  0  0  0  0  0  0  0  0  # atno 17343 bound_to 10162
  156.9285  130.5341  149.5279 LP  0  0  0  0  0  0  0  0  0  0  0  0  # atno 17370 bound_to 10713
  156.0551  130.5614  150.9074 LP  0  0  0  0  0  0  0  0  0  0  0  0  # atno 17371 bound_to 10713
  141.2202  133.6886  156.7479 LP  0  0  0  0  0  0  0  0  0  0  0  0  # atno 17394 bound_to 11000
  140.2566  134.8499  157.3719 LP  0  0  0  0  0  0  0  0  0  0  0  0  # atno 17395 bound_to 11000

$$$$
