AV-unprocessed.smi:2448|AV-procd|sdf|9651|dock4
  -GOLD-   2272013283D 1   1.00000     0.00000
 Structure written by MMmdl.
 37 38  0  0  0  0  0  0  0  0  1 V2000
  149.5884  143.7585  158.3085 O   0  0  0  0  0  0  0  0  0  0  0  0
  150.7549  142.9847  158.0887 C   0  0  1  0  0  0  0  0  0  0  0  0
  150.3609  141.7486  157.2547 C   0  0  0  0  0  0  0  0  0  0  0  0
  149.5223  142.1020  156.1078 N   0  0  0  0  0  0  0  0  0  0  0  0
  148.5802  141.0726  155.6419 C   0  0  2  0  0  0  0  0  0  0  0  0
  149.0820  140.3088  154.3874 C   0  0  0  0  0  0  0  0  0  0  0  0
  150.1192  139.2289  154.6533 C   0  0  0  0  0  0  0  0  0  0  0  0
  151.4197  139.5714  155.0804 C   0  0  0  0  0  0  0  0  0  0  0  0
  152.3470  138.5363  155.3137 C   0  0  0  0  0  0  0  0  0  0  0  0
  152.0572  137.2287  155.1434 N   0  0  0  0  0  0  0  0  0  0  0  0
  150.8151  136.9074  154.7230 C   0  0  0  0  0  0  0  0  0  0  0  0
  149.8141  137.8645  154.4621 C   0  0  0  0  0  0  0  0  0  0  0  0
  147.2024  141.7189  155.3839 C   0  0  0  0  0  0  0  0  0  0  0  0
  146.2901  140.7707  155.1660 F   0  0  0  0  0  0  0  0  0  0  0  0
  146.8208  142.4515  156.4311 F   0  0  0  0  0  0  0  0  0  0  0  0
  147.2520  142.4994  154.3043 F   0  0  0  0  0  0  0  0  0  0  0  0
  151.7618  143.8733  157.3397 C   0  0  0  0  0  0  0  0  0  0  0  0
  152.3307  144.8841  158.3397 C   0  0  0  0  0  0  0  0  0  0  0  0
  152.4393  144.0576  159.9459 S   0  0  0  0  0  0  0  0  0  0  0  0
  151.4238  142.6449  159.4338 C   0  0  0  0  0  0  0  0  0  0  0  0
  149.2903  144.0945  157.4771 H   0  0  0  0  0  0  0  0  0  0  0  0
  151.2653  141.2381  156.9292 H   0  0  0  0  0  0  0  0  0  0  0  0
  149.8195  141.0497  157.8934 H   0  0  0  0  0  0  0  0  0  0  0  0
  149.0117  142.9554  156.3117 H   0  0  0  0  0  0  0  0  0  0  0  0
  148.4224  140.3546  156.4471 H   0  0  0  0  0  0  0  0  0  0  0  0
  148.2438  139.8054  153.9058 H   0  0  0  0  0  0  0  0  0  0  0  0
  149.4619  141.0171  153.6499 H   0  0  0  0  0  0  0  0  0  0  0  0
  151.7029  140.6025  155.2331 H   0  0  0  0  0  0  0  0  0  0  0  0
  153.3485  138.7653  155.6468 H   0  0  0  0  0  0  0  0  0  0  0  0
  150.6124  135.8551  154.5895 H   0  0  0  0  0  0  0  0  0  0  0  0
  148.8372  137.5525  154.1233 H   0  0  0  0  0  0  0  0  0  0  0  0
  152.5796  143.2565  156.9647 H   0  0  0  0  0  0  0  0  0  0  0  0
  151.3181  144.3670  156.4741 H   0  0  0  0  0  0  0  0  0  0  0  0
  153.3022  145.2685  158.0284 H   0  0  0  0  0  0  0  0  0  0  0  0
  151.6546  145.7337  158.4402 H   0  0  0  0  0  0  0  0  0  0  0  0
  150.7016  142.3824  160.2079 H   0  0  0  0  0  0  0  0  0  0  0  0
  152.0942  141.7935  159.3120 H   0  0  0  0  0  0  0  0  0  0  0  0
  1  2  1  0  0  0  0
  1 21  1  0  0  0  0
  2 20  1  0  0  0  0
  2  3  1  0  0  0  0
  2 17  1  0  0  0  0
  3  4  1  0  0  0  0
  3 22  1  0  0  0  0
  3 23  1  0  0  0  0
  4  5  1  0  0  0  0
  4 24  1  0  0  0  0
  5  6  1  0  0  0  0
  5 13  1  0  0  0  0
  5 25  1  0  0  0  0
  6  7  1  0  0  0  0
  6 26  1  0  0  0  0
  6 27  1  0  0  0  0
  7 12  1  0  0  0  0
  7  8  2  0  0  0  0
  8  9  1  0  0  0  0
  8 28  1  0  0  0  0
  9 10  2  0  0  0  0
  9 29  1  0  0  0  0
 10 11  1  0  0  0  0
 11 12  2  0  0  0  0
 11 30  1  0  0  0  0
 12 31  1  0  0  0  0
 13 14  1  0  0  0  0
 13 15  1  0  0  0  0
 13 16  1  0  0  0  0
 17 18  1  0  0  0  0
 17 32  1  0  0  0  0
 17 33  1  0  0  0  0
 18 19  1  0  0  0  0
 18 34  1  0  0  0  0
 18 35  1  0  0  0  0
 19 20  1  0  0  0  0
 20 36  1  0  0  0  0
 20 37  1  0  0  0  0
M  END
> <s_m_source_file>
AV-unprocessed.smi

> <i_m_source_file_index>
2448

> <i_lp_mmshare_version>
43012

> <i_f3d_flags>
0

> <s_epik_input>
W0NIMl0xU1tDSDJdW0NIMl1bQ0BAXTEoW09IXSlbQ0gyXVtOSF1bQ0BASF0oQyhGKShGKUYpW0NIMl1jMltjSF1bY0hdbltjSF1bY0hdMg==

> <s_epik_cmdline>
J2VwaWtfcHl0aG9uJywgJy1waCcsICc3LjAnLCAnLXRuJywgJzgnLCAnLW1hJywgJzIwMCcsICctbWV0YWxfYmluZGluZycsICctaW1hZScsICc8aW5maWxlLm1hZT4nLCAnLW9tYWUnLCAnPG91dGZpbGUubWFlPic=

> <r_epik_Ionization_Penalty>
0.187708

> <r_epik_Ionization_Penalty_Charging>
0

> <r_epik_Ionization_Penalty_Neutral>
0.187708

> <r_epik_State_Penalty>
0.22769

> <r_epik_Charging_Adjusted_Penalty>
0.22769

> <i_epik_Tot_Q>
0

> <i_epik_Tot_abs_Q>
0

> <r_epik_Metal_State_Penalty>
0.176206

> <b_epik_Metal_Only>
0

> <s_lp_Force_Field>
OPLS_2005

> <r_lp_Energy>
32.3304

> <b_lp_Chiralities_Consistent>
1

> <s_lp_Variant>
AV-unprocessed.smi:2448-1

> <Gold.Version>
5.8.1

> <Gold.Id.Protein>
6NUR|6NUR_protein|mol2

> <Gold.PLP.Fitness>
47.1864

> <Gold.PLP.PLP>
-41.5035

> <Gold.PLP.part.hbond>
-4.0000

> <Gold.PLP.part.metal>
0.0000

> <Gold.PLP.part.buried>
-1.1660

> <Gold.PLP.part.nonpolar>
-37.3358

> <Gold.PLP.part.repulsive>
0.0779

> <Gold.PLP.ligand.clash>
0.0000

> <Gold.PLP.ligand.torsion>
1.2283

> <Gold.PLP.Chemscore.Hbond>
2.4800

> <Gold.PLP.Chemscore.CHOScore>
0.0000

> <Gold.PLP.Chemscore.Metal>
0.0000

> <Gold.Chemscore.Hbonds>
donor molecule, donor type, donor heavy atom, donor atom, acceptor molecule, acceptor atom, score
      L1  H     1    21       P1  8028  0.75
      L1  H     4    24       P1  8028  0.78
      P1  H 10752 10764       L1    10  0.84

> <Gold.PLP.Chemscore.Internal.Correction>
0.6996

> <Gold.Rescore>
     Score         DG    S(hbond)    S(metal)    S(lipo)     H(rot)  DE(clash)    DE(int)     intcor
     16.60     -18.55       1.73        0.00     112.86       2.31       0.63       1.32       ----

> <Gold.Chemscore.Fitness>
16.5980

> <Gold.Chemscore.DG>
-18.5481

> <Gold.Chemscore.ZeroCoef>
-5.4800

> <Gold.Chemscore.Hbond>
1.7305

> <Gold.Chemscore.Metal>
0.0000

> <Gold.Chemscore.Lipo>
112.8593

> <Gold.Chemscore.Internal_Hbond>
0.0000

> <Gold.Chemscore.DEClash>
0.6276

> <Gold.Chemscore.DEInternal>
1.3225

> <Gold.Chemscore.Rot>
2.3111

> <Gold.Chemscore.Internal.Correction>
   9.000000E+99

> <Gold.Chemscore.Hbonds>
donor molecule, donor type, donor heavy atom, donor atom, acceptor molecule, acceptor atom, score
      L1  H     1    21       P1  8028  0.09
      L1  H     4    24       P1  8028  0.78
      P1  H 10752 10764       L1    10  0.19

> <Gold.Chemscore.Hbond.Weighted>
-5.7799

> <Gold.Chemscore.Metal.Weighted>
-0.0000

> <Gold.Chemscore.Lipo.Weighted>
-13.2045

> <Gold.Chemscore.Internal_Hbond.Weighted>
0.0000

> <Gold.Chemscore.DEClash.Weighted>
0.6276

> <Gold.Chemscore.DEInternal.Weighted>
1.3225

> <Gold.Chemscore.Rot.Weighted>
5.9164

> <Gold.Chemscore.Internal.Correction.Weighted>
   9.000000E+99

> <Gold.Protein.RotatedTorsions>
[ 6907 6896 6895 6894 ] final -119.64 input  -60.11 | X-H torsion
[ 7974 7965 7964 7962 ] final  139.41 input  175.53 | X-H torsion
[ 8008 7997 7996 7995 ] final  166.25 input   59.86 | X-H torsion
[ 10167 10162 10161 10158 ] final  126.54 input  -65.29 | X-H torsion
[ 10718 10713 10712 10709 ] final    5.17 input   66.30 | X-H torsion
[ 10763 10752 10751 10750 ] final  -57.84 input  -60.55 | X-H torsion
[ 11005 11000 10999 10996 ] final   37.28 input  -57.11 | X-H torsion

> <Gold.Protein.ActiveResidues>
 VAL166  LYS551  ARG553  GLY616  TRP617  ASP618  TYR619  PRO620  LYS621  CYS622 
 ASP623  PHE694  ASN695  SER759  ASP760  ASP761  ALA762  ILE779  LEU786  VAL792 
 PHE793  MET794  SER795  GLU796  ALA797  LYS798  CYS799  TRP800  GLU811  SER814 

> <Gold.Protein.RotatedAtoms>
  150.8322  133.8071  159.3093 H   0  0  0  0  0  0  0  0  0  0  0  0  # atno 6907 bound_to 6896
  151.5798  135.1057  160.0024 H   0  0  0  0  0  0  0  0  0  0  0  0  # atno 6908 bound_to 6896
  152.4400  133.7389  159.6686 H   0  0  0  0  0  0  0  0  0  0  0  0  # atno 6909 bound_to 6896
  144.9281  139.5081  143.5631 H   0  0  0  0  0  0  0  0  0  0  0  0  # atno 7974 bound_to 7965
  156.1734  140.1648  156.8407 H   0  0  0  0  0  0  0  0  0  0  0  0  # atno 8008 bound_to 7997
  154.5281  140.0763  156.8329 H   0  0  0  0  0  0  0  0  0  0  0  0  # atno 8009 bound_to 7997
  155.3465  140.3387  155.4241 H   0  0  0  0  0  0  0  0  0  0  0  0  # atno 8010 bound_to 7997
  139.5626  144.6891  151.4001 H   0  0  0  0  0  0  0  0  0  0  0  0  # atno 10167 bound_to 10162
  156.9034  130.5730  149.5648 H   0  0  0  0  0  0  0  0  0  0  0  0  # atno 10718 bound_to 10713
  154.2287  135.6364  153.5168 H   0  0  0  0  0  0  0  0  0  0  0  0  # atno 10763 bound_to 10752
  152.9953  135.5514  154.6036 H   0  0  0  0  0  0  0  0  0  0  0  0  # atno 10764 bound_to 10752
  154.5514  135.2902  155.0979 H   0  0  0  0  0  0  0  0  0  0  0  0  # atno 10765 bound_to 10752
  140.2241  134.3605  155.7992 H   0  0  0  0  0  0  0  0  0  0  0  0  # atno 11005 bound_to 11000
  146.3235  139.8212  142.8926 LP  0  0  0  0  0  0  0  0  0  0  0  0  # atno 17320 bound_to 7965
  145.3186  141.0238  143.3513 LP  0  0  0  0  0  0  0  0  0  0  0  0  # atno 17321 bound_to 7965
  140.6907  143.7868  150.7251 LP  0  0  0  0  0  0  0  0  0  0  0  0  # atno 17342 bound_to 10162
  140.1350  143.4492  152.2230 LP  0  0  0  0  0  0  0  0  0  0  0  0  # atno 17343 bound_to 10162
  156.0571  130.5630  150.9114 LP  0  0  0  0  0  0  0  0  0  0  0  0  # atno 17370 bound_to 10713
  157.6012  131.0941  150.8957 LP  0  0  0  0  0  0  0  0  0  0  0  0  # atno 17371 bound_to 10713
  141.2221  133.7210  156.8625 LP  0  0  0  0  0  0  0  0  0  0  0  0  # atno 17394 bound_to 11000
  140.1818  134.9028  157.2958 LP  0  0  0  0  0  0  0  0  0  0  0  0  # atno 17395 bound_to 11000

$$$$
