AV-unprocessed.smi:626|AV-procd|sdf|3109|dock1
  -GOLD-   22720 0 33D 1   1.00000     0.00000
 Structure written by MMmdl.
 34 36  0  0  0  0  0  0  0  0  1 V2000
  147.5857  138.9535  153.4875 C   0  0  0  0  0  0  0  0  0  0  0  0
  148.9785  139.3634  153.5823 N   0  0  0  0  0  0  0  0  0  0  0  0
  149.8139  138.9772  154.5575 C   0  0  0  0  0  0  0  0  0  0  0  0
  149.4714  138.2280  155.4740 O   0  0  0  0  0  0  0  0  0  0  0  0
  151.2461  139.5209  154.4641 C   0  0  0  0  0  0  0  0  0  0  0  0
  151.6809  140.2129  155.7189 C   0  0  0  0  0  0  0  0  0  0  0  0
  152.7925  139.8598  156.3532 N   0  0  0  0  0  0  0  0  0  0  0  0
  152.8225  140.7235  157.4574 O   0  0  0  0  0  0  0  0  0  0  0  0
  151.7351  141.5233  157.3361 C   0  0  0  0  0  0  0  0  0  0  0  0
  151.4433  142.5054  158.4297 C   0  0  2  0  0  0  0  0  0  0  0  0
  151.0642  143.9161  157.9323 C   0  0  0  0  0  0  0  0  0  0  0  0
  151.9962  144.8240  158.7577 C   0  0  1  0  0  0  0  0  0  0  0  0
  151.5903  144.7796  160.2441 C   0  0  0  0  0  0  0  0  0  0  0  0
  152.0683  143.3826  160.6895 C   0  0  0  0  0  0  0  0  0  0  0  0
  152.6275  142.7869  159.3833 C   0  0  2  0  0  0  0  0  0  0  0  0
  153.2874  144.0156  158.7613 C   0  0  0  0  0  0  0  0  0  0  0  0
  150.9621  141.2150  156.2962 N   0  0  0  0  0  0  0  0  0  0  0  0
  147.1309  139.3860  152.5964 H   0  0  0  0  0  0  0  0  0  0  0  0
  147.0211  139.2920  154.3573 H   0  0  0  0  0  0  0  0  0  0  0  0
  147.5035  137.8679  153.4195 H   0  0  0  0  0  0  0  0  0  0  0  0
  149.3303  139.9762  152.8607 H   0  0  0  0  0  0  0  0  0  0  0  0
  151.9265  138.6948  154.2533 H   0  0  0  0  0  0  0  0  0  0  0  0
  151.3191  140.2145  153.6249 H   0  0  0  0  0  0  0  0  0  0  0  0
  150.6138  142.0909  159.0049 H   0  0  0  0  0  0  0  0  0  0  0  0
  151.2813  144.0315  156.8691 H   0  0  0  0  0  0  0  0  0  0  0  0
  150.0082  144.1430  158.0823 H   0  0  0  0  0  0  0  0  0  0  0  0
  152.0871  145.8343  158.3580 H   0  0  0  0  0  0  0  0  0  0  0  0
  152.1012  145.5582  160.8118 H   0  0  0  0  0  0  0  0  0  0  0  0
  150.5167  144.9148  160.3803 H   0  0  0  0  0  0  0  0  0  0  0  0
  152.8544  143.4693  161.4407 H   0  0  0  0  0  0  0  0  0  0  0  0
  151.2655  142.7817  161.1184 H   0  0  0  0  0  0  0  0  0  0  0  0
  153.2828  141.9309  159.5492 H   0  0  0  0  0  0  0  0  0  0  0  0
  153.6891  143.8398  157.7625 H   0  0  0  0  0  0  0  0  0  0  0  0
  154.0695  144.4503  159.3863 H   0  0  0  0  0  0  0  0  0  0  0  0
  1  2  1  0  0  0  0
  1 18  1  0  0  0  0
  1 19  1  0  0  0  0
  1 20  1  0  0  0  0
  2  3  1  0  0  0  0
  2 21  1  0  0  0  0
  3  4  2  0  0  0  0
  3  5  1  0  0  0  0
  5  6  1  0  0  0  0
  5 22  1  0  0  0  0
  5 23  1  0  0  0  0
  6 17  1  0  0  0  0
  6  7  2  0  0  0  0
  7  8  1  0  0  0  0
  8  9  1  0  0  0  0
  9 10  1  0  0  0  0
  9 17  2  0  0  0  0
 10 15  1  0  0  0  0
 10 11  1  0  0  0  0
 10 24  1  0  0  0  0
 11 12  1  0  0  0  0
 11 25  1  0  0  0  0
 11 26  1  0  0  0  0
 12 16  1  0  0  0  0
 12 13  1  0  0  0  0
 12 27  1  0  0  0  0
 13 14  1  0  0  0  0
 13 28  1  0  0  0  0
 13 29  1  0  0  0  0
 14 15  1  0  0  0  0
 14 30  1  0  0  0  0
 14 31  1  0  0  0  0
 15 16  1  0  0  0  0
 15 32  1  0  0  0  0
 16 33  1  0  0  0  0
 16 34  1  0  0  0  0
M  END
> <s_m_source_file>
AV-unprocessed.smi

> <i_m_source_file_index>
626

> <i_lp_mmshare_version>
43012

> <i_f3d_flags>
0

> <s_epik_input>
W0NIM11bTkhdQyg9TylbQ0gyXWMxbm9jKG4xKVtDQEhdKFtDSDJdW0NAQEhdMjMpW0NAQEhdKFtDSDJdMylbQ0gyXVtDSDJdMg==

> <s_epik_cmdline>
J2VwaWtfcHl0aG9uJywgJy1waCcsICc3LjAnLCAnLXRuJywgJzgnLCAnLW1hJywgJzIwMCcsICctbWV0YWxfYmluZGluZycsICctaW1hZScsICc8aW5maWxlLm1hZT4nLCAnLW9tYWUnLCAnPG91dGZpbGUubWFlPic=

> <r_lp_tautomer_probability>
1

> <r_epik_Ionization_Penalty>
1.02916e-07

> <r_epik_Ionization_Penalty_Charging>
0

> <r_epik_Ionization_Penalty_Neutral>
1.02916e-07

> <r_epik_State_Penalty>
-0

> <r_epik_Charging_Adjusted_Penalty>
0

> <i_epik_Tot_Q>
0

> <i_epik_Tot_abs_Q>
0

> <r_epik_Metal_State_Penalty>
-0

> <b_epik_Metal_Only>
0

> <s_lp_Force_Field>
OPLS_2005

> <r_lp_Energy>
49.0538

> <b_lp_Chiralities_Consistent>
1

> <s_lp_Variant>
AV-unprocessed.smi:626-1

> <Gold.Version>
5.8.1

> <Gold.Id.Protein>
6NUR|6NUR_protein|mol2

> <Gold.PLP.Fitness>
41.8127

> <Gold.PLP.PLP>
-38.1878

> <Gold.PLP.part.hbond>
-3.0000

> <Gold.PLP.part.metal>
0.0000

> <Gold.PLP.part.buried>
-3.2891

> <Gold.PLP.part.nonpolar>
-31.3901

> <Gold.PLP.part.repulsive>
0.1595

> <Gold.PLP.ligand.clash>
0.0000

> <Gold.PLP.ligand.torsion>
0.3396

> <Gold.PLP.Chemscore.Hbond>
1.4080

> <Gold.PLP.Chemscore.CHOScore>
0.0000

> <Gold.PLP.Chemscore.Metal>
0.0000

> <Gold.Chemscore.Hbonds>
donor molecule, donor type, donor heavy atom, donor atom, acceptor molecule, acceptor atom, score
      L1  H     2    21       P1  7957  0.83
      P1  H  7997  8008       L1     7  0.30

> <Gold.PLP.Chemscore.Internal.Correction>
0.0799

> <Gold.Rescore>
     Score         DG    S(hbond)    S(metal)    S(lipo)     H(rot)  DE(clash)    DE(int)     intcor
     15.38     -15.89       0.99        0.00      95.93       1.61       0.01       0.50       ----

> <Gold.Chemscore.Fitness>
15.3793

> <Gold.Chemscore.DG>
-15.8861

> <Gold.Chemscore.ZeroCoef>
-5.4800

> <Gold.Chemscore.Hbond>
0.9907

> <Gold.Chemscore.Metal>
0.0000

> <Gold.Chemscore.Lipo>
95.9297

> <Gold.Chemscore.Internal_Hbond>
0.0000

> <Gold.Chemscore.DEClash>
0.0090

> <Gold.Chemscore.DEInternal>
0.4978

> <Gold.Chemscore.Rot>
1.6119

> <Gold.Chemscore.Internal.Correction>
   9.000000E+99

> <Gold.Chemscore.Hbonds>
donor molecule, donor type, donor heavy atom, donor atom, acceptor molecule, acceptor atom, score
      L1  H     2    21       P1  7957  0.83

> <Gold.Chemscore.Hbond.Weighted>
-3.3090

> <Gold.Chemscore.Metal.Weighted>
-0.0000

> <Gold.Chemscore.Lipo.Weighted>
-11.2238

> <Gold.Chemscore.Internal_Hbond.Weighted>
0.0000

> <Gold.Chemscore.DEClash.Weighted>
0.0090

> <Gold.Chemscore.DEInternal.Weighted>
0.4978

> <Gold.Chemscore.Rot.Weighted>
4.1266

> <Gold.Chemscore.Internal.Correction.Weighted>
   9.000000E+99

> <Gold.Protein.RotatedTorsions>
[ 6907 6896 6895 6894 ] final   14.86 input  -60.11 | X-H torsion
[ 7974 7965 7964 7962 ] final  -47.64 input  175.53 | X-H torsion
[ 8008 7997 7996 7995 ] final  -34.17 input   59.86 | X-H torsion
[ 10167 10162 10161 10158 ] final -139.83 input  -65.29 | X-H torsion
[ 10718 10713 10712 10709 ] final   71.10 input   66.30 | X-H torsion
[ 10763 10752 10751 10750 ] final  163.10 input  -60.55 | X-H torsion
[ 11005 11000 10999 10996 ] final -138.92 input  -57.11 | X-H torsion

> <Gold.Protein.ActiveResidues>
 VAL166  LYS551  ARG553  GLY616  TRP617  ASP618  TYR619  PRO620  LYS621  CYS622 
 ASP623  PHE694  ASN695  SER759  ASP760  ASP761  ALA762  ILE779  LEU786  VAL792 
 PHE793  MET794  SER795  GLU796  ALA797  LYS798  CYS799  TRP800  GLU811  SER814 

> <Gold.Protein.RotatedAtoms>
  151.8089  135.0687  160.0409 H   0  0  0  0  0  0  0  0  0  0  0  0  # atno 6907 bound_to 6896
  152.3035  133.5675  159.5642 H   0  0  0  0  0  0  0  0  0  0  0  0  # atno 6908 bound_to 6896
  150.7285  134.0173  159.3731 H   0  0  0  0  0  0  0  0  0  0  0  0  # atno 6909 bound_to 6896
  145.9595  140.7493  142.9465 H   0  0  0  0  0  0  0  0  0  0  0  0  # atno 7974 bound_to 7965
  154.4128  140.1691  156.2007 H   0  0  0  0  0  0  0  0  0  0  0  0  # atno 8008 bound_to 7997
  155.9527  140.3399  155.6398 H   0  0  0  0  0  0  0  0  0  0  0  0  # atno 8009 bound_to 7997
  155.6850  140.0727  157.2461 H   0  0  0  0  0  0  0  0  0  0  0  0  # atno 8010 bound_to 7997
  139.8341  143.7408  152.2665 H   0  0  0  0  0  0  0  0  0  0  0  0  # atno 10167 bound_to 10162
  157.6434  130.9511  150.0743 H   0  0  0  0  0  0  0  0  0  0  0  0  # atno 10718 bound_to 10713
  154.2885  135.2761  155.2665 H   0  0  0  0  0  0  0  0  0  0  0  0  # atno 10763 bound_to 10752
  154.5155  135.5771  153.6642 H   0  0  0  0  0  0  0  0  0  0  0  0  # atno 10764 bound_to 10752
  152.9918  135.6191  154.3048 H   0  0  0  0  0  0  0  0  0  0  0  0  # atno 10765 bound_to 10752
  140.8569  134.2217  157.4729 H   0  0  0  0  0  0  0  0  0  0  0  0  # atno 11005 bound_to 11000
  144.6812  140.2567  143.7324 LP  0  0  0  0  0  0  0  0  0  0  0  0  # atno 17320 bound_to 7965
  145.8060  139.1983  143.2020 LP  0  0  0  0  0  0  0  0  0  0  0  0  # atno 17321 bound_to 7965
  139.7625  144.7502  151.0343 LP  0  0  0  0  0  0  0  0  0  0  0  0  # atno 17342 bound_to 10162
  140.7804  143.4735  151.0114 LP  0  0  0  0  0  0  0  0  0  0  0  0  # atno 17343 bound_to 10162
  156.1738  130.3647  149.9129 LP  0  0  0  0  0  0  0  0  0  0  0  0  # atno 17370 bound_to 10713
  156.7098  130.8965  151.3608 LP  0  0  0  0  0  0  0  0  0  0  0  0  # atno 17371 bound_to 10713
  139.8705  134.9711  156.4724 LP  0  0  0  0  0  0  0  0  0  0  0  0  # atno 17394 bound_to 11000
  140.8727  133.7976  155.9381 LP  0  0  0  0  0  0  0  0  0  0  0  0  # atno 17395 bound_to 11000

$$$$
