AV-unprocessed.smi:237|AV-procd|sdf|1818|dock8
  -GOLD-   2262020413D 1   1.00000     0.00000
 Structure written by MMmdl.
 53 56  0  0  0  0  0  0  0  0  1 V2000
  148.7360  131.1207  160.2828 C   0  0  0  0  0  0  0  0  0  0  0  0
  149.0453  131.6662  158.8872 C   0  0  0  0  0  0  0  0  0  0  0  0
  148.8719  133.0740  158.9098 O   0  0  0  0  0  0  0  0  0  0  0  0
  147.5186  133.5127  158.9409 C   0  0  0  0  0  0  0  0  0  0  0  0
  147.1939  134.5266  160.0716 C   0  0  1  0  0  0  0  0  0  0  0  0
  146.8400  133.7360  161.3522 C   0  0  0  0  0  0  0  0  0  0  0  0
  146.5724  134.6589  162.5483 C   0  0  0  0  0  0  0  0  0  0  0  0
  147.7749  135.5822  162.7690 C   0  0  0  0  0  0  0  0  0  0  0  0
  148.0824  136.3634  161.4854 C   0  0  0  0  0  0  0  0  0  0  0  0
  148.2975  135.4626  160.3507 N   0  0  0  0  0  0  0  0  0  0  0  0
  148.7480  136.1403  159.2697 C   0  0  0  0  0  0  0  0  0  0  0  0
  149.9669  135.8474  158.7428 N   0  0  0  0  0  0  0  0  0  0  0  0
  150.4224  136.5383  157.6937 C   0  0  0  0  0  0  0  0  0  0  0  0
  149.8353  137.5395  157.0343 N   0  0  0  0  0  0  0  0  0  0  0  0
  148.6103  137.8301  157.5603 C   0  0  0  0  0  0  0  0  0  0  0  0
  147.9981  137.1857  158.6706 C   0  0  0  0  0  0  0  0  0  0  0  0
  146.7617  137.7585  158.9350 N   0  0  0  0  0  0  0  0  0  0  0  0
  146.6480  138.6908  158.0288 C   0  0  0  0  0  0  0  0  0  0  0  0
  147.7041  138.7927  157.1494 N   0  0  0  0  0  0  0  0  0  0  0  0
  147.8431  139.7386  156.0507 C   0  0  0  0  0  0  0  0  0  0  0  0
  149.0762  140.6704  156.1437 C   0  0  0  0  0  0  0  0  0  0  0  0
  148.8578  141.6324  157.3196 C   0  0  0  0  0  0  0  0  0  0  0  0
  149.9272  142.5482  157.4409 O   0  0  0  0  0  0  0  0  0  0  0  0
  150.4707  140.0271  156.0440 C   0  0  0  0  0  0  0  0  0  0  0  0
  150.6088  140.4115  154.6599 O   0  0  0  0  0  0  0  0  0  0  0  0
  149.5162  141.3385  154.8297 C   0  0  0  0  0  0  0  0  0  0  0  0
  148.8650  130.0388  160.3168 H   0  0  0  0  0  0  0  0  0  0  0  0
  147.7088  131.3452  160.5711 H   0  0  0  0  0  0  0  0  0  0  0  0
  149.3971  131.5605  161.0299 H   0  0  0  0  0  0  0  0  0  0  0  0
  150.0664  131.4031  158.6128 H   0  0  0  0  0  0  0  0  0  0  0  0
  148.3764  131.2132  158.1543 H   0  0  0  0  0  0  0  0  0  0  0  0
  147.2711  133.9359  157.9662 H   0  0  0  0  0  0  0  0  0  0  0  0
  146.8833  132.6333  159.0525 H   0  0  0  0  0  0  0  0  0  0  0  0
  146.3153  135.1119  159.8013 H   0  0  0  0  0  0  0  0  0  0  0  0
  145.9649  133.1098  161.1753 H   0  0  0  0  0  0  0  0  0  0  0  0
  147.6579  133.0579  161.6013 H   0  0  0  0  0  0  0  0  0  0  0  0
  145.6769  135.2538  162.3646 H   0  0  0  0  0  0  0  0  0  0  0  0
  146.3800  134.0691  163.4448 H   0  0  0  0  0  0  0  0  0  0  0  0
  147.5750  136.2724  163.5889 H   0  0  0  0  0  0  0  0  0  0  0  0
  148.6462  134.9938  163.0596 H   0  0  0  0  0  0  0  0  0  0  0  0
  147.2544  137.0400  161.2674 H   0  0  0  0  0  0  0  0  0  0  0  0
  148.9681  136.9823  161.6380 H   0  0  0  0  0  0  0  0  0  0  0  0
  151.3992  136.2508  157.3340 H   0  0  0  0  0  0  0  0  0  0  0  0
  145.7818  139.3340  157.9783 H   0  0  0  0  0  0  0  0  0  0  0  0
  147.8757  139.1642  155.1241 H   0  0  0  0  0  0  0  0  0  0  0  0
  146.9208  140.3182  156.0040 H   0  0  0  0  0  0  0  0  0  0  0  0
  147.9408  142.2080  157.1878 H   0  0  0  0  0  0  0  0  0  0  0  0
  148.7491  141.0876  158.2579 H   0  0  0  0  0  0  0  0  0  0  0  0
  149.6721  143.3646  157.0391 H   0  0  0  0  0  0  0  0  0  0  0  0
  151.2225  140.5094  156.6709 H   0  0  0  0  0  0  0  0  0  0  0  0
  150.4923  138.9485  156.1895 H   0  0  0  0  0  0  0  0  0  0  0  0
  148.7852  141.2873  154.0242 H   0  0  0  0  0  0  0  0  0  0  0  0
  149.8755  142.3619  154.9502 H   0  0  0  0  0  0  0  0  0  0  0  0
  1  2  1  0  0  0  0
  1 27  1  0  0  0  0
  1 28  1  0  0  0  0
  1 29  1  0  0  0  0
  2  3  1  0  0  0  0
  2 30  1  0  0  0  0
  2 31  1  0  0  0  0
  3  4  1  0  0  0  0
  4  5  1  0  0  0  0
  4 32  1  0  0  0  0
  4 33  1  0  0  0  0
  5 10  1  0  0  0  0
  5  6  1  0  0  0  0
  5 34  1  0  0  0  0
  6  7  1  0  0  0  0
  6 35  1  0  0  0  0
  6 36  1  0  0  0  0
  7  8  1  0  0  0  0
  7 37  1  0  0  0  0
  7 38  1  0  0  0  0
  8  9  1  0  0  0  0
  8 39  1  0  0  0  0
  8 40  1  0  0  0  0
  9 10  1  0  0  0  0
  9 41  1  0  0  0  0
  9 42  1  0  0  0  0
 10 11  1  0  0  0  0
 11 16  1  0  0  0  0
 11 12  2  0  0  0  0
 12 13  1  0  0  0  0
 13 14  2  0  0  0  0
 13 43  1  0  0  0  0
 14 15  1  0  0  0  0
 15 19  1  0  0  0  0
 15 16  2  0  0  0  0
 16 17  1  0  0  0  0
 17 18  2  0  0  0  0
 18 19  1  0  0  0  0
 18 44  1  0  0  0  0
 19 20  1  0  0  0  0
 20 21  1  0  0  0  0
 20 45  1  0  0  0  0
 20 46  1  0  0  0  0
 21 26  1  0  0  0  0
 21 22  1  0  0  0  0
 21 24  1  0  0  0  0
 22 23  1  0  0  0  0
 22 47  1  0  0  0  0
 22 48  1  0  0  0  0
 23 49  1  0  0  0  0
 24 25  1  0  0  0  0
 24 50  1  0  0  0  0
 24 51  1  0  0  0  0
 25 26  1  0  0  0  0
 26 52  1  0  0  0  0
 26 53  1  0  0  0  0
M  END
> <s_m_source_file>
AV-unprocessed.smi

> <i_m_source_file_index>
237

> <i_lp_mmshare_version>
43012

> <i_f3d_flags>
0

> <s_epik_input>
W0NIM11bQ0gyXU9bQ0gyXVtDQEBIXTFbQ0gyXVtDSDJdW0NIMl1bQ0gyXU4xYyhuW2NIXW4yKWMoYzIzKW5bY0hdbjNbQ0gyXUM0KFtDSDJdW09IXSlbQ0gyXU9bQ0gyXTQ=

> <s_epik_cmdline>
J2VwaWtfcHl0aG9uJywgJy1waCcsICc3LjAnLCAnLXRuJywgJzgnLCAnLW1hJywgJzIwMCcsICctbWV0YWxfYmluZGluZycsICctaW1hZScsICc8aW5maWxlLm1hZT4nLCAnLW9tYWUnLCAnPG91dGZpbGUubWFlPic=

> <r_lp_tautomer_probability>
1

> <r_epik_Ionization_Penalty>
0.00358373

> <r_epik_Ionization_Penalty_Charging>
0

> <r_epik_Ionization_Penalty_Neutral>
0.00358373

> <r_epik_State_Penalty>
0.00240903

> <r_epik_Charging_Adjusted_Penalty>
0.00240903

> <i_epik_Tot_Q>
0

> <i_epik_Tot_abs_Q>
0

> <r_epik_Metal_State_Penalty>
-0

> <b_epik_Metal_Only>
0

> <s_lp_Force_Field>
OPLS_2005

> <r_lp_Energy>
39.3208

> <b_lp_Chiralities_Consistent>
1

> <s_lp_Variant>
AV-unprocessed.smi:237-2

> <Gold.Version>
5.8.1

> <Gold.Id.Protein>
6NUR|6NUR_protein|mol2

> <Gold.PLP.Fitness>
41.8787

> <Gold.PLP.PLP>
-33.7323

> <Gold.PLP.part.hbond>
-4.8037

> <Gold.PLP.part.metal>
0.0000

> <Gold.PLP.part.buried>
-2.5994

> <Gold.PLP.part.nonpolar>
-25.6847

> <Gold.PLP.part.repulsive>
0.0995

> <Gold.PLP.ligand.clash>
0.0000

> <Gold.PLP.ligand.torsion>
1.0228

> <Gold.PLP.Chemscore.Hbond>
3.2103

> <Gold.PLP.Chemscore.CHOScore>
0.0000

> <Gold.PLP.Chemscore.Metal>
0.0000

> <Gold.Chemscore.Hbonds>
donor molecule, donor type, donor heavy atom, donor atom, acceptor molecule, acceptor atom, score
      L1  H    23    49       P1  8028  0.88
      P1  H  6896  6908       L1     3  0.94
      P1  H  6896  6909       L1    12  0.03
      P1  H  6934  6947       L1    17  0.11
      P1  H  7989  7998       L1    25  1.00

> <Gold.PLP.Chemscore.Internal.Correction>
0.5611

> <Gold.Rescore>
     Score         DG    S(hbond)    S(metal)    S(lipo)     H(rot)  DE(clash)    DE(int)     intcor
     12.85     -15.38       2.76        0.00      72.83       3.06       0.20       2.34       ----

> <Gold.Chemscore.Fitness>
12.8456

> <Gold.Chemscore.DG>
-15.3833

> <Gold.Chemscore.ZeroCoef>
-5.4800

> <Gold.Chemscore.Hbond>
2.7608

> <Gold.Chemscore.Metal>
0.0000

> <Gold.Chemscore.Lipo>
72.8293

> <Gold.Chemscore.Internal_Hbond>
0.0000

> <Gold.Chemscore.DEClash>
0.2024

> <Gold.Chemscore.DEInternal>
2.3352

> <Gold.Chemscore.Rot>
3.0620

> <Gold.Chemscore.Internal.Correction>
   9.000000E+99

> <Gold.Chemscore.Hbonds>
donor molecule, donor type, donor heavy atom, donor atom, acceptor molecule, acceptor atom, score
      L1  H    23    49       P1  8028  0.83
      P1  H  6896  6908       L1     3  0.48
      P1  H  6896  6909       L1    12  0.04
      P1  H  6934  6947       L1    17  0.01
      P1  H  7989  7998       L1    25  0.80

> <Gold.Chemscore.Hbond.Weighted>
-9.2210

> <Gold.Chemscore.Metal.Weighted>
-0.0000

> <Gold.Chemscore.Lipo.Weighted>
-8.5210

> <Gold.Chemscore.Internal_Hbond.Weighted>
0.0000

> <Gold.Chemscore.DEClash.Weighted>
0.2024

> <Gold.Chemscore.DEInternal.Weighted>
2.3352

> <Gold.Chemscore.Rot.Weighted>
7.8388

> <Gold.Chemscore.Internal.Correction.Weighted>
   9.000000E+99

> <Gold.Protein.RotatedTorsions>
[ 6907 6896 6895 6894 ] final  125.30 input  -60.11 | X-H torsion
[ 7974 7965 7964 7962 ] final  100.28 input  175.53 | X-H torsion
[ 8008 7997 7996 7995 ] final -122.33 input   59.86 | X-H torsion
[ 10167 10162 10161 10158 ] final   76.88 input  -65.29 | X-H torsion
[ 10718 10713 10712 10709 ] final -115.11 input   66.30 | X-H torsion
[ 10763 10752 10751 10750 ] final  -72.33 input  -60.55 | X-H torsion
[ 11005 11000 10999 10996 ] final  131.09 input  -57.11 | X-H torsion

> <Gold.Protein.ActiveResidues>
 VAL166  LYS551  ARG553  GLY616  TRP617  ASP618  TYR619  PRO620  LYS621  CYS622 
 ASP623  PHE694  ASN695  SER759  ASP760  ASP761  ALA762  ILE779  LEU786  VAL792 
 PHE793  MET794  SER795  GLU796  ALA797  LYS798  CYS799  TRP800  GLU811  SER814 

> <Gold.Protein.RotatedAtoms>
  152.4004  133.6809  159.6310 H   0  0  0  0  0  0  0  0  0  0  0  0  # atno 6907 bound_to 6896
  150.7896  133.8802  159.3292 H   0  0  0  0  0  0  0  0  0  0  0  0  # atno 6908 bound_to 6896
  151.6569  135.0996  160.0223 H   0  0  0  0  0  0  0  0  0  0  0  0  # atno 6909 bound_to 6896
  145.3877  139.2368  143.3369 H   0  0  0  0  0  0  0  0  0  0  0  0  # atno 7974 bound_to 7965
  155.1625  140.0406  157.2845 H   0  0  0  0  0  0  0  0  0  0  0  0  # atno 8008 bound_to 7997
  154.6326  140.2528  155.7388 H   0  0  0  0  0  0  0  0  0  0  0  0  # atno 8009 bound_to 7997
  156.2492  140.2872  156.0685 H   0  0  0  0  0  0  0  0  0  0  0  0  # atno 8010 bound_to 7997
  139.9875  144.5781  150.7846 H   0  0  0  0  0  0  0  0  0  0  0  0  # atno 10167 bound_to 10162
  156.0874  130.6063  150.8863 H   0  0  0  0  0  0  0  0  0  0  0  0  # atno 10718 bound_to 10713
  154.4442  135.5933  153.6149 H   0  0  0  0  0  0  0  0  0  0  0  0  # atno 10763 bound_to 10752
  152.9808  135.6005  154.3685 H   0  0  0  0  0  0  0  0  0  0  0  0  # atno 10764 bound_to 10752
  154.3538  135.2841  155.2336 H   0  0  0  0  0  0  0  0  0  0  0  0  # atno 10765 bound_to 10752
  139.9710  134.9577  156.9389 H   0  0  0  0  0  0  0  0  0  0  0  0  # atno 11005 bound_to 11000
  146.2812  140.4554  142.8775 LP  0  0  0  0  0  0  0  0  0  0  0  0  # atno 17320 bound_to 7965
  144.8463  140.6933  143.6197 LP  0  0  0  0  0  0  0  0  0  0  0  0  # atno 17321 bound_to 7965
  140.7467  143.2894  151.3372 LP  0  0  0  0  0  0  0  0  0  0  0  0  # atno 17342 bound_to 10162
  139.6364  144.0622  152.2519 LP  0  0  0  0  0  0  0  0  0  0  0  0  # atno 17343 bound_to 10162
  157.6013  131.0941  150.8955 LP  0  0  0  0  0  0  0  0  0  0  0  0  # atno 17370 bound_to 10713
  156.9112  130.5281  149.5280 LP  0  0  0  0  0  0  0  0  0  0  0  0  # atno 17371 bound_to 10713
  140.5293  134.0829  155.7312 LP  0  0  0  0  0  0  0  0  0  0  0  0  # atno 17394 bound_to 11000
  141.1389  133.9172  157.2370 LP  0  0  0  0  0  0  0  0  0  0  0  0  # atno 17395 bound_to 11000

$$$$
