#       Name:                AV-unprocessed.smi:2440
#       Creating user name   scv26
#       Creation time:       Fri Mar 27 13:24:59 2020


#       File generated by GOLD software.
#

@<TRIPOS>MOLECULE
AV-unprocessed.smi:2440
    55    57     1
SMALL
NO_CHARGES


@<TRIPOS>ATOM
      1 ****        -4.9489  -4.1028  -0.7423 C.3            1 S1                 0.0000
      2 ****        -5.8261  -2.8751  -0.5703 C.ar           1 S1                 0.0000
      3 ****        -7.2239  -3.0215  -0.4376 C.ar           1 S1                 0.0000
      4 ****        -8.0719  -1.9833  -0.2853 N.ar           1 S1                 0.0000
      5 ****        -7.5473  -0.7410  -0.2643 C.ar           1 S1                 0.0000
      6 ****        -6.1689  -0.4791  -0.3872 C.ar           1 S1                 0.0000
      7 ****        -5.2782  -1.5699  -0.5321 C.ar           1 S1                 0.0000
      8 ****        -3.8731  -1.4090  -0.6910 N.am           1 S1                 0.0000
      9 ****        -3.0939  -0.3950  -0.2771 C.2            1 S1                 0.0000
     10 ****        -3.4737   0.5745   0.3796 O.2            1 S1                 0.0000
     11 ****        -1.8196  -0.5797  -0.6511 N.am           1 S1                 0.0000
     12 ****        -0.7171   0.3313  -0.3585 C.3            1 S1                 0.0000
     13 ****         0.3565   0.2191  -1.4484 C.3            1 S1                 0.0000
     14 ****         1.5781   1.0988  -1.1309 C.3            1 S1                 0.0000
     15 ****         2.1622   0.7713   0.2026 N.4            1 S1                 1.0000
     16 ****         3.4324   1.4857   0.5569 C.3            1 S1                 0.0000
     17 ****         4.3118   1.8809  -0.6596 C.3            1 S1                 0.0000
     18 ****         5.6127   2.5797  -0.2325 C.3            1 S1                 0.0000
     19 ****         6.4238   1.7074   0.7334 C.3            1 S1                 0.0000
     20 ****         5.5774   1.3178   1.9518 C.3            1 S1                 0.0000
     21 ****         4.2751   0.6205   1.5265 C.3            1 S1                 0.0000
     22 ****         1.1328   0.9019   1.2733 C.3            1 S1                 0.0000
     23 ****        -0.0873   0.0067   1.0048 C.3            1 S1                 0.0000
     24 ****        -5.5361  -5.0200  -0.6899 H              1 S1                 0.0000
     25 ****        -4.1915  -4.1432   0.0411 H              1 S1                 0.0000
     26 ****        -4.4466  -4.0782  -1.7097 H              1 S1                 0.0000
     27 ****        -7.6792  -4.0008  -0.4568 H              1 S1                 0.0000
     28 ****        -8.2494   0.0724  -0.1538 H              1 S1                 0.0000
     29 ****        -5.8270   0.5445  -0.3822 H              1 S1                 0.0000
     30 ****        -3.3981  -2.1850  -1.1281 H              1 S1                 0.0000
     31 ****        -1.5973  -1.4092  -1.1821 H              1 S1                 0.0000
     32 ****        -1.0871   1.3587  -0.3471 H              1 S1                 0.0000
     33 ****         0.6770  -0.8193  -1.5483 H              1 S1                 0.0000
     34 ****        -0.0613   0.5069  -2.4142 H              1 S1                 0.0000
     35 ****         2.3027   0.9265  -1.9258 H              1 S1                 0.0000
     36 ****         1.3035   2.1544  -1.1630 H              1 S1                 0.0000
     37 ****         3.1609   2.4142   1.0627 H              1 S1                 0.0000
     38 ****         4.5588   0.9945  -1.2460 H              1 S1                 0.0000
     39 ****         3.7753   2.5620  -1.3208 H              1 S1                 0.0000
     40 ****         6.2134   2.8149  -1.1117 H              1 S1                 0.0000
     41 ****         5.3774   3.5322   0.2442 H              1 S1                 0.0000
     42 ****         6.7644   0.8079   0.2188 H              1 S1                 0.0000
     43 ****         7.3200   2.2392   1.0547 H              1 S1                 0.0000
     44 ****         6.1526   0.6624   2.6066 H              1 S1                 0.0000
     45 ****         5.3428   2.2086   2.5357 H              1 S1                 0.0000
     46 ****         3.7127   0.3723   2.4255 H              1 S1                 0.0000
     47 ****         4.5166  -0.3306   1.0494 H              1 S1                 0.0000
     48 ****         1.5476   0.6365   2.2444 H              1 S1                 0.0000
     49 ****         0.8170   1.9439   1.3469 H              1 S1                 0.0000
     50 ****        -0.8220   0.1421   1.7996 H              1 S1                 0.0000
     51 ****         0.2155  -1.0411   1.0385 H              1 S1                 0.0000
     52 ****         2.4063  -0.2075   0.1528 H              1 S1                 0.0000
     53 ****        -9.0566  -2.1300  -0.1912 LP             1 S1                 0.0000
     54 ****        -4.4341   0.6517   0.6476 LP             1 S1                 0.0000
     55 ****        -2.8219   1.2850   0.6450 LP             1 S1                 0.0000
@<TRIPOS>BOND
    1    1    2 1     
    2    1   24 1     
    3    1   25 1     
    4    1   26 1     
    5    2    7 ar    
    6    2    3 ar    
    7    3    4 ar    
    8    3   27 1     
    9    4    5 ar    
   10    5    6 ar    
   11    5   28 1     
   12    6    7 ar    
   13    6   29 1     
   14    7    8 1     
   15    8    9 am    
   16    8   30 1     
   17    9   10 2     
   18    9   11 am    
   19   11   12 1     
   20   11   31 1     
   21   12   23 1     
   22   12   13 1     
   23   12   32 1     
   24   13   14 1     
   25   13   33 1     
   26   13   34 1     
   27   14   15 1     
   28   14   35 1     
   29   14   36 1     
   30   15   16 1     
   31   15   22 1     
   32   15   52 1     
   33   16   21 1     
   34   16   17 1     
   35   16   37 1     
   36   17   18 1     
   37   17   38 1     
   38   17   39 1     
   39   18   19 1     
   40   18   40 1     
   41   18   41 1     
   42   19   20 1     
   43   19   42 1     
   44   19   43 1     
   45   20   21 1     
   46   20   44 1     
   47   20   45 1     
   48   21   46 1     
   49   21   47 1     
   50   22   23 1     
   51   22   48 1     
   52   22   49 1     
   53   23   50 1     
   54   23   51 1     
   55    4   53 1     
   56   10   54 1     
   57   10   55 1     
@<TRIPOS>SUBSTRUCTURE
      1 S1             1
@<TRIPOS>SET
LONE_PAIRS      STATIC     ATOMS    <user>   **** ""
3 53 54 55
DONOR_HYDROGENS      STATIC     ATOMS    <user>   **** ""
3 30 31 52
ATOM$BLUE        STATIC     ATOMS    COLORGROUP SYSTEM
3 53 54 55
ATOM$RED        STATIC     ATOMS    COLORGROUP SYSTEM
3 30 31 52
