AV-unprocessed.smi:3266|AV-procd|sdf|12503|dock2
  -GOLD-   2272018403D 1   1.00000     0.00000
 Structure written by MMmdl.
 39 40  0  0  0  0  0  0  0  0  2 V2000
  152.9466  139.9480  155.3872 O   0  0  0  0  0  0  0  0  0  0  0  0
  152.1611  139.9336  156.3349 C   0  0  0  0  0  0  0  0  0  0  0  0
  152.3163  140.9112  157.5033 C   0  0  0  0  0  0  0  0  0  0  0  0
  151.1021  141.8380  157.6980 C   0  0  0  0  0  0  0  0  0  0  0  0
  151.2868  142.8060  158.8759 C   0  0  1  0  0  0  0  0  0  0  0  0
  152.3992  143.8321  158.6664 C   0  0  0  0  0  0  0  0  0  0  0  0
  151.9618  144.9429  159.5933 C   0  0  0  0  0  0  0  0  0  0  0  0
  150.4487  144.9284  159.3978 C   0  0  0  0  0  0  0  0  0  0  0  0
  150.1073  143.5796  159.0865 O   0  0  0  0  0  0  0  0  0  0  0  0
  151.1179  139.0936  156.4098 N   0  0  0  0  0  0  0  0  0  0  0  0
  150.7718  138.0869  155.4103 C   0  0  0  0  0  0  0  0  0  0  0  0
  150.7211  138.6367  153.9690 C   0  0  0  0  0  0  0  0  0  0  0  0
  149.5133  139.5134  153.6840 C   0  0  0  0  0  0  0  0  0  0  0  0
  149.3763  140.8040  154.2397 C   0  0  0  0  0  0  0  0  0  0  0  0
  148.2351  141.5717  153.9262 C   0  0  0  0  0  0  0  0  0  0  0  0
  147.2568  141.0346  153.0637 C   0  0  0  0  0  0  0  0  0  0  0  0
  147.4448  139.7413  152.5353 C   0  0  0  0  0  0  0  0  0  0  0  0
  148.5509  139.0371  152.8604 N   0  3  0  0  0  0  0  0  0  0  0  0
  152.4904  140.3312  158.4103 H   0  0  0  0  0  0  0  0  0  0  0  0
  153.2107  141.5141  157.3398 H   0  0  0  0  0  0  0  0  0  0  0  0
  150.9385  142.4158  156.7870 H   0  0  0  0  0  0  0  0  0  0  0  0
  150.1995  141.2459  157.8561 H   0  0  0  0  0  0  0  0  0  0  0  0
  151.4897  142.2490  159.7920 H   0  0  0  0  0  0  0  0  0  0  0  0
  153.3894  143.4410  158.9017 H   0  0  0  0  0  0  0  0  0  0  0  0
  152.4077  144.1895  157.6355 H   0  0  0  0  0  0  0  0  0  0  0  0
  152.2109  144.6898  160.6249 H   0  0  0  0  0  0  0  0  0  0  0  0
  152.4144  145.9061  159.3568 H   0  0  0  0  0  0  0  0  0  0  0  0
  149.9119  145.2837  160.2774 H   0  0  0  0  0  0  0  0  0  0  0  0
  150.1687  145.5585  158.5529 H   0  0  0  0  0  0  0  0  0  0  0  0
  150.5249  139.1486  157.2256 H   0  0  0  0  0  0  0  0  0  0  0  0
  151.4664  137.2477  155.4708 H   0  0  0  0  0  0  0  0  0  0  0  0
  149.7912  137.6925  155.6782 H   0  0  0  0  0  0  0  0  0  0  0  0
  151.6250  139.2109  153.7611 H   0  0  0  0  0  0  0  0  0  0  0  0
  150.7294  137.8058  153.2629 H   0  0  0  0  0  0  0  0  0  0  0  0
  150.1363  141.2026  154.8959 H   0  0  0  0  0  0  0  0  0  0  0  0
  148.1123  142.5610  154.3416 H   0  0  0  0  0  0  0  0  0  0  0  0
  146.3756  141.6064  152.8114 H   0  0  0  0  0  0  0  0  0  0  0  0
  146.7503  139.2521  151.8681 H   0  0  0  0  0  0  0  0  0  0  0  0
  148.6679  138.1031  152.4657 H   0  0  0  0  0  0  0  0  0  0  0  0
  1  2  2  0  0  0  0
  2  3  1  0  0  0  0
  2 10  1  0  0  0  0
  3  4  1  0  0  0  0
  3 19  1  0  0  0  0
  3 20  1  0  0  0  0
  4  5  1  0  0  0  0
  4 21  1  0  0  0  0
  4 22  1  0  0  0  0
  5  9  1  0  0  0  0
  5  6  1  0  0  0  0
  5 23  1  0  0  0  0
  6  7  1  0  0  0  0
  6 24  1  0  0  0  0
  6 25  1  0  0  0  0
  7  8  1  0  0  0  0
  7 26  1  0  0  0  0
  7 27  1  0  0  0  0
  8  9  1  0  0  0  0
  8 28  1  0  0  0  0
  8 29  1  0  0  0  0
 10 11  1  0  0  0  0
 10 30  1  0  0  0  0
 11 12  1  0  0  0  0
 11 31  1  0  0  0  0
 11 32  1  0  0  0  0
 12 13  1  0  0  0  0
 12 33  1  0  0  0  0
 12 34  1  0  0  0  0
 13 18  1  0  0  0  0
 13 14  2  0  0  0  0
 14 15  1  0  0  0  0
 14 35  1  0  0  0  0
 15 16  2  0  0  0  0
 15 36  1  0  0  0  0
 16 17  1  0  0  0  0
 16 37  1  0  0  0  0
 17 18  2  0  0  0  0
 17 38  1  0  0  0  0
 18 39  1  0  0  0  0
M  CHG  1  18   1
M  END
> <s_m_source_file>
AV-unprocessed.smi

> <i_m_source_file_index>
3266

> <i_lp_mmshare_version>
43012

> <i_f3d_flags>
0

> <s_epik_input>
TzFbQ0gyXVtDSDJdW0NIMl1bQ0BIXTFbQ0gyXVtDSDJdQyg9TylbTkhdW0NIMl1bQ0gyXWMyW2NIXVtjSF1bY0hdW2NIXW4y

> <s_epik_cmdline>
J2VwaWtfcHl0aG9uJywgJy1waCcsICc3LjAnLCAnLXRuJywgJzgnLCAnLW1hJywgJzIwMCcsICctbWV0YWxfYmluZGluZycsICctaW1hZScsICc8aW5maWxlLm1hZT4nLCAnLW9tYWUnLCAnPG91dGZpbGUubWFlPic=

> <r_epik_Ionization_Penalty>
1.8495

> <r_epik_Ionization_Penalty_Charging>
1.8495

> <r_epik_Ionization_Penalty_Neutral>
1.53068e-08

> <r_epik_State_Penalty>
1.96688

> <r_epik_Charging_Adjusted_Penalty>
3.81638

> <i_epik_Tot_Q>
1

> <i_epik_Tot_abs_Q>
1

> <r_epik_Metal_State_Penalty>
1.99263

> <b_epik_Metal_Only>
0

> <s_lp_Force_Field>
OPLS_2005

> <r_lp_Energy>
22.1722

> <b_lp_Chiralities_Consistent>
1

> <s_lp_Variant>
AV-unprocessed.smi:3266-4

> <Gold.Version>
5.8.1

> <Gold.Id.Protein>
6NUR|6NUR_protein|mol2

> <Gold.PLP.Fitness>
47.7676

> <Gold.PLP.PLP>
-39.0975

> <Gold.PLP.part.hbond>
-3.0000

> <Gold.PLP.part.metal>
0.0000

> <Gold.PLP.part.buried>
-2.6932

> <Gold.PLP.part.nonpolar>
-33.0377

> <Gold.PLP.part.repulsive>
0.2238

> <Gold.PLP.ligand.clash>
0.0000

> <Gold.PLP.ligand.torsion>
0.2042

> <Gold.PLP.Chemscore.Hbond>
3.0000

> <Gold.PLP.Chemscore.CHOScore>
0.0000

> <Gold.PLP.Chemscore.Metal>
0.0000

> <Gold.Chemscore.Hbonds>
donor molecule, donor type, donor heavy atom, donor atom, acceptor molecule, acceptor atom, score
      L1  H    18    39       P1  7948  2.00
      P1  H  7997  8010       L1     1  1.00

> <Gold.PLP.Chemscore.Internal.Correction>
0.0786

> <Gold.Rescore>
     Score         DG    S(hbond)    S(metal)    S(lipo)     H(rot)  DE(clash)    DE(int)     intcor
     18.24     -19.53       1.94        0.00     104.96       1.84       0.10       1.19       ----

> <Gold.Chemscore.Fitness>
18.2423

> <Gold.Chemscore.DG>
-19.5339

> <Gold.Chemscore.ZeroCoef>
-5.4800

> <Gold.Chemscore.Hbond>
1.9400

> <Gold.Chemscore.Metal>
0.0000

> <Gold.Chemscore.Lipo>
104.9572

> <Gold.Chemscore.Internal_Hbond>
0.0000

> <Gold.Chemscore.DEClash>
0.1012

> <Gold.Chemscore.DEInternal>
1.1904

> <Gold.Chemscore.Rot>
1.8382

> <Gold.Chemscore.Internal.Correction>
   9.000000E+99

> <Gold.Chemscore.Hbonds>
donor molecule, donor type, donor heavy atom, donor atom, acceptor molecule, acceptor atom, score
      L1  H    18    39       P1  7948  0.99
      P1  H  7989  7998       L1     1  0.01
      P1  H  7997  8010       L1     1  0.49

> <Gold.Chemscore.Hbond.Weighted>
-6.4796

> <Gold.Chemscore.Metal.Weighted>
-0.0000

> <Gold.Chemscore.Lipo.Weighted>
-12.2800

> <Gold.Chemscore.Internal_Hbond.Weighted>
0.0000

> <Gold.Chemscore.DEClash.Weighted>
0.1012

> <Gold.Chemscore.DEInternal.Weighted>
1.1904

> <Gold.Chemscore.Rot.Weighted>
4.7058

> <Gold.Chemscore.Internal.Correction.Weighted>
   9.000000E+99

> <Gold.Protein.RotatedTorsions>
[ 6907 6896 6895 6894 ] final -121.42 input  -60.11 | X-H torsion
[ 7974 7965 7964 7962 ] final  -48.14 input  175.53 | X-H torsion
[ 8008 7997 7996 7995 ] final   94.62 input   59.86 | X-H torsion
[ 10167 10162 10161 10158 ] final   -9.32 input  -65.29 | X-H torsion
[ 10718 10713 10712 10709 ] final   47.29 input   66.30 | X-H torsion
[ 10763 10752 10751 10750 ] final   16.74 input  -60.55 | X-H torsion
[ 11005 11000 10999 10996 ] final   19.60 input  -57.11 | X-H torsion

> <Gold.Protein.ActiveResidues>
 VAL166  LYS551  ARG553  GLY616  TRP617  ASP618  TYR619  PRO620  LYS621  CYS622 
 ASP623  PHE694  ASN695  SER759  ASP760  ASP761  ALA762  ILE779  LEU786  VAL792 
 PHE793  MET794  SER795  GLU796  ALA797  LYS798  CYS799  TRP800  GLU811  SER814 

> <Gold.Protein.RotatedAtoms>
  150.8482  133.7829  159.3035 H   0  0  0  0  0  0  0  0  0  0  0  0  # atno 6907 bound_to 6896
  151.5509  135.1066  159.9959 H   0  0  0  0  0  0  0  0  0  0  0  0  # atno 6908 bound_to 6896
  152.4531  133.7625  159.6810 H   0  0  0  0  0  0  0  0  0  0  0  0  # atno 6909 bound_to 6896
  145.9542  140.7542  142.9489 H   0  0  0  0  0  0  0  0  0  0  0  0  # atno 7974 bound_to 7965
  156.0599  140.3297  155.7449 H   0  0  0  0  0  0  0  0  0  0  0  0  # atno 8008 bound_to 7997
  155.5471  140.0607  157.2875 H   0  0  0  0  0  0  0  0  0  0  0  0  # atno 8009 bound_to 7997
  154.4476  140.1900  156.0637 H   0  0  0  0  0  0  0  0  0  0  0  0  # atno 8010 bound_to 7997
  140.7084  143.5870  150.8932 H   0  0  0  0  0  0  0  0  0  0  0  0  # atno 10167 bound_to 10162
  157.4569  130.8172  149.7846 H   0  0  0  0  0  0  0  0  0  0  0  0  # atno 10718 bound_to 10713
  153.1403  135.6758  153.9038 H   0  0  0  0  0  0  0  0  0  0  0  0  # atno 10763 bound_to 10752
  153.8497  135.3095  155.3433 H   0  0  0  0  0  0  0  0  0  0  0  0  # atno 10764 bound_to 10752
  154.7782  135.4903  153.9871 H   0  0  0  0  0  0  0  0  0  0  0  0  # atno 10765 bound_to 10752
  140.4119  134.1609  155.7668 H   0  0  0  0  0  0  0  0  0  0  0  0  # atno 11005 bound_to 11000
  144.6802  140.2485  143.7334 LP  0  0  0  0  0  0  0  0  0  0  0  0  # atno 17320 bound_to 7965
  145.8129  139.2011  143.1982 LP  0  0  0  0  0  0  0  0  0  0  0  0  # atno 17321 bound_to 7965
  139.9596  143.6179  152.3006 LP  0  0  0  0  0  0  0  0  0  0  0  0  # atno 17342 bound_to 10162
  139.6727  144.7660  151.1754 LP  0  0  0  0  0  0  0  0  0  0  0  0  # atno 17343 bound_to 10162
  156.0011  130.3880  150.2602 LP  0  0  0  0  0  0  0  0  0  0  0  0  # atno 17370 bound_to 10713
  157.0777  131.0134  151.3167 LP  0  0  0  0  0  0  0  0  0  0  0  0  # atno 17371 bound_to 10713
  141.1818  133.8398  157.1232 LP  0  0  0  0  0  0  0  0  0  0  0  0  # atno 17394 bound_to 11000
  140.0261  134.9923  157.0689 LP  0  0  0  0  0  0  0  0  0  0  0  0  # atno 17395 bound_to 11000

$$$$
