AV-unprocessed.smi:153|AV-procd|sdf|1253|dock5
  -GOLD-   2262018483D 1   1.00000     0.00000
 Structure written by MMmdl.
 60 63  0  0  0  0  0  0  0  0  2 V2000
  152.8816  141.1031  158.7659 C   0  0  0  0  0  0  0  0  0  0  0  0
  151.7360  142.1212  158.8845 C   0  0  1  0  0  0  0  0  0  0  0  0
  152.3335  143.2790  159.4725 O   0  0  0  0  0  0  0  0  0  0  0  0
  151.9709  144.4495  158.7577 C   0  0  0  0  0  0  0  0  0  0  0  0
  151.7595  143.9516  157.3357 C   0  0  0  0  0  0  0  0  0  0  0  0
  151.0923  142.6014  157.5536 C   0  0  2  0  0  0  0  0  0  0  0  0
  149.7180  142.8488  157.7981 O   0  0  0  0  0  0  0  0  0  0  0  0
  151.1982  141.6805  156.3057 C   0  0  0  0  0  0  0  0  0  0  0  0
  150.9006  140.2679  156.5286 N   0  0  0  0  0  0  0  0  0  0  0  0
  150.2694  139.6956  157.6113 C   0  0  0  0  0  0  0  0  0  0  0  0
  150.1035  138.4040  157.5415 N   0  0  0  0  0  0  0  0  0  0  0  0
  150.6393  138.0492  156.3091 C   0  0  0  0  0  0  0  0  0  0  0  0
  150.7749  136.8229  155.5891 C   0  0  0  0  0  0  0  0  0  0  0  0
  150.3689  135.6046  156.0410 N   0  0  0  0  0  0  0  0  0  0  0  0
  149.3386  135.5228  157.0686 C   0  0  0  0  0  0  0  0  0  0  0  0
  150.6844  134.3993  155.2709 C   0  0  0  0  0  0  0  0  0  0  0  0
  149.4451  133.7858  154.5879 C   0  0  2  0  0  0  0  0  0  0  0  0
  148.7872  132.9917  155.5547 O   0  0  0  0  0  0  0  0  0  0  0  0
  149.7982  132.8885  153.3803 C   0  0  0  0  0  0  0  0  0  0  0  0
  148.6027  132.4609  152.6112 N   0  3  0  0  0  0  0  0  0  0  0  0
  147.8994  131.3000  153.2127 C   0  0  0  0  0  0  0  0  0  0  0  0
  146.6935  130.8953  152.3481 C   0  0  0  0  0  0  0  0  0  0  0  0
  145.8192  132.0066  152.1974 O   0  0  0  0  0  0  0  0  0  0  0  0
  146.4540  133.0973  151.5421 C   0  0  0  0  0  0  0  0  0  0  0  0
  147.6529  133.5748  152.3789 C   0  0  0  0  0  0  0  0  0  0  0  0
  151.3323  136.8929  154.3517 N   0  0  0  0  0  0  0  0  0  0  0  0
  151.7414  138.0615  153.8522 C   0  0  0  0  0  0  0  0  0  0  0  0
  151.6840  139.2704  154.4101 N   0  0  0  0  0  0  0  0  0  0  0  0
  151.1209  139.2180  155.6509 C   0  0  0  0  0  0  0  0  0  0  0  0
  152.5196  140.1187  158.4790 H   0  0  0  0  0  0  0  0  0  0  0  0
  153.3862  140.9809  159.7247 H   0  0  0  0  0  0  0  0  0  0  0  0
  153.6292  141.4223  158.0394 H   0  0  0  0  0  0  0  0  0  0  0  0
  150.9809  141.7233  159.5644 H   0  0  0  0  0  0  0  0  0  0  0  0
  151.0464  144.8546  159.1715 H   0  0  0  0  0  0  0  0  0  0  0  0
  152.7421  145.2166  158.8268 H   0  0  0  0  0  0  0  0  0  0  0  0
  151.1731  144.6390  156.7246 H   0  0  0  0  0  0  0  0  0  0  0  0
  152.7295  143.8210  156.8539 H   0  0  0  0  0  0  0  0  0  0  0  0
  149.3876  143.4087  157.1124 H   0  0  0  0  0  0  0  0  0  0  0  0
  150.5298  142.0392  155.5219 H   0  0  0  0  0  0  0  0  0  0  0  0
  152.2026  141.7547  155.8885 H   0  0  0  0  0  0  0  0  0  0  0  0
  149.9237  140.2588  158.4648 H   0  0  0  0  0  0  0  0  0  0  0  0
  149.5166  136.2528  157.8590 H   0  0  0  0  0  0  0  0  0  0  0  0
  149.3332  134.5344  157.5290 H   0  0  0  0  0  0  0  0  0  0  0  0
  148.3511  135.6992  156.6417 H   0  0  0  0  0  0  0  0  0  0  0  0
  151.4738  134.5725  154.5391 H   0  0  0  0  0  0  0  0  0  0  0  0
  151.1006  133.6741  155.9716 H   0  0  0  0  0  0  0  0  0  0  0  0
  148.7665  134.5882  154.3009 H   0  0  0  0  0  0  0  0  0  0  0  0
  148.9926  133.3217  156.4156 H   0  0  0  0  0  0  0  0  0  0  0  0
  150.4732  133.3972  152.6931 H   0  0  0  0  0  0  0  0  0  0  0  0
  150.3443  132.0155  153.7422 H   0  0  0  0  0  0  0  0  0  0  0  0
  148.5739  130.4501  153.3098 H   0  0  0  0  0  0  0  0  0  0  0  0
  147.5635  131.5551  154.2191 H   0  0  0  0  0  0  0  0  0  0  0  0
  147.0181  130.5356  151.3704 H   0  0  0  0  0  0  0  0  0  0  0  0
  146.1484  130.0792  152.8225 H   0  0  0  0  0  0  0  0  0  0  0  0
  146.7696  132.8020  150.5401 H   0  0  0  0  0  0  0  0  0  0  0  0
  145.7330  133.9062  151.4232 H   0  0  0  0  0  0  0  0  0  0  0  0
  147.3074  133.9673  153.3367 H   0  0  0  0  0  0  0  0  0  0  0  0
  148.1584  134.3906  151.8607 H   0  0  0  0  0  0  0  0  0  0  0  0
  152.1783  138.0218  152.8652 H   0  0  0  0  0  0  0  0  0  0  0  0
  148.9297  132.1747  151.6997 H   0  0  0  0  0  0  0  0  0  0  0  0
  1  2  1  0  0  0  0
  1 30  1  0  0  0  0
  1 31  1  0  0  0  0
  1 32  1  0  0  0  0
  2  6  1  0  0  0  0
  2  3  1  0  0  0  0
  2 33  1  0  0  0  0
  3  4  1  0  0  0  0
  4  5  1  0  0  0  0
  4 34  1  0  0  0  0
  4 35  1  0  0  0  0
  5  6  1  0  0  0  0
  5 36  1  0  0  0  0
  5 37  1  0  0  0  0
  6  7  1  0  0  0  0
  6  8  1  0  0  0  0
  7 38  1  0  0  0  0
  8  9  1  0  0  0  0
  8 39  1  0  0  0  0
  8 40  1  0  0  0  0
  9 29  1  0  0  0  0
  9 10  1  0  0  0  0
 10 11  2  0  0  0  0
 10 41  1  0  0  0  0
 11 12  1  0  0  0  0
 12 29  2  0  0  0  0
 12 13  1  0  0  0  0
 13 14  1  0  0  0  0
 13 26  2  0  0  0  0
 14 15  1  0  0  0  0
 14 16  1  0  0  0  0
 15 42  1  0  0  0  0
 15 43  1  0  0  0  0
 15 44  1  0  0  0  0
 16 17  1  0  0  0  0
 16 45  1  0  0  0  0
 16 46  1  0  0  0  0
 17 18  1  0  0  0  0
 17 19  1  0  0  0  0
 17 47  1  0  0  0  0
 18 48  1  0  0  0  0
 19 20  1  0  0  0  0
 19 49  1  0  0  0  0
 19 50  1  0  0  0  0
 20 25  1  0  0  0  0
 20 21  1  0  0  0  0
 20 60  1  0  0  0  0
 21 22  1  0  0  0  0
 21 51  1  0  0  0  0
 21 52  1  0  0  0  0
 22 23  1  0  0  0  0
 22 53  1  0  0  0  0
 22 54  1  0  0  0  0
 23 24  1  0  0  0  0
 24 25  1  0  0  0  0
 24 55  1  0  0  0  0
 24 56  1  0  0  0  0
 25 57  1  0  0  0  0
 25 58  1  0  0  0  0
 26 27  1  0  0  0  0
 27 28  2  0  0  0  0
 27 59  1  0  0  0  0
 28 29  1  0  0  0  0
M  CHG  1  20   1
M  END
> <s_m_source_file>
AV-unprocessed.smi

> <i_m_source_file_index>
153

> <i_lp_mmshare_version>
43012

> <i_f3d_flags>
0

> <s_epik_input>
W0NIMl0xW0NIMl1PW0NAQEhdKFtDSDNdKVtDQEBdMShbT0hdKVtDSDJdbihbY0hdbjIpYyhjMjMpbltjSF1uYzNOKFtDSDNdKVtDSDJdW0NASF0oW09IXSlbQ0gyXU40W0NIMl1bQ0gyXU9bQ0gyXVtDSDJdNA==

> <s_epik_cmdline>
J2VwaWtfcHl0aG9uJywgJy1waCcsICc3LjAnLCAnLXRuJywgJzgnLCAnLW1hJywgJzIwMCcsICctbWV0YWxfYmluZGluZycsICctaW1hZScsICc8aW5maWxlLm1hZT4nLCAnLW9tYWUnLCAnPG91dGZpbGUubWFlPic=

> <r_lp_tautomer_probability>
1

> <r_epik_Ionization_Penalty>
0.403509

> <r_epik_Ionization_Penalty_Charging>
0.40072

> <r_epik_Ionization_Penalty_Neutral>
0.00278876

> <r_epik_State_Penalty>
0.400058

> <r_epik_Charging_Adjusted_Penalty>
0.800778

> <i_epik_Tot_Q>
1

> <i_epik_Tot_abs_Q>
1

> <r_epik_Metal_State_Penalty>
0.400321

> <b_epik_Metal_Only>
0

> <s_lp_Force_Field>
OPLS_2005

> <r_lp_Energy>
47.2205

> <b_lp_Chiralities_Consistent>
1

> <s_lp_Variant>
AV-unprocessed.smi:153-4

> <Gold.Version>
5.8.1

> <Gold.Id.Protein>
6NUR|6NUR_protein|mol2

> <Gold.PLP.Fitness>
56.3819

> <Gold.PLP.PLP>
-44.1192

> <Gold.PLP.part.hbond>
-3.8350

> <Gold.PLP.part.metal>
0.0000

> <Gold.PLP.part.buried>
-7.3391

> <Gold.PLP.part.nonpolar>
-33.2505

> <Gold.PLP.part.repulsive>
0.4458

> <Gold.PLP.ligand.clash>
0.0000

> <Gold.PLP.ligand.torsion>
0.9628

> <Gold.PLP.Chemscore.Hbond>
3.8688

> <Gold.PLP.Chemscore.CHOScore>
0.7062

> <Gold.PLP.Chemscore.Metal>
0.0000

> <Gold.Chemscore.Hbonds>
donor molecule, donor type, donor heavy atom, donor atom, acceptor molecule, acceptor atom, score
      L1  H     7    38       P1  8028  1.00
      L1  H    20    60       P1 10747  1.00
      P1  H  7989  7998       L1    28  1.00
      P1  H 10752 10763       L1    26  0.96
      L1  C    27    59       P1  7949  0.45

> <Gold.PLP.Chemscore.Internal.Correction>
0.4634

> <Gold.Rescore>
     Score         DG    S(hbond)    S(metal)    S(lipo)     H(rot)  DE(clash)    DE(int)     intcor
     13.59     -17.71       2.75        0.00     105.25       3.62       0.17       3.95       ----

> <Gold.Chemscore.Fitness>
13.5871

> <Gold.Chemscore.DG>
-17.7069

> <Gold.Chemscore.ZeroCoef>
-5.4800

> <Gold.Chemscore.Hbond>
2.7469

> <Gold.Chemscore.Metal>
0.0000

> <Gold.Chemscore.Lipo>
105.2543

> <Gold.Chemscore.Internal_Hbond>
0.0000

> <Gold.Chemscore.DEClash>
0.1695

> <Gold.Chemscore.DEInternal>
3.9504

> <Gold.Chemscore.Rot>
3.6182

> <Gold.Chemscore.Internal.Correction>
   9.000000E+99

> <Gold.Chemscore.Hbonds>
donor molecule, donor type, donor heavy atom, donor atom, acceptor molecule, acceptor atom, score
      L1  H     7    38       P1  8028  0.84
      L1  H    20    60       P1 10747  0.90
      P1  H  7989  7998       L1    28  0.93
      P1  H 10752 10763       L1    26  0.25

> <Gold.Chemscore.Hbond.Weighted>
-9.1747

> <Gold.Chemscore.Metal.Weighted>
-0.0000

> <Gold.Chemscore.Lipo.Weighted>
-12.3148

> <Gold.Chemscore.Internal_Hbond.Weighted>
0.0000

> <Gold.Chemscore.DEClash.Weighted>
0.1695

> <Gold.Chemscore.DEInternal.Weighted>
3.9504

> <Gold.Chemscore.Rot.Weighted>
9.2625

> <Gold.Chemscore.Internal.Correction.Weighted>
   9.000000E+99

> <Gold.Protein.RotatedTorsions>
[ 6907 6896 6895 6894 ] final   86.88 input  -60.11 | X-H torsion
[ 7974 7965 7964 7962 ] final   56.58 input  175.53 | X-H torsion
[ 8008 7997 7996 7995 ] final  -15.94 input   59.86 | X-H torsion
[ 10167 10162 10161 10158 ] final    2.40 input  -65.29 | X-H torsion
[ 10718 10713 10712 10709 ] final  -50.94 input   66.30 | X-H torsion
[ 10763 10752 10751 10750 ] final   54.78 input  -60.55 | X-H torsion
[ 11005 11000 10999 10996 ] final  -93.00 input  -57.11 | X-H torsion

> <Gold.Protein.ActiveResidues>
 VAL166  LYS551  ARG553  GLY616  TRP617  ASP618  TYR619  PRO620  LYS621  CYS622 
 ASP623  PHE694  ASN695  SER759  ASP760  ASP761  ALA762  ILE779  LEU786  VAL792 
 PHE793  MET794  SER795  GLU796  ALA797  LYS798  CYS799  TRP800  GLU811  SER814 

> <Gold.Protein.RotatedAtoms>
  152.5402  134.2363  159.8844 H   0  0  0  0  0  0  0  0  0  0  0  0  # atno 6907 bound_to 6896
  151.2333  133.4432  159.2612 H   0  0  0  0  0  0  0  0  0  0  0  0  # atno 6908 bound_to 6896
  151.0695  134.9803  159.8357 H   0  0  0  0  0  0  0  0  0  0  0  0  # atno 6909 bound_to 6896
  145.9383  139.3866  143.0379 H   0  0  0  0  0  0  0  0  0  0  0  0  # atno 7974 bound_to 7965
  154.5091  140.2183  155.9191 H   0  0  0  0  0  0  0  0  0  0  0  0  # atno 8008 bound_to 7997
  156.1531  140.3157  155.8647 H   0  0  0  0  0  0  0  0  0  0  0  0  # atno 8009 bound_to 7997
  155.3900  140.0477  157.3031 H   0  0  0  0  0  0  0  0  0  0  0  0  # atno 8010 bound_to 7997
  140.6637  143.7237  150.7786 H   0  0  0  0  0  0  0  0  0  0  0  0  # atno 10167 bound_to 10162
  156.1754  130.4150  149.9584 H   0  0  0  0  0  0  0  0  0  0  0  0  # atno 10718 bound_to 10713
  152.9808  135.5733  154.4961 H   0  0  0  0  0  0  0  0  0  0  0  0  # atno 10763 bound_to 10752
  154.4487  135.2778  155.1798 H   0  0  0  0  0  0  0  0  0  0  0  0  # atno 10764 bound_to 10752
  154.3435  135.6224  153.5661 H   0  0  0  0  0  0  0  0  0  0  0  0  # atno 10765 bound_to 10752
  141.1508  133.7858  157.0099 H   0  0  0  0  0  0  0  0  0  0  0  0  # atno 11005 bound_to 11000
  145.8334  140.9619  143.0837 LP  0  0  0  0  0  0  0  0  0  0  0  0  # atno 17320 bound_to 7965
  144.6775  140.0192  143.7484 LP  0  0  0  0  0  0  0  0  0  0  0  0  # atno 17321 bound_to 7965
  140.0910  143.4877  152.2478 LP  0  0  0  0  0  0  0  0  0  0  0  0  # atno 17342 bound_to 10162
  139.5878  144.7538  151.3476 LP  0  0  0  0  0  0  0  0  0  0  0  0  # atno 17343 bound_to 10162
  156.7371  130.9065  151.3630 LP  0  0  0  0  0  0  0  0  0  0  0  0  # atno 17370 bound_to 10713
  157.6832  130.9160  150.0320 LP  0  0  0  0  0  0  0  0  0  0  0  0  # atno 17371 bound_to 10713
  140.0885  134.9607  157.1738 LP  0  0  0  0  0  0  0  0  0  0  0  0  # atno 17394 bound_to 11000
  140.3479  134.2631  155.7202 LP  0  0  0  0  0  0  0  0  0  0  0  0  # atno 17395 bound_to 11000

$$$$
