AV-unprocessed.smi:2944|AV-procd|sdf|11274|dock2
  -GOLD-   2272016163D 1   1.00000     0.00000
 Structure written by MMmdl.
 45 47  0  0  0  0  0  0  0  0  2 V2000
  155.5068  139.3765  159.5205 C   0  0  0  0  0  0  0  0  0  0  0  0
  154.2710  139.5698  158.8555 O   0  0  0  0  0  0  0  0  0  0  0  0
  153.4462  140.5240  159.5048 C   0  0  0  0  0  0  0  0  0  0  0  0
  152.0290  140.4842  158.9151 C   0  0  0  0  0  0  0  0  0  0  0  0
  151.5772  141.7994  158.4353 N   0  0  0  0  0  0  0  0  0  0  0  0
  150.9785  142.1525  157.2642 C   0  0  0  0  0  0  0  0  0  0  0  0
  150.5176  141.0713  155.9494 S   0  0  0  0  0  0  0  0  0  0  0  0
  148.7001  140.9807  155.9982 C   0  0  2  0  0  0  0  0  0  0  0  0
  148.2500  139.5168  156.1349 C   0  0  0  0  0  0  0  0  0  0  0  0
  148.0647  141.6466  154.7578 C   0  0  0  0  0  0  0  0  0  0  0  0
  148.6995  141.5892  153.7015 O   0  0  0  0  0  0  0  0  0  0  0  0
  146.8759  142.3027  154.8828 N   0  0  0  0  0  0  0  0  0  0  0  0
  146.2380  143.0675  153.8100 C   0  0  0  0  0  0  0  0  0  0  0  0
  144.9331  143.5689  154.4132 C   0  0  0  0  0  0  0  0  0  0  0  0
  145.0061  143.0451  155.7528 N   0  0  0  0  0  0  0  0  0  0  0  0
  146.1090  142.3347  156.0000 C   0  0  0  0  0  0  0  0  0  0  0  0
  146.3381  141.7990  157.0849 O   0  0  0  0  0  0  0  0  0  0  0  0
  150.7648  143.4964  157.2948 N   0  3  0  0  0  0  0  0  0  0  0  0
  151.2062  144.0098  158.5141 C   0  0  0  0  0  0  0  0  0  0  0  0
  151.1829  145.3072  159.0158 C   0  0  0  0  0  0  0  0  0  0  0  0
  151.7120  145.4942  160.3096 C   0  0  0  0  0  0  0  0  0  0  0  0
  152.2363  144.4159  161.0515 C   0  0  0  0  0  0  0  0  0  0  0  0
  152.2553  143.1048  160.5320 C   0  0  0  0  0  0  0  0  0  0  0  0
  151.7305  142.9269  159.2520 C   0  0  0  0  0  0  0  0  0  0  0  0
  156.1064  138.6495  158.9730 H   0  0  0  0  0  0  0  0  0  0  0  0
  155.3546  138.9966  160.5314 H   0  0  0  0  0  0  0  0  0  0  0  0
  156.0749  140.3057  159.5775 H   0  0  0  0  0  0  0  0  0  0  0  0
  153.4050  140.3153  160.5747 H   0  0  0  0  0  0  0  0  0  0  0  0
  153.8683  141.5228  159.3863 H   0  0  0  0  0  0  0  0  0  0  0  0
  151.9673  139.7653  158.0982 H   0  0  0  0  0  0  0  0  0  0  0  0
  151.3207  140.1461  159.6719 H   0  0  0  0  0  0  0  0  0  0  0  0
  148.3902  141.4780  156.9140 H   0  0  0  0  0  0  0  0  0  0  0  0
  147.1624  139.4359  156.1518 H   0  0  0  0  0  0  0  0  0  0  0  0
  148.6234  139.0817  157.0621 H   0  0  0  0  0  0  0  0  0  0  0  0
  148.6183  138.9014  155.3129 H   0  0  0  0  0  0  0  0  0  0  0  0
  146.8667  143.9034  153.4991 H   0  0  0  0  0  0  0  0  0  0  0  0
  146.0365  142.4393  152.9443 H   0  0  0  0  0  0  0  0  0  0  0  0
  144.8761  144.6579  154.4253 H   0  0  0  0  0  0  0  0  0  0  0  0
  144.0614  143.1708  153.8921 H   0  0  0  0  0  0  0  0  0  0  0  0
  144.2819  143.2110  156.4369 H   0  0  0  0  0  0  0  0  0  0  0  0
  150.7796  146.1343  158.4499 H   0  0  0  0  0  0  0  0  0  0  0  0
  151.7145  146.4841  160.7421 H   0  0  0  0  0  0  0  0  0  0  0  0
  152.6315  144.5976  162.0407 H   0  0  0  0  0  0  0  0  0  0  0  0
  152.6531  142.2859  161.1129 H   0  0  0  0  0  0  0  0  0  0  0  0
  150.3316  144.0175  156.5429 H   0  0  0  0  0  0  0  0  0  0  0  0
  1  2  1  0  0  0  0
  1 25  1  0  0  0  0
  1 26  1  0  0  0  0
  1 27  1  0  0  0  0
  2  3  1  0  0  0  0
  3  4  1  0  0  0  0
  3 28  1  0  0  0  0
  3 29  1  0  0  0  0
  4  5  1  0  0  0  0
  4 30  1  0  0  0  0
  4 31  1  0  0  0  0
  5 24  1  0  0  0  0
  5  6  1  0  0  0  0
  6  7  1  0  0  0  0
  6 18  2  0  0  0  0
  7  8  1  0  0  0  0
  8  9  1  0  0  0  0
  8 10  1  0  0  0  0
  8 32  1  0  0  0  0
  9 33  1  0  0  0  0
  9 34  1  0  0  0  0
  9 35  1  0  0  0  0
 10 11  2  0  0  0  0
 10 12  1  0  0  0  0
 12 16  1  0  0  0  0
 12 13  1  0  0  0  0
 13 14  1  0  0  0  0
 13 36  1  0  0  0  0
 13 37  1  0  0  0  0
 14 15  1  0  0  0  0
 14 38  1  0  0  0  0
 14 39  1  0  0  0  0
 15 16  1  0  0  0  0
 15 40  1  0  0  0  0
 16 17  2  0  0  0  0
 18 19  1  0  0  0  0
 18 45  1  0  0  0  0
 19 24  2  0  0  0  0
 19 20  1  0  0  0  0
 20 21  2  0  0  0  0
 20 41  1  0  0  0  0
 21 22  1  0  0  0  0
 21 42  1  0  0  0  0
 22 23  2  0  0  0  0
 22 43  1  0  0  0  0
 23 24  1  0  0  0  0
 23 44  1  0  0  0  0
M  CHG  1  18   1
M  END
> <s_m_source_file>
AV-unprocessed.smi

> <i_m_source_file_index>
2944

> <i_lp_mmshare_version>
43012

> <i_f3d_flags>
0

> <s_epik_input>
W2NIXTFbY0hdW2NIXVtjSF1jKGMxMiluKFtDSDJdW0NIMl1PW0NIM10pYyhuMilTW0NASF0oW0NIM10pQyg9TylOM1tDSDJdW0NIMl1bTkhdQzM9Tw==

> <s_epik_cmdline>
J2VwaWtfcHl0aG9uJywgJy1waCcsICc3LjAnLCAnLXRuJywgJzgnLCAnLW1hJywgJzIwMCcsICctbWV0YWxfYmluZGluZycsICctaW1hZScsICc8aW5maWxlLm1hZT4nLCAnLW9tYWUnLCAnPG91dGZpbGUubWFlPic=

> <r_lp_tautomer_probability>
0.9999

> <r_epik_Ionization_Penalty>
1.88808

> <r_epik_Ionization_Penalty_Charging>
1.88806

> <r_epik_Ionization_Penalty_Neutral>
2.68145e-05

> <r_epik_State_Penalty>
2.00836

> <r_epik_Charging_Adjusted_Penalty>
3.89641

> <i_epik_Tot_Q>
1

> <i_epik_Tot_abs_Q>
1

> <r_epik_Metal_State_Penalty>
2.03272

> <b_epik_Metal_Only>
0

> <s_lp_Force_Field>
OPLS_2005

> <r_lp_Energy>
42.6194

> <b_lp_Chiralities_Consistent>
1

> <s_lp_Variant>
AV-unprocessed.smi:2944-3

> <Gold.Version>
5.8.1

> <Gold.Id.Protein>
6NUR|6NUR_protein|mol2

> <Gold.PLP.Fitness>
56.9608

> <Gold.PLP.PLP>
-50.8880

> <Gold.PLP.part.hbond>
-3.0000

> <Gold.PLP.part.metal>
0.0000

> <Gold.PLP.part.buried>
-7.5143

> <Gold.PLP.part.nonpolar>
-41.5115

> <Gold.PLP.part.repulsive>
0.4886

> <Gold.PLP.ligand.clash>
0.8794

> <Gold.PLP.ligand.torsion>
2.1350

> <Gold.PLP.Chemscore.Hbond>
3.6880

> <Gold.PLP.Chemscore.CHOScore>
0.0000

> <Gold.PLP.Chemscore.Metal>
0.0000

> <Gold.Chemscore.Hbonds>
donor molecule, donor type, donor heavy atom, donor atom, acceptor molecule, acceptor atom, score
      L1  H    18    45       P1  8028  2.00
      P1  H  7997  8008       L1     2  1.00
      P1  H  8011  8017       L1    11  0.69

> <Gold.PLP.Chemscore.Internal.Correction>
0.1583

> <Gold.Rescore>
     Score         DG    S(hbond)    S(metal)    S(lipo)     H(rot)  DE(clash)    DE(int)     intcor
     16.59     -21.56       2.60        0.00     113.64       2.30       0.04       4.93       ----

> <Gold.Chemscore.Fitness>
16.5922

> <Gold.Chemscore.DG>
-21.5639

> <Gold.Chemscore.ZeroCoef>
-5.4800

> <Gold.Chemscore.Hbond>
2.5968

> <Gold.Chemscore.Metal>
0.0000

> <Gold.Chemscore.Lipo>
113.6367

> <Gold.Chemscore.Internal_Hbond>
0.0000

> <Gold.Chemscore.DEClash>
0.0396

> <Gold.Chemscore.DEInternal>
4.9321

> <Gold.Chemscore.Rot>
2.2988

> <Gold.Chemscore.Internal.Correction>
   9.000000E+99

> <Gold.Chemscore.Hbonds>
donor molecule, donor type, donor heavy atom, donor atom, acceptor molecule, acceptor atom, score
      L1  H    18    45       P1  8028  0.98
      P1  H  7997  8008       L1     2  0.27
      P1  H  8011  8017       L1    11  0.68

> <Gold.Chemscore.Hbond.Weighted>
-8.6734

> <Gold.Chemscore.Metal.Weighted>
-0.0000

> <Gold.Chemscore.Lipo.Weighted>
-13.2955

> <Gold.Chemscore.Internal_Hbond.Weighted>
0.0000

> <Gold.Chemscore.DEClash.Weighted>
0.0396

> <Gold.Chemscore.DEInternal.Weighted>
4.9321

> <Gold.Chemscore.Rot.Weighted>
5.8850

> <Gold.Chemscore.Internal.Correction.Weighted>
   9.000000E+99

> <Gold.Protein.RotatedTorsions>
[ 6907 6896 6895 6894 ] final  -91.29 input  -60.11 | X-H torsion
[ 7974 7965 7964 7962 ] final  -84.97 input  175.53 | X-H torsion
[ 8008 7997 7996 7995 ] final -101.70 input   59.86 | X-H torsion
[ 10167 10162 10161 10158 ] final  160.49 input  -65.29 | X-H torsion
[ 10718 10713 10712 10709 ] final  146.14 input   66.30 | X-H torsion
[ 10763 10752 10751 10750 ] final  -35.75 input  -60.55 | X-H torsion
[ 11005 11000 10999 10996 ] final  165.65 input  -57.11 | X-H torsion

> <Gold.Protein.ActiveResidues>
 VAL166  LYS551  ARG553  GLY616  TRP617  ASP618  TYR619  PRO620  LYS621  CYS622 
 ASP623  PHE694  ASN695  SER759  ASP760  ASP761  ALA762  ILE779  LEU786  VAL792 
 PHE793  MET794  SER795  GLU796  ALA797  LYS798  CYS799  TRP800  GLU811  SER814 

> <Gold.Protein.RotatedAtoms>
  150.6891  134.2301  159.4430 H   0  0  0  0  0  0  0  0  0  0  0  0  # atno 6907 bound_to 6896
  152.0252  134.9797  160.0580 H   0  0  0  0  0  0  0  0  0  0  0  0  # atno 6908 bound_to 6896
  152.1359  133.4400  159.4780 H   0  0  0  0  0  0  0  0  0  0  0  0  # atno 6909 bound_to 6896
  145.4995  140.9548  143.1767 H   0  0  0  0  0  0  0  0  0  0  0  0  # atno 7974 bound_to 7965
  154.8462  140.0433  157.1574 H   0  0  0  0  0  0  0  0  0  0  0  0  # atno 8008 bound_to 7997
  154.8992  140.2997  155.5307 H   0  0  0  0  0  0  0  0  0  0  0  0  # atno 8009 bound_to 7997
  156.2994  140.2379  156.4018 H   0  0  0  0  0  0  0  0  0  0  0  0  # atno 8010 bound_to 7997
  139.4840  144.4629  151.8681 H   0  0  0  0  0  0  0  0  0  0  0  0  # atno 10167 bound_to 10162
  157.3368  131.0929  151.1116 H   0  0  0  0  0  0  0  0  0  0  0  0  # atno 10718 bound_to 10713
  153.8683  135.6833  153.4776 H   0  0  0  0  0  0  0  0  0  0  0  0  # atno 10763 bound_to 10752
  153.1302  135.4701  154.9334 H   0  0  0  0  0  0  0  0  0  0  0  0  # atno 10764 bound_to 10752
  154.7726  135.3243  154.8108 H   0  0  0  0  0  0  0  0  0  0  0  0  # atno 10765 bound_to 10752
  140.2583  134.7923  157.3566 H   0  0  0  0  0  0  0  0  0  0  0  0  # atno 11005 bound_to 11000
  144.7788  139.6571  143.7163 LP  0  0  0  0  0  0  0  0  0  0  0  0  # atno 17320 bound_to 7965
  146.2235  139.5679  142.9603 LP  0  0  0  0  0  0  0  0  0  0  0  0  # atno 17321 bound_to 7965
  140.4092  144.2391  150.5889 LP  0  0  0  0  0  0  0  0  0  0  0  0  # atno 17342 bound_to 10162
  140.4982  143.2326  151.8717 LP  0  0  0  0  0  0  0  0  0  0  0  0  # atno 17343 bound_to 10162
  157.2344  130.6540  149.5863 LP  0  0  0  0  0  0  0  0  0  0  0  0  # atno 17370 bound_to 10713
  155.9702  130.4588  150.6014 LP  0  0  0  0  0  0  0  0  0  0  0  0  # atno 17371 bound_to 10713
  140.1490  134.4874  155.7975 LP  0  0  0  0  0  0  0  0  0  0  0  0  # atno 17394 bound_to 11000
  141.2193  133.6855  156.7345 LP  0  0  0  0  0  0  0  0  0  0  0  0  # atno 17395 bound_to 11000

$$$$
