AV-unprocessed.smi:856|AV-procd|sdf|3959|dock9
  -GOLD-   22720 1433D 1   1.00000     0.00000
 Structure written by MMmdl.
 42 44  0  0  0  0  0  0  0  0  1 V2000
  151.9624  143.9190  161.0872 C   0  0  0  0  0  0  0  0  0  0  0  0
  152.1829  142.7591  160.2033 N   0  0  0  0  0  0  0  0  0  0  0  0
  151.2941  142.5409  159.1835 C   0  0  0  0  0  0  0  0  0  0  0  0
  150.3118  143.2445  158.9459 O   0  0  0  0  0  0  0  0  0  0  0  0
  151.6080  141.3656  158.3623 C   0  0  0  0  0  0  0  0  0  0  0  0
  152.6800  140.5682  158.5946 C   0  0  0  0  0  0  0  0  0  0  0  0
  152.7478  139.5319  157.6697 N   0  0  0  0  0  0  0  0  0  0  0  0
  151.6820  139.7694  156.9051 C   0  0  0  0  0  0  0  0  0  0  0  0
  150.9471  140.8462  157.2487 N   0  0  0  0  0  0  0  0  0  0  0  0
  149.7473  141.3126  156.5687 C   0  0  0  0  0  0  0  0  0  0  0  0
  149.8536  141.2053  155.0340 C   0  0  2  0  0  0  0  0  0  0  0  0
  149.2034  142.3099  154.4365 O   0  0  0  0  0  0  0  0  0  0  0  0
  149.1989  139.9201  154.5063 C   0  0  0  0  0  0  0  0  0  0  0  0
  149.6505  138.8202  155.2858 O   0  0  0  0  0  0  0  0  0  0  0  0
  150.5506  137.9546  154.6066 C   0  0  0  0  0  0  0  0  0  0  0  0
  150.3208  136.5609  155.0970 C   0  0  0  0  0  0  0  0  0  0  0  0
  149.2356  135.7287  155.0903 C   0  0  0  0  0  0  0  0  0  0  0  0
  149.6515  134.5224  155.7186 C   0  0  0  0  0  0  0  0  0  0  0  0
  150.9606  134.7086  156.0612 C   0  0  0  0  0  0  0  0  0  0  0  0
  151.3848  135.9466  155.6878 O   0  0  0  0  0  0  0  0  0  0  0  0
  153.5354  140.8848  159.6814 N   0  0  0  0  0  0  0  0  0  0  0  0
  154.6967  140.0315  159.9481 C   0  0  0  0  0  0  0  0  0  0  0  0
  153.2909  141.9761  160.4769 C   0  0  0  0  0  0  0  0  0  0  0  0
  154.0480  142.2461  161.4139 O   0  0  0  0  0  0  0  0  0  0  0  0
  151.0580  144.4910  160.8774 H   0  0  0  0  0  0  0  0  0  0  0  0
  152.7980  144.6167  161.0108 H   0  0  0  0  0  0  0  0  0  0  0  0
  151.8872  143.5989  162.1279 H   0  0  0  0  0  0  0  0  0  0  0  0
  151.4284  139.1405  156.0643 H   0  0  0  0  0  0  0  0  0  0  0  0
  148.9096  140.7087  156.9201 H   0  0  0  0  0  0  0  0  0  0  0  0
  149.5243  142.3331  156.8765 H   0  0  0  0  0  0  0  0  0  0  0  0
  150.9070  141.2226  154.7511 H   0  0  0  0  0  0  0  0  0  0  0  0
  149.1688  143.0127  155.0677 H   0  0  0  0  0  0  0  0  0  0  0  0
  148.1155  139.9900  154.6135 H   0  0  0  0  0  0  0  0  0  0  0  0
  149.4084  139.7877  153.4436 H   0  0  0  0  0  0  0  0  0  0  0  0
  150.3416  138.0045  153.5379 H   0  0  0  0  0  0  0  0  0  0  0  0
  151.5869  138.2662  154.7463 H   0  0  0  0  0  0  0  0  0  0  0  0
  148.2619  135.9618  154.6853 H   0  0  0  0  0  0  0  0  0  0  0  0
  149.0674  133.6318  155.8979 H   0  0  0  0  0  0  0  0  0  0  0  0
  151.7024  134.0951  156.5509 H   0  0  0  0  0  0  0  0  0  0  0  0
  154.6370  139.6079  160.9517 H   0  0  0  0  0  0  0  0  0  0  0  0
  155.6201  140.6078  159.8752 H   0  0  0  0  0  0  0  0  0  0  0  0
  154.7785  139.1978  159.2506 H   0  0  0  0  0  0  0  0  0  0  0  0
  1  2  1  0  0  0  0
  1 25  1  0  0  0  0
  1 26  1  0  0  0  0
  1 27  1  0  0  0  0
  2 23  1  0  0  0  0
  2  3  1  0  0  0  0
  3  4  2  0  0  0  0
  3  5  1  0  0  0  0
  5  9  1  0  0  0  0
  5  6  2  0  0  0  0
  6  7  1  0  0  0  0
  6 21  1  0  0  0  0
  7  8  2  0  0  0  0
  8  9  1  0  0  0  0
  8 28  1  0  0  0  0
  9 10  1  0  0  0  0
 10 11  1  0  0  0  0
 10 29  1  0  0  0  0
 10 30  1  0  0  0  0
 11 12  1  0  0  0  0
 11 13  1  0  0  0  0
 11 31  1  0  0  0  0
 12 32  1  0  0  0  0
 13 14  1  0  0  0  0
 13 33  1  0  0  0  0
 13 34  1  0  0  0  0
 14 15  1  0  0  0  0
 15 16  1  0  0  0  0
 15 35  1  0  0  0  0
 15 36  1  0  0  0  0
 16 20  1  0  0  0  0
 16 17  2  0  0  0  0
 17 18  1  0  0  0  0
 17 37  1  0  0  0  0
 18 19  2  0  0  0  0
 18 38  1  0  0  0  0
 19 20  1  0  0  0  0
 19 39  1  0  0  0  0
 21 22  1  0  0  0  0
 21 23  1  0  0  0  0
 22 40  1  0  0  0  0
 22 41  1  0  0  0  0
 22 42  1  0  0  0  0
 23 24  2  0  0  0  0
M  END
> <s_m_source_file>
AV-unprocessed.smi

> <i_m_source_file_index>
856

> <i_lp_mmshare_version>
43012

> <i_f3d_flags>
0

> <s_epik_input>
Tz1jMW4oW0NIM10pYyg9TyluKFtDSDNdKWMoYzEyKW5bY0hdbjJbQ0gyXVtDQEhdKFtPSF0pW0NIMl1PW0NIMl1jM1tjSF1bY0hdW2NIXW8z

> <s_epik_cmdline>
J2VwaWtfcHl0aG9uJywgJy1waCcsICc3LjAnLCAnLXRuJywgJzgnLCAnLW1hJywgJzIwMCcsICctbWV0YWxfYmluZGluZycsICctaW1hZScsICc8aW5maWxlLm1hZT4nLCAnLW9tYWUnLCAnPG91dGZpbGUubWFlPic=

> <r_lp_tautomer_probability>
1

> <r_epik_Ionization_Penalty>
1.33189e-06

> <r_epik_Ionization_Penalty_Charging>
3.64616e-09

> <r_epik_Ionization_Penalty_Neutral>
1.32824e-06

> <r_epik_State_Penalty>
-0

> <r_epik_Charging_Adjusted_Penalty>
3.64616e-09

> <i_epik_Tot_Q>
0

> <i_epik_Tot_abs_Q>
0

> <r_epik_Metal_State_Penalty>
-0

> <b_epik_Metal_Only>
0

> <s_lp_Force_Field>
OPLS_2005

> <r_lp_Energy>
33.5677

> <b_lp_Chiralities_Consistent>
1

> <s_lp_Variant>
AV-unprocessed.smi:856-1

> <Gold.Version>
5.8.1

> <Gold.Id.Protein>
6NUR|6NUR_protein|mol2

> <Gold.PLP.Fitness>
49.7634

> <Gold.PLP.PLP>
-43.1605

> <Gold.PLP.part.hbond>
-5.0082

> <Gold.PLP.part.metal>
0.0000

> <Gold.PLP.part.buried>
-0.1964

> <Gold.PLP.part.nonpolar>
-35.7756

> <Gold.PLP.part.repulsive>
0.2552

> <Gold.PLP.ligand.clash>
0.0000

> <Gold.PLP.ligand.torsion>
1.4121

> <Gold.PLP.Chemscore.Hbond>
3.1217

> <Gold.PLP.Chemscore.CHOScore>
0.0000

> <Gold.PLP.Chemscore.Metal>
0.0000

> <Gold.Chemscore.Hbonds>
donor molecule, donor type, donor heavy atom, donor atom, acceptor molecule, acceptor atom, score
      L1  H    12    32       P1  8028  1.00
      P1  H  7997  8008       L1     7  1.00
      P1  H  8011  8017       L1    12  0.14
      P1  H 10752 10765       L1    20  1.00

> <Gold.PLP.Chemscore.Internal.Correction>
0.0621

> <Gold.Rescore>
     Score         DG    S(hbond)    S(metal)    S(lipo)     H(rot)  DE(clash)    DE(int)     intcor
     12.48     -14.28       2.68        0.00      67.88       3.16       0.23       1.57       ----

> <Gold.Chemscore.Fitness>
12.4847

> <Gold.Chemscore.DG>
-14.2817

> <Gold.Chemscore.ZeroCoef>
-5.4800

> <Gold.Chemscore.Hbond>
2.6794

> <Gold.Chemscore.Metal>
0.0000

> <Gold.Chemscore.Lipo>
67.8800

> <Gold.Chemscore.Internal_Hbond>
0.0000

> <Gold.Chemscore.DEClash>
0.2306

> <Gold.Chemscore.DEInternal>
1.5665

> <Gold.Chemscore.Rot>
3.1599

> <Gold.Chemscore.Internal.Correction>
   9.000000E+99

> <Gold.Chemscore.Hbonds>
donor molecule, donor type, donor heavy atom, donor atom, acceptor molecule, acceptor atom, score
      L1  H    12    32       P1  8028  0.98
      P1  H  7997  8008       L1     7  0.15
      P1  H  8011  8017       L1    12  0.09
      P1  H 10752 10765       L1    20  0.38

> <Gold.Chemscore.Hbond.Weighted>
-8.9490

> <Gold.Chemscore.Metal.Weighted>
-0.0000

> <Gold.Chemscore.Lipo.Weighted>
-7.9420

> <Gold.Chemscore.Internal_Hbond.Weighted>
0.0000

> <Gold.Chemscore.DEClash.Weighted>
0.2306

> <Gold.Chemscore.DEInternal.Weighted>
1.5665

> <Gold.Chemscore.Rot.Weighted>
8.0893

> <Gold.Chemscore.Internal.Correction.Weighted>
   9.000000E+99

> <Gold.Protein.RotatedTorsions>
[ 6907 6896 6895 6894 ] final  127.02 input  -60.11 | X-H torsion
[ 7974 7965 7964 7962 ] final  -48.64 input  175.53 | X-H torsion
[ 8008 7997 7996 7995 ] final  -57.58 input   59.86 | X-H torsion
[ 10167 10162 10161 10158 ] final  122.50 input  -65.29 | X-H torsion
[ 10718 10713 10712 10709 ] final -141.22 input   66.30 | X-H torsion
[ 10763 10752 10751 10750 ] final -179.28 input  -60.55 | X-H torsion
[ 11005 11000 10999 10996 ] final  -67.00 input  -57.11 | X-H torsion

> <Gold.Protein.ActiveResidues>
 VAL166  LYS551  ARG553  GLY616  TRP617  ASP618  TYR619  PRO620  LYS621  CYS622 
 ASP623  PHE694  ASN695  SER759  ASP760  ASP761  ALA762  ILE779  LEU786  VAL792 
 PHE793  MET794  SER795  GLU796  ALA797  LYS798  CYS799  TRP800  GLU811  SER814 

> <Gold.Protein.RotatedAtoms>
  152.3850  133.6599  159.6191 H   0  0  0  0  0  0  0  0  0  0  0  0  # atno 6907 bound_to 6896
  150.7771  133.9050  159.3361 H   0  0  0  0  0  0  0  0  0  0  0  0  # atno 6908 bound_to 6896
  151.6848  135.0957  160.0274 H   0  0  0  0  0  0  0  0  0  0  0  0  # atno 6909 bound_to 6896
  145.9490  140.7590  142.9514 H   0  0  0  0  0  0  0  0  0  0  0  0  # atno 7974 bound_to 7965
  154.4274  140.1103  156.5820 H   0  0  0  0  0  0  0  0  0  0  0  0  # atno 8008 bound_to 7997
  155.6102  140.3494  155.4601 H   0  0  0  0  0  0  0  0  0  0  0  0  # atno 8009 bound_to 7997
  156.0105  140.1218  157.0448 H   0  0  0  0  0  0  0  0  0  0  0  0  # atno 8010 bound_to 7997
  139.5855  144.7004  151.3420 H   0  0  0  0  0  0  0  0  0  0  0  0  # atno 10167 bound_to 10162
  156.3315  130.7588  151.1707 H   0  0  0  0  0  0  0  0  0  0  0  0  # atno 10718 bound_to 10713
  154.5370  135.2803  155.1129 H   0  0  0  0  0  0  0  0  0  0  0  0  # atno 10763 bound_to 10752
  154.2626  135.6318  153.5284 H   0  0  0  0  0  0  0  0  0  0  0  0  # atno 10764 bound_to 10752
  152.9970  135.5609  154.5899 H   0  0  0  0  0  0  0  0  0  0  0  0  # atno 10765 bound_to 10752
  141.1497  133.6710  156.6226 H   0  0  0  0  0  0  0  0  0  0  0  0  # atno 11005 bound_to 11000
  144.6792  140.2404  143.7344 LP  0  0  0  0  0  0  0  0  0  0  0  0  # atno 17320 bound_to 7965
  145.8197  139.2038  143.1945 LP  0  0  0  0  0  0  0  0  0  0  0  0  # atno 17321 bound_to 7965
  140.7127  143.7348  150.7597 LP  0  0  0  0  0  0  0  0  0  0  0  0  # atno 17342 bound_to 10162
  140.0891  143.4895  152.2488 LP  0  0  0  0  0  0  0  0  0  0  0  0  # atno 17343 bound_to 10162
  157.7431  131.0480  150.4972 LP  0  0  0  0  0  0  0  0  0  0  0  0  # atno 17370 bound_to 10713
  156.5139  130.4146  149.6286 LP  0  0  0  0  0  0  0  0  0  0  0  0  # atno 17371 bound_to 10713
  140.3529  134.7753  157.4479 LP  0  0  0  0  0  0  0  0  0  0  0  0  # atno 17394 bound_to 11000
  140.0846  134.5683  155.8505 LP  0  0  0  0  0  0  0  0  0  0  0  0  # atno 17395 bound_to 11000

$$$$
