AV-unprocessed.smi:2060|AV-procd|sdf|8354|dock10
  -GOLD-   2272011 23D 1   1.00000     0.00000
 Structure written by MMmdl.
 45 46  0  0  0  0  0  0  0  0  1 V2000
  153.0837  138.7154  154.6102 C   0  0  0  0  0  0  0  0  0  0  0  0
  151.9028  137.8423  155.0731 C   0  0  0  0  0  0  0  0  0  0  0  0
  150.5351  138.5812  155.2261 C   0  0  1  0  0  0  0  0  0  0  0  0
  150.1318  139.0530  153.8029 C   0  0  0  0  0  0  0  0  0  0  0  0
  149.4737  137.5493  155.7309 C   0  0  0  0  0  0  0  0  0  0  0  0
  149.2993  136.3941  154.8499 N   0  0  0  0  0  0  0  0  0  0  0  0
  149.4602  135.1093  155.1992 C   0  0  0  0  0  0  0  0  0  0  0  0
  149.7828  134.7470  156.3304 O   0  0  0  0  0  0  0  0  0  0  0  0
  149.2197  134.2925  154.1599 N   0  0  0  0  0  0  0  0  0  0  0  0
  149.2531  132.8745  154.1262 C   0  0  0  0  0  0  0  0  0  0  0  0
  148.4178  132.0277  153.3404 C   0  0  0  0  0  0  0  0  0  0  0  0
  148.8587  130.7759  153.6650 C   0  0  0  0  0  0  0  0  0  0  0  0
  148.4522  129.4115  153.2244 C   0  0  0  0  0  0  0  0  0  0  0  0
  149.8721  130.8500  154.5694 O   0  0  0  0  0  0  0  0  0  0  0  0
  150.1182  132.1972  154.8586 N   0  0  0  0  0  0  0  0  0  0  0  0
  150.6577  139.7496  156.1440 N   0  0  0  0  0  0  0  0  0  0  0  0
  151.1555  139.4383  157.4895 C   0  0  0  0  0  0  0  0  0  0  0  0
  151.3917  140.7076  158.3256 C   0  0  0  0  0  0  0  0  0  0  0  0
  150.1887  141.4628  158.4007 O   0  0  0  0  0  0  0  0  0  0  0  0
  149.7000  141.8346  157.1176 C   0  0  0  0  0  0  0  0  0  0  0  0
  149.4502  140.5744  156.2718 C   0  0  0  0  0  0  0  0  0  0  0  0
  153.9926  138.1183  154.5366 H   0  0  0  0  0  0  0  0  0  0  0  0
  153.2862  139.5286  155.3071 H   0  0  0  0  0  0  0  0  0  0  0  0
  152.9042  139.1519  153.6283 H   0  0  0  0  0  0  0  0  0  0  0  0
  151.8057  137.0246  154.3582 H   0  0  0  0  0  0  0  0  0  0  0  0
  152.1753  137.3529  156.0081 H   0  0  0  0  0  0  0  0  0  0  0  0
  150.2701  138.2704  153.0566 H   0  0  0  0  0  0  0  0  0  0  0  0
  150.7220  139.9108  153.4795 H   0  0  0  0  0  0  0  0  0  0  0  0
  149.0823  139.3437  153.7519 H   0  0  0  0  0  0  0  0  0  0  0  0
  149.7700  137.1427  156.6972 H   0  0  0  0  0  0  0  0  0  0  0  0
  148.5089  138.0287  155.8978 H   0  0  0  0  0  0  0  0  0  0  0  0
  149.0330  136.5937  153.8967 H   0  0  0  0  0  0  0  0  0  0  0  0
  148.9763  134.7377  153.2874 H   0  0  0  0  0  0  0  0  0  0  0  0
  147.6276  132.2776  152.6489 H   0  0  0  0  0  0  0  0  0  0  0  0
  147.5260  129.4473  152.6506 H   0  0  0  0  0  0  0  0  0  0  0  0
  148.2929  128.7580  154.0823 H   0  0  0  0  0  0  0  0  0  0  0  0
  149.2224  128.9644  152.5959 H   0  0  0  0  0  0  0  0  0  0  0  0
  150.4446  138.8034  158.0179 H   0  0  0  0  0  0  0  0  0  0  0  0
  152.0947  138.8906  157.4425 H   0  0  0  0  0  0  0  0  0  0  0  0
  151.7083  140.4426  159.3345 H   0  0  0  0  0  0  0  0  0  0  0  0
  152.1864  141.3149  157.8895 H   0  0  0  0  0  0  0  0  0  0  0  0
  148.7750  142.3984  157.2388 H   0  0  0  0  0  0  0  0  0  0  0  0
  150.4149  142.4949  156.6242 H   0  0  0  0  0  0  0  0  0  0  0  0
  149.0928  140.8971  155.2955 H   0  0  0  0  0  0  0  0  0  0  0  0
  148.6453  140.0007  156.7308 H   0  0  0  0  0  0  0  0  0  0  0  0
  1  2  1  0  0  0  0
  1 22  1  0  0  0  0
  1 23  1  0  0  0  0
  1 24  1  0  0  0  0
  2  3  1  0  0  0  0
  2 25  1  0  0  0  0
  2 26  1  0  0  0  0
  3  4  1  0  0  0  0
  3  5  1  0  0  0  0
  3 16  1  0  0  0  0
  4 27  1  0  0  0  0
  4 28  1  0  0  0  0
  4 29  1  0  0  0  0
  5  6  1  0  0  0  0
  5 30  1  0  0  0  0
  5 31  1  0  0  0  0
  6  7  1  0  0  0  0
  6 32  1  0  0  0  0
  7  8  2  0  0  0  0
  7  9  1  0  0  0  0
  9 10  1  0  0  0  0
  9 33  1  0  0  0  0
 10 15  2  0  0  0  0
 10 11  1  0  0  0  0
 11 12  2  0  0  0  0
 11 34  1  0  0  0  0
 12 13  1  0  0  0  0
 12 14  1  0  0  0  0
 13 35  1  0  0  0  0
 13 36  1  0  0  0  0
 13 37  1  0  0  0  0
 14 15  1  0  0  0  0
 16 21  1  0  0  0  0
 16 17  1  0  0  0  0
 17 18  1  0  0  0  0
 17 38  1  0  0  0  0
 17 39  1  0  0  0  0
 18 19  1  0  0  0  0
 18 40  1  0  0  0  0
 18 41  1  0  0  0  0
 19 20  1  0  0  0  0
 20 21  1  0  0  0  0
 20 42  1  0  0  0  0
 20 43  1  0  0  0  0
 21 44  1  0  0  0  0
 21 45  1  0  0  0  0
M  END
> <s_m_source_file>
AV-unprocessed.smi

> <i_m_source_file_index>
2060

> <i_lp_mmshare_version>
43012

> <i_f3d_flags>
0

> <s_epik_input>
W0NIMl0xW0NIMl1PW0NIMl1bQ0gyXU4xW0NAQF0oW0NIM10pKFtDSDJdW0NIM10pW0NIMl1bTkhdQyg9TylbTkhdYzJbY0hdYyhbQ0gzXSlvbjI=

> <s_epik_cmdline>
J2VwaWtfcHl0aG9uJywgJy1waCcsICc3LjAnLCAnLXRuJywgJzgnLCAnLW1hJywgJzIwMCcsICctbWV0YWxfYmluZGluZycsICctaW1hZScsICc8aW5maWxlLm1hZT4nLCAnLW9tYWUnLCAnPG91dGZpbGUubWFlPic=

> <r_epik_Ionization_Penalty>
0.289127

> <r_epik_Ionization_Penalty_Charging>
0

> <r_epik_Ionization_Penalty_Neutral>
0.289127

> <r_epik_State_Penalty>
0.282056

> <r_epik_Charging_Adjusted_Penalty>
0.282056

> <i_epik_Tot_Q>
0

> <i_epik_Tot_abs_Q>
0

> <r_epik_Metal_State_Penalty>
0.284526

> <b_epik_Metal_Only>
0

> <s_lp_Force_Field>
OPLS_2005

> <r_lp_Energy>
41.8264

> <b_lp_Chiralities_Consistent>
1

> <s_lp_Variant>
AV-unprocessed.smi:2060-1

> <Gold.Version>
5.8.1

> <Gold.Id.Protein>
6NUR|6NUR_protein|mol2

> <Gold.PLP.Fitness>
33.6925

> <Gold.PLP.PLP>
-28.6860

> <Gold.PLP.part.hbond>
-2.0000

> <Gold.PLP.part.metal>
0.0000

> <Gold.PLP.part.buried>
-2.9437

> <Gold.PLP.part.nonpolar>
-24.2927

> <Gold.PLP.part.repulsive>
0.1111

> <Gold.PLP.ligand.clash>
0.0000

> <Gold.PLP.ligand.torsion>
0.2781

> <Gold.PLP.Chemscore.Hbond>
1.8250

> <Gold.PLP.Chemscore.CHOScore>
0.0000

> <Gold.PLP.Chemscore.Metal>
0.0000

> <Gold.Chemscore.Hbonds>
donor molecule, donor type, donor heavy atom, donor atom, acceptor molecule, acceptor atom, score
      L1  H     6    32       P1  7948  0.94
      L1  H     9    33       P1  7948  0.85

> <Gold.PLP.Chemscore.Internal.Correction>
0.0878

> <Gold.Rescore>
     Score         DG    S(hbond)    S(metal)    S(lipo)     H(rot)  DE(clash)    DE(int)     intcor
     11.71     -14.65       1.43        0.00      75.08       1.71       1.44       1.50       ----

> <Gold.Chemscore.Fitness>
11.7083

> <Gold.Chemscore.DG>
-14.6520

> <Gold.Chemscore.ZeroCoef>
-5.4800

> <Gold.Chemscore.Hbond>
1.4300

> <Gold.Chemscore.Metal>
0.0000

> <Gold.Chemscore.Lipo>
75.0785

> <Gold.Chemscore.Internal_Hbond>
0.0000

> <Gold.Chemscore.DEClash>
1.4429

> <Gold.Chemscore.DEInternal>
1.5008

> <Gold.Chemscore.Rot>
1.7143

> <Gold.Chemscore.Internal.Correction>
   9.000000E+99

> <Gold.Chemscore.Hbonds>
donor molecule, donor type, donor heavy atom, donor atom, acceptor molecule, acceptor atom, score
      L1  H     6    32       P1  7948  0.87
      L1  H     9    33       P1  7948  0.14

> <Gold.Chemscore.Hbond.Weighted>
-4.7763

> <Gold.Chemscore.Metal.Weighted>
-0.0000

> <Gold.Chemscore.Lipo.Weighted>
-8.7842

> <Gold.Chemscore.Internal_Hbond.Weighted>
0.0000

> <Gold.Chemscore.DEClash.Weighted>
1.4429

> <Gold.Chemscore.DEInternal.Weighted>
1.5008

> <Gold.Chemscore.Rot.Weighted>
4.3885

> <Gold.Chemscore.Internal.Correction.Weighted>
   9.000000E+99

> <Gold.Protein.RotatedTorsions>
[ 6907 6896 6895 6894 ] final   47.98 input  -60.11 | X-H torsion
[ 7974 7965 7964 7962 ] final  -63.07 input  175.53 | X-H torsion
[ 8008 7997 7996 7995 ] final   58.80 input   59.86 | X-H torsion
[ 10167 10162 10161 10158 ] final -124.49 input  -65.29 | X-H torsion
[ 10718 10713 10712 10709 ] final -123.70 input   66.30 | X-H torsion
[ 10763 10752 10751 10750 ] final -121.92 input  -60.55 | X-H torsion
[ 11005 11000 10999 10996 ] final  -25.73 input  -57.11 | X-H torsion

> <Gold.Protein.ActiveResidues>
 VAL166  LYS551  ARG553  GLY616  TRP617  ASP618  TYR619  PRO620  LYS621  CYS622 
 ASP623  PHE694  ASN695  SER759  ASP760  ASP761  ALA762  ILE779  LEU786  VAL792 
 PHE793  MET794  SER795  GLU796  ALA797  LYS798  CYS799  TRP800  GLU811  SER814 

> <Gold.Protein.RotatedAtoms>
  152.2743  134.7899  160.0408 H   0  0  0  0  0  0  0  0  0  0  0  0  # atno 6907 bound_to 6896
  151.8501  133.3433  159.3678 H   0  0  0  0  0  0  0  0  0  0  0  0  # atno 6908 bound_to 6896
  150.7164  134.5236  159.5710 H   0  0  0  0  0  0  0  0  0  0  0  0  # atno 6909 bound_to 6896
  145.7835  140.8749  143.0318 H   0  0  0  0  0  0  0  0  0  0  0  0  # atno 7974 bound_to 7965
  155.5558  140.3487  155.4479 H   0  0  0  0  0  0  0  0  0  0  0  0  # atno 8008 bound_to 7997
  156.0550  140.1326  157.0033 H   0  0  0  0  0  0  0  0  0  0  0  0  # atno 8009 bound_to 7997
  154.4452  140.0997  156.6417 H   0  0  0  0  0  0  0  0  0  0  0  0  # atno 8010 bound_to 7997
  139.9922  143.5629  152.2337 H   0  0  0  0  0  0  0  0  0  0  0  0  # atno 10167 bound_to 10162
  156.1525  130.6544  150.9933 H   0  0  0  0  0  0  0  0  0  0  0  0  # atno 10718 bound_to 10713
  154.8679  135.4151  154.2698 H   0  0  0  0  0  0  0  0  0  0  0  0  # atno 10763 bound_to 10752
  153.3610  135.7003  153.6717 H   0  0  0  0  0  0  0  0  0  0  0  0  # atno 10764 bound_to 10752
  153.5618  135.3608  155.2774 H   0  0  0  0  0  0  0  0  0  0  0  0  # atno 10765 bound_to 10752
  140.8964  133.7553  156.0487 H   0  0  0  0  0  0  0  0  0  0  0  0  # atno 11005 bound_to 11000
  144.6792  140.0023  143.7484 LP  0  0  0  0  0  0  0  0  0  0  0  0  # atno 17320 bound_to 7965
  146.0049  139.3122  143.0905 LP  0  0  0  0  0  0  0  0  0  0  0  0  # atno 17321 bound_to 7965
  139.6332  144.7647  151.2493 LP  0  0  0  0  0  0  0  0  0  0  0  0  # atno 17342 bound_to 10162
  140.7450  143.6444  150.8306 LP  0  0  0  0  0  0  0  0  0  0  0  0  # atno 17343 bound_to 10162
  157.6668  131.0870  150.7709 LP  0  0  0  0  0  0  0  0  0  0  0  0  # atno 17370 bound_to 10713
  156.7776  130.4849  149.5407 LP  0  0  0  0  0  0  0  0  0  0  0  0  # atno 17371 bound_to 10713
  140.8284  134.3208  157.5357 LP  0  0  0  0  0  0  0  0  0  0  0  0  # atno 17394 bound_to 11000
  139.8736  134.9349  156.3619 LP  0  0  0  0  0  0  0  0  0  0  0  0  # atno 17395 bound_to 11000

$$$$
