AV-unprocessed.smi:1076|AV-procd|sdf|4699|dock9
  -GOLD-   22720 3223D 1   1.00000     0.00000
 Structure written by MMmdl.
 44 45  0  0  0  0  0  0  0  0  1 V2000
  151.1819  136.4459  155.4481 C   0  0  0  0  0  0  0  0  0  0  0  0
  150.8693  137.8314  154.9620 C   0  0  0  0  0  0  0  0  0  0  0  0
  151.7681  138.9214  154.7836 C   0  0  0  0  0  0  0  0  0  0  0  0
  151.1730  140.0104  154.3245 N   0  0  0  0  0  0  0  0  0  0  0  0
  149.8777  139.6546  154.1916 N   0  0  0  0  0  0  0  0  0  0  0  0
  148.9148  140.6083  153.6675 C   0  0  0  0  0  0  0  0  0  0  0  0
  148.2331  141.4172  154.7891 C   0  0  2  0  0  0  0  0  0  0  0  0
  147.0682  142.2636  154.2512 C   0  0  0  0  0  0  0  0  0  0  0  0
  149.2299  142.2838  155.4073 N   0  0  0  0  0  0  0  0  0  0  0  0
  150.0629  141.5831  156.3759 C   0  0  0  0  0  0  0  0  0  0  0  0
  150.9520  142.5748  157.1549 C   0  0  0  0  0  0  0  0  0  0  0  0
  151.8289  141.9407  158.2554 C   0  0  0  0  0  0  0  0  0  0  0  0
  151.9505  140.7149  158.2932 O   0  0  0  0  0  0  0  0  0  0  0  0
  152.4425  142.7482  159.1540 N   0  0  0  0  0  0  0  0  0  0  0  0
  153.3056  142.2412  160.2255 C   0  0  0  0  0  0  0  0  0  0  0  0
  152.6316  142.5377  161.5769 C   0  0  0  0  0  0  0  0  0  0  0  0
  152.4077  143.9397  161.7009 O   0  0  0  0  0  0  0  0  0  0  0  0
  151.5908  144.4683  160.6593 C   0  0  0  0  0  0  0  0  0  0  0  0
  152.2450  144.1952  159.2924 C   0  0  0  0  0  0  0  0  0  0  0  0
  149.6650  138.3478  154.5767 C   0  0  0  0  0  0  0  0  0  0  0  0
  152.2425  136.2127  155.3510 H   0  0  0  0  0  0  0  0  0  0  0  0
  150.6350  135.6893  154.8847 H   0  0  0  0  0  0  0  0  0  0  0  0
  150.9188  136.3203  156.4982 H   0  0  0  0  0  0  0  0  0  0  0  0
  152.8316  138.9518  154.9690 H   0  0  0  0  0  0  0  0  0  0  0  0
  149.4236  141.2697  152.9645 H   0  0  0  0  0  0  0  0  0  0  0  0
  148.1683  140.0580  153.0926 H   0  0  0  0  0  0  0  0  0  0  0  0
  147.8518  140.7113  155.5287 H   0  0  0  0  0  0  0  0  0  0  0  0
  146.3249  141.6330  153.7629 H   0  0  0  0  0  0  0  0  0  0  0  0
  147.4120  142.9956  153.5196 H   0  0  0  0  0  0  0  0  0  0  0  0
  146.5589  142.8026  155.0503 H   0  0  0  0  0  0  0  0  0  0  0  0
  148.7936  143.0944  155.8226 H   0  0  0  0  0  0  0  0  0  0  0  0
  149.4293  141.0281  157.0677 H   0  0  0  0  0  0  0  0  0  0  0  0
  150.6942  140.8534  155.8665 H   0  0  0  0  0  0  0  0  0  0  0  0
  151.5914  143.0929  156.4391 H   0  0  0  0  0  0  0  0  0  0  0  0
  150.3171  143.3296  157.6203 H   0  0  0  0  0  0  0  0  0  0  0  0
  153.5101  141.1731  160.1405 H   0  0  0  0  0  0  0  0  0  0  0  0
  154.2757  142.7376  160.1723 H   0  0  0  0  0  0  0  0  0  0  0  0
  151.6868  141.9991  161.6676 H   0  0  0  0  0  0  0  0  0  0  0  0
  153.2683  142.2078  162.3978 H   0  0  0  0  0  0  0  0  0  0  0  0
  150.5936  144.0273  160.7074 H   0  0  0  0  0  0  0  0  0  0  0  0
  151.4735  145.5409  160.8133 H   0  0  0  0  0  0  0  0  0  0  0  0
  153.2121  144.6962  159.2323 H   0  0  0  0  0  0  0  0  0  0  0  0
  151.6306  144.6361  158.5098 H   0  0  0  0  0  0  0  0  0  0  0  0
  148.6862  137.8937  154.5293 H   0  0  0  0  0  0  0  0  0  0  0  0
  1  2  1  0  0  0  0
  1 21  1  0  0  0  0
  1 22  1  0  0  0  0
  1 23  1  0  0  0  0
  2 20  2  0  0  0  0
  2  3  1  0  0  0  0
  3  4  2  0  0  0  0
  3 24  1  0  0  0  0
  4  5  1  0  0  0  0
  5  6  1  0  0  0  0
  5 20  1  0  0  0  0
  6  7  1  0  0  0  0
  6 25  1  0  0  0  0
  6 26  1  0  0  0  0
  7  8  1  0  0  0  0
  7  9  1  0  0  0  0
  7 27  1  0  0  0  0
  8 28  1  0  0  0  0
  8 29  1  0  0  0  0
  8 30  1  0  0  0  0
  9 10  1  0  0  0  0
  9 31  1  0  0  0  0
 10 11  1  0  0  0  0
 10 32  1  0  0  0  0
 10 33  1  0  0  0  0
 11 12  1  0  0  0  0
 11 34  1  0  0  0  0
 11 35  1  0  0  0  0
 12 13  2  0  0  0  0
 12 14  1  0  0  0  0
 14 19  1  0  0  0  0
 14 15  1  0  0  0  0
 15 16  1  0  0  0  0
 15 36  1  0  0  0  0
 15 37  1  0  0  0  0
 16 17  1  0  0  0  0
 16 38  1  0  0  0  0
 16 39  1  0  0  0  0
 17 18  1  0  0  0  0
 18 19  1  0  0  0  0
 18 40  1  0  0  0  0
 18 41  1  0  0  0  0
 19 42  1  0  0  0  0
 19 43  1  0  0  0  0
 20 44  1  0  0  0  0
M  END
> <s_m_source_file>
AV-unprocessed.smi

> <i_m_source_file_index>
1076

> <i_lp_mmshare_version>
43012

> <i_f3d_flags>
0

> <s_epik_input>
W0NIM11jMVtjSF1ubihbY0hdMSlbQ0gyXVtDQEhdKFtDSDNdKVtOSF1bQ0gyXVtDSDJdQyg9TylOMltDSDJdW0NIMl1PW0NIMl1bQ0gyXTI=

> <s_epik_cmdline>
J2VwaWtfcHl0aG9uJywgJy1waCcsICc3LjAnLCAnLXRuJywgJzgnLCAnLW1hJywgJzIwMCcsICctbWV0YWxfYmluZGluZycsICctaW1hZScsICc8aW5maWxlLm1hZT4nLCAnLW9tYWUnLCAnPG91dGZpbGUubWFlPic=

> <r_lp_tautomer_probability>
1

> <r_epik_Ionization_Penalty>
2.55707

> <r_epik_Ionization_Penalty_Charging>
0

> <r_epik_Ionization_Penalty_Neutral>
2.55707

> <r_epik_State_Penalty>
2.726

> <r_epik_Charging_Adjusted_Penalty>
2.726

> <i_epik_Tot_Q>
0

> <i_epik_Tot_abs_Q>
0

> <r_epik_Metal_State_Penalty>
2.72594

> <b_epik_Metal_Only>
0

> <s_lp_Force_Field>
OPLS_2005

> <r_lp_Energy>
21.3245

> <b_lp_Chiralities_Consistent>
1

> <s_lp_Variant>
AV-unprocessed.smi:1076-3

> <Gold.Version>
5.8.1

> <Gold.Id.Protein>
6NUR|6NUR_protein|mol2

> <Gold.PLP.Fitness>
51.7737

> <Gold.PLP.PLP>
-47.2860

> <Gold.PLP.part.hbond>
-1.9277

> <Gold.PLP.part.metal>
0.0000

> <Gold.PLP.part.buried>
-2.7878

> <Gold.PLP.part.nonpolar>
-42.9697

> <Gold.PLP.part.repulsive>
0.2558

> <Gold.PLP.ligand.clash>
0.0000

> <Gold.PLP.ligand.torsion>
0.7938

> <Gold.PLP.Chemscore.Hbond>
1.9920

> <Gold.PLP.Chemscore.CHOScore>
0.0000

> <Gold.PLP.Chemscore.Metal>
0.0000

> <Gold.Chemscore.Hbonds>
donor molecule, donor type, donor heavy atom, donor atom, acceptor molecule, acceptor atom, score
      L1  H     9    31       P1  8028  0.75
      P1  H  7989  7998       L1     4  0.36

> <Gold.PLP.Chemscore.Internal.Correction>
0.0994

> <Gold.Rescore>
     Score         DG    S(hbond)    S(metal)    S(lipo)     H(rot)  DE(clash)    DE(int)     intcor
     16.84     -18.83       1.98        0.00      99.44       1.91       0.13       1.86       ----

> <Gold.Chemscore.Fitness>
16.8378

> <Gold.Chemscore.DG>
-18.8328

> <Gold.Chemscore.ZeroCoef>
-5.4800

> <Gold.Chemscore.Hbond>
1.9784

> <Gold.Chemscore.Metal>
0.0000

> <Gold.Chemscore.Lipo>
99.4371

> <Gold.Chemscore.Internal_Hbond>
0.0000

> <Gold.Chemscore.DEClash>
0.1349

> <Gold.Chemscore.DEInternal>
1.8600

> <Gold.Chemscore.Rot>
1.9098

> <Gold.Chemscore.Internal.Correction>
   9.000000E+99

> <Gold.Chemscore.Hbonds>
donor molecule, donor type, donor heavy atom, donor atom, acceptor molecule, acceptor atom, score
      L1  H     9    31       P1  8028  0.73
      P1  H  7989  7998       L1     4  0.35

> <Gold.Chemscore.Hbond.Weighted>
-6.6077

> <Gold.Chemscore.Metal.Weighted>
-0.0000

> <Gold.Chemscore.Lipo.Weighted>
-11.6341

> <Gold.Chemscore.Internal_Hbond.Weighted>
0.0000

> <Gold.Chemscore.DEClash.Weighted>
0.1349

> <Gold.Chemscore.DEInternal.Weighted>
1.8600

> <Gold.Chemscore.Rot.Weighted>
4.8891

> <Gold.Chemscore.Internal.Correction.Weighted>
   9.000000E+99

> <Gold.Protein.RotatedTorsions>
[ 6907 6896 6895 6894 ] final   -8.41 input  -60.11 | X-H torsion
[ 7974 7965 7964 7962 ] final -179.89 input  175.53 | X-H torsion
[ 8008 7997 7996 7995 ] final   22.88 input   59.86 | X-H torsion
[ 10167 10162 10161 10158 ] final -116.44 input  -65.29 | X-H torsion
[ 10718 10713 10712 10709 ] final   33.37 input   66.30 | X-H torsion
[ 10763 10752 10751 10750 ] final  107.12 input  -60.55 | X-H torsion
[ 11005 11000 10999 10996 ] final  -76.90 input  -57.11 | X-H torsion

> <Gold.Protein.ActiveResidues>
 VAL166  LYS551  ARG553  GLY616  TRP617  ASP618  TYR619  PRO620  LYS621  CYS622 
 ASP623  PHE694  ASN695  SER759  ASP760  ASP761  ALA762  ILE779  LEU786  VAL792 
 PHE793  MET794  SER795  GLU796  ALA797  LYS798  CYS799  TRP800  GLU811  SER814 

> <Gold.Protein.RotatedAtoms>
  151.4341  135.1013  159.9650 H   0  0  0  0  0  0  0  0  0  0  0  0  # atno 6907 bound_to 6896
  152.4946  133.8590  159.7251 H   0  0  0  0  0  0  0  0  0  0  0  0  # atno 6908 bound_to 6896
  150.9135  133.6910  159.2877 H   0  0  0  0  0  0  0  0  0  0  0  0  # atno 6909 bound_to 6896
  144.7140  140.0649  143.6431 H   0  0  0  0  0  0  0  0  0  0  0  0  # atno 7974 bound_to 7965
  154.9724  140.3092  155.4982 H   0  0  0  0  0  0  0  0  0  0  0  0  # atno 8008 bound_to 7997
  156.2964  140.2281  156.4757 H   0  0  0  0  0  0  0  0  0  0  0  0  # atno 8009 bound_to 7997
  154.7864  140.0442  157.1155 H   0  0  0  0  0  0  0  0  0  0  0  0  # atno 8010 bound_to 7997
  140.0792  143.4804  152.1935 H   0  0  0  0  0  0  0  0  0  0  0  0  # atno 10167 bound_to 10162
  157.2970  130.7331  149.6644 H   0  0  0  0  0  0  0  0  0  0  0  0  # atno 10718 bound_to 10713
  153.4023  135.3855  155.1995 H   0  0  0  0  0  0  0  0  0  0  0  0  # atno 10763 bound_to 10752
  154.8730  135.3774  154.4603 H   0  0  0  0  0  0  0  0  0  0  0  0  # atno 10764 bound_to 10752
  153.5102  135.7087  153.5847 H   0  0  0  0  0  0  0  0  0  0  0  0  # atno 10765 bound_to 10752
  141.1657  133.7001  156.7740 H   0  0  0  0  0  0  0  0  0  0  0  0  # atno 11005 bound_to 11000
  145.9833  139.2958  143.1029 LP  0  0  0  0  0  0  0  0  0  0  0  0  # atno 17320 bound_to 7965
  145.8986  140.9257  143.0515 LP  0  0  0  0  0  0  0  0  0  0  0  0  # atno 17321 bound_to 7965
  139.5790  144.7501  151.3690 LP  0  0  0  0  0  0  0  0  0  0  0  0  # atno 17342 bound_to 10162
  140.7086  143.7449  150.7526 LP  0  0  0  0  0  0  0  0  0  0  0  0  # atno 17343 bound_to 10162
  155.9669  130.4291  150.4819 LP  0  0  0  0  0  0  0  0  0  0  0  0  # atno 17370 bound_to 10713
  157.2793  131.0603  151.2208 LP  0  0  0  0  0  0  0  0  0  0  0  0  # atno 17371 bound_to 10713
  140.2443  134.8589  157.3605 LP  0  0  0  0  0  0  0  0  0  0  0  0  # atno 17394 bound_to 11000
  140.1765  134.4544  155.7799 LP  0  0  0  0  0  0  0  0  0  0  0  0  # atno 17395 bound_to 11000

$$$$
