#       Name:                AV-unprocessed.smi:72
#       Creating user name   scv26
#       Creation time:       Thu Mar 26 17:03:51 2020


#       File generated by GOLD software.
#

@<TRIPOS>MOLECULE
AV-unprocessed.smi:72
    41    42     1
SMALL
NO_CHARGES


@<TRIPOS>ATOM
      1 ****        -2.5047   4.4079   1.0278 N.2            1 S1                 0.0000
      2 ****        -2.0819   3.2798   0.6566 C.2            1 S1                 0.0000
      3 ****        -0.6630   2.9976   0.6629 N.2            1 S1                 0.0000
      4 ****        -0.2787   1.8246   0.2630 C.2            1 S1                 0.0000
      5 ****        -1.2283   0.8145  -0.1833 N.am           1 S1                 0.0000
      6 ****        -0.7556  -0.5523  -0.6417 C.3            1 S1                 0.0000
      7 ****         0.4859  -0.4169  -1.2691 O.3            1 S1                 0.0000
      8 ****         1.3419  -1.4844  -0.8761 C.3            1 S1                 0.0000
      9 ****         2.8218  -1.1153  -1.0818 C.3            1 S1                 0.0000
     10 ****         3.2001  -1.3465  -2.4223 O.3            1 S1                 0.0000
     11 ****         0.9234  -1.7583   0.5752 C.3            1 S1                 0.0000
     12 ****         1.5587  -0.8572   1.4676 O.3            1 S1                 0.0000
     13 ****        -0.5874  -1.5575   0.5184 C.3            1 S1                 0.0000
     14 ****        -1.1471  -1.1718   1.7625 O.3            1 S1                 0.0000
     15 ****        -2.6172   1.1124  -0.1613 C.2            1 S1                 0.0000
     16 ****        -3.4077   0.2357  -0.5107 O.2            1 S1                 0.0000
     17 ****        -3.0136   2.3479   0.2552 N.pl3          1 S1                -1.0000
     18 ****        -1.4693  -0.8931  -1.3928 H              1 S1                 0.0000
     19 ****         1.0880  -2.3637  -1.4718 H              1 S1                 0.0000
     20 ****         1.1806  -2.7724   0.8826 H              1 S1                 0.0000
     21 ****        -1.0566  -2.4908   0.2045 H              1 S1                 0.0000
     22 ****        -3.5109   4.4755   0.9775 H              1 S1                 0.0000
     23 ****         0.7687   1.5220   0.2389 H              1 S1                 0.0000
     24 ****         3.0143  -0.0776  -0.8072 H              1 S1                 0.0000
     25 ****         3.4557  -1.7418  -0.4535 H              1 S1                 0.0000
     26 ****         4.1093  -1.1096  -2.5229 H              1 S1                 0.0000
     27 ****         1.2128  -1.0061   2.3346 H              1 S1                 0.0000
     28 ****        -0.8401  -0.3019   1.9689 H              1 S1                 0.0000
     29 ****        -1.9112   5.1510   1.3367 LP             1 S1                 0.0000
     30 ****        -0.0008   3.6833   0.9652 LP             1 S1                 0.0000
     31 ****         0.8987   0.4546  -1.0045 LP             1 S1                 0.0000
     32 ****         0.3611  -0.4391  -2.2611 LP             1 S1                 0.0000
     33 ****         2.6370  -0.7893  -3.0326 LP             1 S1                 0.0000
     34 ****         3.0770  -2.3135  -2.6455 LP             1 S1                 0.0000
     35 ****         1.3735   0.0844   1.1866 LP             1 S1                 0.0000
     36 ****         2.5457  -1.0178   1.4650 LP             1 S1                 0.0000
     37 ****        -0.8584  -1.8105   2.4757 LP             1 S1                 0.0000
     38 ****        -2.1450  -1.1720   1.6989 LP             1 S1                 0.0000
     39 ****        -3.0665  -0.6587  -0.8002 LP             1 S1                 0.0000
     40 ****        -4.3909   0.4179  -0.5051 LP             1 S1                 0.0000
     41 ****        -3.9863   2.5793   0.2697 LP             1 S1                 0.0000
@<TRIPOS>BOND
    1    1    2 2     
    2    1   22 1     
    3    2   17 1     
    4    2    3 1     
    5    3    4 2     
    6    4    5 1     
    7    4   23 1     
    8    5    6 1     
    9    5   15 am    
   10    6   18 1     
   11    6   13 1     
   12    6    7 1     
   13    7    8 1     
   14    8   19 1     
   15    8    9 1     
   16    8   11 1     
   17    9   10 1     
   18    9   24 1     
   19    9   25 1     
   20   10   26 1     
   21   11   20 1     
   22   11   12 1     
   23   11   13 1     
   24   12   27 1     
   25   13   21 1     
   26   13   14 1     
   27   14   28 1     
   28   15   16 2     
   29   15   17 1     
   30    1   29 1     
   31    3   30 1     
   32    7   31 1     
   33    7   32 1     
   34   10   33 1     
   35   10   34 1     
   36   12   35 1     
   37   12   36 1     
   38   14   37 1     
   39   14   38 1     
   40   16   39 1     
   41   16   40 1     
   42   17   41 1     
@<TRIPOS>SUBSTRUCTURE
      1 S1             1
@<TRIPOS>SET
LONE_PAIRS      STATIC     ATOMS    <user>   **** ""
13 29 30 31 32 33 34 35 36 37 38 39 40 41
DONOR_HYDROGENS      STATIC     ATOMS    <user>   **** ""
4 22 26 27 28
ATOM$BLUE        STATIC     ATOMS    COLORGROUP SYSTEM
13 29 30 31 32 33 34 35 36 37 38 39 40 41
ATOM$RED        STATIC     ATOMS    COLORGROUP SYSTEM
4 22 26 27 28
