AV-unprocessed.smi:1461|AV-procd|sdf|5931|dock1
  -GOLD-   22720 6 13D 1   1.00000     0.00000
 Structure written by MMmdl.
 42 43  0  0  0  0  0  0  0  0  2 V2000
  153.4401  143.7234  159.1672 C   0  0  0  0  0  0  0  0  0  0  0  0
  152.0666  143.9803  158.5301 C   0  0  0  0  0  0  0  0  0  0  0  0
  151.4110  145.2333  159.1366 C   0  0  0  0  0  0  0  0  0  0  0  0
  151.1698  142.7283  158.6451 C   0  0  0  0  0  0  0  0  0  0  0  0
  150.0782  142.7235  157.6760 N   0  0  0  0  0  0  0  0  0  0  0  0
  149.7368  141.6812  156.9060 C   0  0  0  0  0  0  0  0  0  0  0  0
  150.3020  140.5886  156.9455 O   0  0  0  0  0  0  0  0  0  0  0  0
  148.7243  141.9958  156.0816 N   0  0  0  0  0  0  0  0  0  0  0  0
  148.1738  141.1940  155.0434 C   0  0  0  0  0  0  0  0  0  0  0  0
  149.0097  140.4045  154.2126 C   0  0  0  0  0  0  0  0  0  0  0  0
  148.4401  139.5659  153.2363 C   0  0  0  0  0  0  0  0  0  0  0  0
  147.0408  139.5163  153.1159 C   0  0  0  0  0  0  0  0  0  0  0  0
  146.2723  140.2693  153.9298 N   0  3  0  0  0  0  0  0  0  0  0  0
  146.7605  141.1074  154.8784 C   0  0  0  0  0  0  0  0  0  0  0  0
  145.8299  141.8424  155.6489 N   0  0  0  0  0  0  0  0  0  0  0  0
  145.0867  141.1957  156.7239 C   0  0  0  0  0  0  0  0  0  0  0  0
  143.9745  142.1776  157.0825 C   0  0  0  0  0  0  0  0  0  0  0  0
  143.6323  142.7941  155.7294 C   0  0  0  0  0  0  0  0  0  0  0  0
  144.9766  142.8301  154.9946 C   0  0  0  0  0  0  0  0  0  0  0  0
  153.3497  143.5131  160.2334 H   0  0  0  0  0  0  0  0  0  0  0  0
  154.0953  144.5874  159.0527 H   0  0  0  0  0  0  0  0  0  0  0  0
  153.9364  142.8718  158.7010 H   0  0  0  0  0  0  0  0  0  0  0  0
  152.2379  144.1799  157.4715 H   0  0  0  0  0  0  0  0  0  0  0  0
  151.1952  145.0933  160.1962 H   0  0  0  0  0  0  0  0  0  0  0  0
  150.4756  145.4814  158.6350 H   0  0  0  0  0  0  0  0  0  0  0  0
  152.0655  146.1002  159.0430 H   0  0  0  0  0  0  0  0  0  0  0  0
  151.7652  141.8214  158.5256 H   0  0  0  0  0  0  0  0  0  0  0  0
  150.7316  142.6763  159.6424 H   0  0  0  0  0  0  0  0  0  0  0  0
  149.5574  143.5828  157.5776 H   0  0  0  0  0  0  0  0  0  0  0  0
  148.4151  142.9565  156.1034 H   0  0  0  0  0  0  0  0  0  0  0  0
  150.0837  140.4139  154.3253 H   0  0  0  0  0  0  0  0  0  0  0  0
  149.0681  138.9611  152.5986 H   0  0  0  0  0  0  0  0  0  0  0  0
  146.5151  138.8987  152.4020 H   0  0  0  0  0  0  0  0  0  0  0  0
  144.6502  140.2593  156.3741 H   0  0  0  0  0  0  0  0  0  0  0  0
  145.7276  140.9799  157.5792 H   0  0  0  0  0  0  0  0  0  0  0  0
  143.1212  141.6979  157.5628 H   0  0  0  0  0  0  0  0  0  0  0  0
  144.3565  142.9461  157.7561 H   0  0  0  0  0  0  0  0  0  0  0  0
  142.9394  142.1420  155.1958 H   0  0  0  0  0  0  0  0  0  0  0  0
  143.1698  143.7778  155.8139 H   0  0  0  0  0  0  0  0  0  0  0  0
  145.4332  143.8142  155.1035 H   0  0  0  0  0  0  0  0  0  0  0  0
  144.8520  142.6272  153.9301 H   0  0  0  0  0  0  0  0  0  0  0  0
  145.2601  140.2097  153.8186 H   0  0  0  0  0  0  0  0  0  0  0  0
  1  2  1  0  0  0  0
  1 20  1  0  0  0  0
  1 21  1  0  0  0  0
  1 22  1  0  0  0  0
  2  3  1  0  0  0  0
  2  4  1  0  0  0  0
  2 23  1  0  0  0  0
  3 24  1  0  0  0  0
  3 25  1  0  0  0  0
  3 26  1  0  0  0  0
  4  5  1  0  0  0  0
  4 27  1  0  0  0  0
  4 28  1  0  0  0  0
  5  6  1  0  0  0  0
  5 29  1  0  0  0  0
  6  7  2  0  0  0  0
  6  8  1  0  0  0  0
  8  9  1  0  0  0  0
  8 30  1  0  0  0  0
  9 14  1  0  0  0  0
  9 10  2  0  0  0  0
 10 11  1  0  0  0  0
 10 31  1  0  0  0  0
 11 12  2  0  0  0  0
 11 32  1  0  0  0  0
 12 13  1  0  0  0  0
 12 33  1  0  0  0  0
 13 14  2  0  0  0  0
 13 42  1  0  0  0  0
 14 15  1  0  0  0  0
 15 19  1  0  0  0  0
 15 16  1  0  0  0  0
 16 17  1  0  0  0  0
 16 34  1  0  0  0  0
 16 35  1  0  0  0  0
 17 18  1  0  0  0  0
 17 36  1  0  0  0  0
 17 37  1  0  0  0  0
 18 19  1  0  0  0  0
 18 38  1  0  0  0  0
 18 39  1  0  0  0  0
 19 40  1  0  0  0  0
 19 41  1  0  0  0  0
M  CHG  1  13   1
M  END
> <s_m_source_file>
AV-unprocessed.smi

> <i_m_source_file_index>
1461

> <i_lp_mmshare_version>
43012

> <i_f3d_flags>
0

> <s_epik_input>
W0NIM11bQ0hdKFtDSDNdKVtDSDJdW05IXUMoPU8pW05IXWMxW2NIXVtjSF1bY0hdbmMxTjJbQ0gyXVtDSDJdW0NIMl1bQ0gyXTI=

> <s_epik_cmdline>
J2VwaWtfcHl0aG9uJywgJy1waCcsICc3LjAnLCAnLXRuJywgJzgnLCAnLW1hJywgJzIwMCcsICctbWV0YWxfYmluZGluZycsICctaW1hZScsICc8aW5maWxlLm1hZT4nLCAnLW9tYWUnLCAnPG91dGZpbGUubWFlPic=

> <r_lp_tautomer_probability>
0.999994

> <r_epik_Ionization_Penalty>
1.09853

> <r_epik_Ionization_Penalty_Charging>
1.09851

> <r_epik_Ionization_Penalty_Neutral>
2.1796e-05

> <r_epik_State_Penalty>
1.15544

> <r_epik_Charging_Adjusted_Penalty>
2.25394

> <i_epik_Tot_Q>
1

> <i_epik_Tot_abs_Q>
1

> <r_epik_Metal_State_Penalty>
1.24304

> <b_epik_Metal_Only>
0

> <s_lp_Force_Field>
OPLS_2005

> <r_lp_Energy>
38.2179

> <b_lp_Chiralities_Consistent>
1

> <s_lp_Variant>
AV-unprocessed.smi:1461-2

> <Gold.Version>
5.8.1

> <Gold.Id.Protein>
6NUR|6NUR_protein|mol2

> <Gold.PLP.Fitness>
48.2508

> <Gold.PLP.PLP>
-37.6923

> <Gold.PLP.part.hbond>
-3.0000

> <Gold.PLP.part.metal>
0.0000

> <Gold.PLP.part.buried>
-2.7511

> <Gold.PLP.part.nonpolar>
-33.3484

> <Gold.PLP.part.repulsive>
0.3550

> <Gold.PLP.ligand.clash>
0.0000

> <Gold.PLP.ligand.torsion>
0.8017

> <Gold.PLP.Chemscore.Hbond>
3.9040

> <Gold.PLP.Chemscore.CHOScore>
0.0000

> <Gold.PLP.Chemscore.Metal>
0.0000

> <Gold.Chemscore.Hbonds>
donor molecule, donor type, donor heavy atom, donor atom, acceptor molecule, acceptor atom, score
      L1  H     5    29       P1  8028  0.18
      L1  H     8    30       P1  8028  0.91
      L1  H    13    42       P1 10175  1.54

> <Gold.PLP.Chemscore.Internal.Correction>
0.4498

> <Gold.Rescore>
     Score         DG    S(hbond)    S(metal)    S(lipo)     H(rot)  DE(clash)    DE(int)     intcor
     20.62     -22.81       2.94        0.00      93.81       1.35       0.04       2.16       ----

> <Gold.Chemscore.Fitness>
20.6180

> <Gold.Chemscore.DG>
-22.8099

> <Gold.Chemscore.ZeroCoef>
-5.4800

> <Gold.Chemscore.Hbond>
2.9356

> <Gold.Chemscore.Metal>
0.0000

> <Gold.Chemscore.Lipo>
93.8140

> <Gold.Chemscore.Internal_Hbond>
0.0000

> <Gold.Chemscore.DEClash>
0.0359

> <Gold.Chemscore.DEInternal>
2.1560

> <Gold.Chemscore.Rot>
1.3482

> <Gold.Chemscore.Internal.Correction>
   9.000000E+99

> <Gold.Chemscore.Hbonds>
donor molecule, donor type, donor heavy atom, donor atom, acceptor molecule, acceptor atom, score
      L1  H     5    29       P1  8028  0.12
      L1  H     8    30       P1  8028  0.82
      L1  H    13    42       P1 10175  0.73

> <Gold.Chemscore.Hbond.Weighted>
-9.8051

> <Gold.Chemscore.Metal.Weighted>
-0.0000

> <Gold.Chemscore.Lipo.Weighted>
-10.9762

> <Gold.Chemscore.Internal_Hbond.Weighted>
0.0000

> <Gold.Chemscore.DEClash.Weighted>
0.0359

> <Gold.Chemscore.DEInternal.Weighted>
2.1560

> <Gold.Chemscore.Rot.Weighted>
3.4514

> <Gold.Chemscore.Internal.Correction.Weighted>
   9.000000E+99

> <Gold.Protein.RotatedTorsions>
[ 6907 6896 6895 6894 ] final   56.57 input  -60.11 | X-H torsion
[ 7974 7965 7964 7962 ] final  153.24 input  175.53 | X-H torsion
[ 8008 7997 7996 7995 ] final -142.33 input   59.86 | X-H torsion
[ 10167 10162 10161 10158 ] final  -55.56 input  -65.29 | X-H torsion
[ 10718 10713 10712 10709 ] final -135.60 input   66.30 | X-H torsion
[ 10763 10752 10751 10750 ] final   23.18 input  -60.55 | X-H torsion
[ 11005 11000 10999 10996 ] final  133.71 input  -57.11 | X-H torsion

> <Gold.Protein.ActiveResidues>
 VAL166  LYS551  ARG553  GLY616  TRP617  ASP618  TYR619  PRO620  LYS621  CYS622 
 ASP623  PHE694  ASN695  SER759  ASP760  ASP761  ALA762  ILE779  LEU786  VAL792 
 PHE793  MET794  SER795  GLU796  ALA797  LYS798  CYS799  TRP800  GLU811  SER814 

> <Gold.Protein.RotatedAtoms>
  152.3649  134.6819  160.0194 H   0  0  0  0  0  0  0  0  0  0  0  0  # atno 6907 bound_to 6896
  151.7130  133.3307  159.3303 H   0  0  0  0  0  0  0  0  0  0  0  0  # atno 6908 bound_to 6896
  150.7631  134.6450  159.6302 H   0  0  0  0  0  0  0  0  0  0  0  0  # atno 6909 bound_to 6896
  144.8168  139.6774  143.6118 H   0  0  0  0  0  0  0  0  0  0  0  0  # atno 7974 bound_to 7965
  155.4925  140.0569  157.2951 H   0  0  0  0  0  0  0  0  0  0  0  0  # atno 8008 bound_to 7997
  154.4618  140.2000  156.0176 H   0  0  0  0  0  0  0  0  0  0  0  0  # atno 8009 bound_to 7997
  156.0903  140.3234  155.7811 H   0  0  0  0  0  0  0  0  0  0  0  0  # atno 8010 bound_to 7997
  140.6368  143.2486  151.5097 H   0  0  0  0  0  0  0  0  0  0  0  0  # atno 10167 bound_to 10162
  156.2680  130.7249  151.1206 H   0  0  0  0  0  0  0  0  0  0  0  0  # atno 10718 bound_to 10713
  153.0858  135.6632  153.9953 H   0  0  0  0  0  0  0  0  0  0  0  0  # atno 10763 bound_to 10752
  153.9563  135.2978  155.3437 H   0  0  0  0  0  0  0  0  0  0  0  0  # atno 10764 bound_to 10752
  154.7265  135.5142  153.8967 H   0  0  0  0  0  0  0  0  0  0  0  0  # atno 10765 bound_to 10752
  139.9869  134.9529  156.9763 H   0  0  0  0  0  0  0  0  0  0  0  0  # atno 11005 bound_to 11000
  146.2472  139.6122  142.9452 LP  0  0  0  0  0  0  0  0  0  0  0  0  # atno 17320 bound_to 7965
  145.5196  141.0432  143.2443 LP  0  0  0  0  0  0  0  0  0  0  0  0  # atno 17321 bound_to 7965
  139.5578  144.2232  152.1641 LP  0  0  0  0  0  0  0  0  0  0  0  0  # atno 17342 bound_to 10162
  140.1491  144.5131  150.6698 LP  0  0  0  0  0  0  0  0  0  0  0  0  # atno 17343 bound_to 10162
  157.7274  131.0639  150.5867 LP  0  0  0  0  0  0  0  0  0  0  0  0  # atno 17370 bound_to 10713
  156.5961  130.4342  149.5916 LP  0  0  0  0  0  0  0  0  0  0  0  0  # atno 17371 bound_to 10713
  140.4985  134.1121  155.7246 LP  0  0  0  0  0  0  0  0  0  0  0  0  # atno 17394 bound_to 11000
  141.1532  133.8931  157.2045 LP  0  0  0  0  0  0  0  0  0  0  0  0  # atno 17395 bound_to 11000

$$$$
