AV-unprocessed.smi:155|AV-procd|sdf|1272|dock1
  -GOLD-   2262018533D 1   1.00000     0.00000
 Structure written by MMmdl.
 63 66  0  0  0  0  0  0  0  0  2 V2000
  143.4580  133.2039  151.4767 C   0  0  0  0  0  0  0  0  0  0  0  0
  144.8745  132.8637  151.4640 N   0  0  0  0  0  0  0  0  0  0  0  0
  145.2780  132.6404  150.0796 C   0  0  0  0  0  0  0  0  0  0  0  0
  145.6332  133.9533  152.0792 C   0  0  0  0  0  0  0  0  0  0  0  0
  145.3735  135.3086  151.3891 C   0  0  0  0  0  0  0  0  0  0  0  0
  146.0485  136.4242  152.0988 N   0  3  1  0  0  0  0  0  0  0  0  0
  146.0678  137.6730  151.2939 C   0  0  0  0  0  0  0  0  0  0  0  0
  146.6099  138.9117  152.0347 C   0  0  0  0  0  0  0  0  0  0  0  0
  147.8145  138.6404  152.9492 C   0  0  0  0  0  0  0  0  0  0  0  0
  147.3916  138.1840  154.2719 N   0  0  0  0  0  0  0  0  0  0  0  0
  148.2849  138.4533  155.2470 C   0  0  0  0  0  0  0  0  0  0  0  0
  148.5364  137.4756  156.1512 N   0  0  0  0  0  0  0  0  0  0  0  0
  149.4148  137.6899  157.1362 C   0  0  0  0  0  0  0  0  0  0  0  0
  150.1378  138.7842  157.3879 N   0  0  0  0  0  0  0  0  0  0  0  0
  149.8910  139.7639  156.4715 C   0  0  0  0  0  0  0  0  0  0  0  0
  148.9868  139.6840  155.3762 C   0  0  0  0  0  0  0  0  0  0  0  0
  149.0056  140.8720  154.6550 N   0  0  0  0  0  0  0  0  0  0  0  0
  149.8704  141.6149  155.2915 C   0  0  0  0  0  0  0  0  0  0  0  0
  150.4462  141.0283  156.3959 N   0  0  0  0  0  0  0  0  0  0  0  0
  151.4315  141.6190  157.2842 C   0  0  0  0  0  0  0  0  0  0  0  0
  151.0996  143.0806  157.6427 C   0  0  2  0  0  0  0  0  0  0  0  0
  151.3658  143.9048  156.5237 O   0  0  0  0  0  0  0  0  0  0  0  0
  151.9217  143.5863  158.8422 C   0  0  1  0  0  0  0  0  0  0  0  0
  151.6326  145.0330  159.2468 C   0  0  0  0  0  0  0  0  0  0  0  0
  152.0211  145.0784  160.7163 C   0  0  0  0  0  0  0  0  0  0  0  0
  152.0941  143.6055  161.1282 C   0  0  0  0  0  0  0  0  0  0  0  0
  151.5687  142.8831  160.0234 O   0  0  0  0  0  0  0  0  0  0  0  0
  146.8110  136.8522  154.4200 C   0  0  0  0  0  0  0  0  0  0  0  0
  145.6020  136.6040  153.5036 C   0  0  0  0  0  0  0  0  0  0  0  0
  143.1045  133.3419  152.4993 H   0  0  0  0  0  0  0  0  0  0  0  0
  142.8655  132.4041  151.0309 H   0  0  0  0  0  0  0  0  0  0  0  0
  143.2637  134.1230  150.9215 H   0  0  0  0  0  0  0  0  0  0  0  0
  146.3159  132.3177  150.0102 H   0  0  0  0  0  0  0  0  0  0  0  0
  145.1598  133.5440  149.4796 H   0  0  0  0  0  0  0  0  0  0  0  0
  144.6701  131.8549  149.6294 H   0  0  0  0  0  0  0  0  0  0  0  0
  145.3851  134.0182  153.1397 H   0  0  0  0  0  0  0  0  0  0  0  0
  146.6981  133.7240  152.0326 H   0  0  0  0  0  0  0  0  0  0  0  0
  145.6991  135.2676  150.3499 H   0  0  0  0  0  0  0  0  0  0  0  0
  144.3019  135.5092  151.3489 H   0  0  0  0  0  0  0  0  0  0  0  0
  146.6850  137.4880  150.4136 H   0  0  0  0  0  0  0  0  0  0  0  0
  145.0629  137.8895  150.9282 H   0  0  0  0  0  0  0  0  0  0  0  0
  146.8977  139.6480  151.2836 H   0  0  0  0  0  0  0  0  0  0  0  0
  145.8144  139.3877  152.6102 H   0  0  0  0  0  0  0  0  0  0  0  0
  148.4912  137.9183  152.4906 H   0  0  0  0  0  0  0  0  0  0  0  0
  148.3788  139.5678  153.0628 H   0  0  0  0  0  0  0  0  0  0  0  0
  149.5596  136.8670  157.8208 H   0  0  0  0  0  0  0  0  0  0  0  0
  150.1115  142.6191  154.9734 H   0  0  0  0  0  0  0  0  0  0  0  0
  151.4816  141.0088  158.1866 H   0  0  0  0  0  0  0  0  0  0  0  0
  152.4120  141.5550  156.8102 H   0  0  0  0  0  0  0  0  0  0  0  0
  150.0369  143.1634  157.8752 H   0  0  0  0  0  0  0  0  0  0  0  0
  150.5415  144.1607  156.1391 H   0  0  0  0  0  0  0  0  0  0  0  0
  152.9902  143.4557  158.6585 H   0  0  0  0  0  0  0  0  0  0  0  0
  152.1792  145.7567  158.6416 H   0  0  0  0  0  0  0  0  0  0  0  0
  150.5679  145.2466  159.1454 H   0  0  0  0  0  0  0  0  0  0  0  0
  152.9874  145.5635  160.8577 H   0  0  0  0  0  0  0  0  0  0  0  0
  151.2817  145.6274  161.3000 H   0  0  0  0  0  0  0  0  0  0  0  0
  153.1295  143.3042  161.2941 H   0  0  0  0  0  0  0  0  0  0  0  0
  151.5290  143.3958  162.0366 H   0  0  0  0  0  0  0  0  0  0  0  0
  147.5755  136.0937  154.2440 H   0  0  0  0  0  0  0  0  0  0  0  0
  146.4895  136.7307  155.4560 H   0  0  0  0  0  0  0  0  0  0  0  0
  144.8540  137.3935  153.5896 H   0  0  0  0  0  0  0  0  0  0  0  0
  145.1084  135.6980  153.8550 H   0  0  0  0  0  0  0  0  0  0  0  0
  147.0152  136.1372  152.1636 H   0  0  0  0  0  0  0  0  0  0  0  0
  1  2  1  0  0  0  0
  1 30  1  0  0  0  0
  1 31  1  0  0  0  0
  1 32  1  0  0  0  0
  2  3  1  0  0  0  0
  2  4  1  0  0  0  0
  3 33  1  0  0  0  0
  3 34  1  0  0  0  0
  3 35  1  0  0  0  0
  4  5  1  0  0  0  0
  4 36  1  0  0  0  0
  4 37  1  0  0  0  0
  5  6  1  0  0  0  0
  5 38  1  0  0  0  0
  5 39  1  0  0  0  0
  6 29  1  0  0  0  0
  6  7  1  0  0  0  0
  6 63  1  0  0  0  0
  7  8  1  0  0  0  0
  7 40  1  0  0  0  0
  7 41  1  0  0  0  0
  8  9  1  0  0  0  0
  8 42  1  0  0  0  0
  8 43  1  0  0  0  0
  9 10  1  0  0  0  0
  9 44  1  0  0  0  0
  9 45  1  0  0  0  0
 10 11  1  0  0  0  0
 10 28  1  0  0  0  0
 11 16  1  0  0  0  0
 11 12  2  0  0  0  0
 12 13  1  0  0  0  0
 13 14  2  0  0  0  0
 13 46  1  0  0  0  0
 14 15  1  0  0  0  0
 15 19  1  0  0  0  0
 15 16  2  0  0  0  0
 16 17  1  0  0  0  0
 17 18  2  0  0  0  0
 18 19  1  0  0  0  0
 18 47  1  0  0  0  0
 19 20  1  0  0  0  0
 20 21  1  0  0  0  0
 20 48  1  0  0  0  0
 20 49  1  0  0  0  0
 21 22  1  0  0  0  0
 21 23  1  0  0  0  0
 21 50  1  0  0  0  0
 22 51  1  0  0  0  0
 23 27  1  0  0  0  0
 23 24  1  0  0  0  0
 23 52  1  0  0  0  0
 24 25  1  0  0  0  0
 24 53  1  0  0  0  0
 24 54  1  0  0  0  0
 25 26  1  0  0  0  0
 25 55  1  0  0  0  0
 25 56  1  0  0  0  0
 26 27  1  0  0  0  0
 26 57  1  0  0  0  0
 26 58  1  0  0  0  0
 28 29  1  0  0  0  0
 28 59  1  0  0  0  0
 28 60  1  0  0  0  0
 29 61  1  0  0  0  0
 29 62  1  0  0  0  0
M  CHG  1   6   1
M  END
> <s_m_source_file>
AV-unprocessed.smi

> <i_m_source_file_index>
155

> <i_lp_mmshare_version>
43012

> <i_f3d_flags>
0

> <s_epik_input>
W0NIM11OKFtDSDNdKVtDSDJdW0NIMl1OMVtDSDJdW0NIMl1bQ0gyXU4oW0NIMl1bQ0gyXTEpYyhuW2NIXW4yKWMoYzIzKW5bY0hdbjNbQ0gyXVtDQEhdKFtPSF0pW0NAQEhdNFtDSDJdW0NIMl1bQ0gyXU80

> <s_epik_cmdline>
J2VwaWtfcHl0aG9uJywgJy1waCcsICc3LjAnLCAnLXRuJywgJzgnLCAnLW1hJywgJzIwMCcsICctbWV0YWxfYmluZGluZycsICctaW1hZScsICc8aW5maWxlLm1hZT4nLCAnLW9tYWUnLCAnPG91dGZpbGUubWFlPic=

> <r_epik_Ionization_Penalty>
0.0619615

> <r_epik_Ionization_Penalty_Charging>
0.0161638

> <r_epik_Ionization_Penalty_Neutral>
0.0457976

> <r_epik_State_Penalty>
0.403408

> <r_epik_Charging_Adjusted_Penalty>
0.419572

> <i_epik_Tot_Q>
1

> <i_epik_Tot_abs_Q>
1

> <r_epik_Metal_State_Penalty>
0.404222

> <b_epik_Metal_Only>
0

> <s_lp_Force_Field>
OPLS_2005

> <r_lp_Energy>
54.952

> <b_lp_Chiralities_Consistent>
1

> <s_lp_Variant>
AV-unprocessed.smi:155-6

> <Gold.Version>
5.8.1

> <Gold.Id.Protein>
6NUR|6NUR_protein|mol2

> <Gold.PLP.Fitness>
54.7859

> <Gold.PLP.PLP>
-43.5216

> <Gold.PLP.part.hbond>
-2.2318

> <Gold.PLP.part.metal>
0.0000

> <Gold.PLP.part.buried>
1.9469

> <Gold.PLP.part.nonpolar>
-43.6555

> <Gold.PLP.part.repulsive>
0.4517

> <Gold.PLP.ligand.clash>
0.0092

> <Gold.PLP.ligand.torsion>
0.6251

> <Gold.PLP.Chemscore.Hbond>
3.0000

> <Gold.PLP.Chemscore.CHOScore>
0.9998

> <Gold.PLP.Chemscore.Metal>
0.0000

> <Gold.Chemscore.Hbonds>
donor molecule, donor type, donor heavy atom, donor atom, acceptor molecule, acceptor atom, score
      L1  H     6    63       P1  7948  2.00
      L1  H    22    51       P1  8028  1.00
      L1  C    18    47       P1  8028  0.93

> <Gold.PLP.Chemscore.Internal.Correction>
0.5244

> <Gold.Rescore>
     Score         DG    S(hbond)    S(metal)    S(lipo)     H(rot)  DE(clash)    DE(int)     intcor
     15.04     -19.34       1.99        0.00     125.16       2.91       2.94       1.36       ----

> <Gold.Chemscore.Fitness>
15.0376

> <Gold.Chemscore.DG>
-19.3379

> <Gold.Chemscore.ZeroCoef>
-5.4800

> <Gold.Chemscore.Hbond>
1.9943

> <Gold.Chemscore.Metal>
0.0000

> <Gold.Chemscore.Lipo>
125.1633

> <Gold.Chemscore.Internal_Hbond>
0.0000

> <Gold.Chemscore.DEClash>
2.9368

> <Gold.Chemscore.DEInternal>
1.3635

> <Gold.Chemscore.Rot>
2.9090

> <Gold.Chemscore.Internal.Correction>
   9.000000E+99

> <Gold.Chemscore.Hbonds>
donor molecule, donor type, donor heavy atom, donor atom, acceptor molecule, acceptor atom, score
      L1  H     6    63       P1  7948  0.98
      L1  H    22    51       P1  8028  1.00

> <Gold.Chemscore.Hbond.Weighted>
-6.6608

> <Gold.Chemscore.Metal.Weighted>
-0.0000

> <Gold.Chemscore.Lipo.Weighted>
-14.6441

> <Gold.Chemscore.Internal_Hbond.Weighted>
0.0000

> <Gold.Chemscore.DEClash.Weighted>
2.9368

> <Gold.Chemscore.DEInternal.Weighted>
1.3635

> <Gold.Chemscore.Rot.Weighted>
7.4470

> <Gold.Chemscore.Internal.Correction.Weighted>
   9.000000E+99

> <Gold.Protein.RotatedTorsions>
[ 6907 6896 6895 6894 ] final   39.50 input  -60.11 | X-H torsion
[ 7974 7965 7964 7962 ] final   25.34 input  175.53 | X-H torsion
[ 8008 7997 7996 7995 ] final   -7.46 input   59.86 | X-H torsion
[ 10167 10162 10161 10158 ] final   68.76 input  -65.29 | X-H torsion
[ 10718 10713 10712 10709 ] final   76.64 input   66.30 | X-H torsion
[ 10763 10752 10751 10750 ] final -159.08 input  -60.55 | X-H torsion
[ 11005 11000 10999 10996 ] final    3.70 input  -57.11 | X-H torsion

> <Gold.Protein.ActiveResidues>
 VAL166  LYS551  ARG553  GLY616  TRP617  ASP618  TYR619  PRO620  LYS621  CYS622 
 ASP623  PHE694  ASN695  SER759  ASP760  ASP761  ALA762  ILE779  LEU786  VAL792 
 PHE793  MET794  SER795  GLU796  ALA797  LYS798  CYS799  TRP800  GLU811  SER814 

> <Gold.Protein.RotatedAtoms>
  152.1703  134.8839  160.0534 H   0  0  0  0  0  0  0  0  0  0  0  0  # atno 6907 bound_to 6896
  151.9801  133.3750  159.4112 H   0  0  0  0  0  0  0  0  0  0  0  0  # atno 6908 bound_to 6896
  150.6901  134.3970  159.5146 H   0  0  0  0  0  0  0  0  0  0  0  0  # atno 6909 bound_to 6896
  146.1893  139.7480  142.8843 H   0  0  0  0  0  0  0  0  0  0  0  0  # atno 7974 bound_to 7965
  154.5836  140.2406  155.8019 H   0  0  0  0  0  0  0  0  0  0  0  0  # atno 8008 bound_to 7997
  156.2197  140.3001  155.9878 H   0  0  0  0  0  0  0  0  0  0  0  0  # atno 8009 bound_to 7997
  155.2498  140.0410  157.2976 H   0  0  0  0  0  0  0  0  0  0  0  0  # atno 8010 bound_to 7997
  140.0751  144.5119  150.7200 H   0  0  0  0  0  0  0  0  0  0  0  0  # atno 10167 bound_to 10162
  157.6681  130.9784  150.1525 H   0  0  0  0  0  0  0  0  0  0  0  0  # atno 10718 bound_to 10713
  154.7504  135.3091  154.8567 H   0  0  0  0  0  0  0  0  0  0  0  0  # atno 10763 bound_to 10752
  153.9356  135.6780  153.4749 H   0  0  0  0  0  0  0  0  0  0  0  0  # atno 10764 bound_to 10752
  153.1100  135.4871  154.8947 H   0  0  0  0  0  0  0  0  0  0  0  0  # atno 10765 bound_to 10752
  140.5902  133.9931  155.8085 H   0  0  0  0  0  0  0  0  0  0  0  0  # atno 11005 bound_to 11000
  145.3841  141.0362  143.3161 LP  0  0  0  0  0  0  0  0  0  0  0  0  # atno 17320 bound_to 7965
  144.8457  139.5401  143.6880 LP  0  0  0  0  0  0  0  0  0  0  0  0  # atno 17321 bound_to 7965
  140.7106  143.2502  151.4593 LP  0  0  0  0  0  0  0  0  0  0  0  0  # atno 17342 bound_to 10162
  139.5812  144.1704  152.1971 LP  0  0  0  0  0  0  0  0  0  0  0  0  # atno 17343 bound_to 10162
  156.2321  130.3683  149.8433 LP  0  0  0  0  0  0  0  0  0  0  0  0  # atno 17370 bound_to 10713
  156.6257  130.8644  151.3485 LP  0  0  0  0  0  0  0  0  0  0  0  0  # atno 17371 bound_to 10713
  141.0940  133.9872  157.3191 LP  0  0  0  0  0  0  0  0  0  0  0  0  # atno 17394 bound_to 11000
  139.9278  135.0201  156.8294 LP  0  0  0  0  0  0  0  0  0  0  0  0  # atno 17395 bound_to 11000

$$$$
