AV-unprocessed.smi:293|AV-procd|sdf|2251|dock10
  -GOLD-   2262022133D 1   1.00000     0.00000
 Structure written by MMmdl.
 32 33  0  0  0  0  0  0  0  0  1 V2000
  150.1296  134.3970  154.7686 N   0  0  0  0  0  0  0  0  0  0  0  0
  150.5012  135.4926  154.8048 C   0  0  0  0  0  0  0  0  0  0  0  0
  150.9678  136.8680  154.8502 C   0  0  0  0  0  0  0  0  0  0  0  0
  152.1972  137.2202  154.3737 N   0  0  0  0  0  0  0  0  0  0  0  0
  152.1506  138.5227  154.6258 C   0  0  0  0  0  0  0  0  0  0  0  0
  151.0104  138.9248  155.1975 N   0  0  0  0  0  0  0  0  0  0  0  0
  150.5768  140.2486  155.6064 C   0  0  0  0  0  0  0  0  0  0  0  0
  151.5208  140.8367  156.6560 C   0  0  0  0  0  0  0  0  0  0  0  0
  152.5041  140.1962  157.0268 O   0  0  0  0  0  0  0  0  0  0  0  0
  151.2114  142.0574  157.1209 N   0  0  0  0  0  0  0  0  0  0  0  0
  151.9878  142.8143  158.0973 C   0  0  0  0  0  0  0  0  0  0  0  0
  151.9670  142.0782  159.4507 C   0  0  0  0  0  0  0  0  0  0  0  0
  152.7158  142.8688  160.5357 C   0  0  0  0  0  0  0  0  0  0  0  0
  152.1523  144.2913  160.6772 C   0  0  0  0  0  0  0  0  0  0  0  0
  152.1777  145.0332  159.3317 C   0  0  0  0  0  0  0  0  0  0  0  0
  151.4286  144.2453  158.2448 C   0  0  0  0  0  0  0  0  0  0  0  0
  150.2120  137.8406  155.3555 N   0  0  0  0  0  0  0  0  0  0  0  0
  152.9591  139.1976  154.3850 H   0  0  0  0  0  0  0  0  0  0  0  0
  150.5311  140.9046  154.7358 H   0  0  0  0  0  0  0  0  0  0  0  0
  149.5657  140.1760  156.0096 H   0  0  0  0  0  0  0  0  0  0  0  0
  150.3821  142.5040  156.7561 H   0  0  0  0  0  0  0  0  0  0  0  0
  153.0239  142.8721  157.7578 H   0  0  0  0  0  0  0  0  0  0  0  0
  150.9354  141.9201  159.7691 H   0  0  0  0  0  0  0  0  0  0  0  0
  152.4126  141.0884  159.3453 H   0  0  0  0  0  0  0  0  0  0  0  0
  152.6478  142.3458  161.4900 H   0  0  0  0  0  0  0  0  0  0  0  0
  153.7762  142.9186  160.2850 H   0  0  0  0  0  0  0  0  0  0  0  0
  151.1280  144.2437  161.0492 H   0  0  0  0  0  0  0  0  0  0  0  0
  152.7258  144.8470  161.4197 H   0  0  0  0  0  0  0  0  0  0  0  0
  151.7351  146.0232  159.4447 H   0  0  0  0  0  0  0  0  0  0  0  0
  153.2114  145.1906  159.0208 H   0  0  0  0  0  0  0  0  0  0  0  0
  151.4995  144.7790  157.2964 H   0  0  0  0  0  0  0  0  0  0  0  0
  150.3676  144.2031  158.4954 H   0  0  0  0  0  0  0  0  0  0  0  0
  1  2  3  0  0  0  0
  2  3  1  0  0  0  0
  3 17  2  0  0  0  0
  3  4  1  0  0  0  0
  4  5  2  0  0  0  0
  5  6  1  0  0  0  0
  5 18  1  0  0  0  0
  6  7  1  0  0  0  0
  6 17  1  0  0  0  0
  7  8  1  0  0  0  0
  7 19  1  0  0  0  0
  7 20  1  0  0  0  0
  8  9  2  0  0  0  0
  8 10  1  0  0  0  0
 10 11  1  0  0  0  0
 10 21  1  0  0  0  0
 11 16  1  0  0  0  0
 11 12  1  0  0  0  0
 11 22  1  0  0  0  0
 12 13  1  0  0  0  0
 12 23  1  0  0  0  0
 12 24  1  0  0  0  0
 13 14  1  0  0  0  0
 13 25  1  0  0  0  0
 13 26  1  0  0  0  0
 14 15  1  0  0  0  0
 14 27  1  0  0  0  0
 14 28  1  0  0  0  0
 15 16  1  0  0  0  0
 15 29  1  0  0  0  0
 15 30  1  0  0  0  0
 16 31  1  0  0  0  0
 16 32  1  0  0  0  0
M  END
> <s_m_source_file>
AV-unprocessed.smi

> <i_m_source_file_index>
293

> <i_lp_mmshare_version>
43012

> <i_f3d_flags>
0

> <s_epik_input>
TiNDYzFuW2NIXW4objEpW0NIMl1DKD1PKVtOSF1bQ0hdMltDSDJdW0NIMl1bQ0gyXVtDSDJdW0NIMl0y

> <s_epik_cmdline>
J2VwaWtfcHl0aG9uJywgJy1waCcsICc3LjAnLCAnLXRuJywgJzgnLCAnLW1hJywgJzIwMCcsICctbWV0YWxfYmluZGluZycsICctaW1hZScsICc8aW5maWxlLm1hZT4nLCAnLW9tYWUnLCAnPG91dGZpbGUubWFlPic=

> <r_lp_tautomer_probability>
1

> <r_epik_Ionization_Penalty>
5.31112e-08

> <r_epik_Ionization_Penalty_Charging>
0

> <r_epik_Ionization_Penalty_Neutral>
5.31112e-08

> <r_epik_State_Penalty>
-0

> <r_epik_Charging_Adjusted_Penalty>
0

> <i_epik_Tot_Q>
0

> <i_epik_Tot_abs_Q>
0

> <r_epik_Metal_State_Penalty>
-0

> <b_epik_Metal_Only>
0

> <s_lp_Force_Field>
OPLS_2005

> <r_lp_Energy>
12.166

> <b_lp_Chiralities_Consistent>
1

> <s_lp_Variant>
AV-unprocessed.smi:293-1

> <Gold.Version>
5.8.1

> <Gold.Id.Protein>
6NUR|6NUR_protein|mol2

> <Gold.PLP.Fitness>
43.5316

> <Gold.PLP.PLP>
-38.0720

> <Gold.PLP.part.hbond>
-2.0000

> <Gold.PLP.part.metal>
0.0000

> <Gold.PLP.part.buried>
-4.4548

> <Gold.PLP.part.nonpolar>
-31.1351

> <Gold.PLP.part.repulsive>
0.4265

> <Gold.PLP.ligand.clash>
0.0000

> <Gold.PLP.ligand.torsion>
0.0444

> <Gold.PLP.Chemscore.Hbond>
1.8480

> <Gold.PLP.Chemscore.CHOScore>
0.0000

> <Gold.PLP.Chemscore.Metal>
0.0000

> <Gold.Chemscore.Hbonds>
donor molecule, donor type, donor heavy atom, donor atom, acceptor molecule, acceptor atom, score
      P1  H  7997  8008       L1     9  1.00
      P1  H 10752 10763       L1     4  0.85

> <Gold.PLP.Chemscore.Internal.Correction>
0.0044

> <Gold.Rescore>
     Score         DG    S(hbond)    S(metal)    S(lipo)     H(rot)  DE(clash)    DE(int)     intcor
     14.49     -16.06       1.94        0.00      78.05       1.96       0.19       1.37       ----

> <Gold.Chemscore.Fitness>
14.4943

> <Gold.Chemscore.DG>
-16.0587

> <Gold.Chemscore.ZeroCoef>
-5.4800

> <Gold.Chemscore.Hbond>
1.9364

> <Gold.Chemscore.Metal>
0.0000

> <Gold.Chemscore.Lipo>
78.0545

> <Gold.Chemscore.Internal_Hbond>
0.0000

> <Gold.Chemscore.DEClash>
0.1914

> <Gold.Chemscore.DEInternal>
1.3730

> <Gold.Chemscore.Rot>
1.9615

> <Gold.Chemscore.Internal.Correction>
   9.000000E+99

> <Gold.Chemscore.Hbonds>
donor molecule, donor type, donor heavy atom, donor atom, acceptor molecule, acceptor atom, score
      P1  H  7997  8008       L1     9  0.95
      P1  H 10752 10763       L1     4  0.21

> <Gold.Chemscore.Hbond.Weighted>
-6.4677

> <Gold.Chemscore.Metal.Weighted>
-0.0000

> <Gold.Chemscore.Lipo.Weighted>
-9.1324

> <Gold.Chemscore.Internal_Hbond.Weighted>
0.0000

> <Gold.Chemscore.DEClash.Weighted>
0.1914

> <Gold.Chemscore.DEInternal.Weighted>
1.3730

> <Gold.Chemscore.Rot.Weighted>
5.0214

> <Gold.Chemscore.Internal.Correction.Weighted>
   9.000000E+99

> <Gold.Protein.RotatedTorsions>
[ 6907 6896 6895 6894 ] final -153.15 input  -60.11 | X-H torsion
[ 7974 7965 7964 7962 ] final  164.98 input  175.53 | X-H torsion
[ 8008 7997 7996 7995 ] final  -48.41 input   59.86 | X-H torsion
[ 10167 10162 10161 10158 ] final   60.65 input  -65.29 | X-H torsion
[ 10718 10713 10712 10709 ] final   22.07 input   66.30 | X-H torsion
[ 10763 10752 10751 10750 ] final   42.69 input  -60.55 | X-H torsion
[ 11005 11000 10999 10996 ] final -144.26 input  -57.11 | X-H torsion

> <Gold.Protein.ActiveResidues>
 VAL166  LYS551  ARG553  GLY616  TRP617  ASP618  TYR619  PRO620  LYS621  CYS622 
 ASP623  PHE694  ASN695  SER759  ASP760  ASP761  ALA762  ILE779  LEU786  VAL792 
 PHE793  MET794  SER795  GLU796  ALA797  LYS798  CYS799  TRP800  GLU811  SER814 

> <Gold.Protein.RotatedAtoms>
  151.2382  133.4413  159.2606 H   0  0  0  0  0  0  0  0  0  0  0  0  # atno 6907 bound_to 6896
  151.0730  134.9810  159.8328 H   0  0  0  0  0  0  0  0  0  0  0  0  # atno 6908 bound_to 6896
  152.5414  134.2327  159.8884 H   0  0  0  0  0  0  0  0  0  0  0  0  # atno 6909 bound_to 6896
  144.7522  139.8403  143.6362 H   0  0  0  0  0  0  0  0  0  0  0  0  # atno 7974 bound_to 7965
  154.4029  140.1322  156.4335 H   0  0  0  0  0  0  0  0  0  0  0  0  # atno 8008 bound_to 7997
  155.7528  140.3487  155.5139 H   0  0  0  0  0  0  0  0  0  0  0  0  # atno 8009 bound_to 7997
  155.8933  140.1007  157.1393 H   0  0  0  0  0  0  0  0  0  0  0  0  # atno 8010 bound_to 7997
  140.1633  144.4348  150.6698 H   0  0  0  0  0  0  0  0  0  0  0  0  # atno 10167 bound_to 10162
  157.1472  130.6658  149.6000 H   0  0  0  0  0  0  0  0  0  0  0  0  # atno 10718 bound_to 10713
  152.9877  135.6124  154.2990 H   0  0  0  0  0  0  0  0  0  0  0  0  # atno 10763 bound_to 10752
  154.2712  135.2779  155.2739 H   0  0  0  0  0  0  0  0  0  0  0  0  # atno 10764 bound_to 10752
  154.5121  135.5838  153.6670 H   0  0  0  0  0  0  0  0  0  0  0  0  # atno 10765 bound_to 10752
  140.8043  134.2820  157.4966 H   0  0  0  0  0  0  0  0  0  0  0  0  # atno 11005 bound_to 11000
  146.1487  139.4564  143.0062 LP  0  0  0  0  0  0  0  0  0  0  0  0  # atno 17320 bound_to 7965
  145.6904  141.0166  143.1558 LP  0  0  0  0  0  0  0  0  0  0  0  0  # atno 17321 bound_to 7965
  140.6629  143.2258  151.5813 LP  0  0  0  0  0  0  0  0  0  0  0  0  # atno 17342 bound_to 10162
  139.5371  144.2751  152.1274 LP  0  0  0  0  0  0  0  0  0  0  0  0  # atno 17343 bound_to 10162
  155.9777  130.4757  150.6611 LP  0  0  0  0  0  0  0  0  0  0  0  0  # atno 17370 bound_to 10713
  157.4254  131.0842  151.1091 LP  0  0  0  0  0  0  0  0  0  0  0  0  # atno 17371 bound_to 10713
  139.8719  134.9447  156.3889 LP  0  0  0  0  0  0  0  0  0  0  0  0  # atno 17394 bound_to 11000
  140.9263  133.7610  155.9969 LP  0  0  0  0  0  0  0  0  0  0  0  0  # atno 17395 bound_to 11000

$$$$
