#       Name:                AV-unprocessed.smi:3056
#       Creating user name   scv26
#       Creation time:       Fri Mar 27 17:04:40 2020


#       File generated by GOLD software.
#

@<TRIPOS>MOLECULE
AV-unprocessed.smi:3056
    53    54     1
SMALL
NO_CHARGES


@<TRIPOS>ATOM
      1 ****        -5.7161  -3.8536  -2.2002 C.3            1 S1                 0.0000
      2 ****        -4.6780  -2.8479  -1.7928 C.2            1 S1                 0.0000
      3 ****        -3.8676  -2.0379  -2.6377 C.2            1 S1                 0.0000
      4 ****        -3.0485  -1.2499  -1.9614 N.2            1 S1                 0.0000
      5 ****        -3.3047  -1.5259  -0.6633 N.pl3          1 S1                 0.0000
      6 ****        -2.5787  -0.8283   0.3904 C.3            1 S1                 0.0000
      7 ****        -2.9242   0.6727   0.3518 C.3            1 S1                 0.0000
      8 ****        -1.0525  -1.1166   0.3293 C.3            1 S1                 0.0000
      9 ****        -0.7384  -2.6238   0.2916 C.3            1 S1                 0.0000
     10 ****        -0.3510  -0.5147   1.4889 N.4            1 S1                 1.0000
     11 ****         0.3938   0.7356   1.2082 C.3            1 S1                 0.0000
     12 ****         1.7727   0.4955   0.5688 C.2            1 S1                 0.0000
     13 ****         2.1720  -0.6626   0.4375 O.2            1 S1                 0.0000
     14 ****         2.5107   1.5617   0.1773 N.am           1 S1                 0.0000
     15 ****         2.1581   2.9728   0.3631 C.3            1 S1                 0.0000
     16 ****         3.1989   3.6135   1.2981 C.3            1 S1                 0.0000
     17 ****         4.5033   3.4553   0.7455 O.3            1 S1                 0.0000
     18 ****         4.8679   2.0923   0.5356 C.3            1 S1                 0.0000
     19 ****         6.2915   2.0576  -0.0306 C.3            1 S1                 0.0000
     20 ****         3.8457   1.4387  -0.4158 C.3            1 S1                 0.0000
     21 ****        -4.2867  -2.4862  -0.5349 C.2            1 S1                 0.0000
     22 ****        -5.5546  -4.2119  -3.2171 H              1 S1                 0.0000
     23 ****        -6.7200  -3.4305  -2.1638 H              1 S1                 0.0000
     24 ****        -5.7106  -4.7273  -1.5480 H              1 S1                 0.0000
     25 ****        -3.8509  -1.9994  -3.7170 H              1 S1                 0.0000
     26 ****        -2.9530  -1.2219   1.3369 H              1 S1                 0.0000
     27 ****        -2.5332   1.1977   1.2230 H              1 S1                 0.0000
     28 ****        -4.0043   0.8235   0.3477 H              1 S1                 0.0000
     29 ****        -2.5202   1.1545  -0.5394 H              1 S1                 0.0000
     30 ****        -0.6496  -0.6874  -0.5897 H              1 S1                 0.0000
     31 ****        -1.1411  -3.1008  -0.6021 H              1 S1                 0.0000
     32 ****        -1.1539  -3.1373   1.1593 H              1 S1                 0.0000
     33 ****         0.3374  -2.8003   0.2868 H              1 S1                 0.0000
     34 ****        -1.0368  -0.3338   2.2074 H              1 S1                 0.0000
     35 ****        -0.2098   1.3866   0.5758 H              1 S1                 0.0000
     36 ****         0.5457   1.2507   2.1571 H              1 S1                 0.0000
     37 ****         2.1666   3.4748  -0.6056 H              1 S1                 0.0000
     38 ****         1.1625   3.1318   0.7731 H              1 S1                 0.0000
     39 ****         2.9938   4.6772   1.4187 H              1 S1                 0.0000
     40 ****         3.1574   3.1648   2.2919 H              1 S1                 0.0000
     41 ****         4.8614   1.5721   1.4952 H              1 S1                 0.0000
     42 ****         6.6225   1.0326  -0.1985 H              1 S1                 0.0000
     43 ****         6.9960   2.5252   0.6576 H              1 S1                 0.0000
     44 ****         6.3517   2.5888  -0.9809 H              1 S1                 0.0000
     45 ****         4.1298   0.4032  -0.6082 H              1 S1                 0.0000
     46 ****         3.8553   1.9379  -1.3861 H              1 S1                 0.0000
     47 ****        -4.6233  -2.8313   0.4317 H              1 S1                 0.0000
     48 ****         0.3140  -1.1877   1.8436 H              1 S1                 0.0000
     49 ****        -2.3872  -0.5958  -2.3285 LP             1 S1                 0.0000
     50 ****         1.6028  -1.4255   0.7441 LP             1 S1                 0.0000
     51 ****         3.0653  -0.8397   0.0244 LP             1 S1                 0.0000
     52 ****         5.1650   3.8677   1.3717 LP             1 S1                 0.0000
     53 ****         4.5350   3.9309  -0.1335 LP             1 S1                 0.0000
@<TRIPOS>BOND
    1    1    2 1     
    2    1   22 1     
    3    1   23 1     
    4    1   24 1     
    5    2   21 2     
    6    2    3 1     
    7    3    4 2     
    8    3   25 1     
    9    4    5 1     
   10    5    6 1     
   11    5   21 1     
   12    6    7 1     
   13    6    8 1     
   14    6   26 1     
   15    7   27 1     
   16    7   28 1     
   17    7   29 1     
   18    8    9 1     
   19    8   10 1     
   20    8   30 1     
   21    9   31 1     
   22    9   32 1     
   23    9   33 1     
   24   10   11 1     
   25   10   34 1     
   26   10   48 1     
   27   11   12 1     
   28   11   35 1     
   29   11   36 1     
   30   12   13 2     
   31   12   14 am    
   32   14   20 1     
   33   14   15 1     
   34   15   16 1     
   35   15   37 1     
   36   15   38 1     
   37   16   17 1     
   38   16   39 1     
   39   16   40 1     
   40   17   18 1     
   41   18   19 1     
   42   18   20 1     
   43   18   41 1     
   44   19   42 1     
   45   19   43 1     
   46   19   44 1     
   47   20   45 1     
   48   20   46 1     
   49   21   47 1     
   50    4   49 1     
   51   13   50 1     
   52   13   51 1     
   53   17   52 1     
   54   17   53 1     
@<TRIPOS>SUBSTRUCTURE
      1 S1             1
@<TRIPOS>SET
LONE_PAIRS      STATIC     ATOMS    <user>   **** ""
5 49 50 51 52 53
DONOR_HYDROGENS      STATIC     ATOMS    <user>   **** ""
2 34 48
ATOM$BLUE        STATIC     ATOMS    COLORGROUP SYSTEM
5 49 50 51 52 53
ATOM$RED        STATIC     ATOMS    COLORGROUP SYSTEM
2 34 48
