AV-unprocessed.smi:2550|AV-procd|sdf|10011|dock8
  -GOLD-   2272014 53D 1   1.00000     0.00000
 Structure written by MMmdl.
 28 29  0  0  0  0  0  0  0  0  2 V2000
  147.0504  129.4181  154.9369 C   0  0  0  0  0  0  0  0  0  0  0  0
  146.6484  129.1614  153.4755 C   0  0  0  0  0  0  0  0  0  0  0  0
  147.7301  128.3866  152.7057 C   0  0  0  0  0  0  0  0  0  0  0  0
  145.4904  128.3478  153.5002 O   0  0  0  0  0  0  0  0  0  0  0  0
  146.2667  130.4398  152.7681 C   0  0  0  0  0  0  0  0  0  0  0  0
  145.8547  130.6509  151.4797 C   0  0  0  0  0  0  0  0  0  0  0  0
  145.6423  132.0115  151.4263 N   0  0  0  0  0  0  0  0  0  0  0  0
  145.2672  132.7953  150.2877 C   0  0  0  0  0  0  0  0  0  0  0  0
  144.7312  134.2186  150.4436 C   0  0  0  0  0  0  0  0  0  0  0  0
  143.8821  133.9591  149.2876 N   0  3  0  0  0  0  0  0  0  0  0  0
  143.9537  132.5281  149.5557 C   0  0  0  0  0  0  0  0  0  0  0  0
  145.9541  132.6112  152.5978 N   0  0  0  0  0  0  0  0  0  0  0  0
  146.3105  131.6753  153.4194 N   0  0  0  0  0  0  0  0  0  0  0  0
  147.9406  130.0454  154.9965 H   0  0  0  0  0  0  0  0  0  0  0  0
  147.2713  128.4866  155.4591 H   0  0  0  0  0  0  0  0  0  0  0  0
  146.2546  129.9243  155.4848 H   0  0  0  0  0  0  0  0  0  0  0  0
  148.6536  128.9623  152.6358 H   0  0  0  0  0  0  0  0  0  0  0  0
  147.4074  128.1584  151.6891 H   0  0  0  0  0  0  0  0  0  0  0  0
  147.9691  127.4427  153.1968 H   0  0  0  0  0  0  0  0  0  0  0  0
  144.8334  128.7786  154.0255 H   0  0  0  0  0  0  0  0  0  0  0  0
  145.7020  129.9839  150.6439 H   0  0  0  0  0  0  0  0  0  0  0  0
  146.1131  132.7681  149.5970 H   0  0  0  0  0  0  0  0  0  0  0  0
  144.1481  134.3715  151.3540 H   0  0  0  0  0  0  0  0  0  0  0  0
  145.4670  135.0080  150.2880 H   0  0  0  0  0  0  0  0  0  0  0  0
  142.9523  134.3462  149.3641 H   0  0  0  0  0  0  0  0  0  0  0  0
  144.0424  131.9109  148.6612 H   0  0  0  0  0  0  0  0  0  0  0  0
  143.1480  132.1910  150.2110 H   0  0  0  0  0  0  0  0  0  0  0  0
  144.3497  134.1974  148.4244 H   0  0  0  0  0  0  0  0  0  0  0  0
  1  2  1  0  0  0  0
  1 14  1  0  0  0  0
  1 15  1  0  0  0  0
  1 16  1  0  0  0  0
  2  3  1  0  0  0  0
  2  4  1  0  0  0  0
  2  5  1  0  0  0  0
  3 17  1  0  0  0  0
  3 18  1  0  0  0  0
  3 19  1  0  0  0  0
  4 20  1  0  0  0  0
  5 13  1  0  0  0  0
  5  6  2  0  0  0  0
  6  7  1  0  0  0  0
  6 21  1  0  0  0  0
  7  8  1  0  0  0  0
  7 12  1  0  0  0  0
  8 11  1  0  0  0  0
  8  9  1  0  0  0  0
  8 22  1  0  0  0  0
  9 10  1  0  0  0  0
  9 23  1  0  0  0  0
  9 24  1  0  0  0  0
 10 11  1  0  0  0  0
 10 25  1  0  0  0  0
 10 28  1  0  0  0  0
 11 26  1  0  0  0  0
 11 27  1  0  0  0  0
 12 13  2  0  0  0  0
M  CHG  1  10   1
M  END
> <s_m_source_file>
AV-unprocessed.smi

> <i_m_source_file_index>
2550

> <i_lp_mmshare_version>
43012

> <i_f3d_flags>
0

> <s_epik_input>
W0NIM11DKFtDSDNdKShbT0hdKWMxW2NIXW4obm4xKVtDSF0yW0NIMl1bTkhdW0NIMl0y

> <s_epik_cmdline>
J2VwaWtfcHl0aG9uJywgJy1waCcsICc3LjAnLCAnLXRuJywgJzgnLCAnLW1hJywgJzIwMCcsICctbWV0YWxfYmluZGluZycsICctaW1hZScsICc8aW5maWxlLm1hZT4nLCAnLW9tYWUnLCAnPG91dGZpbGUubWFlPic=

> <r_lp_tautomer_probability>
1

> <r_epik_Ionization_Penalty>
0.215038

> <r_epik_Ionization_Penalty_Charging>
0.215038

> <r_epik_Ionization_Penalty_Neutral>
3.71976e-07

> <r_epik_State_Penalty>
0.20523

> <r_epik_Charging_Adjusted_Penalty>
0.420268

> <i_epik_Tot_Q>
1

> <i_epik_Tot_abs_Q>
1

> <r_epik_Metal_State_Penalty>
0.20531

> <b_epik_Metal_Only>
0

> <s_lp_Force_Field>
OPLS_2005

> <r_lp_Energy>
9.80929

> <b_lp_Chiralities_Consistent>
1

> <s_lp_Variant>
AV-unprocessed.smi:2550-1

> <Gold.Version>
5.8.1

> <Gold.Id.Protein>
6NUR|6NUR_protein|mol2

> <Gold.PLP.Fitness>
35.7834

> <Gold.PLP.PLP>
-24.3123

> <Gold.PLP.part.hbond>
-3.0000

> <Gold.PLP.part.metal>
0.0000

> <Gold.PLP.part.buried>
-4.9205

> <Gold.PLP.part.nonpolar>
-17.4114

> <Gold.PLP.part.repulsive>
0.4011

> <Gold.PLP.ligand.clash>
0.0000

> <Gold.PLP.ligand.torsion>
0.3179

> <Gold.PLP.Chemscore.Hbond>
3.9280

> <Gold.PLP.Chemscore.CHOScore>
0.0000

> <Gold.PLP.Chemscore.Metal>
0.0000

> <Gold.Chemscore.Hbonds>
donor molecule, donor type, donor heavy atom, donor atom, acceptor molecule, acceptor atom, score
      L1  H     4    20       P1 10956  1.00
      L1  H    10    25       P1 10186  2.00
      L1  H    10    28       P1  7921  0.89

> <Gold.PLP.Chemscore.Internal.Correction>
0.3229

> <Gold.Rescore>
     Score         DG    S(hbond)    S(metal)    S(lipo)     H(rot)  DE(clash)    DE(int)     intcor
     17.26     -17.62       2.92        0.00      59.35       1.78       0.00       0.36       ----

> <Gold.Chemscore.Fitness>
17.2570

> <Gold.Chemscore.DG>
-17.6170

> <Gold.Chemscore.ZeroCoef>
-5.4800

> <Gold.Chemscore.Hbond>
2.9171

> <Gold.Chemscore.Metal>
0.0000

> <Gold.Chemscore.Lipo>
59.3529

> <Gold.Chemscore.Internal_Hbond>
0.0000

> <Gold.Chemscore.DEClash>
0.0009

> <Gold.Chemscore.DEInternal>
0.3591

> <Gold.Chemscore.Rot>
1.7775

> <Gold.Chemscore.Internal.Correction>
   9.000000E+99

> <Gold.Chemscore.Hbonds>
donor molecule, donor type, donor heavy atom, donor atom, acceptor molecule, acceptor atom, score
      L1  H     4    20       P1 10956  1.00
      L1  H    10    25       P1 10186  0.98
      L1  H    10    28       P1  7921  0.81

> <Gold.Chemscore.Hbond.Weighted>
-9.7431

> <Gold.Chemscore.Metal.Weighted>
-0.0000

> <Gold.Chemscore.Lipo.Weighted>
-6.9443

> <Gold.Chemscore.Internal_Hbond.Weighted>
0.0000

> <Gold.Chemscore.DEClash.Weighted>
0.0009

> <Gold.Chemscore.DEInternal.Weighted>
0.3591

> <Gold.Chemscore.Rot.Weighted>
4.5503

> <Gold.Chemscore.Internal.Correction.Weighted>
   9.000000E+99

> <Gold.Protein.RotatedTorsions>
[ 6907 6896 6895 6894 ] final  106.91 input  -60.11 | X-H torsion
[ 7974 7965 7964 7962 ] final   33.95 input  175.53 | X-H torsion
[ 8008 7997 7996 7995 ] final -104.93 input   59.86 | X-H torsion
[ 10167 10162 10161 10158 ] final   87.58 input  -65.29 | X-H torsion
[ 10718 10713 10712 10709 ] final  121.66 input   66.30 | X-H torsion
[ 10763 10752 10751 10750 ] final   90.42 input  -60.55 | X-H torsion
[ 11005 11000 10999 10996 ] final  -99.71 input  -57.11 | X-H torsion

> <Gold.Protein.ActiveResidues>
 VAL166  LYS551  ARG553  GLY616  TRP617  ASP618  TYR619  PRO620  LYS621  CYS622 
 ASP623  PHE694  ASN695  SER759  ASP760  ASP761  ALA762  ILE779  LEU786  VAL792 
 PHE793  MET794  SER795  GLU796  ALA797  LYS798  CYS799  TRP800  GLU811  SER814 

> <Gold.Protein.RotatedAtoms>
  152.5175  133.9311  159.7580 H   0  0  0  0  0  0  0  0  0  0  0  0  # atno 6907 bound_to 6896
  150.9662  133.6384  159.2753 H   0  0  0  0  0  0  0  0  0  0  0  0  # atno 6908 bound_to 6896
  151.3612  135.0910  159.9488 H   0  0  0  0  0  0  0  0  0  0  0  0  # atno 6909 bound_to 6896
  146.1386  139.6332  142.9178 H   0  0  0  0  0  0  0  0  0  0  0  0  # atno 7974 bound_to 7965
  154.8924  140.0415  157.1846 H   0  0  0  0  0  0  0  0  0  0  0  0  # atno 8008 bound_to 7997
  154.8527  140.2932  155.5567 H   0  0  0  0  0  0  0  0  0  0  0  0  # atno 8009 bound_to 7997
  156.2996  140.2462  156.3489 H   0  0  0  0  0  0  0  0  0  0  0  0  # atno 8010 bound_to 7997
  139.8759  144.6467  150.8897 H   0  0  0  0  0  0  0  0  0  0  0  0  # atno 10167 bound_to 10162
  157.5801  131.1075  150.8204 H   0  0  0  0  0  0  0  0  0  0  0  0  # atno 10718 bound_to 10713
  153.1974  135.4434  155.0225 H   0  0  0  0  0  0  0  0  0  0  0  0  # atno 10763 bound_to 10752
  154.8127  135.3301  154.7264 H   0  0  0  0  0  0  0  0  0  0  0  0  # atno 10764 bound_to 10752
  153.7712  135.6984  153.4961 H   0  0  0  0  0  0  0  0  0  0  0  0  # atno 10765 bound_to 10752
  141.1298  133.8342  157.1007 H   0  0  0  0  0  0  0  0  0  0  0  0  # atno 11005 bound_to 11000
  145.5098  141.0435  143.2494 LP  0  0  0  0  0  0  0  0  0  0  0  0  # atno 17320 bound_to 7965
  144.7767  139.6614  143.7172 LP  0  0  0  0  0  0  0  0  0  0  0  0  # atno 17321 bound_to 7965
  140.7753  143.3625  151.1800 LP  0  0  0  0  0  0  0  0  0  0  0  0  # atno 17342 bound_to 10162
  139.7241  143.9177  152.2996 LP  0  0  0  0  0  0  0  0  0  0  0  0  # atno 17343 bound_to 10162
  156.8653  130.5127  149.5300 LP  0  0  0  0  0  0  0  0  0  0  0  0  # atno 17370 bound_to 10713
  156.0846  130.5848  150.9625 LP  0  0  0  0  0  0  0  0  0  0  0  0  # atno 17371 bound_to 10713
  140.0335  134.9889  157.0826 LP  0  0  0  0  0  0  0  0  0  0  0  0  # atno 17394 bound_to 11000
  140.4247  134.1843  155.7165 LP  0  0  0  0  0  0  0  0  0  0  0  0  # atno 17395 bound_to 11000

$$$$
