AV-unprocessed.smi:2318|AV-procd|sdf|9275|dock4
  -GOLD-   2272012493D 1   1.00000     0.00000
 Structure written by MMmdl.
 37 38  0  0  0  0  0  0  0  0  1 V2000
  137.8559  137.1434  154.6194 C   0  0  0  0  0  0  0  0  0  0  0  0
  139.2010  136.9736  154.1140 N   0  0  0  0  0  0  0  0  0  0  0  0
  139.9839  137.8799  153.4278 C   0  0  0  0  0  0  0  0  0  0  0  0
  141.1762  137.2697  153.1589 C   0  0  0  0  0  0  0  0  0  0  0  0
  141.0181  135.9766  153.7294 C   0  0  0  0  0  0  0  0  0  0  0  0
  142.0641  135.0215  153.6550 N   0  0  0  0  0  0  0  0  0  0  0  0
  143.2420  135.1412  153.0188 C   0  0  0  0  0  0  0  0  0  0  0  0
  143.6042  136.1283  152.3784 O   0  0  0  0  0  0  0  0  0  0  0  0
  143.9850  134.0348  153.1669 N   0  0  0  0  0  0  0  0  0  0  0  0
  145.3257  133.8165  152.6194 C   0  0  2  0  0  0  0  0  0  0  0  0
  145.2419  132.7911  151.4599 C   0  0  0  0  0  0  0  0  0  0  0  0
  146.4825  132.7141  150.5636 C   0  0  0  0  0  0  0  0  0  0  0  0
  146.0036  132.0146  149.2893 C   0  0  0  0  0  0  0  0  0  0  0  0
  144.5075  132.3330  149.1672 C   0  0  0  0  0  0  0  0  0  0  0  0
  144.1190  133.0763  150.4513 C   0  0  0  0  0  0  0  0  0  0  0  0
  146.2700  133.3934  153.7680 C   0  0  0  0  0  0  0  0  0  0  0  0
  145.9477  132.1703  154.1910 F   0  0  0  0  0  0  0  0  0  0  0  0
  147.5374  133.3809  153.3532 F   0  0  0  0  0  0  0  0  0  0  0  0
  146.1627  134.2214  154.8063 F   0  0  0  0  0  0  0  0  0  0  0  0
  139.8358  135.7976  154.3028 N   0  0  0  0  0  0  0  0  0  0  0  0
  137.4852  138.1382  154.3714 H   0  0  0  0  0  0  0  0  0  0  0  0
  137.8509  137.0227  155.7031 H   0  0  0  0  0  0  0  0  0  0  0  0
  137.1969  136.3982  154.1727 H   0  0  0  0  0  0  0  0  0  0  0  0
  139.6314  138.8731  153.1902 H   0  0  0  0  0  0  0  0  0  0  0  0
  142.0253  137.6840  152.6359 H   0  0  0  0  0  0  0  0  0  0  0  0
  141.8981  134.1532  154.1419 H   0  0  0  0  0  0  0  0  0  0  0  0
  143.5987  133.2792  153.7136 H   0  0  0  0  0  0  0  0  0  0  0  0
  145.7113  134.7520  152.2101 H   0  0  0  0  0  0  0  0  0  0  0  0
  145.0693  131.7981  151.8784 H   0  0  0  0  0  0  0  0  0  0  0  0
  146.8299  133.7194  150.3206 H   0  0  0  0  0  0  0  0  0  0  0  0
  147.3090  132.1781  151.0303 H   0  0  0  0  0  0  0  0  0  0  0  0
  146.5680  132.3355  148.4133 H   0  0  0  0  0  0  0  0  0  0  0  0
  146.1396  130.9367  149.3881 H   0  0  0  0  0  0  0  0  0  0  0  0
  144.2971  132.9420  148.2872 H   0  0  0  0  0  0  0  0  0  0  0  0
  143.9355  131.4097  149.0680 H   0  0  0  0  0  0  0  0  0  0  0  0
  143.1389  132.7724  150.8205 H   0  0  0  0  0  0  0  0  0  0  0  0
  144.0714  134.1470  150.2452 H   0  0  0  0  0  0  0  0  0  0  0  0
  1  2  1  0  0  0  0
  1 21  1  0  0  0  0
  1 22  1  0  0  0  0
  1 23  1  0  0  0  0
  2 20  1  0  0  0  0
  2  3  1  0  0  0  0
  3  4  2  0  0  0  0
  3 24  1  0  0  0  0
  4  5  1  0  0  0  0
  4 25  1  0  0  0  0
  5  6  1  0  0  0  0
  5 20  2  0  0  0  0
  6  7  1  0  0  0  0
  6 26  1  0  0  0  0
  7  8  2  0  0  0  0
  7  9  1  0  0  0  0
  9 10  1  0  0  0  0
  9 27  1  0  0  0  0
 10 11  1  0  0  0  0
 10 16  1  0  0  0  0
 10 28  1  0  0  0  0
 11 15  1  0  0  0  0
 11 12  1  0  0  0  0
 11 29  1  0  0  0  0
 12 13  1  0  0  0  0
 12 30  1  0  0  0  0
 12 31  1  0  0  0  0
 13 14  1  0  0  0  0
 13 32  1  0  0  0  0
 13 33  1  0  0  0  0
 14 15  1  0  0  0  0
 14 34  1  0  0  0  0
 14 35  1  0  0  0  0
 15 36  1  0  0  0  0
 15 37  1  0  0  0  0
 16 17  1  0  0  0  0
 16 18  1  0  0  0  0
 16 19  1  0  0  0  0
M  END
> <s_m_source_file>
AV-unprocessed.smi

> <i_m_source_file_index>
2318

> <i_lp_mmshare_version>
43012

> <i_f3d_flags>
0

> <s_epik_input>
W0NIM11uMVtjSF1bY0hdYyhuMSlbTkhdQyg9TylbTkhdW0NAQEhdKEMoRikoRilGKVtDSF0yW0NIMl1bQ0gyXVtDSDJdW0NIMl0y

> <s_epik_cmdline>
J2VwaWtfcHl0aG9uJywgJy1waCcsICc3LjAnLCAnLXRuJywgJzgnLCAnLW1hJywgJzIwMCcsICctbWV0YWxfYmluZGluZycsICctaW1hZScsICc8aW5maWxlLm1hZT4nLCAnLW9tYWUnLCAnPG91dGZpbGUubWFlPic=

> <r_lp_tautomer_probability>
1

> <r_epik_Ionization_Penalty>
2.39546e-05

> <r_epik_Ionization_Penalty_Charging>
0

> <r_epik_Ionization_Penalty_Neutral>
2.39546e-05

> <r_epik_State_Penalty>
-0

> <r_epik_Charging_Adjusted_Penalty>
0

> <i_epik_Tot_Q>
0

> <i_epik_Tot_abs_Q>
0

> <r_epik_Metal_State_Penalty>
-0

> <b_epik_Metal_Only>
0

> <s_lp_Force_Field>
OPLS_2005

> <r_lp_Energy>
23.9909

> <b_lp_Chiralities_Consistent>
1

> <s_lp_Variant>
AV-unprocessed.smi:2318-1

> <Gold.Version>
5.8.1

> <Gold.Id.Protein>
6NUR|6NUR_protein|mol2

> <Gold.PLP.Fitness>
41.9107

> <Gold.PLP.PLP>
-36.6275

> <Gold.PLP.part.hbond>
-2.2073

> <Gold.PLP.part.metal>
0.0000

> <Gold.PLP.part.buried>
-6.5153

> <Gold.PLP.part.nonpolar>
-28.1489

> <Gold.PLP.part.repulsive>
0.3107

> <Gold.PLP.ligand.clash>
0.0000

> <Gold.PLP.ligand.torsion>
0.3637

> <Gold.PLP.Chemscore.Hbond>
1.8938

> <Gold.PLP.Chemscore.CHOScore>
0.0000

> <Gold.PLP.Chemscore.Metal>
0.0000

> <Gold.Chemscore.Hbonds>
donor molecule, donor type, donor heavy atom, donor atom, acceptor molecule, acceptor atom, score
      L1  H     9    27       P1 10957  0.89
      P1  H 11000 11005       L1    20  1.00

> <Gold.PLP.Chemscore.Internal.Correction>
0.3295

> <Gold.Rescore>
     Score         DG    S(hbond)    S(metal)    S(lipo)     H(rot)  DE(clash)    DE(int)     intcor
     16.04     -18.24       2.13        0.00      76.64       1.30       0.31       1.89       ----

> <Gold.Chemscore.Fitness>
16.0419

> <Gold.Chemscore.DG>
-18.2388

> <Gold.Chemscore.ZeroCoef>
-5.4800

> <Gold.Chemscore.Hbond>
2.1320

> <Gold.Chemscore.Metal>
0.0000

> <Gold.Chemscore.Lipo>
76.6371

> <Gold.Chemscore.Internal_Hbond>
0.0000

> <Gold.Chemscore.DEClash>
0.3077

> <Gold.Chemscore.DEInternal>
1.8892

> <Gold.Chemscore.Rot>
1.3003

> <Gold.Chemscore.Internal.Correction>
   9.000000E+99

> <Gold.Chemscore.Hbonds>
donor molecule, donor type, donor heavy atom, donor atom, acceptor molecule, acceptor atom, score
      L1  H     9    27       P1 10957  0.85
      P1  H 11000 11005       L1    20  0.68

> <Gold.Chemscore.Hbond.Weighted>
-7.1210

> <Gold.Chemscore.Metal.Weighted>
-0.0000

> <Gold.Chemscore.Lipo.Weighted>
-8.9665

> <Gold.Chemscore.Internal_Hbond.Weighted>
0.0000

> <Gold.Chemscore.DEClash.Weighted>
0.3077

> <Gold.Chemscore.DEInternal.Weighted>
1.8892

> <Gold.Chemscore.Rot.Weighted>
3.3287

> <Gold.Chemscore.Internal.Correction.Weighted>
   9.000000E+99

> <Gold.Protein.RotatedTorsions>
[ 6907 6896 6895 6894 ] final   70.24 input  -60.11 | X-H torsion
[ 7974 7965 7964 7962 ] final -131.72 input  175.53 | X-H torsion
[ 8008 7997 7996 7995 ] final    0.34 input   59.86 | X-H torsion
[ 10167 10162 10161 10158 ] final  -65.34 input  -65.29 | X-H torsion
[ 10718 10713 10712 10709 ] final   72.33 input   66.30 | X-H torsion
[ 10763 10752 10751 10750 ] final  -34.55 input  -60.55 | X-H torsion
[ 11005 11000 10999 10996 ] final   55.93 input  -57.11 | X-H torsion

> <Gold.Protein.ActiveResidues>
 VAL166  LYS551  ARG553  GLY616  TRP617  ASP618  TYR619  PRO620  LYS621  CYS622 
 ASP623  PHE694  ASN695  SER759  ASP760  ASP761  ALA762  ILE779  LEU786  VAL792 
 PHE793  MET794  SER795  GLU796  ALA797  LYS798  CYS799  TRP800  GLU811  SER814 

> <Gold.Protein.RotatedAtoms>
  152.4737  134.4898  159.9691 H   0  0  0  0  0  0  0  0  0  0  0  0  # atno 6907 bound_to 6896
  151.4919  133.3517  159.2862 H   0  0  0  0  0  0  0  0  0  0  0  0  # atno 6908 bound_to 6896
  150.8762  134.8172  159.7253 H   0  0  0  0  0  0  0  0  0  0  0  0  # atno 6909 bound_to 6896
  144.9353  140.7176  143.4880 H   0  0  0  0  0  0  0  0  0  0  0  0  # atno 7974 bound_to 7965
  154.6670  140.2603  155.7048 H   0  0  0  0  0  0  0  0  0  0  0  0  # atno 8008 bound_to 7997
  156.2643  140.2837  156.1086 H   0  0  0  0  0  0  0  0  0  0  0  0  # atno 8009 bound_to 7997
  155.1225  140.0377  157.2744 H   0  0  0  0  0  0  0  0  0  0  0  0  # atno 8010 bound_to 7997
  140.5737  143.2320  151.6487 H   0  0  0  0  0  0  0  0  0  0  0  0  # atno 10167 bound_to 10162
  157.6495  130.9573  150.0913 H   0  0  0  0  0  0  0  0  0  0  0  0  # atno 10718 bound_to 10713
  153.8486  135.6851  153.4795 H   0  0  0  0  0  0  0  0  0  0  0  0  # atno 10763 bound_to 10752
  153.1411  135.4657  154.9494 H   0  0  0  0  0  0  0  0  0  0  0  0  # atno 10764 bound_to 10752
  154.7812  135.3269  154.7932 H   0  0  0  0  0  0  0  0  0  0  0  0  # atno 10765 bound_to 10752
  140.0568  134.5658  155.9198 H   0  0  0  0  0  0  0  0  0  0  0  0  # atno 11005 bound_to 11000
  145.3077  139.1829  143.4655 LP  0  0  0  0  0  0  0  0  0  0  0  0  # atno 17320 bound_to 7965
  146.3264  140.3077  142.8624 LP  0  0  0  0  0  0  0  0  0  0  0  0  # atno 17321 bound_to 7965
  139.5131  144.3454  152.0701 LP  0  0  0  0  0  0  0  0  0  0  0  0  # atno 17342 bound_to 10162
  140.2595  144.4082  150.6191 LP  0  0  0  0  0  0  0  0  0  0  0  0  # atno 17343 bound_to 10162
  156.1861  130.3652  149.8970 LP  0  0  0  0  0  0  0  0  0  0  0  0  # atno 17370 bound_to 10713
  156.6910  130.8896  151.3588 LP  0  0  0  0  0  0  0  0  0  0  0  0  # atno 17371 bound_to 10713
  141.1956  133.6588  156.5649 LP  0  0  0  0  0  0  0  0  0  0  0  0  # atno 17394 bound_to 11000
  140.3831  134.7506  157.4674 LP  0  0  0  0  0  0  0  0  0  0  0  0  # atno 17395 bound_to 11000

$$$$
