AV-unprocessed.smi:213|AV-procd|sdf|1641|dock10
  -GOLD-   2262020 13D 1   1.00000     0.00000
 Structure written by MMmdl.
 58 61  0  0  0  0  0  0  0  0  1 V2000
  151.6557  139.2048  154.4334 C   0  0  0  0  0  0  0  0  0  0  0  0
  150.8011  140.3009  155.0940 C   0  0  2  0  0  0  0  0  0  0  0  0
  150.9365  140.3104  156.6333 C   0  0  0  0  0  0  0  0  0  0  0  0
  151.6568  141.4519  157.1993 N   0  0  0  0  0  0  0  0  0  0  0  0
  151.9346  141.2410  158.6160 C   0  0  0  0  0  0  0  0  0  0  0  0
  152.6985  142.4238  159.2358 C   0  0  0  0  0  0  0  0  0  0  0  0
  151.9553  143.6227  159.0427 O   0  0  0  0  0  0  0  0  0  0  0  0
  151.7011  143.8931  157.6683 C   0  0  0  0  0  0  0  0  0  0  0  0
  150.9371  142.7144  157.0400 C   0  0  0  0  0  0  0  0  0  0  0  0
  149.3961  140.1797  154.6946 N   0  0  0  0  0  0  0  0  0  0  0  0
  148.6868  141.3038  154.0866 C   0  0  0  0  0  0  0  0  0  0  0  0
  148.7587  138.9807  154.7679 C   0  0  0  0  0  0  0  0  0  0  0  0
  149.1609  138.0959  155.7194 N   0  0  0  0  0  0  0  0  0  0  0  0
  148.5670  136.9051  155.8362 C   0  0  0  0  0  0  0  0  0  0  0  0
  147.5688  136.3969  155.1128 N   0  0  0  0  0  0  0  0  0  0  0  0
  147.1671  137.2706  154.1465 C   0  0  0  0  0  0  0  0  0  0  0  0
  147.7001  138.5693  153.9032 C   0  0  0  0  0  0  0  0  0  0  0  0
  147.0440  139.1438  152.8185 N   0  0  0  0  0  0  0  0  0  0  0  0
  146.1686  138.2472  152.4549 C   0  0  0  0  0  0  0  0  0  0  0  0
  146.1767  137.0903  153.1986 N   0  0  0  0  0  0  0  0  0  0  0  0
  145.3292  135.9264  153.0132 C   0  0  0  0  0  0  0  0  0  0  0  0
  145.0099  135.6703  151.5278 C   0  0  2  0  0  0  0  0  0  0  0  0
  144.0628  136.6091  151.0552 O   0  0  0  0  0  0  0  0  0  0  0  0
  144.5282  134.2308  151.2589 C   0  0  2  0  0  0  0  0  0  0  0  0
  145.4988  133.1053  151.6248 C   0  0  0  0  0  0  0  0  0  0  0  0
  144.9715  131.9774  150.7664 C   0  0  0  0  0  0  0  0  0  0  0  0
  144.5706  132.7129  149.4886 C   0  0  0  0  0  0  0  0  0  0  0  0
  144.1899  134.0272  149.8893 O   0  0  0  0  0  0  0  0  0  0  0  0
  152.7142  139.3475  154.6509 H   0  0  0  0  0  0  0  0  0  0  0  0
  151.5424  139.2215  153.3491 H   0  0  0  0  0  0  0  0  0  0  0  0
  151.3802  138.2097  154.7820 H   0  0  0  0  0  0  0  0  0  0  0  0
  151.1690  141.2620  154.7455 H   0  0  0  0  0  0  0  0  0  0  0  0
  149.9421  140.2584  157.0796 H   0  0  0  0  0  0  0  0  0  0  0  0
  151.4448  139.3940  156.9359 H   0  0  0  0  0  0  0  0  0  0  0  0
  150.9994  141.0932  159.1587 H   0  0  0  0  0  0  0  0  0  0  0  0
  152.5184  140.3292  158.7475 H   0  0  0  0  0  0  0  0  0  0  0  0
  152.8458  142.2628  160.3036 H   0  0  0  0  0  0  0  0  0  0  0  0
  153.6876  142.5235  158.7861 H   0  0  0  0  0  0  0  0  0  0  0  0
  151.1179  144.8103  157.5870 H   0  0  0  0  0  0  0  0  0  0  0  0
  152.6430  144.0646  157.1448 H   0  0  0  0  0  0  0  0  0  0  0  0
  150.7788  142.9335  155.9849 H   0  0  0  0  0  0  0  0  0  0  0  0
  149.9493  142.6384  157.4970 H   0  0  0  0  0  0  0  0  0  0  0  0
  147.6623  141.3602  154.4563 H   0  0  0  0  0  0  0  0  0  0  0  0
  148.6576  141.1945  153.0020 H   0  0  0  0  0  0  0  0  0  0  0  0
  149.1727  142.2519  154.3150 H   0  0  0  0  0  0  0  0  0  0  0  0
  148.9471  136.2681  156.6212 H   0  0  0  0  0  0  0  0  0  0  0  0
  145.4958  138.4023  151.6240 H   0  0  0  0  0  0  0  0  0  0  0  0
  145.8374  135.0632  153.4444 H   0  0  0  0  0  0  0  0  0  0  0  0
  144.4120  136.0672  153.5867 H   0  0  0  0  0  0  0  0  0  0  0  0
  145.9194  135.8291  150.9470 H   0  0  0  0  0  0  0  0  0  0  0  0
  144.5289  137.3083  150.6228 H   0  0  0  0  0  0  0  0  0  0  0  0
  143.6068  134.0694  151.8211 H   0  0  0  0  0  0  0  0  0  0  0  0
  146.5216  133.3413  151.3291 H   0  0  0  0  0  0  0  0  0  0  0  0
  145.4966  132.8706  152.6895 H   0  0  0  0  0  0  0  0  0  0  0  0
  145.7048  131.1894  150.5931 H   0  0  0  0  0  0  0  0  0  0  0  0
  144.0932  131.5307  151.2346 H   0  0  0  0  0  0  0  0  0  0  0  0
  145.4230  132.7928  148.8130 H   0  0  0  0  0  0  0  0  0  0  0  0
  143.7630  132.2096  148.9565 H   0  0  0  0  0  0  0  0  0  0  0  0
  1  2  1  0  0  0  0
  1 29  1  0  0  0  0
  1 30  1  0  0  0  0
  1 31  1  0  0  0  0
  2  3  1  0  0  0  0
  2 10  1  0  0  0  0
  2 32  1  0  0  0  0
  3  4  1  0  0  0  0
  3 33  1  0  0  0  0
  3 34  1  0  0  0  0
  4  9  1  0  0  0  0
  4  5  1  0  0  0  0
  5  6  1  0  0  0  0
  5 35  1  0  0  0  0
  5 36  1  0  0  0  0
  6  7  1  0  0  0  0
  6 37  1  0  0  0  0
  6 38  1  0  0  0  0
  7  8  1  0  0  0  0
  8  9  1  0  0  0  0
  8 39  1  0  0  0  0
  8 40  1  0  0  0  0
  9 41  1  0  0  0  0
  9 42  1  0  0  0  0
 10 11  1  0  0  0  0
 10 12  1  0  0  0  0
 11 43  1  0  0  0  0
 11 44  1  0  0  0  0
 11 45  1  0  0  0  0
 12 17  1  0  0  0  0
 12 13  2  0  0  0  0
 13 14  1  0  0  0  0
 14 15  2  0  0  0  0
 14 46  1  0  0  0  0
 15 16  1  0  0  0  0
 16 20  1  0  0  0  0
 16 17  2  0  0  0  0
 17 18  1  0  0  0  0
 18 19  2  0  0  0  0
 19 20  1  0  0  0  0
 19 47  1  0  0  0  0
 20 21  1  0  0  0  0
 21 22  1  0  0  0  0
 21 48  1  0  0  0  0
 21 49  1  0  0  0  0
 22 23  1  0  0  0  0
 22 24  1  0  0  0  0
 22 50  1  0  0  0  0
 23 51  1  0  0  0  0
 24 28  1  0  0  0  0
 24 25  1  0  0  0  0
 24 52  1  0  0  0  0
 25 26  1  0  0  0  0
 25 53  1  0  0  0  0
 25 54  1  0  0  0  0
 26 27  1  0  0  0  0
 26 55  1  0  0  0  0
 26 56  1  0  0  0  0
 27 28  1  0  0  0  0
 27 57  1  0  0  0  0
 27 58  1  0  0  0  0
M  END
> <s_m_source_file>
AV-unprocessed.smi

> <i_m_source_file_index>
213

> <i_lp_mmshare_version>
43012

> <i_f3d_flags>
0

> <s_epik_input>
W0NIMl0xW0NIMl1PW0NIMl1bQ0gyXU4xW0NIMl1bQ0BASF0oW0NIM10pTihbQ0gzXSljKG5bY0hdbjIpYyhjMjMpbltjSF1uM1tDSDJdW0NASF0oW09IXSlbQ0BASF00W0NIMl1bQ0gyXVtDSDJdTzQ=

> <s_epik_cmdline>
J2VwaWtfcHl0aG9uJywgJy1waCcsICc3LjAnLCAnLXRuJywgJzgnLCAnLW1hJywgJzIwMCcsICctbWV0YWxfYmluZGluZycsICctaW1hZScsICc8aW5maWxlLm1hZT4nLCAnLW9tYWUnLCAnPG91dGZpbGUubWFlPic=

> <r_lp_tautomer_probability>
1

> <r_epik_Ionization_Penalty>
0.423322

> <r_epik_Ionization_Penalty_Charging>
0

> <r_epik_Ionization_Penalty_Neutral>
0.423322

> <r_epik_State_Penalty>
0.569486

> <r_epik_Charging_Adjusted_Penalty>
0.569486

> <i_epik_Tot_Q>
0

> <i_epik_Tot_abs_Q>
0

> <r_epik_Metal_State_Penalty>
0.568671

> <b_epik_Metal_Only>
0

> <s_lp_Force_Field>
OPLS_2005

> <r_lp_Energy>
51.8913

> <b_lp_Chiralities_Consistent>
1

> <s_lp_Variant>
AV-unprocessed.smi:213-9

> <Gold.Version>
5.8.1

> <Gold.Id.Protein>
6NUR|6NUR_protein|mol2

> <Gold.PLP.Fitness>
45.1521

> <Gold.PLP.PLP>
-44.2072

> <Gold.PLP.part.hbond>
-0.6181

> <Gold.PLP.part.metal>
0.0000

> <Gold.PLP.part.buried>
-7.0643

> <Gold.PLP.part.nonpolar>
-37.6573

> <Gold.PLP.part.repulsive>
0.5816

> <Gold.PLP.ligand.clash>
0.0000

> <Gold.PLP.ligand.torsion>
1.7998

> <Gold.PLP.Chemscore.Hbond>
0.4000

> <Gold.PLP.Chemscore.CHOScore>
0.9955

> <Gold.PLP.Chemscore.Metal>
0.0000

> <Gold.Chemscore.Hbonds>
donor molecule, donor type, donor heavy atom, donor atom, acceptor molecule, acceptor atom, score
      L1  H    23    51       P1 10171  0.53
      L1  C    19    47       P1 10171  1.00
      L1  C    19    47       P1 10175  0.10

> <Gold.PLP.Chemscore.Internal.Correction>
0.3579

> <Gold.Rescore>
     Score         DG    S(hbond)    S(metal)    S(lipo)     H(rot)  DE(clash)    DE(int)     intcor
     10.40     -13.95       0.91        0.00     106.38       2.74       0.46       3.09       ----

> <Gold.Chemscore.Fitness>
10.3999

> <Gold.Chemscore.DG>
-13.9541

> <Gold.Chemscore.ZeroCoef>
-5.4800

> <Gold.Chemscore.Hbond>
0.9092

> <Gold.Chemscore.Metal>
0.0000

> <Gold.Chemscore.Lipo>
106.3763

> <Gold.Chemscore.Internal_Hbond>
0.0000

> <Gold.Chemscore.DEClash>
0.4621

> <Gold.Chemscore.DEInternal>
3.0921

> <Gold.Chemscore.Rot>
2.7378

> <Gold.Chemscore.Internal.Correction>
   9.000000E+99

> <Gold.Chemscore.Hbonds>
donor molecule, donor type, donor heavy atom, donor atom, acceptor molecule, acceptor atom, score
      L1  H    23    51       P1 10171  0.54

> <Gold.Chemscore.Hbond.Weighted>
-3.0367

> <Gold.Chemscore.Metal.Weighted>
-0.0000

> <Gold.Chemscore.Lipo.Weighted>
-12.4460

> <Gold.Chemscore.Internal_Hbond.Weighted>
0.0000

> <Gold.Chemscore.DEClash.Weighted>
0.4621

> <Gold.Chemscore.DEInternal.Weighted>
3.0921

> <Gold.Chemscore.Rot.Weighted>
7.0087

> <Gold.Chemscore.Internal.Correction.Weighted>
   9.000000E+99

> <Gold.Protein.RotatedTorsions>
[ 6907 6896 6895 6894 ] final   65.77 input  -60.11 | X-H torsion
[ 7974 7965 7964 7962 ] final  -87.64 input  175.53 | X-H torsion
[ 8008 7997 7996 7995 ] final  165.39 input   59.86 | X-H torsion
[ 10167 10162 10161 10158 ] final   -8.44 input  -65.29 | X-H torsion
[ 10718 10713 10712 10709 ] final  -64.95 input   66.30 | X-H torsion
[ 10763 10752 10751 10750 ] final   70.47 input  -60.55 | X-H torsion
[ 11005 11000 10999 10996 ] final   36.89 input  -57.11 | X-H torsion

> <Gold.Protein.ActiveResidues>
 VAL166  LYS551  ARG553  GLY616  TRP617  ASP618  TYR619  PRO620  LYS621  CYS622 
 ASP623  PHE694  ASN695  SER759  ASP760  ASP761  ALA762  ILE779  LEU786  VAL792 
 PHE793  MET794  SER795  GLU796  ALA797  LYS798  CYS799  TRP800  GLU811  SER814 

> <Gold.Protein.RotatedAtoms>
  152.4432  134.5549  159.9877 H   0  0  0  0  0  0  0  0  0  0  0  0  # atno 6907 bound_to 6896
  151.5641  133.3393  159.2984 H   0  0  0  0  0  0  0  0  0  0  0  0  # atno 6908 bound_to 6896
  150.8342  134.7641  159.6943 H   0  0  0  0  0  0  0  0  0  0  0  0  # atno 6909 bound_to 6896
  145.4638  140.9560  143.1955 H   0  0  0  0  0  0  0  0  0  0  0  0  # atno 7974 bound_to 7965
  156.1804  140.1671  156.8284 H   0  0  0  0  0  0  0  0  0  0  0  0  # atno 8008 bound_to 7997
  154.5354  140.0748  156.8451 H   0  0  0  0  0  0  0  0  0  0  0  0  # atno 8009 bound_to 7997
  155.3322  140.3380  155.4242 H   0  0  0  0  0  0  0  0  0  0  0  0  # atno 8010 bound_to 7997
  140.7059  143.5968  150.8837 H   0  0  0  0  0  0  0  0  0  0  0  0  # atno 10167 bound_to 10162
  156.0698  130.4240  150.1494 H   0  0  0  0  0  0  0  0  0  0  0  0  # atno 10718 bound_to 10713
  153.0343  135.5172  154.7446 H   0  0  0  0  0  0  0  0  0  0  0  0  # atno 10763 bound_to 10752
  154.6435  135.2915  155.0077 H   0  0  0  0  0  0  0  0  0  0  0  0  # atno 10764 bound_to 10752
  154.0986  135.6639  153.4917 H   0  0  0  0  0  0  0  0  0  0  0  0  # atno 10765 bound_to 10752
  140.2280  134.3561  155.7976 H   0  0  0  0  0  0  0  0  0  0  0  0  # atno 11005 bound_to 11000
  144.7986  139.6184  143.7081 LP  0  0  0  0  0  0  0  0  0  0  0  0  # atno 17320 bound_to 7965
  146.2436  139.6051  142.9475 LP  0  0  0  0  0  0  0  0  0  0  0  0  # atno 17321 bound_to 7965
  139.9693  143.6075  152.2978 LP  0  0  0  0  0  0  0  0  0  0  0  0  # atno 17342 bound_to 10162
  139.6656  144.7662  151.1880 LP  0  0  0  0  0  0  0  0  0  0  0  0  # atno 17343 bound_to 10162
  156.9547  130.9786  151.3491 LP  0  0  0  0  0  0  0  0  0  0  0  0  # atno 17370 bound_to 10713
  157.5762  130.8345  149.8459 LP  0  0  0  0  0  0  0  0  0  0  0  0  # atno 17371 bound_to 10713
  141.2219  133.7230  156.8685 LP  0  0  0  0  0  0  0  0  0  0  0  0  # atno 17394 bound_to 11000
  140.1780  134.9053  157.2914 LP  0  0  0  0  0  0  0  0  0  0  0  0  # atno 17395 bound_to 11000

$$$$
