AV-unprocessed.smi:2059|AV-procd|sdf|8353|dock5
  -GOLD-   2272011 23D 1   1.00000     0.00000
 Structure written by MMmdl.
 29 30  0  0  0  0  0  0  0  0  2 V2000
  144.7801  135.5769  162.6405 C   0  0  0  0  0  0  0  0  0  0  0  0
  145.8673  136.0779  161.7529 C   0  0  0  0  0  0  0  0  0  0  0  0
  147.0925  135.5787  161.4116 C   0  0  0  0  0  0  0  0  0  0  0  0
  147.6090  136.5617  160.5246 C   0  0  0  0  0  0  0  0  0  0  0  0
  148.8969  136.3867  159.9410 N   0  0  0  0  0  0  0  0  0  0  0  0
  149.5239  137.0423  158.9405 C   0  0  0  0  0  0  0  0  0  0  0  0
  148.8729  137.9593  158.4294 O   0  0  0  0  0  0  0  0  0  0  0  0
  150.7815  136.6436  158.5909 N   0  5  0  0  0  0  0  0  0  0  0  0
  151.4990  137.0642  157.3852 C   0  0  1  0  0  0  0  0  0  0  0  0
  150.7114  136.6742  156.1189 C   0  0  0  0  0  0  0  0  0  0  0  0
  151.3043  137.4268  154.9185 C   0  0  0  0  0  0  0  0  0  0  0  0
  151.9177  139.0233  155.5837 S   0  0  0  0  0  0  0  0  0  0  0  0
  153.3513  139.1490  155.2764 O   0  0  0  0  0  0  0  0  0  0  0  0
  150.9765  140.0978  155.2313 O   0  0  0  0  0  0  0  0  0  0  0  0
  151.6990  138.5875  157.3536 C   0  0  0  0  0  0  0  0  0  0  0  0
  146.7682  137.5708  160.3446 N   0  0  0  0  0  0  0  0  0  0  0  0
  145.6497  137.2661  161.1286 O   0  0  0  0  0  0  0  0  0  0  0  0
  145.1736  134.8832  163.3836 H   0  0  0  0  0  0  0  0  0  0  0  0
  144.0189  135.0557  162.0603 H   0  0  0  0  0  0  0  0  0  0  0  0
  144.2990  136.4001  163.1692 H   0  0  0  0  0  0  0  0  0  0  0  0
  147.5455  134.6565  161.7438 H   0  0  0  0  0  0  0  0  0  0  0  0
  149.4332  135.6306  160.3395 H   0  0  0  0  0  0  0  0  0  0  0  0
  152.4813  136.5944  157.3127 H   0  0  0  0  0  0  0  0  0  0  0  0
  150.7166  135.5961  155.9548 H   0  0  0  0  0  0  0  0  0  0  0  0
  149.6680  136.9726  156.2345 H   0  0  0  0  0  0  0  0  0  0  0  0
  152.1507  136.8874  154.4905 H   0  0  0  0  0  0  0  0  0  0  0  0
  150.5729  137.6044  154.1304 H   0  0  0  0  0  0  0  0  0  0  0  0
  150.8143  139.1108  157.7183 H   0  0  0  0  0  0  0  0  0  0  0  0
  152.5619  138.9148  157.9333 H   0  0  0  0  0  0  0  0  0  0  0  0
  1  2  1  0  0  0  0
  1 18  1  0  0  0  0
  1 19  1  0  0  0  0
  1 20  1  0  0  0  0
  2 17  1  0  0  0  0
  2  3  2  0  0  0  0
  3  4  1  0  0  0  0
  3 21  1  0  0  0  0
  4  5  1  0  0  0  0
  4 16  2  0  0  0  0
  5  6  1  0  0  0  0
  5 22  1  0  0  0  0
  6  7  2  0  0  0  0
  6  8  1  0  0  0  0
  8  9  1  0  0  0  0
  9 15  1  0  0  0  0
  9 10  1  0  0  0  0
  9 23  1  0  0  0  0
 10 11  1  0  0  0  0
 10 24  1  0  0  0  0
 10 25  1  0  0  0  0
 11 12  1  0  0  0  0
 11 26  1  0  0  0  0
 11 27  1  0  0  0  0
 12 13  2  0  0  0  0
 12 14  2  0  0  0  0
 12 15  1  0  0  0  0
 15 28  1  0  0  0  0
 15 29  1  0  0  0  0
 16 17  1  0  0  0  0
M  CHG  1   8  -1
M  END
> <s_m_source_file>
AV-unprocessed.smi

> <i_m_source_file_index>
2059

> <i_lp_mmshare_version>
43012

> <i_f3d_flags>
0

> <s_epik_input>
W0NIM11jMVtjSF1jKG5vMSlbTkhdQyg9TylbTkhdW0NAQEhdKFtDSDJdMilbQ0gyXVtDSDJdUzIoPU8pPU8=

> <s_epik_cmdline>
J2VwaWtfcHl0aG9uJywgJy1waCcsICc3LjAnLCAnLXRuJywgJzgnLCAnLW1hJywgJzIwMCcsICctbWV0YWxfYmluZGluZycsICctaW1hZScsICc8aW5maWxlLm1hZT4nLCAnLW9tYWUnLCAnPG91dGZpbGUubWFlPic=

> <r_lp_tautomer_probability>
1

> <r_epik_Ionization_Penalty>
6.6071

> <r_epik_Ionization_Penalty_Charging>
6.60709

> <r_epik_Ionization_Penalty_Neutral>
5.42629e-06

> <r_epik_State_Penalty>
6.6352

> <r_epik_Charging_Adjusted_Penalty>
13.2423

> <i_epik_Tot_Q>
-1

> <i_epik_Tot_abs_Q>
1

> <r_epik_Metal_State_Penalty>
2.57602

> <b_epik_Metal_Only>
1

> <s_lp_Force_Field>
OPLS_2005

> <r_lp_Energy>
11.3948

> <b_lp_Chiralities_Consistent>
1

> <s_lp_Variant>
AV-unprocessed.smi:2059-6

> <Gold.Version>
5.8.1

> <Gold.Id.Protein>
6NUR|6NUR_protein|mol2

> <Gold.PLP.Fitness>
37.0394

> <Gold.PLP.PLP>
-22.5916

> <Gold.PLP.part.hbond>
-4.3183

> <Gold.PLP.part.metal>
0.0000

> <Gold.PLP.part.buried>
-6.1404

> <Gold.PLP.part.nonpolar>
-14.0180

> <Gold.PLP.part.repulsive>
0.2509

> <Gold.PLP.ligand.clash>
0.0000

> <Gold.PLP.ligand.torsion>
0.0614

> <Gold.PLP.Chemscore.Hbond>
4.8560

> <Gold.PLP.Chemscore.CHOScore>
0.0000

> <Gold.PLP.Chemscore.Metal>
0.0000

> <Gold.Chemscore.Hbonds>
donor molecule, donor type, donor heavy atom, donor atom, acceptor molecule, acceptor atom, score
      P1  H  6896  6909       L1     8  1.84
      P1  H  6934  6947       L1    16  1.00
      P1  H  7989  7998       L1    14  1.00
      P1  H  7997  8009       L1    13  1.00

> <Gold.PLP.Chemscore.Internal.Correction>
0.0026

> <Gold.Rescore>
     Score         DG    S(hbond)    S(metal)    S(lipo)     H(rot)  DE(clash)    DE(int)     intcor
     16.44     -17.84       3.33        0.00      32.56       1.00       0.00       1.40       ----

> <Gold.Chemscore.Fitness>
16.4365

> <Gold.Chemscore.DG>
-17.8380

> <Gold.Chemscore.ZeroCoef>
-5.4800

> <Gold.Chemscore.Hbond>
3.3258

> <Gold.Chemscore.Metal>
0.0000

> <Gold.Chemscore.Lipo>
32.5631

> <Gold.Chemscore.Internal_Hbond>
0.0000

> <Gold.Chemscore.DEClash>
0.0000

> <Gold.Chemscore.DEInternal>
1.4015

> <Gold.Chemscore.Rot>
1.0000

> <Gold.Chemscore.Internal.Correction>
   9.000000E+99

> <Gold.Chemscore.Hbonds>
donor molecule, donor type, donor heavy atom, donor atom, acceptor molecule, acceptor atom, score
      P1  H  6896  6909       L1     8  0.25
      P1  H  6934  6947       L1    16  0.29
      P1  H  7989  7998       L1    14  0.53
      P1  H  7997  8009       L1    13  0.99

> <Gold.Chemscore.Hbond.Weighted>
-11.1082

> <Gold.Chemscore.Metal.Weighted>
-0.0000

> <Gold.Chemscore.Lipo.Weighted>
-3.8099

> <Gold.Chemscore.Internal_Hbond.Weighted>
0.0000

> <Gold.Chemscore.DEClash.Weighted>
0.0000

> <Gold.Chemscore.DEInternal.Weighted>
1.4015

> <Gold.Chemscore.Rot.Weighted>
2.5600

> <Gold.Chemscore.Internal.Correction.Weighted>
   9.000000E+99

> <Gold.Protein.RotatedTorsions>
[ 6907 6896 6895 6894 ] final   84.27 input  -60.11 | X-H torsion
[ 7974 7965 7964 7962 ] final  -16.16 input  175.53 | X-H torsion
[ 8008 7997 7996 7995 ] final -140.86 input   59.86 | X-H torsion
[ 10167 10162 10161 10158 ] final  169.64 input  -65.29 | X-H torsion
[ 10718 10713 10712 10709 ] final  123.79 input   66.30 | X-H torsion
[ 10763 10752 10751 10750 ] final -140.91 input  -60.55 | X-H torsion
[ 11005 11000 10999 10996 ] final -125.80 input  -57.11 | X-H torsion

> <Gold.Protein.ActiveResidues>
 VAL166  LYS551  ARG553  GLY616  TRP617  ASP618  TYR619  PRO620  LYS621  CYS622 
 ASP623  PHE694  ASN695  SER759  ASP760  ASP761  ALA762  ILE779  LEU786  VAL792 
 PHE793  MET794  SER795  GLU796  ALA797  LYS798  CYS799  TRP800  GLU811  SER814 

> <Gold.Protein.RotatedAtoms>
  152.5348  134.2766  159.8991 H   0  0  0  0  0  0  0  0  0  0  0  0  # atno 6907 bound_to 6896
  151.2722  133.4243  159.2629 H   0  0  0  0  0  0  0  0  0  0  0  0  # atno 6908 bound_to 6896
  151.0358  134.9587  159.8192 H   0  0  0  0  0  0  0  0  0  0  0  0  # atno 6909 bound_to 6896
  146.2000  140.3597  142.8427 H   0  0  0  0  0  0  0  0  0  0  0  0  # atno 7974 bound_to 7965
  155.4682  140.0551  157.2983 H   0  0  0  0  0  0  0  0  0  0  0  0  # atno 8008 bound_to 7997
  154.4709  140.2040  155.9951 H   0  0  0  0  0  0  0  0  0  0  0  0  # atno 8009 bound_to 7997
  156.1054  140.3212  155.8003 H   0  0  0  0  0  0  0  0  0  0  0  0  # atno 8010 bound_to 7997
  139.4997  144.3684  151.9750 H   0  0  0  0  0  0  0  0  0  0  0  0  # atno 10167 bound_to 10162
  157.5637  131.1088  150.8493 H   0  0  0  0  0  0  0  0  0  0  0  0  # atno 10718 bound_to 10713
  154.8563  135.3539  154.5783 H   0  0  0  0  0  0  0  0  0  0  0  0  # atno 10763 bound_to 10752
  153.6394  135.6999  153.5251 H   0  0  0  0  0  0  0  0  0  0  0  0  # atno 10764 bound_to 10752
  153.2983  135.4214  155.1189 H   0  0  0  0  0  0  0  0  0  0  0  0  # atno 10765 bound_to 10752
  140.9732  134.0776  157.3846 H   0  0  0  0  0  0  0  0  0  0  0  0  # atno 11005 bound_to 11000
  144.8662  140.7209  143.6076 LP  0  0  0  0  0  0  0  0  0  0  0  0  # atno 17320 bound_to 7965
  145.3517  139.1704  143.4431 LP  0  0  0  0  0  0  0  0  0  0  0  0  # atno 17321 bound_to 7965
  140.3120  144.3526  150.6031 LP  0  0  0  0  0  0  0  0  0  0  0  0  # atno 17342 bound_to 10162
  140.5791  143.2174  151.7461 LP  0  0  0  0  0  0  0  0  0  0  0  0  # atno 17343 bound_to 10162
  156.8983  130.5237  149.5283 LP  0  0  0  0  0  0  0  0  0  0  0  0  # atno 17370 bound_to 10713
  156.0687  130.5725  150.9340 LP  0  0  0  0  0  0  0  0  0  0  0  0  # atno 17371 bound_to 10713
  139.8920  135.0122  156.6824 LP  0  0  0  0  0  0  0  0  0  0  0  0  # atno 17394 bound_to 11000
  140.7297  133.9069  155.8203 LP  0  0  0  0  0  0  0  0  0  0  0  0  # atno 17395 bound_to 11000

$$$$
