AV-unprocessed.smi:2884|AV-procd|sdf|11083|dock2
  -GOLD-   2272015553D 1   1.00000     0.00000
 Structure written by MMmdl.
 42 43  0  0  0  0  0  0  0  0  1 V2000
  149.2644  141.3958  155.4366 C   0  0  0  0  0  0  0  0  0  0  0  0
  150.5226  140.6167  155.8418 C   0  0  0  0  0  0  0  0  0  0  0  0
  151.5278  141.4753  156.6185 C   0  0  0  0  0  0  0  0  0  0  0  0
  150.8972  141.9358  157.8081 O   0  0  0  0  0  0  0  0  0  0  0  0
  151.5105  142.9809  158.5728 C   0  0  0  0  0  0  0  0  0  0  0  0
  152.7649  142.2803  159.1518 C   0  0  0  0  0  0  0  0  0  0  0  0
  152.5459  140.8562  159.3745 N   0  0  0  0  0  0  0  0  0  0  0  0
  153.3054  139.9349  160.0851 C   0  0  0  0  0  0  0  0  0  0  0  0
  154.5421  140.2808  160.7781 C   0  0  0  0  0  0  0  0  0  0  0  0
  155.2436  139.4172  161.4293 N   0  0  0  0  0  0  0  0  0  0  0  0
  154.8034  138.1172  161.4749 N   0  0  0  0  0  0  0  0  0  0  0  0
  153.6806  137.6255  160.9005 C   0  0  0  0  0  0  0  0  0  0  0  0
  153.3718  136.4402  161.0060 O   0  0  0  0  0  0  0  0  0  0  0  0
  152.9072  138.6346  160.1638 C   0  0  0  0  0  0  0  0  0  0  0  0
  151.4565  138.1109  159.3745 Cl  0  0  0  0  0  0  0  0  0  0  0  0
  151.8808  144.2333  157.7266 C   0  0  0  0  0  0  0  0  0  0  0  0
  152.4511  145.3765  158.5848 C   0  0  0  0  0  0  0  0  0  0  0  0
  151.4779  145.7629  159.7092 C   0  0  0  0  0  0  0  0  0  0  0  0
  151.1079  144.5479  160.5741 C   0  0  0  0  0  0  0  0  0  0  0  0
  150.5504  143.3957  159.7172 C   0  0  0  0  0  0  0  0  0  0  0  0
  155.4011  137.4957  162.0004 H   0  0  0  0  0  0  0  0  0  0  0  0
  148.5653  140.7529  154.9015 H   0  0  0  0  0  0  0  0  0  0  0  0
  149.5097  142.2341  154.7836 H   0  0  0  0  0  0  0  0  0  0  0  0
  148.7483  141.7931  156.3113 H   0  0  0  0  0  0  0  0  0  0  0  0
  150.2294  139.7653  156.4566 H   0  0  0  0  0  0  0  0  0  0  0  0
  151.0020  140.2033  154.9536 H   0  0  0  0  0  0  0  0  0  0  0  0
  152.4070  140.8733  156.8486 H   0  0  0  0  0  0  0  0  0  0  0  0
  151.8486  142.3096  155.9960 H   0  0  0  0  0  0  0  0  0  0  0  0
  153.6351  142.4492  158.5231 H   0  0  0  0  0  0  0  0  0  0  0  0
  153.0115  142.7218  160.1179 H   0  0  0  0  0  0  0  0  0  0  0  0
  151.8153  140.4663  158.7952 H   0  0  0  0  0  0  0  0  0  0  0  0
  154.8543  141.3219  160.7231 H   0  0  0  0  0  0  0  0  0  0  0  0
  152.5819  143.9740  156.9331 H   0  0  0  0  0  0  0  0  0  0  0  0
  150.9954  144.6278  157.2286 H   0  0  0  0  0  0  0  0  0  0  0  0
  153.4115  145.0894  159.0107 H   0  0  0  0  0  0  0  0  0  0  0  0
  152.6477  146.2448  157.9554 H   0  0  0  0  0  0  0  0  0  0  0  0
  151.9182  146.5427  160.3312 H   0  0  0  0  0  0  0  0  0  0  0  0
  150.5724  146.1892  159.2756 H   0  0  0  0  0  0  0  0  0  0  0  0
  151.9825  144.2137  161.1324 H   0  0  0  0  0  0  0  0  0  0  0  0
  150.3687  144.8407  161.3204 H   0  0  0  0  0  0  0  0  0  0  0  0
  149.5945  143.7197  159.3077 H   0  0  0  0  0  0  0  0  0  0  0  0
  150.3287  142.5371  160.3519 H   0  0  0  0  0  0  0  0  0  0  0  0
  1  2  1  0  0  0  0
  1 22  1  0  0  0  0
  1 23  1  0  0  0  0
  1 24  1  0  0  0  0
  2  3  1  0  0  0  0
  2 25  1  0  0  0  0
  2 26  1  0  0  0  0
  3  4  1  0  0  0  0
  3 27  1  0  0  0  0
  3 28  1  0  0  0  0
  4  5  1  0  0  0  0
  5 20  1  0  0  0  0
  5  6  1  0  0  0  0
  5 16  1  0  0  0  0
  6  7  1  0  0  0  0
  6 29  1  0  0  0  0
  6 30  1  0  0  0  0
  7  8  1  0  0  0  0
  7 31  1  0  0  0  0
  8 14  2  0  0  0  0
  8  9  1  0  0  0  0
  9 10  2  0  0  0  0
  9 32  1  0  0  0  0
 10 11  1  0  0  0  0
 11 21  1  0  0  0  0
 11 12  1  0  0  0  0
 12 13  2  0  0  0  0
 12 14  1  0  0  0  0
 14 15  1  0  0  0  0
 16 17  1  0  0  0  0
 16 33  1  0  0  0  0
 16 34  1  0  0  0  0
 17 18  1  0  0  0  0
 17 35  1  0  0  0  0
 17 36  1  0  0  0  0
 18 19  1  0  0  0  0
 18 37  1  0  0  0  0
 18 38  1  0  0  0  0
 19 20  1  0  0  0  0
 19 39  1  0  0  0  0
 19 40  1  0  0  0  0
 20 41  1  0  0  0  0
 20 42  1  0  0  0  0
M  END
> <s_m_source_file>
AV-unprocessed.smi

> <i_m_source_file_index>
2884

> <i_lp_mmshare_version>
43012

> <i_f3d_flags>
0

> <s_epik_input>
W0NIMl0xW0NIMl1bQ0gyXVtDSDJdW0NIMl1DMShPW0NIMl1bQ0gyXVtDSDNdKVtDSDJdW05IXWMyW2NIXW5bbkhdYyg9TyljMkNs

> <s_epik_cmdline>
J2VwaWtfcHl0aG9uJywgJy1waCcsICc3LjAnLCAnLXRuJywgJzgnLCAnLW1hJywgJzIwMCcsICctbWV0YWxfYmluZGluZycsICctaW1hZScsICc8aW5maWxlLm1hZT4nLCAnLW9tYWUnLCAnPG91dGZpbGUubWFlPic=

> <r_lp_tautomer_probability>
0.986175

> <r_epik_Ionization_Penalty>
0.00111508

> <r_epik_Ionization_Penalty_Charging>
0.00108742

> <r_epik_Ionization_Penalty_Neutral>
2.7657e-05

> <r_epik_State_Penalty>
0.00620319

> <r_epik_Charging_Adjusted_Penalty>
0.00729061

> <i_epik_Tot_Q>
0

> <i_epik_Tot_abs_Q>
0

> <r_epik_Metal_State_Penalty>
0.300009

> <b_epik_Metal_Only>
0

> <s_lp_Force_Field>
OPLS_2005

> <r_lp_Energy>
35.8934

> <b_lp_Chiralities_Consistent>
1

> <s_lp_Variant>
AV-unprocessed.smi:2884-1

> <Gold.Version>
5.8.1

> <Gold.Id.Protein>
6NUR|6NUR_protein|mol2

> <Gold.PLP.Fitness>
37.5619

> <Gold.PLP.PLP>
-35.8140

> <Gold.PLP.part.hbond>
-1.0000

> <Gold.PLP.part.metal>
0.0000

> <Gold.PLP.part.buried>
-4.2590

> <Gold.PLP.part.nonpolar>
-30.0233

> <Gold.PLP.part.repulsive>
0.1671

> <Gold.PLP.ligand.clash>
0.0000

> <Gold.PLP.ligand.torsion>
0.6430

> <Gold.PLP.Chemscore.Hbond>
1.0000

> <Gold.PLP.Chemscore.CHOScore>
0.0000

> <Gold.PLP.Chemscore.Metal>
0.0000

> <Gold.Chemscore.Hbonds>
donor molecule, donor type, donor heavy atom, donor atom, acceptor molecule, acceptor atom, score
      P1  H  6896  6909       L1    13  0.71

> <Gold.PLP.Chemscore.Internal.Correction>
0.0339

> <Gold.Rescore>
     Score         DG    S(hbond)    S(metal)    S(lipo)     H(rot)  DE(clash)    DE(int)     intcor
     16.76     -18.35       1.00        0.00     120.14       1.77       1.13       0.46       ----

> <Gold.Chemscore.Fitness>
16.7579

> <Gold.Chemscore.DG>
-18.3479

> <Gold.Chemscore.ZeroCoef>
-5.4800

> <Gold.Chemscore.Hbond>
0.9980

> <Gold.Chemscore.Metal>
0.0000

> <Gold.Chemscore.Lipo>
120.1391

> <Gold.Chemscore.Internal_Hbond>
0.0000

> <Gold.Chemscore.DEClash>
1.1326

> <Gold.Chemscore.DEInternal>
0.4574

> <Gold.Chemscore.Rot>
1.7663

> <Gold.Chemscore.Internal.Correction>
   9.000000E+99

> <Gold.Chemscore.Hbonds>
donor molecule, donor type, donor heavy atom, donor atom, acceptor molecule, acceptor atom, score
      P1  H  6896  6909       L1    13  0.71

> <Gold.Chemscore.Hbond.Weighted>
-3.3332

> <Gold.Chemscore.Metal.Weighted>
-0.0000

> <Gold.Chemscore.Lipo.Weighted>
-14.0563

> <Gold.Chemscore.Internal_Hbond.Weighted>
0.0000

> <Gold.Chemscore.DEClash.Weighted>
1.1326

> <Gold.Chemscore.DEInternal.Weighted>
0.4574

> <Gold.Chemscore.Rot.Weighted>
4.5216

> <Gold.Chemscore.Internal.Correction.Weighted>
   9.000000E+99

> <Gold.Protein.RotatedTorsions>
[ 6907 6896 6895 6894 ] final  169.74 input  -60.11 | X-H torsion
[ 7974 7965 7964 7962 ] final   36.59 input  175.53 | X-H torsion
[ 8008 7997 7996 7995 ] final  -68.46 input   59.86 | X-H torsion
[ 10167 10162 10161 10158 ] final -102.88 input  -65.29 | X-H torsion
[ 10718 10713 10712 10709 ] final  -62.08 input   66.30 | X-H torsion
[ 10763 10752 10751 10750 ] final   31.04 input  -60.55 | X-H torsion
[ 11005 11000 10999 10996 ] final  -48.90 input  -57.11 | X-H torsion

> <Gold.Protein.ActiveResidues>
 VAL166  LYS551  ARG553  GLY616  TRP617  ASP618  TYR619  PRO620  LYS621  CYS622 
 ASP623  PHE694  ASN695  SER759  ASP760  ASP761  ALA762  ILE779  LEU786  VAL792 
 PHE793  MET794  SER795  GLU796  ALA797  LYS798  CYS799  TRP800  GLU811  SER814 

> <Gold.Protein.RotatedAtoms>
  151.8271  133.3403  159.3601 H   0  0  0  0  0  0  0  0  0  0  0  0  # atno 6907 bound_to 6896
  150.7276  134.5518  159.5808 H   0  0  0  0  0  0  0  0  0  0  0  0  # atno 6908 bound_to 6896
  152.2963  134.7664  160.0418 H   0  0  0  0  0  0  0  0  0  0  0  0  # atno 6909 bound_to 6896
  146.1200  139.5999  142.9296 H   0  0  0  0  0  0  0  0  0  0  0  0  # atno 7974 bound_to 7965
  154.4870  140.0872  156.7508 H   0  0  0  0  0  0  0  0  0  0  0  0  # atno 8008 bound_to 7997
  155.4326  140.3450  155.4263 H   0  0  0  0  0  0  0  0  0  0  0  0  # atno 8009 bound_to 7997
  156.1275  140.1492  156.9103 H   0  0  0  0  0  0  0  0  0  0  0  0  # atno 8010 bound_to 7997
  140.2260  143.3641  152.0928 H   0  0  0  0  0  0  0  0  0  0  0  0  # atno 10167 bound_to 10162
  156.0879  130.4205  150.1084 H   0  0  0  0  0  0  0  0  0  0  0  0  # atno 10718 bound_to 10713
  153.0337  135.6449  154.1138 H   0  0  0  0  0  0  0  0  0  0  0  0  # atno 10763 bound_to 10752
  154.0856  135.2870  155.3283 H   0  0  0  0  0  0  0  0  0  0  0  0  # atno 10764 bound_to 10752
  154.6500  135.5429  153.7954 H   0  0  0  0  0  0  0  0  0  0  0  0  # atno 10765 bound_to 10752
  141.0728  133.6674  156.3507 H   0  0  0  0  0  0  0  0  0  0  0  0  # atno 11005 bound_to 11000
  145.5486  141.0415  143.2291 LP  0  0  0  0  0  0  0  0  0  0  0  0  # atno 17320 bound_to 7965
  144.7588  139.7007  143.7243 LP  0  0  0  0  0  0  0  0  0  0  0  0  # atno 17321 bound_to 7965
  139.5127  144.6921  151.5732 LP  0  0  0  0  0  0  0  0  0  0  0  0  # atno 17342 bound_to 10162
  140.6220  143.9240  150.6534 LP  0  0  0  0  0  0  0  0  0  0  0  0  # atno 17343 bound_to 10162
  156.9101  130.9649  151.3564 LP  0  0  0  0  0  0  0  0  0  0  0  0  # atno 17370 bound_to 10713
  157.6019  130.8519  149.8815 LP  0  0  0  0  0  0  0  0  0  0  0  0  # atno 17371 bound_to 10713
  140.5638  134.5908  157.5440 LP  0  0  0  0  0  0  0  0  0  0  0  0  # atno 17394 bound_to 11000
  139.9540  134.7567  156.0383 LP  0  0  0  0  0  0  0  0  0  0  0  0  # atno 17395 bound_to 11000

$$$$
