#       Name:                AV-unprocessed.smi:3097
#       Creating user name   scv26
#       Creation time:       Fri Mar 27 17:17:35 2020


#       File generated by GOLD software.
#

@<TRIPOS>MOLECULE
AV-unprocessed.smi:3097
    36    36     1
SMALL
NO_CHARGES


@<TRIPOS>ATOM
      1 ****        -3.6095  -2.1229  -0.1836 C.3            1 S1                 0.0000
      2 ****        -2.6026  -1.0622   0.2724 C.3            1 S1                 0.0000
      3 ****        -1.1556  -1.5662   0.2138 C.3            1 S1                 0.0000
      4 ****        -0.2157  -0.5310   0.6605 N.pl3          1 S1                 0.0000
      5 ****         1.1216  -0.6649   0.7530 C.cat          1 S1                 0.0000
      6 ****         1.7019  -1.8378   0.4325 N.pl3          1 S1                 1.0000
      7 ****         3.1407  -2.1227   0.4846 C.3            1 S1                 0.0000
      8 ****         1.8822   0.3705   1.1622 N.pl3          1 S1                 0.0000
      9 ****         1.4033   1.7155   1.5176 C.3            1 S1                 0.0000
     10 ****         1.4454   2.6725   0.3150 C.3            1 S1                 0.0000
     11 ****         0.4184   2.3728  -0.6655 N.pl3          1 S1                 0.0000
     12 ****         0.5638   1.8034  -1.9133 C.2            1 S1                 0.0000
     13 ****        -0.6812   1.7167  -2.4673 C.2            1 S1                 0.0000
     14 ****        -1.5335   2.2726  -1.4728 C.2            1 S1                 0.0000
     15 ****        -0.8729   2.6603  -0.3935 N.2            1 S1                 0.0000
     16 ****        -4.6285  -1.7389  -0.1324 H              1 S1                 0.0000
     17 ****        -3.5573  -3.0118   0.4456 H              1 S1                 0.0000
     18 ****        -3.4203  -2.4283  -1.2131 H              1 S1                 0.0000
     19 ****        -2.7083  -0.1761  -0.3538 H              1 S1                 0.0000
     20 ****        -2.8425  -0.7509   1.2899 H              1 S1                 0.0000
     21 ****        -1.0384  -2.4476   0.8451 H              1 S1                 0.0000
     22 ****        -0.8995  -1.8590  -0.8050 H              1 S1                 0.0000
     23 ****        -0.6186   0.3663   0.8925 H              1 S1                 0.0000
     24 ****         3.3323  -3.1486   0.1699 H              1 S1                 0.0000
     25 ****         3.5177  -1.9965   1.4997 H              1 S1                 0.0000
     26 ****         3.6869  -1.4506  -0.1777 H              1 S1                 0.0000
     27 ****         2.8821   0.2329   1.2000 H              1 S1                 0.0000
     28 ****         0.4058   1.6696   1.9550 H              1 S1                 0.0000
     29 ****         2.0622   2.0982   2.2971 H              1 S1                 0.0000
     30 ****         1.3136   3.7019   0.6505 H              1 S1                 0.0000
     31 ****         2.4192   2.6272  -0.1744 H              1 S1                 0.0000
     32 ****         1.5292   1.5081  -2.2975 H              1 S1                 0.0000
     33 ****        -0.9430   1.3204  -3.4373 H              1 S1                 0.0000
     34 ****        -2.6055   2.4007  -1.5008 H              1 S1                 0.0000
     35 ****         1.1064  -2.5952   0.1294 H              1 S1                 0.0000
     36 ****        -1.2462   3.0735   0.4372 LP             1 S1                 0.0000
@<TRIPOS>BOND
    1    1    2 1     
    2    1   16 1     
    3    1   17 1     
    4    1   18 1     
    5    2    3 1     
    6    2   19 1     
    7    2   20 1     
    8    3    4 1     
    9    3   21 1     
   10    3   22 1     
   11    4    5 ar    
   12    4   23 1     
   13    5    6 ar    
   14    5    8 ar    
   15    6    7 1     
   16    6   35 1     
   17    7   24 1     
   18    7   25 1     
   19    7   26 1     
   20    8    9 1     
   21    8   27 1     
   22    9   10 1     
   23    9   28 1     
   24    9   29 1     
   25   10   11 1     
   26   10   30 1     
   27   10   31 1     
   28   11   15 1     
   29   11   12 1     
   30   12   13 2     
   31   12   32 1     
   32   13   14 1     
   33   13   33 1     
   34   14   15 2     
   35   14   34 1     
   36   15   36 1     
@<TRIPOS>SUBSTRUCTURE
      1 S1             1
@<TRIPOS>SET
LONE_PAIRS      STATIC     ATOMS    <user>   **** ""
1 36
DONOR_HYDROGENS      STATIC     ATOMS    <user>   **** ""
3 23 35 27
ATOM$BLUE        STATIC     ATOMS    COLORGROUP SYSTEM
1 36
ATOM$RED        STATIC     ATOMS    COLORGROUP SYSTEM
3 23 35 27
