AV-unprocessed.smi:1897|AV-procd|sdf|7697|dock3
  -GOLD-   22720 9433D 1   1.00000     0.00000
 Structure written by MMmdl.
 38 40  0  0  0  0  0  0  0  0  3 V2000
  144.9572  143.8502  154.1540 C   0  0  0  0  0  0  0  0  0  0  0  0
  145.9297  142.9326  154.8122 C   0  0  0  0  0  0  0  0  0  0  0  0
  145.9201  142.6917  156.1252 N   0  0  0  0  0  0  0  0  0  0  0  0
  146.9235  141.8114  156.5027 N   0  0  0  0  0  0  0  0  0  0  0  0
  147.6676  141.3883  155.4712 C   0  0  0  0  0  0  0  0  0  0  0  0
  148.6899  140.5260  155.6237 N   0  5  0  0  0  0  0  0  0  0  0  0
  149.9533  140.9320  155.9141 C   0  0  0  0  0  0  0  0  0  0  0  0
  150.9607  140.3758  155.4789 O   0  0  0  0  0  0  0  0  0  0  0  0
  150.0983  141.9997  156.7208 N   0  0  0  0  0  0  0  0  0  0  0  0
  151.3641  142.5823  157.1476 C   0  0  1  0  0  0  0  0  0  0  0  0
  151.3032  144.1039  157.3815 C   0  0  0  0  0  0  0  0  0  0  0  0
  152.1607  144.3576  158.6366 C   0  0  0  0  0  0  0  0  0  0  0  0
  152.7555  143.0498  158.9715 N   0  3  1  0  0  0  0  0  0  0  0  0
  153.1802  142.8383  160.3723 C   0  0  0  0  0  0  0  0  0  0  0  0
  153.8429  141.4515  160.4982 C   0  0  0  0  0  0  0  0  0  0  0  0
  152.9335  140.3300  159.9542 C   0  0  0  0  0  0  0  0  0  0  0  0
  152.4457  140.6511  158.5281 C   0  0  0  0  0  0  0  0  0  0  0  0
  151.7905  142.0416  158.5101 C   0  0  2  0  0  0  0  0  0  0  0  0
  147.1777  142.0758  153.9230 S   0  0  0  0  0  0  0  0  0  0  0  0
  144.0153  143.3307  153.9780 H   0  0  0  0  0  0  0  0  0  0  0  0
  145.3513  144.1966  153.1986 H   0  0  0  0  0  0  0  0  0  0  0  0
  144.7679  144.7177  154.7869 H   0  0  0  0  0  0  0  0  0  0  0  0
  149.2553  142.4398  157.0596 H   0  0  0  0  0  0  0  0  0  0  0  0
  152.1445  142.3594  156.4170 H   0  0  0  0  0  0  0  0  0  0  0  0
  151.6819  144.6460  156.5144 H   0  0  0  0  0  0  0  0  0  0  0  0
  150.2803  144.4407  157.5567 H   0  0  0  0  0  0  0  0  0  0  0  0
  152.9357  145.1056  158.4681 H   0  0  0  0  0  0  0  0  0  0  0  0
  151.5288  144.7020  159.4567 H   0  0  0  0  0  0  0  0  0  0  0  0
  153.8825  143.6196  160.6642 H   0  0  0  0  0  0  0  0  0  0  0  0
  152.3182  142.9121  161.0374 H   0  0  0  0  0  0  0  0  0  0  0  0
  154.7829  141.4505  159.9444 H   0  0  0  0  0  0  0  0  0  0  0  0
  154.0997  141.2525  161.5391 H   0  0  0  0  0  0  0  0  0  0  0  0
  153.4646  139.3777  159.9642 H   0  0  0  0  0  0  0  0  0  0  0  0
  152.0724  140.2103  160.6132 H   0  0  0  0  0  0  0  0  0  0  0  0
  153.2861  140.6218  157.8334 H   0  0  0  0  0  0  0  0  0  0  0  0
  151.7355  139.8942  158.1934 H   0  0  0  0  0  0  0  0  0  0  0  0
  150.9312  142.0483  159.1855 H   0  0  0  0  0  0  0  0  0  0  0  0
  153.5735  142.9486  158.3878 H   0  0  0  0  0  0  0  0  0  0  0  0
  1  2  1  0  0  0  0
  1 20  1  0  0  0  0
  1 21  1  0  0  0  0
  1 22  1  0  0  0  0
  2 19  1  0  0  0  0
  2  3  2  0  0  0  0
  3  4  1  0  0  0  0
  4  5  2  0  0  0  0
  5  6  1  0  0  0  0
  5 19  1  0  0  0  0
  6  7  1  0  0  0  0
  7  8  2  0  0  0  0
  7  9  1  0  0  0  0
  9 10  1  0  0  0  0
  9 23  1  0  0  0  0
 10 18  1  0  0  0  0
 10 11  1  0  0  0  0
 10 24  1  0  0  0  0
 11 12  1  0  0  0  0
 11 25  1  0  0  0  0
 11 26  1  0  0  0  0
 12 13  1  0  0  0  0
 12 27  1  0  0  0  0
 12 28  1  0  0  0  0
 13 18  1  0  0  0  0
 13 14  1  0  0  0  0
 13 38  1  0  0  0  0
 14 15  1  0  0  0  0
 14 29  1  0  0  0  0
 14 30  1  0  0  0  0
 15 16  1  0  0  0  0
 15 31  1  0  0  0  0
 15 32  1  0  0  0  0
 16 17  1  0  0  0  0
 16 33  1  0  0  0  0
 16 34  1  0  0  0  0
 17 18  1  0  0  0  0
 17 35  1  0  0  0  0
 17 36  1  0  0  0  0
 18 37  1  0  0  0  0
M  CHG  1   6  -1
M  CHG  1  13   1
M  END
> <s_m_source_file>
AV-unprocessed.smi

> <i_m_source_file_index>
1897

> <i_lp_mmshare_version>
43012

> <i_f3d_flags>
0

> <s_epik_input>
W0NIM11jMW5uYyhzMSlbTkhdQyg9TylbTkhdW0NASF0oW0NIMl1bQ0gyXTIpW0NAQEhdKE4yMylbQ0gyXVtDSDJdW0NIMl1bQ0gyXTM=

> <s_epik_cmdline>
J2VwaWtfcHl0aG9uJywgJy1waCcsICc3LjAnLCAnLXRuJywgJzgnLCAnLW1hJywgJzIwMCcsICctbWV0YWxfYmluZGluZycsICctaW1hZScsICc8aW5maWxlLm1hZT4nLCAnLW9tYWUnLCAnPG91dGZpbGUubWFlPic=

> <r_lp_tautomer_probability>
1

> <r_epik_Ionization_Penalty>
3.77712

> <r_epik_Ionization_Penalty_Charging>
3.67739

> <r_epik_Ionization_Penalty_Neutral>
0.0997294

> <r_epik_State_Penalty>
3.67514

> <r_epik_Charging_Adjusted_Penalty>
7.35254

> <i_epik_Tot_Q>
0

> <i_epik_Tot_abs_Q>
2

> <r_epik_Metal_State_Penalty>
0.540795

> <b_epik_Metal_Only>
1

> <s_lp_Force_Field>
OPLS_2005

> <r_lp_Energy>
28.3621

> <b_lp_Chiralities_Consistent>
1

> <s_lp_Variant>
AV-unprocessed.smi:1897-14

> <Gold.Version>
5.8.1

> <Gold.Id.Protein>
6NUR|6NUR_protein|mol2

> <Gold.PLP.Fitness>
38.7329

> <Gold.PLP.PLP>
-38.6495

> <Gold.PLP.part.hbond>
-1.9635

> <Gold.PLP.part.metal>
0.0000

> <Gold.PLP.part.buried>
-5.4686

> <Gold.PLP.part.nonpolar>
-31.9827

> <Gold.PLP.part.repulsive>
0.4813

> <Gold.PLP.ligand.clash>
0.0000

> <Gold.PLP.ligand.torsion>
1.3584

> <Gold.PLP.Chemscore.Hbond>
0.9280

> <Gold.PLP.Chemscore.CHOScore>
0.0000

> <Gold.PLP.Chemscore.Metal>
0.0000

> <Gold.Chemscore.Hbonds>
donor molecule, donor type, donor heavy atom, donor atom, acceptor molecule, acceptor atom, score
      P1  H  7989  7998       L1     8  0.71

> <Gold.PLP.Chemscore.Internal.Correction>
0.0163

> <Gold.Rescore>
     Score         DG    S(hbond)    S(metal)    S(lipo)     H(rot)  DE(clash)    DE(int)     intcor
     15.54     -16.95       0.91        0.00      93.82       1.00       0.04       1.38       ----

> <Gold.Chemscore.Fitness>
15.5359

> <Gold.Chemscore.DG>
-16.9493

> <Gold.Chemscore.ZeroCoef>
-5.4800

> <Gold.Chemscore.Hbond>
0.9138

> <Gold.Chemscore.Metal>
0.0000

> <Gold.Chemscore.Lipo>
93.8237

> <Gold.Chemscore.Internal_Hbond>
0.0000

> <Gold.Chemscore.DEClash>
0.0381

> <Gold.Chemscore.DEInternal>
1.3753

> <Gold.Chemscore.Rot>
1.0000

> <Gold.Chemscore.Internal.Correction>
   9.000000E+99

> <Gold.Chemscore.Hbonds>
donor molecule, donor type, donor heavy atom, donor atom, acceptor molecule, acceptor atom, score
      P1  H  7989  7998       L1     8  0.64

> <Gold.Chemscore.Hbond.Weighted>
-3.0520

> <Gold.Chemscore.Metal.Weighted>
-0.0000

> <Gold.Chemscore.Lipo.Weighted>
-10.9774

> <Gold.Chemscore.Internal_Hbond.Weighted>
0.0000

> <Gold.Chemscore.DEClash.Weighted>
0.0381

> <Gold.Chemscore.DEInternal.Weighted>
1.3753

> <Gold.Chemscore.Rot.Weighted>
2.5600

> <Gold.Chemscore.Internal.Correction.Weighted>
   9.000000E+99

> <Gold.Protein.RotatedTorsions>
[ 6907 6896 6895 6894 ] final  115.85 input  -60.11 | X-H torsion
[ 7974 7965 7964 7962 ] final  151.86 input  175.53 | X-H torsion
[ 8008 7997 7996 7995 ] final  110.46 input   59.86 | X-H torsion
[ 10167 10162 10161 10158 ] final  -25.65 input  -65.29 | X-H torsion
[ 10718 10713 10712 10709 ] final -159.37 input   66.30 | X-H torsion
[ 10763 10752 10751 10750 ] final -135.63 input  -60.55 | X-H torsion
[ 11005 11000 10999 10996 ] final  -16.91 input  -57.11 | X-H torsion

> <Gold.Protein.ActiveResidues>
 VAL166  LYS551  ARG553  GLY616  TRP617  ASP618  TYR619  PRO620  LYS621  CYS622 
 ASP623  PHE694  ASN695  SER759  ASP760  ASP761  ALA762  ILE779  LEU786  VAL792 
 PHE793  MET794  SER795  GLU796  ALA797  LYS798  CYS799  TRP800  GLU811  SER814 

> <Gold.Protein.RotatedAtoms>
  152.4715  133.8041  159.6968 H   0  0  0  0  0  0  0  0  0  0  0  0  # atno 6907 bound_to 6896
  150.8707  133.7500  159.2968 H   0  0  0  0  0  0  0  0  0  0  0  0  # atno 6908 bound_to 6896
  151.5035  135.1066  159.9887 H   0  0  0  0  0  0  0  0  0  0  0  0  # atno 6909 bound_to 6896
  144.8263  139.6593  143.6078 H   0  0  0  0  0  0  0  0  0  0  0  0  # atno 7974 bound_to 7965
  156.2054  140.3038  155.9616 H   0  0  0  0  0  0  0  0  0  0  0  0  # atno 8008 bound_to 7997
  155.2854  140.0439  157.3036 H   0  0  0  0  0  0  0  0  0  0  0  0  # atno 8009 bound_to 7997
  154.5626  140.2325  155.8321 H   0  0  0  0  0  0  0  0  0  0  0  0  # atno 8010 bound_to 7997
  140.7286  143.4246  151.0897 H   0  0  0  0  0  0  0  0  0  0  0  0  # atno 10167 bound_to 10162
  156.5672  130.8672  151.2827 H   0  0  0  0  0  0  0  0  0  0  0  0  # atno 10718 bound_to 10713
  154.8699  135.3697  154.4929 H   0  0  0  0  0  0  0  0  0  0  0  0  # atno 10763 bound_to 10752
  153.5574  135.7023  153.5568 H   0  0  0  0  0  0  0  0  0  0  0  0  # atno 10764 bound_to 10752
  153.3659  135.4034  155.1716 H   0  0  0  0  0  0  0  0  0  0  0  0  # atno 10765 bound_to 10752
  140.8115  133.8137  155.9568 H   0  0  0  0  0  0  0  0  0  0  0  0  # atno 11005 bound_to 11000
  146.2568  139.6319  142.9389 LP  0  0  0  0  0  0  0  0  0  0  0  0  # atno 17320 bound_to 7965
  145.4994  141.0438  143.2549 LP  0  0  0  0  0  0  0  0  0  0  0  0  # atno 17321 bound_to 7965
  139.7896  143.8238  152.3150 LP  0  0  0  0  0  0  0  0  0  0  0  0  # atno 17342 bound_to 10162
  139.8217  144.7293  150.9564 LP  0  0  0  0  0  0  0  0  0  0  0  0  # atno 17343 bound_to 10162
  157.7356  130.9765  150.2090 LP  0  0  0  0  0  0  0  0  0  0  0  0  # atno 17370 bound_to 10713
  156.2747  130.3726  149.7996 LP  0  0  0  0  0  0  0  0  0  0  0  0  # atno 17371 bound_to 10713
  140.9193  134.2162  157.4937 LP  0  0  0  0  0  0  0  0  0  0  0  0  # atno 17394 bound_to 11000
  139.8714  134.9785  156.4999 LP  0  0  0  0  0  0  0  0  0  0  0  0  # atno 17395 bound_to 11000

$$$$
