#       Name:                AV-unprocessed.smi:2634
#       Creating user name   scv26
#       Creation time:       Fri Mar 27 14:26:31 2020


#       File generated by GOLD software.
#

@<TRIPOS>MOLECULE
AV-unprocessed.smi:2634
    30    31     1
SMALL
NO_CHARGES


@<TRIPOS>ATOM
      1 ****         0.2327   2.8395  -0.3591 N.pl3          1 S1                 0.0000
      2 ****        -0.2115   1.5161  -0.3346 C.cat          1 S1                 0.0000
      3 ****        -1.5005   1.0998  -0.3340 N.pl3          1 S1                 1.0000
      4 ****        -2.5932   1.9361  -0.3608 N.3            1 S1                 0.0000
      5 ****        -1.5820  -0.2900  -0.3002 C.ar           1 S1                 0.0000
      6 ****        -2.6636  -1.1663  -0.2853 C.ar           1 S1                 0.0000
      7 ****        -2.3584  -2.5423  -0.2477 C.ar           1 S1                 0.0000
      8 ****        -1.0247  -3.0005  -0.2258 C.ar           1 S1                 0.0000
      9 ****         0.0651  -2.1046  -0.2407 C.ar           1 S1                 0.0000
     10 ****        -0.2376  -0.7437  -0.2794 C.ar           1 S1                 0.0000
     11 ****         0.5771   0.4074  -0.3026 N.pl3          1 S1                 0.0000
     12 ****         2.0379   0.2638  -0.2830 C.3            1 S1                 0.0000
     13 ****         2.5755   0.0934   1.1445 C.3            1 S1                 0.0000
     14 ****         3.9797  -0.0321   1.1090 O.3            1 S1                 0.0000
     15 ****        -0.4149   3.6141  -0.3862 H              1 S1                 0.0000
     16 ****        -2.4940   2.5345  -1.1686 H              1 S1                 0.0000
     17 ****        -2.5444   2.5219   0.4608 H              1 S1                 0.0000
     18 ****        -3.6860  -0.8178  -0.3015 H              1 S1                 0.0000
     19 ****        -3.1643  -3.2619  -0.2351 H              1 S1                 0.0000
     20 ****        -0.8330  -4.0634  -0.1963 H              1 S1                 0.0000
     21 ****         1.0813  -2.4703  -0.2221 H              1 S1                 0.0000
     22 ****         2.3156  -0.5804  -0.9154 H              1 S1                 0.0000
     23 ****         2.4661   1.1536  -0.7459 H              1 S1                 0.0000
     24 ****         2.3106   0.9530   1.7611 H              1 S1                 0.0000
     25 ****         2.1523  -0.7929   1.6182 H              1 S1                 0.0000
     26 ****         4.2972  -0.1332   1.9937 H              1 S1                 0.0000
     27 ****         1.2169   3.0669  -0.3633 H              1 S1                 0.0000
     28 ****        -3.4502   1.4216  -0.3909 LP             1 S1                 0.0000
     29 ****         4.3806   0.7872   0.6991 LP             1 S1                 0.0000
     30 ****         4.2324  -0.8337   0.5671 LP             1 S1                 0.0000
@<TRIPOS>BOND
    1    1    2 ar    
    2    1   15 1     
    3    1   27 1     
    4    2   11 ar    
    5    2    3 ar    
    6    3    4 1     
    7    3    5 1     
    8    4   16 1     
    9    4   17 1     
   10    5   10 ar    
   11    5    6 ar    
   12    6    7 ar    
   13    6   18 1     
   14    7    8 ar    
   15    7   19 1     
   16    8    9 ar    
   17    8   20 1     
   18    9   10 ar    
   19    9   21 1     
   20   10   11 1     
   21   11   12 1     
   22   12   13 1     
   23   12   22 1     
   24   12   23 1     
   25   13   14 1     
   26   13   24 1     
   27   13   25 1     
   28   14   26 1     
   29    4   28 1     
   30   14   29 1     
   31   14   30 1     
@<TRIPOS>SUBSTRUCTURE
      1 S1             1
@<TRIPOS>SET
LONE_PAIRS      STATIC     ATOMS    <user>   **** ""
3 28 29 30
DONOR_HYDROGENS      STATIC     ATOMS    <user>   **** ""
5 15 27 16 17 26
ATOM$BLUE        STATIC     ATOMS    COLORGROUP SYSTEM
3 28 29 30
ATOM$RED        STATIC     ATOMS    COLORGROUP SYSTEM
5 15 27 16 17 26
