AV-unprocessed.smi:1762|AV-procd|sdf|7113|dock10
  -GOLD-   22720 8343D 1   1.00000     0.00000
 Structure written by MMmdl.
 53 54  0  0  0  0  0  0  0  0  2 V2000
  150.9521  134.9323  156.4234 C   0  0  0  0  0  0  0  0  0  0  0  0
  149.8759  135.2985  155.3954 C   0  0  2  0  0  0  0  0  0  0  0  0
  149.4875  136.7851  155.4708 C   0  0  0  0  0  0  0  0  0  0  0  0
  148.3956  137.1020  154.5070 N   0  3  2  0  0  0  0  0  0  0  0  0
  148.0876  138.5719  154.4300 C   0  0  1  0  0  0  0  0  0  0  0  0
  149.3561  139.4152  154.6837 C   0  0  0  0  0  0  0  0  0  0  0  0
  150.3603  139.2458  153.9908 O   0  0  0  0  0  0  0  0  0  0  0  0
  149.2941  140.3157  155.6765 N   0  0  0  0  0  0  0  0  0  0  0  0
  150.3781  141.2125  156.0558 C   0  0  0  0  0  0  0  0  0  0  0  0
  150.7481  141.0150  157.5323 C   0  0  0  0  0  0  0  0  0  0  0  0
  151.4659  142.2200  158.1105 C   0  0  0  0  0  0  0  0  0  0  0  0
  151.5239  143.4356  157.3959 C   0  0  0  0  0  0  0  0  0  0  0  0
  152.1960  144.5262  157.9811 C   0  0  0  0  0  0  0  0  0  0  0  0
  152.7789  144.3609  159.2523 C   0  0  0  0  0  0  0  0  0  0  0  0
  152.6642  143.1064  159.8840 C   0  0  0  0  0  0  0  0  0  0  0  0
  152.0231  142.0541  159.3312 N   0  0  0  0  0  0  0  0  0  0  0  0
  147.3882  139.0166  153.1002 C   0  0  0  0  0  0  0  0  0  0  0  0
  147.0526  140.5217  153.0397 C   0  0  0  0  0  0  0  0  0  0  0  0
  146.1368  138.1829  152.7603 C   0  0  0  0  0  0  0  0  0  0  0  0
  147.2317  136.2180  154.7958 C   0  0  0  0  0  0  0  0  0  0  0  0
  147.6322  134.7293  154.7819 C   0  0  1  0  0  0  0  0  0  0  0  0
  147.8925  134.1798  153.3674 C   0  0  0  0  0  0  0  0  0  0  0  0
  148.7294  134.4992  155.6617 O   0  0  0  0  0  0  0  0  0  0  0  0
  151.8616  135.5121  156.2641 H   0  0  0  0  0  0  0  0  0  0  0  0
  151.2155  133.8767  156.3519 H   0  0  0  0  0  0  0  0  0  0  0  0
  150.6082  135.1212  157.4409 H   0  0  0  0  0  0  0  0  0  0  0  0
  150.2671  135.0712  154.4037 H   0  0  0  0  0  0  0  0  0  0  0  0
  149.1634  137.0396  156.4815 H   0  0  0  0  0  0  0  0  0  0  0  0
  150.3795  137.3782  155.2711 H   0  0  0  0  0  0  0  0  0  0  0  0
  147.3861  138.7779  155.2409 H   0  0  0  0  0  0  0  0  0  0  0  0
  148.4331  140.3939  156.1985 H   0  0  0  0  0  0  0  0  0  0  0  0
  151.2413  141.0115  155.4200 H   0  0  0  0  0  0  0  0  0  0  0  0
  150.0882  142.2512  155.8867 H   0  0  0  0  0  0  0  0  0  0  0  0
  149.8489  140.8245  158.1204 H   0  0  0  0  0  0  0  0  0  0  0  0
  151.3804  140.1332  157.6448 H   0  0  0  0  0  0  0  0  0  0  0  0
  151.0640  143.5329  156.4234 H   0  0  0  0  0  0  0  0  0  0  0  0
  152.2619  145.4725  157.4646 H   0  0  0  0  0  0  0  0  0  0  0  0
  153.3011  145.1756  159.7319 H   0  0  0  0  0  0  0  0  0  0  0  0
  153.0985  142.9436  160.8594 H   0  0  0  0  0  0  0  0  0  0  0  0
  148.0687  138.8002  152.2781 H   0  0  0  0  0  0  0  0  0  0  0  0
  146.2753  140.7906  153.7552 H   0  0  0  0  0  0  0  0  0  0  0  0
  146.6883  140.7968  152.0497 H   0  0  0  0  0  0  0  0  0  0  0  0
  147.9216  141.1451  153.2484 H   0  0  0  0  0  0  0  0  0  0  0  0
  145.3114  138.3812  153.4446 H   0  0  0  0  0  0  0  0  0  0  0  0
  146.3530  137.1148  152.7947 H   0  0  0  0  0  0  0  0  0  0  0  0
  145.7812  138.4102  151.7549 H   0  0  0  0  0  0  0  0  0  0  0  0
  146.8184  136.4824  155.7704 H   0  0  0  0  0  0  0  0  0  0  0  0
  146.4328  136.3421  154.0678 H   0  0  0  0  0  0  0  0  0  0  0  0
  146.7971  134.1589  155.1900 H   0  0  0  0  0  0  0  0  0  0  0  0
  146.9911  134.2413  152.7572 H   0  0  0  0  0  0  0  0  0  0  0  0
  148.1920  133.1323  153.4064 H   0  0  0  0  0  0  0  0  0  0  0  0
  148.6727  134.7323  152.8442 H   0  0  0  0  0  0  0  0  0  0  0  0
  148.7309  136.8421  153.5902 H   0  0  0  0  0  0  0  0  0  0  0  0
  1  2  1  0  0  0  0
  1 24  1  0  0  0  0
  1 25  1  0  0  0  0
  1 26  1  0  0  0  0
  2 23  1  0  0  0  0
  2  3  1  0  0  0  0
  2 27  1  0  0  0  0
  3  4  1  0  0  0  0
  3 28  1  0  0  0  0
  3 29  1  0  0  0  0
  4  5  1  0  0  0  0
  4 20  1  0  0  0  0
  4 53  1  0  0  0  0
  5  6  1  0  0  0  0
  5 17  1  0  0  0  0
  5 30  1  0  0  0  0
  6  7  2  0  0  0  0
  6  8  1  0  0  0  0
  8  9  1  0  0  0  0
  8 31  1  0  0  0  0
  9 10  1  0  0  0  0
  9 32  1  0  0  0  0
  9 33  1  0  0  0  0
 10 11  1  0  0  0  0
 10 34  1  0  0  0  0
 10 35  1  0  0  0  0
 11 16  1  0  0  0  0
 11 12  2  0  0  0  0
 12 13  1  0  0  0  0
 12 36  1  0  0  0  0
 13 14  2  0  0  0  0
 13 37  1  0  0  0  0
 14 15  1  0  0  0  0
 14 38  1  0  0  0  0
 15 16  2  0  0  0  0
 15 39  1  0  0  0  0
 17 18  1  0  0  0  0
 17 19  1  0  0  0  0
 17 40  1  0  0  0  0
 18 41  1  0  0  0  0
 18 42  1  0  0  0  0
 18 43  1  0  0  0  0
 19 44  1  0  0  0  0
 19 45  1  0  0  0  0
 19 46  1  0  0  0  0
 20 21  1  0  0  0  0
 20 47  1  0  0  0  0
 20 48  1  0  0  0  0
 21 22  1  0  0  0  0
 21 23  1  0  0  0  0
 21 49  1  0  0  0  0
 22 50  1  0  0  0  0
 22 51  1  0  0  0  0
 22 52  1  0  0  0  0
M  CHG  1   4   1
M  END
> <s_m_source_file>
AV-unprocessed.smi

> <i_m_source_file_index>
1762

> <i_lp_mmshare_version>
43012

> <i_f3d_flags>
0

> <s_epik_input>
W0NIM11bQ0BASF0xW0NIMl1OKFtDSDJdW0NASF0oTzEpW0NIM10pW0NAQEhdKFtDSF0oW0NIM10pW0NIM10pQyg9TylbTkhdW0NIMl1bQ0gyXWMyW2NIXVtjSF1bY0hdW2NIXW4y

> <s_epik_cmdline>
J2VwaWtfcHl0aG9uJywgJy1waCcsICc3LjAnLCAnLXRuJywgJzgnLCAnLW1hJywgJzIwMCcsICctbWV0YWxfYmluZGluZycsICctaW1hZScsICc8aW5maWxlLm1hZT4nLCAnLW9tYWUnLCAnPG91dGZpbGUubWFlPic=

> <r_epik_Ionization_Penalty>
2.27005

> <r_epik_Ionization_Penalty_Charging>
2.24983

> <r_epik_Ionization_Penalty_Neutral>
0.0202209

> <r_epik_State_Penalty>
2.40228

> <r_epik_Charging_Adjusted_Penalty>
4.65211

> <i_epik_Tot_Q>
1

> <i_epik_Tot_abs_Q>
1

> <r_epik_Metal_State_Penalty>
2.40762

> <b_epik_Metal_Only>
0

> <s_lp_Force_Field>
OPLS_2005

> <r_lp_Energy>
25.3597

> <b_lp_Chiralities_Consistent>
1

> <s_lp_Variant>
AV-unprocessed.smi:1762-15

> <Gold.Version>
5.8.1

> <Gold.Id.Protein>
6NUR|6NUR_protein|mol2

> <Gold.PLP.Fitness>
43.4660

> <Gold.PLP.PLP>
-36.0295

> <Gold.PLP.part.hbond>
-2.0000

> <Gold.PLP.part.metal>
0.0000

> <Gold.PLP.part.buried>
0.5553

> <Gold.PLP.part.nonpolar>
-34.3662

> <Gold.PLP.part.repulsive>
0.4289

> <Gold.PLP.ligand.clash>
0.0550

> <Gold.PLP.ligand.torsion>
0.8471

> <Gold.PLP.Chemscore.Hbond>
3.0000

> <Gold.PLP.Chemscore.CHOScore>
0.0000

> <Gold.PLP.Chemscore.Metal>
0.0000

> <Gold.Chemscore.Hbonds>
donor molecule, donor type, donor heavy atom, donor atom, acceptor molecule, acceptor atom, score
      L1  H     4    53       P1  7948  2.00
      P1  H  7989  7998       L1     7  0.80

> <Gold.PLP.Chemscore.Internal.Correction>
0.1858

> <Gold.Rescore>
     Score         DG    S(hbond)    S(metal)    S(lipo)     H(rot)  DE(clash)    DE(int)     intcor
     18.28     -21.43       1.92        0.00     117.88       1.66       0.39       2.75       ----

> <Gold.Chemscore.Fitness>
18.2813

> <Gold.Chemscore.DG>
-21.4289

> <Gold.Chemscore.ZeroCoef>
-5.4800

> <Gold.Chemscore.Hbond>
1.9207

> <Gold.Chemscore.Metal>
0.0000

> <Gold.Chemscore.Lipo>
117.8843

> <Gold.Chemscore.Internal_Hbond>
0.0000

> <Gold.Chemscore.DEClash>
0.3943

> <Gold.Chemscore.DEInternal>
2.7534

> <Gold.Chemscore.Rot>
1.6635

> <Gold.Chemscore.Internal.Correction>
   9.000000E+99

> <Gold.Chemscore.Hbonds>
donor molecule, donor type, donor heavy atom, donor atom, acceptor molecule, acceptor atom, score
      L1  H     4    53       P1  7948  1.00
      P1  H  7989  7998       L1     7  0.76

> <Gold.Chemscore.Hbond.Weighted>
-6.4151

> <Gold.Chemscore.Metal.Weighted>
-0.0000

> <Gold.Chemscore.Lipo.Weighted>
-13.7925

> <Gold.Chemscore.Internal_Hbond.Weighted>
0.0000

> <Gold.Chemscore.DEClash.Weighted>
0.3943

> <Gold.Chemscore.DEInternal.Weighted>
2.7534

> <Gold.Chemscore.Rot.Weighted>
4.2586

> <Gold.Chemscore.Internal.Correction.Weighted>
   9.000000E+99

> <Gold.Protein.RotatedTorsions>
[ 6907 6896 6895 6894 ] final   61.34 input  -60.11 | X-H torsion
[ 7974 7965 7964 7962 ] final -137.05 input  175.53 | X-H torsion
[ 8008 7997 7996 7995 ] final -100.00 input   59.86 | X-H torsion
[ 10167 10162 10161 10158 ] final  -45.15 input  -65.29 | X-H torsion
[ 10718 10713 10712 10709 ] final   31.16 input   66.30 | X-H torsion
[ 10763 10752 10751 10750 ] final  -86.36 input  -60.55 | X-H torsion
[ 11005 11000 10999 10996 ] final  -15.76 input  -57.11 | X-H torsion

> <Gold.Protein.ActiveResidues>
 VAL166  LYS551  ARG553  GLY616  TRP617  ASP618  TYR619  PRO620  LYS621  CYS622 
 ASP623  PHE694  ASN695  SER759  ASP760  ASP761  ALA762  ILE779  LEU786  VAL792 
 PHE793  MET794  SER795  GLU796  ALA797  LYS798  CYS799  TRP800  GLU811  SER814 

> <Gold.Protein.RotatedAtoms>
  152.4080  134.6173  160.0041 H   0  0  0  0  0  0  0  0  0  0  0  0  # atno 6907 bound_to 6896
  151.6359  133.3323  159.3127 H   0  0  0  0  0  0  0  0  0  0  0  0  # atno 6908 bound_to 6896
  150.7973  134.7083  159.6634 H   0  0  0  0  0  0  0  0  0  0  0  0  # atno 6909 bound_to 6896
  144.8875  140.6595  143.5166 H   0  0  0  0  0  0  0  0  0  0  0  0  # atno 7974 bound_to 7965
  154.8225  140.0444  157.1421 H   0  0  0  0  0  0  0  0  0  0  0  0  # atno 8008 bound_to 7997
  154.9243  140.3031  155.5180 H   0  0  0  0  0  0  0  0  0  0  0  0  # atno 8009 bound_to 7997
  156.2981  140.2335  156.4296 H   0  0  0  0  0  0  0  0  0  0  0  0  # atno 8010 bound_to 7997
  140.6869  143.2894  151.3598 H   0  0  0  0  0  0  0  0  0  0  0  0  # atno 10167 bound_to 10162
  157.2688  130.7198  149.6493 H   0  0  0  0  0  0  0  0  0  0  0  0  # atno 10718 bound_to 10713
  154.6215  135.5452  153.7580 H   0  0  0  0  0  0  0  0  0  0  0  0  # atno 10763 bound_to 10752
  153.0241  135.6414  154.1433 H   0  0  0  0  0  0  0  0  0  0  0  0  # atno 10764 bound_to 10752
  154.1367  135.2911  155.3151 H   0  0  0  0  0  0  0  0  0  0  0  0  # atno 10765 bound_to 10752
  140.7999  133.8222  155.9460 H   0  0  0  0  0  0  0  0  0  0  0  0  # atno 11005 bound_to 11000
  145.3843  139.1630  143.4264 LP  0  0  0  0  0  0  0  0  0  0  0  0  # atno 17320 bound_to 7965
  146.3033  140.3926  142.8696 LP  0  0  0  0  0  0  0  0  0  0  0  0  # atno 17321 bound_to 7965
  139.6235  144.0859  152.2413 LP  0  0  0  0  0  0  0  0  0  0  0  0  # atno 17342 bound_to 10162
  140.0311  144.6080  150.7487 LP  0  0  0  0  0  0  0  0  0  0  0  0  # atno 17343 bound_to 10162
  155.9663  130.4374  150.5174 LP  0  0  0  0  0  0  0  0  0  0  0  0  # atno 17370 bound_to 10713
  157.3094  131.0661  151.2012 LP  0  0  0  0  0  0  0  0  0  0  0  0  # atno 17371 bound_to 10713
  140.9305  134.2028  157.4867 LP  0  0  0  0  0  0  0  0  0  0  0  0  # atno 17394 bound_to 11000
  139.8722  134.9830  156.5182 LP  0  0  0  0  0  0  0  0  0  0  0  0  # atno 17395 bound_to 11000

$$$$
