AV-unprocessed.smi:1443|AV-procd|sdf|5877|dock7
  -GOLD-   22720 5553D 1   1.00000     0.00000
 Structure written by MMmdl.
 27 28  0  0  0  0  0  0  0  0  1 V2000
  141.1674  146.3062  160.9596 C   0  0  0  0  0  0  0  0  0  0  0  0
  141.9435  145.3191  159.6502 S   0  0  0  0  0  0  0  0  0  0  0  0
  143.5556  144.9142  160.2401 C   0  0  0  0  0  0  0  0  0  0  0  0
  143.7147  144.2290  161.3870 N   0  0  0  0  0  0  0  0  0  0  0  0
  145.3695  144.0143  161.6607 S   0  0  0  0  0  0  0  0  0  0  0  0
  145.7540  144.8698  160.1962 C   0  0  0  0  0  0  0  0  0  0  0  0
  147.0950  145.0888  159.7656 N   0  0  0  0  0  0  0  0  0  0  0  0
  148.2748  144.8552  160.3807 C   0  0  0  0  0  0  0  0  0  0  0  0
  148.3160  144.3697  161.5099 O   0  0  0  0  0  0  0  0  0  0  0  0
  149.3762  145.1813  159.6860 N   0  0  0  0  0  0  0  0  0  0  0  0
  150.7234  145.0265  160.1246 C   0  0  2  0  0  0  0  0  0  0  0  0
  151.7969  145.6402  159.2524 C   0  0  0  0  0  0  0  0  0  0  0  0
  151.6380  144.1444  159.2986 C   0  0  1  0  0  0  0  0  0  0  0  0
  152.7005  143.2915  159.9571 C   0  0  0  0  0  0  0  0  0  0  0  0
  144.6565  145.2811  159.5613 N   0  0  0  0  0  0  0  0  0  0  0  0
  140.1555  146.5876  160.6683 H   0  0  0  0  0  0  0  0  0  0  0  0
  141.7404  147.2155  161.1424 H   0  0  0  0  0  0  0  0  0  0  0  0
  141.1141  145.7362  161.8875 H   0  0  0  0  0  0  0  0  0  0  0  0
  147.1770  145.4795  158.8383 H   0  0  0  0  0  0  0  0  0  0  0  0
  149.2440  145.5739  158.7647 H   0  0  0  0  0  0  0  0  0  0  0  0
  150.9078  145.0518  161.1978 H   0  0  0  0  0  0  0  0  0  0  0  0
  151.4858  146.1474  158.3407 H   0  0  0  0  0  0  0  0  0  0  0  0
  152.6588  146.0761  159.7540 H   0  0  0  0  0  0  0  0  0  0  0  0
  151.1966  143.6855  158.4154 H   0  0  0  0  0  0  0  0  0  0  0  0
  153.1140  143.7935  160.8324 H   0  0  0  0  0  0  0  0  0  0  0  0
  153.5098  143.0935  159.2543 H   0  0  0  0  0  0  0  0  0  0  0  0
  152.2723  142.3399  160.2724 H   0  0  0  0  0  0  0  0  0  0  0  0
  1  2  1  0  0  0  0
  1 16  1  0  0  0  0
  1 17  1  0  0  0  0
  1 18  1  0  0  0  0
  2  3  1  0  0  0  0
  3 15  1  0  0  0  0
  3  4  2  0  0  0  0
  4  5  1  0  0  0  0
  5  6  1  0  0  0  0
  6  7  1  0  0  0  0
  6 15  2  0  0  0  0
  7  8  1  0  0  0  0
  7 19  1  0  0  0  0
  8  9  2  0  0  0  0
  8 10  1  0  0  0  0
 10 11  1  0  0  0  0
 10 20  1  0  0  0  0
 11 13  1  0  0  0  0
 11 12  1  0  0  0  0
 11 21  1  0  0  0  0
 12 13  1  0  0  0  0
 12 22  1  0  0  0  0
 12 23  1  0  0  0  0
 13 14  1  0  0  0  0
 13 24  1  0  0  0  0
 14 25  1  0  0  0  0
 14 26  1  0  0  0  0
 14 27  1  0  0  0  0
M  END
> <s_m_source_file>
AV-unprocessed.smi

> <i_m_source_file_index>
1443

> <i_lp_mmshare_version>
43012

> <i_f3d_flags>
0

> <s_epik_input>
W0NIM11TYzFuc2MobjEpW05IXUMoPU8pW05IXVtDQEBIXTJbQ0gyXVtDQEhdMltDSDNd

> <s_epik_cmdline>
J2VwaWtfcHl0aG9uJywgJy1waCcsICc3LjAnLCAnLXRuJywgJzgnLCAnLW1hJywgJzIwMCcsICctbWV0YWxfYmluZGluZycsICctaW1hZScsICc8aW5maWxlLm1hZT4nLCAnLW9tYWUnLCAnPG91dGZpbGUubWFlPic=

> <r_lp_tautomer_probability>
1

> <r_epik_Ionization_Penalty>
2.74658e-05

> <r_epik_Ionization_Penalty_Charging>
0

> <r_epik_Ionization_Penalty_Neutral>
2.74658e-05

> <r_epik_State_Penalty>
-0

> <r_epik_Charging_Adjusted_Penalty>
0

> <i_epik_Tot_Q>
0

> <i_epik_Tot_abs_Q>
0

> <r_epik_Metal_State_Penalty>
-0

> <b_epik_Metal_Only>
0

> <s_lp_Force_Field>
OPLS_2005

> <r_lp_Energy>
20.7527

> <b_lp_Chiralities_Consistent>
1

> <s_lp_Variant>
AV-unprocessed.smi:1443-1

> <Gold.Version>
5.8.1

> <Gold.Id.Protein>
6NUR|6NUR_protein|mol2

> <Gold.PLP.Fitness>
38.9535

> <Gold.PLP.PLP>
-30.5688

> <Gold.PLP.part.hbond>
-3.0000

> <Gold.PLP.part.metal>
0.0000

> <Gold.PLP.part.buried>
-5.3953

> <Gold.PLP.part.nonpolar>
-23.2686

> <Gold.PLP.part.repulsive>
0.7515

> <Gold.PLP.ligand.clash>
0.0000

> <Gold.PLP.ligand.torsion>
0.0481

> <Gold.PLP.Chemscore.Hbond>
2.8159

> <Gold.PLP.Chemscore.CHOScore>
0.0000

> <Gold.PLP.Chemscore.Metal>
0.0000

> <Gold.Chemscore.Hbonds>
donor molecule, donor type, donor heavy atom, donor atom, acceptor molecule, acceptor atom, score
      L1  H     7    19       P1  8029  1.00
      L1  H    10    20       P1  8029  0.92
      P1  H  6933  6944       L1     9  0.90

> <Gold.PLP.Chemscore.Internal.Correction>
0.0332

> <Gold.Rescore>
     Score         DG    S(hbond)    S(metal)    S(lipo)     H(rot)  DE(clash)    DE(int)     intcor
     18.30     -19.17       2.89        0.00      62.31       1.27       0.05       0.81       ----

> <Gold.Chemscore.Fitness>
18.3033

> <Gold.Chemscore.DG>
-19.1689

> <Gold.Chemscore.ZeroCoef>
-5.4800

> <Gold.Chemscore.Hbond>
2.8891

> <Gold.Chemscore.Metal>
0.0000

> <Gold.Chemscore.Lipo>
62.3100

> <Gold.Chemscore.Internal_Hbond>
0.0000

> <Gold.Chemscore.DEClash>
0.0530

> <Gold.Chemscore.DEInternal>
0.8127

> <Gold.Chemscore.Rot>
1.2699

> <Gold.Chemscore.Internal.Correction>
   9.000000E+99

> <Gold.Chemscore.Hbonds>
donor molecule, donor type, donor heavy atom, donor atom, acceptor molecule, acceptor atom, score
      L1  H     7    19       P1  8029  1.00
      L1  H    10    20       P1  8029  0.82
      P1  H  6933  6944       L1     9  0.69

> <Gold.Chemscore.Hbond.Weighted>
-9.6496

> <Gold.Chemscore.Metal.Weighted>
-0.0000

> <Gold.Chemscore.Lipo.Weighted>
-7.2903

> <Gold.Chemscore.Internal_Hbond.Weighted>
0.0000

> <Gold.Chemscore.DEClash.Weighted>
0.0530

> <Gold.Chemscore.DEInternal.Weighted>
0.8127

> <Gold.Chemscore.Rot.Weighted>
3.2509

> <Gold.Chemscore.Internal.Correction.Weighted>
   9.000000E+99

> <Gold.Protein.RotatedTorsions>
[ 6907 6896 6895 6894 ] final   68.49 input  -60.11 | X-H torsion
[ 7974 7965 7964 7962 ] final  -49.53 input  175.53 | X-H torsion
[ 8008 7997 7996 7995 ] final  -43.03 input   59.86 | X-H torsion
[ 10167 10162 10161 10158 ] final  -47.99 input  -65.29 | X-H torsion
[ 10718 10713 10712 10709 ] final   69.34 input   66.30 | X-H torsion
[ 10763 10752 10751 10750 ] final -168.90 input  -60.55 | X-H torsion
[ 11005 11000 10999 10996 ] final   36.07 input  -57.11 | X-H torsion

> <Gold.Protein.ActiveResidues>
 VAL166  LYS551  ARG553  GLY616  TRP617  ASP618  TYR619  PRO620  LYS621  CYS622 
 ASP623  PHE694  ASN695  SER759  ASP760  ASP761  ALA762  ILE779  LEU786  VAL792 
 PHE793  MET794  SER795  GLU796  ALA797  LYS798  CYS799  TRP800  GLU811  SER814 

> <Gold.Protein.RotatedAtoms>
  152.4624  134.5154  159.9766 H   0  0  0  0  0  0  0  0  0  0  0  0  # atno 6907 bound_to 6896
  151.5200  133.3462  159.2907 H   0  0  0  0  0  0  0  0  0  0  0  0  # atno 6908 bound_to 6896
  150.8592  134.7969  159.7132 H   0  0  0  0  0  0  0  0  0  0  0  0  # atno 6909 bound_to 6896
  145.9395  140.7675  142.9559 H   0  0  0  0  0  0  0  0  0  0  0  0  # atno 7974 bound_to 7965
  154.3997  140.1458  156.3453 H   0  0  0  0  0  0  0  0  0  0  0  0  # atno 8008 bound_to 7997
  155.8319  140.3465  155.5556 H   0  0  0  0  0  0  0  0  0  0  0  0  # atno 8009 bound_to 7997
  155.8179  140.0893  157.1856 H   0  0  0  0  0  0  0  0  0  0  0  0  # atno 8010 bound_to 7997
  140.6751  143.2760  151.4006 H   0  0  0  0  0  0  0  0  0  0  0  0  # atno 10167 bound_to 10162
  157.6340  130.9420  150.0500 H   0  0  0  0  0  0  0  0  0  0  0  0  # atno 10718 bound_to 10713
  154.6580  135.2921  154.9903 H   0  0  0  0  0  0  0  0  0  0  0  0  # atno 10763 bound_to 10752
  154.0973  135.6582  153.4866 H   0  0  0  0  0  0  0  0  0  0  0  0  # atno 10764 bound_to 10752
  153.0413  135.5234  154.7517 H   0  0  0  0  0  0  0  0  0  0  0  0  # atno 10765 bound_to 10752
  140.2363  134.3468  155.7943 H   0  0  0  0  0  0  0  0  0  0  0  0  # atno 11005 bound_to 11000
  144.6777  140.2257  143.7361 LP  0  0  0  0  0  0  0  0  0  0  0  0  # atno 17320 bound_to 7965
  145.8318  139.2089  143.1878 LP  0  0  0  0  0  0  0  0  0  0  0  0  # atno 17321 bound_to 7965
  139.6039  144.1238  152.2228 LP  0  0  0  0  0  0  0  0  0  0  0  0  # atno 17342 bound_to 10162
  140.0631  144.5840  150.7248 LP  0  0  0  0  0  0  0  0  0  0  0  0  # atno 17343 bound_to 10162
  156.1565  130.3643  149.9361 LP  0  0  0  0  0  0  0  0  0  0  0  0  # atno 17370 bound_to 10713
  156.7369  130.9065  151.3629 LP  0  0  0  0  0  0  0  0  0  0  0  0  # atno 17371 bound_to 10713
  141.2214  133.7273  156.8813 LP  0  0  0  0  0  0  0  0  0  0  0  0  # atno 17394 bound_to 11000
  140.1699  134.9107  157.2820 LP  0  0  0  0  0  0  0  0  0  0  0  0  # atno 17395 bound_to 11000

$$$$
