#       Name:                AV-unprocessed.smi:870
#       Creating user name   scv26
#       Creation time:       Fri Mar 27 01:49:48 2020


#       File generated by GOLD software.
#

@<TRIPOS>MOLECULE
AV-unprocessed.smi:870
    53    55     1
SMALL
NO_CHARGES


@<TRIPOS>ATOM
      1 ****         0.0973   3.0141   3.9452 C.3            1 S1                 0.0000
      2 ****        -0.4298   3.2993   2.6613 O.3            1 S1                 0.0000
      3 ****        -0.4731   2.1539   1.8260 C.3            1 S1                 0.0000
      4 ****        -1.0305   2.4688   0.4765 C.2            1 S1                 0.0000
      5 ****        -1.5712   3.6578   0.0866 N.pl3          1 S1                 1.0000
      6 ****        -1.9877   3.5753  -1.2424 C.ar           1 S1                 0.0000
      7 ****        -2.5891   4.5196  -2.0687 C.ar           1 S1                 0.0000
      8 ****        -2.8856   4.1110  -3.3855 C.ar           1 S1                 0.0000
      9 ****        -2.5836   2.8095  -3.8358 C.ar           1 S1                 0.0000
     10 ****        -1.9745   1.8605  -2.9886 C.ar           1 S1                 0.0000
     11 ****        -1.6861   2.2713  -1.6870 C.ar           1 S1                 0.0000
     12 ****        -1.0973   1.6251  -0.5928 N.pl3          1 S1                 0.0000
     13 ****        -0.6610   0.2250  -0.7168 C.3            1 S1                 0.0000
     14 ****         0.8341   0.0924  -1.0699 C.3            1 S1                 0.0000
     15 ****         1.0988   0.7190  -2.3086 O.3            1 S1                 0.0000
     16 ****         1.2864  -1.3719  -1.1580 C.3            1 S1                 0.0000
     17 ****         1.2039  -1.9520   0.1367 O.3            1 S1                 0.0000
     18 ****         1.5450  -3.2802   0.2871 C.ar           1 S1                 0.0000
     19 ****         2.0108  -4.0986  -0.7736 C.ar           1 S1                 0.0000
     20 ****         2.3411  -5.4477  -0.5444 C.ar           1 S1                 0.0000
     21 ****         2.2118  -5.9969   0.7436 C.ar           1 S1                 0.0000
     22 ****         1.7508  -5.1949   1.8033 C.ar           1 S1                 0.0000
     23 ****         1.4183  -3.8424   1.5790 C.ar           1 S1                 0.0000
     24 ****         0.9203  -2.9915   2.7323 C.3            1 S1                 0.0000
     25 ****         0.1107   3.9234   4.5461 H              1 S1                 0.0000
     26 ****         1.1199   2.6408   3.8774 H              1 S1                 0.0000
     27 ****        -0.5121   2.2750   4.4667 H              1 S1                 0.0000
     28 ****         0.5308   1.7451   1.7045 H              1 S1                 0.0000
     29 ****        -1.0900   1.3804   2.2857 H              1 S1                 0.0000
     30 ****        -2.8196   5.5178  -1.7265 H              1 S1                 0.0000
     31 ****        -3.3528   4.8099  -4.0642 H              1 S1                 0.0000
     32 ****        -2.8230   2.5331  -4.8524 H              1 S1                 0.0000
     33 ****        -1.7434   0.8684  -3.3473 H              1 S1                 0.0000
     34 ****        -0.8611  -0.2581   0.2403 H              1 S1                 0.0000
     35 ****        -1.2881  -0.2868  -1.4469 H              1 S1                 0.0000
     36 ****         1.4341   0.6008  -0.3143 H              1 S1                 0.0000
     37 ****         0.8931   1.6378  -2.2287 H              1 S1                 0.0000
     38 ****         0.6607  -1.9159  -1.8680 H              1 S1                 0.0000
     39 ****         2.3184  -1.4165  -1.5104 H              1 S1                 0.0000
     40 ****         2.1251  -3.7152  -1.7760 H              1 S1                 0.0000
     41 ****         2.6944  -6.0621  -1.3594 H              1 S1                 0.0000
     42 ****         2.4655  -7.0321   0.9187 H              1 S1                 0.0000
     43 ****         1.6528  -5.6238   2.7898 H              1 S1                 0.0000
     44 ****         0.8784  -3.5614   3.6610 H              1 S1                 0.0000
     45 ****        -0.0808  -2.6154   2.5200 H              1 S1                 0.0000
     46 ****         1.5826  -2.1392   2.8876 H              1 S1                 0.0000
     47 ****        -1.6469   4.4652   0.6921 H              1 S1                 0.0000
     48 ****         0.1443   3.9926   2.2256 LP             1 S1                 0.0000
     49 ****        -1.3586   3.6543   2.7674 LP             1 S1                 0.0000
     50 ****         0.5330   0.3073  -3.0230 LP             1 S1                 0.0000
     51 ****         2.0646   0.6085  -2.5433 LP             1 S1                 0.0000
     52 ****         0.2574  -1.8539   0.4441 LP             1 S1                 0.0000
     53 ****         1.8054  -1.4233   0.7356 LP             1 S1                 0.0000
@<TRIPOS>BOND
    1    1    2 1     
    2    1   25 1     
    3    1   26 1     
    4    1   27 1     
    5    2    3 1     
    6    3    4 1     
    7    3   28 1     
    8    3   29 1     
    9    4   12 1     
   10    4    5 2     
   11    5    6 1     
   12    5   47 1     
   13    6   11 ar    
   14    6    7 ar    
   15    7    8 ar    
   16    7   30 1     
   17    8    9 ar    
   18    8   31 1     
   19    9   10 ar    
   20    9   32 1     
   21   10   11 ar    
   22   10   33 1     
   23   11   12 1     
   24   12   13 1     
   25   13   14 1     
   26   13   34 1     
   27   13   35 1     
   28   14   15 1     
   29   14   16 1     
   30   14   36 1     
   31   15   37 1     
   32   16   17 1     
   33   16   38 1     
   34   16   39 1     
   35   17   18 1     
   36   18   23 ar    
   37   18   19 ar    
   38   19   20 ar    
   39   19   40 1     
   40   20   21 ar    
   41   20   41 1     
   42   21   22 ar    
   43   21   42 1     
   44   22   23 ar    
   45   22   43 1     
   46   23   24 1     
   47   24   44 1     
   48   24   45 1     
   49   24   46 1     
   50    2   48 1     
   51    2   49 1     
   52   15   50 1     
   53   15   51 1     
   54   17   52 1     
   55   17   53 1     
@<TRIPOS>SUBSTRUCTURE
      1 S1             1
@<TRIPOS>SET
LONE_PAIRS      STATIC     ATOMS    <user>   **** ""
6 48 49 50 51 52 53
DONOR_HYDROGENS      STATIC     ATOMS    <user>   **** ""
2 47 37
ATOM$BLUE        STATIC     ATOMS    COLORGROUP SYSTEM
6 48 49 50 51 52 53
ATOM$RED        STATIC     ATOMS    COLORGROUP SYSTEM
2 47 37
