#       Name:                AV-unprocessed.smi:2357
#       Creating user name   scv26
#       Creation time:       Fri Mar 27 13:03:26 2020


#       File generated by GOLD software.
#

@<TRIPOS>MOLECULE
AV-unprocessed.smi:2357
    44    45     1
SMALL
NO_CHARGES


@<TRIPOS>ATOM
      1 ****        -4.9558  -0.0715  -0.9649 C.3            1 S1                 0.0000
      2 ****        -3.5284   0.4377  -1.0420 C.2            1 S1                 0.0000
      3 ****        -3.2511   1.8493  -0.8738 C.2            1 S1                 0.0000
      4 ****        -1.9827   2.2816  -0.9362 C.2            1 S1                 0.0000
      5 ****        -0.9086   1.4037  -1.1645 N.am           1 S1                 0.0000
      6 ****         0.4438   1.9842  -1.1926 C.3            1 S1                 0.0000
      7 ****         1.1913   1.7550   0.1266 C.2            1 S1                 0.0000
      8 ****         0.6440   2.0063   1.2004 O.2            1 S1                 0.0000
      9 ****         2.4411   1.2793   0.0265 N.am           1 S1                 0.0000
     10 ****         3.2877   0.8920   1.1504 C.3            1 S1                 0.0000
     11 ****         2.9807  -0.5290   1.6695 C.3            1 S1                 0.0000
     12 ****         2.9727  -1.6433   0.6158 C.3            1 S1                 0.0000
     13 ****         2.0448  -2.6558   1.2477 C.3            1 S1                 0.0000
     14 ****         0.9998  -1.7521   1.8927 C.3            1 S1                 0.0000
     15 ****         1.7070  -0.5884   2.3096 O.3            1 S1                 0.0000
     16 ****        -1.0960   0.0604  -1.3395 C.2            1 S1                 0.0000
     17 ****        -0.1508  -0.7039  -1.5458 O.2            1 S1                 0.0000
     18 ****        -2.4900  -0.4038  -1.2623 C.2            1 S1                 0.0000
     19 ****        -2.6826  -1.8083  -1.4312 C.1            1 S1                 0.0000
     20 ****        -2.8575  -2.9453  -1.5602 N.1            1 S1                 0.0000
     21 ****        -5.6542   0.7410  -0.7628 H              1 S1                 0.0000
     22 ****        -5.0554  -0.8084  -0.1676 H              1 S1                 0.0000
     23 ****        -5.2445  -0.5397  -1.9063 H              1 S1                 0.0000
     24 ****        -4.0531   2.5502  -0.6936 H              1 S1                 0.0000
     25 ****        -1.7117   3.3196  -0.8087 H              1 S1                 0.0000
     26 ****         1.0119   1.5704  -2.0281 H              1 S1                 0.0000
     27 ****         0.4031   3.0583  -1.3775 H              1 S1                 0.0000
     28 ****         2.8123   1.1157  -0.8982 H              1 S1                 0.0000
     29 ****         4.3224   0.9339   0.8093 H              1 S1                 0.0000
     30 ****         3.2039   1.6189   1.9599 H              1 S1                 0.0000
     31 ****         3.7148  -0.7864   2.4343 H              1 S1                 0.0000
     32 ****         2.5447  -1.3070  -0.3289 H              1 S1                 0.0000
     33 ****         3.9669  -2.0428   0.4138 H              1 S1                 0.0000
     34 ****         1.6179  -3.3556   0.5286 H              1 S1                 0.0000
     35 ****         2.5741  -3.2265   2.0121 H              1 S1                 0.0000
     36 ****         0.2475  -1.4569   1.1605 H              1 S1                 0.0000
     37 ****         0.4891  -2.2310   2.7282 H              1 S1                 0.0000
     38 ****        -0.2908   2.3610   1.2141 LP             1 S1                 0.0000
     39 ****         1.1343   1.8556   2.0588 LP             1 S1                 0.0000
     40 ****         1.1774   0.2244   2.0670 LP             1 S1                 0.0000
     41 ****         1.8367  -0.6183   3.3007 LP             1 S1                 0.0000
     42 ****         0.7818  -0.3456  -1.5887 LP             1 S1                 0.0000
     43 ****        -0.3168  -1.6822  -1.6703 LP             1 S1                 0.0000
     44 ****        -3.0086  -3.9276  -1.6717 LP             1 S1                 0.0000
@<TRIPOS>BOND
    1    1    2 1     
    2    1   21 1     
    3    1   22 1     
    4    1   23 1     
    5    2   18 2     
    6    2    3 1     
    7    3    4 2     
    8    3   24 1     
    9    4    5 1     
   10    4   25 1     
   11    5    6 1     
   12    5   16 am    
   13    6    7 1     
   14    6   26 1     
   15    6   27 1     
   16    7    8 2     
   17    7    9 am    
   18    9   10 1     
   19    9   28 1     
   20   10   11 1     
   21   10   29 1     
   22   10   30 1     
   23   11   15 1     
   24   11   12 1     
   25   11   31 1     
   26   12   13 1     
   27   12   32 1     
   28   12   33 1     
   29   13   14 1     
   30   13   34 1     
   31   13   35 1     
   32   14   15 1     
   33   14   36 1     
   34   14   37 1     
   35   16   17 2     
   36   16   18 1     
   37   18   19 1     
   38   19   20 3     
   39    8   38 1     
   40    8   39 1     
   41   15   40 1     
   42   15   41 1     
   43   17   42 1     
   44   17   43 1     
   45   20   44 1     
@<TRIPOS>SUBSTRUCTURE
      1 S1             1
@<TRIPOS>SET
LONE_PAIRS      STATIC     ATOMS    <user>   **** ""
7 38 39 40 41 42 43 44
DONOR_HYDROGENS      STATIC     ATOMS    <user>   **** ""
1 28
ATOM$BLUE        STATIC     ATOMS    COLORGROUP SYSTEM
7 38 39 40 41 42 43 44
ATOM$RED        STATIC     ATOMS    COLORGROUP SYSTEM
1 28
