#       Name:                AV-unprocessed.smi:218
#       Creating user name   scv26
#       Creation time:       Thu Mar 26 20:10:36 2020


#       File generated by GOLD software.
#

@<TRIPOS>MOLECULE
AV-unprocessed.smi:218
    68    71     1
SMALL
NO_CHARGES


@<TRIPOS>ATOM
      1 ****        -3.0004   4.2275  -3.4316 C.3            1 S1                 0.0000
      2 ****        -3.5486   3.3227  -2.3217 C.3            1 S1                 0.0000
      3 ****        -3.1632   3.8537  -0.9301 C.3            1 S1                 0.0000
      4 ****        -2.9876   2.0254  -2.5311 O.3            1 S1                 0.0000
      5 ****        -3.5818   0.9128  -1.9673 C.ar           1 S1                 0.0000
      6 ****        -2.9534  -0.3372  -2.1381 C.ar           1 S1                 0.0000
      7 ****        -3.5427  -1.4825  -1.5624 C.ar           1 S1                 0.0000
      8 ****        -2.8990  -2.8514  -1.7098 C.3            1 S1                 0.0000
      9 ****        -1.4589  -2.8799  -1.4756 N.pl3          1 S1                 0.0000
     10 ****        -0.9616  -2.5824  -0.2551 C.ar           1 S1                 0.0000
     11 ****        -1.7585  -2.5776   0.8458 N.ar           1 S1                 0.0000
     12 ****        -1.2430  -2.2838   2.0435 C.ar           1 S1                 0.0000
     13 ****         0.0184  -1.9774   2.3575 N.ar           1 S1                 0.0000
     14 ****         0.8211  -1.9864   1.2541 C.ar           1 S1                 0.0000
     15 ****         0.4115  -2.2746  -0.0767 C.ar           1 S1                 0.0000
     16 ****         1.5001  -2.1806  -0.9340 N.2            1 S1                 0.0000
     17 ****         2.4932  -1.8567  -0.1494 C.2            1 S1                 0.0000
     18 ****         2.1709  -1.7225   1.1848 N.pl3          1 S1                 0.0000
     19 ****         3.0492  -1.3692   2.3415 C.3            1 S1                 0.0000
     20 ****         4.3742  -1.6088   1.9620 O.3            1 S1                 0.0000
     21 ****         5.1255  -0.3964   1.9313 C.3            1 S1                 0.0000
     22 ****         6.1264  -0.4361   0.7656 C.3            1 S1                 0.0000
     23 ****         7.0345   0.6408   0.8572 O.3            1 S1                 0.0000
     24 ****         4.0685   0.7058   1.8325 C.3            1 S1                 0.0000
     25 ****         4.5089   1.9562   2.3263 O.3            1 S1                 0.0000
     26 ****         2.9166   0.1285   2.6421 C.3            1 S1                 0.0000
     27 ****         3.0285   0.3754   4.0320 O.3            1 S1                 0.0000
     28 ****        -4.7475  -1.3322  -0.8479 C.ar           1 S1                 0.0000
     29 ****        -5.3037  -0.0435  -0.7352 C.ar           1 S1                 0.0000
     30 ****        -4.7411   1.0566  -1.2783 N.ar           1 S1                 0.0000
     31 ****         2.7244  -2.0297   3.1468 H              1 S1                 0.0000
     32 ****         5.6528  -0.3271   2.8846 H              1 S1                 0.0000
     33 ****         3.7527   0.8240   0.7949 H              1 S1                 0.0000
     34 ****         1.9510   0.5131   2.3098 H              1 S1                 0.0000
     35 ****        -3.3939   5.2405  -3.3441 H              1 S1                 0.0000
     36 ****        -3.2779   3.8484  -4.4154 H              1 S1                 0.0000
     37 ****        -1.9123   4.2865  -3.3928 H              1 S1                 0.0000
     38 ****        -4.6344   3.3039  -2.4274 H              1 S1                 0.0000
     39 ****        -3.5503   4.8612  -0.7765 H              1 S1                 0.0000
     40 ****        -2.0802   3.8914  -0.8108 H              1 S1                 0.0000
     41 ****        -3.5612   3.2271  -0.1324 H              1 S1                 0.0000
     42 ****        -2.0315  -0.4105  -2.6961 H              1 S1                 0.0000
     43 ****        -3.3883  -3.5660  -1.0465 H              1 S1                 0.0000
     44 ****        -3.0824  -3.2034  -2.7250 H              1 S1                 0.0000
     45 ****        -0.8830  -2.9089  -2.3047 H              1 S1                 0.0000
     46 ****        -1.9410  -2.2970   2.8676 H              1 S1                 0.0000
     47 ****         3.4931  -1.7091  -0.5297 H              1 S1                 0.0000
     48 ****         6.6986  -1.3636   0.7948 H              1 S1                 0.0000
     49 ****         5.6143  -0.4039  -0.1962 H              1 S1                 0.0000
     50 ****         6.5451   1.4497   0.8400 H              1 S1                 0.0000
     51 ****         4.7080   1.8580   3.2454 H              1 S1                 0.0000
     52 ****         2.2977  -0.0355   4.4684 H              1 S1                 0.0000
     53 ****        -5.2343  -2.1814  -0.3914 H              1 S1                 0.0000
     54 ****        -6.2251   0.1083  -0.1930 H              1 S1                 0.0000
     55 ****        -2.0500   2.0577  -2.1848 LP             1 S1                 0.0000
     56 ****        -2.9727   1.8742  -3.5195 LP             1 S1                 0.0000
     57 ****        -2.7310  -2.7940   0.7597 LP             1 S1                 0.0000
     58 ****         0.3343  -1.7682   3.2829 LP             1 S1                 0.0000
     59 ****         1.5193  -2.3270  -1.9231 LP             1 S1                 0.0000
     60 ****         4.3838  -2.0224   1.0515 LP             1 S1                 0.0000
     61 ****         4.7936  -2.2367   2.6177 LP             1 S1                 0.0000
     62 ****         7.6684   0.6138   0.0842 LP             1 S1                 0.0000
     63 ****         7.5488   0.5761   1.7123 LP             1 S1                 0.0000
     64 ****         3.7888   2.6397   2.2072 LP             1 S1                 0.0000
     65 ****         5.3284   2.2457   1.8316 LP             1 S1                 0.0000
     66 ****         3.0128   1.3606   4.2021 LP             1 S1                 0.0000
     67 ****         3.8858  -0.0085   4.3751 LP             1 S1                 0.0000
     68 ****        -5.1682   1.9549  -1.1753 LP             1 S1                 0.0000
@<TRIPOS>BOND
    1    1    2 1     
    2    1   35 1     
    3    1   36 1     
    4    1   37 1     
    5    2    3 1     
    6    2    4 1     
    7    2   38 1     
    8    3   39 1     
    9    3   40 1     
   10    3   41 1     
   11    4    5 1     
   12    5   30 ar    
   13    5    6 ar    
   14    6    7 ar    
   15    6   42 1     
   16    7    8 1     
   17    7   28 ar    
   18    8    9 1     
   19    8   43 1     
   20    8   44 1     
   21    9   10 1     
   22    9   45 1     
   23   10   15 ar    
   24   10   11 ar    
   25   11   12 ar    
   26   12   13 ar    
   27   12   46 1     
   28   13   14 ar    
   29   14   18 1     
   30   14   15 ar    
   31   15   16 1     
   32   16   17 2     
   33   17   18 1     
   34   17   47 1     
   35   18   19 1     
   36   19   31 1     
   37   19   26 1     
   38   19   20 1     
   39   20   21 1     
   40   21   32 1     
   41   21   22 1     
   42   21   24 1     
   43   22   23 1     
   44   22   48 1     
   45   22   49 1     
   46   23   50 1     
   47   24   33 1     
   48   24   25 1     
   49   24   26 1     
   50   25   51 1     
   51   26   34 1     
   52   26   27 1     
   53   27   52 1     
   54   28   29 ar    
   55   28   53 1     
   56   29   30 ar    
   57   29   54 1     
   58    4   55 1     
   59    4   56 1     
   60   11   57 1     
   61   13   58 1     
   62   16   59 1     
   63   20   60 1     
   64   20   61 1     
   65   23   62 1     
   66   23   63 1     
   67   25   64 1     
   68   25   65 1     
   69   27   66 1     
   70   27   67 1     
   71   30   68 1     
@<TRIPOS>SUBSTRUCTURE
      1 S1             1
@<TRIPOS>SET
LONE_PAIRS      STATIC     ATOMS    <user>   **** ""
14 55 56 57 58 59 60 61 62 63 64 65 66 67 68
DONOR_HYDROGENS      STATIC     ATOMS    <user>   **** ""
4 45 50 51 52
ATOM$BLUE        STATIC     ATOMS    COLORGROUP SYSTEM
14 55 56 57 58 59 60 61 62 63 64 65 66 67 68
ATOM$RED        STATIC     ATOMS    COLORGROUP SYSTEM
4 45 50 51 52
