AV-unprocessed.smi:37|AV-procd|sdf|325|dock8
  -GOLD-   2262016153D 1   1.00000     0.00000
 Structure written by MMmdl.
 43 44  0  0  0  0  0  0  0  0  2 V2000
  153.8265  141.2164  160.5054 C   0  0  0  0  0  0  0  0  0  0  0  0
  152.7971  142.3497  160.6142 C   0  0  0  0  0  0  0  0  0  0  0  0
  152.2624  142.7535  159.2438 C   0  0  0  0  0  0  0  0  0  0  0  0
  152.6324  143.7905  158.6931 O   0  0  0  0  0  0  0  0  0  0  0  0
  151.3582  141.8775  158.7663 O   0  0  0  0  0  0  0  0  0  0  0  0
  150.9995  141.8797  157.3906 C   0  0  0  0  0  0  0  0  0  0  0  0
  149.5783  141.3185  157.2225 C   0  0  2  0  0  0  0  0  0  0  0  0
  149.5730  139.9726  157.6927 O   0  0  0  0  0  0  0  0  0  0  0  0
  149.0751  139.1293  156.7033 C   0  0  2  0  0  0  0  0  0  0  0  0
  149.6954  137.7503  156.8061 N   0  0  0  0  0  0  0  0  0  0  0  0
  149.8865  137.0346  155.6380 C   0  0  0  0  0  0  0  0  0  0  0  0
  150.4197  135.7962  155.6494 C   0  0  0  0  0  0  0  0  0  0  0  0
  150.5976  135.1333  154.4937 F   0  0  0  0  0  0  0  0  0  0  0  0
  150.8002  135.1857  156.9209 C   0  0  0  0  0  0  0  0  0  0  0  0
  151.2997  134.0616  156.9253 O   0  0  0  0  0  0  0  0  0  0  0  0
  150.5791  135.9005  158.0613 N   0  5  0  0  0  0  0  0  0  0  0  0
  150.0314  137.1513  158.0564 C   0  0  0  0  0  0  0  0  0  0  0  0
  149.8114  137.7809  159.0903 O   0  0  0  0  0  0  0  0  0  0  0  0
  149.2257  139.8337  155.3459 C   0  0  2  0  0  0  0  0  0  0  0  0
  150.9857  139.5975  154.4342 Br  0  0  0  0  0  0  0  0  0  0  0  0
  149.0912  141.2874  155.7620 C   0  0  1  0  0  0  0  0  0  0  0  0
  147.7278  141.6945  155.7283 O   0  0  0  0  0  0  0  0  0  0  0  0
  147.0400  141.6864  154.5710 C   0  0  0  0  0  0  0  0  0  0  0  0
  147.4660  141.3181  153.4765 O   0  0  0  0  0  0  0  0  0  0  0  0
  145.6139  142.2070  154.7323 C   0  0  0  0  0  0  0  0  0  0  0  0
  145.3674  143.4834  153.9171 C   0  0  0  0  0  0  0  0  0  0  0  0
  154.1926  140.9333  161.4920 H   0  0  0  0  0  0  0  0  0  0  0  0
  154.6878  141.5132  159.9056 H   0  0  0  0  0  0  0  0  0  0  0  0
  153.3898  140.3284  160.0471 H   0  0  0  0  0  0  0  0  0  0  0  0
  151.9633  142.0379  161.2439 H   0  0  0  0  0  0  0  0  0  0  0  0
  153.2474  143.2210  161.0907 H   0  0  0  0  0  0  0  0  0  0  0  0
  151.0891  142.8658  156.9334 H   0  0  0  0  0  0  0  0  0  0  0  0
  151.7046  141.2336  156.8673 H   0  0  0  0  0  0  0  0  0  0  0  0
  148.8957  141.8989  157.8454 H   0  0  0  0  0  0  0  0  0  0  0  0
  148.0208  138.9829  156.9437 H   0  0  0  0  0  0  0  0  0  0  0  0
  149.6109  137.4759  154.6914 H   0  0  0  0  0  0  0  0  0  0  0  0
  148.4513  139.5032  154.6533 H   0  0  0  0  0  0  0  0  0  0  0  0
  149.6926  141.9345  155.1247 H   0  0  0  0  0  0  0  0  0  0  0  0
  144.9170  141.4265  154.4268 H   0  0  0  0  0  0  0  0  0  0  0  0
  145.4273  142.4010  155.7890 H   0  0  0  0  0  0  0  0  0  0  0  0
  144.3554  143.8537  154.0815 H   0  0  0  0  0  0  0  0  0  0  0  0
  145.4827  143.3041  152.8475 H   0  0  0  0  0  0  0  0  0  0  0  0
  146.0595  144.2761  154.2029 H   0  0  0  0  0  0  0  0  0  0  0  0
  1  2  1  0  0  0  0
  1 27  1  0  0  0  0
  1 28  1  0  0  0  0
  1 29  1  0  0  0  0
  2  3  1  0  0  0  0
  2 30  1  0  0  0  0
  2 31  1  0  0  0  0
  3  4  2  0  0  0  0
  3  5  1  0  0  0  0
  5  6  1  0  0  0  0
  6  7  1  0  0  0  0
  6 32  1  0  0  0  0
  6 33  1  0  0  0  0
  7 21  1  0  0  0  0
  7  8  1  0  0  0  0
  7 34  1  0  0  0  0
  8  9  1  0  0  0  0
  9 10  1  0  0  0  0
  9 19  1  0  0  0  0
  9 35  1  0  0  0  0
 10 17  1  0  0  0  0
 10 11  1  0  0  0  0
 11 12  2  0  0  0  0
 11 36  1  0  0  0  0
 12 13  1  0  0  0  0
 12 14  1  0  0  0  0
 14 15  2  0  0  0  0
 14 16  1  0  0  0  0
 16 17  1  0  0  0  0
 17 18  2  0  0  0  0
 19 20  1  0  0  0  0
 19 21  1  0  0  0  0
 19 37  1  0  0  0  0
 21 22  1  0  0  0  0
 21 38  1  0  0  0  0
 22 23  1  0  0  0  0
 23 24  2  0  0  0  0
 23 25  1  0  0  0  0
 25 26  1  0  0  0  0
 25 39  1  0  0  0  0
 25 40  1  0  0  0  0
 26 41  1  0  0  0  0
 26 42  1  0  0  0  0
 26 43  1  0  0  0  0
M  CHG  1  16  -1
M  END
> <s_m_source_file>
AV-unprocessed.smi

> <i_m_source_file_index>
37

> <i_lp_mmshare_version>
43012

> <i_f3d_flags>
0

> <s_epik_input>
W0NIM11bQ0gyXUMoPU8pT1tDSDJdW0NAQEhdMU9bQ0BASF0objJbY0hdYyhGKWMoPU8pW25IXWMyPU8pW0NAQEhdKEJyKVtDQEhdMU9DKD1PKVtDSDJdW0NIM10=

> <s_epik_cmdline>
J2VwaWtfcHl0aG9uJywgJy1waCcsICc3LjAnLCAnLXRuJywgJzgnLCAnLW1hJywgJzIwMCcsICctbWV0YWxfYmluZGluZycsICctaW1hZScsICc8aW5maWxlLm1hZT4nLCAnLW9tYWUnLCAnPG91dGZpbGUubWFlPic=

> <r_epik_Ionization_Penalty>
1.08158

> <r_epik_Ionization_Penalty_Charging>
9.05154e-09

> <r_epik_Ionization_Penalty_Neutral>
1.08158

> <r_epik_State_Penalty>
1.13706

> <r_epik_Charging_Adjusted_Penalty>
1.13706

> <i_epik_Tot_Q>
-1

> <i_epik_Tot_abs_Q>
1

> <r_epik_Metal_State_Penalty>
0.00343535

> <b_epik_Metal_Only>
0

> <s_epik_Chemistry_Notes>
This compound has an ester and may undergo hydrolysis at high or low pH. This compound contains an acetal/aminal-like group ( X-CH(R)-Y where X, Y are N, S, or O) that may be acid/base labile, releasing an aldehyde.

> <s_lp_Force_Field>
OPLS_2005

> <r_lp_Energy>
32.7064

> <b_lp_Chiralities_Consistent>
1

> <s_lp_Variant>
AV-unprocessed.smi:37-23

> <Gold.Version>
5.8.1

> <Gold.Id.Protein>
6NUR|6NUR_protein|mol2

> <Gold.PLP.Fitness>
41.9938

> <Gold.PLP.PLP>
-37.6705

> <Gold.PLP.part.hbond>
-3.1917

> <Gold.PLP.part.metal>
0.0000

> <Gold.PLP.part.buried>
-4.3007

> <Gold.PLP.part.nonpolar>
-31.6314

> <Gold.PLP.part.repulsive>
0.4909

> <Gold.PLP.ligand.clash>
0.0000

> <Gold.PLP.ligand.torsion>
1.2812

> <Gold.PLP.Chemscore.Hbond>
2.2310

> <Gold.PLP.Chemscore.CHOScore>
0.0000

> <Gold.PLP.Chemscore.Metal>
0.0000

> <Gold.Chemscore.Hbonds>
donor molecule, donor type, donor heavy atom, donor atom, acceptor molecule, acceptor atom, score
      P1  H  6896  6908       L1    15  0.03
      P1  H  6896  6909       L1    16  1.31

> <Gold.PLP.Chemscore.Internal.Correction>
0.1927

> <Gold.Rescore>
     Score         DG    S(hbond)    S(metal)    S(lipo)     H(rot)  DE(clash)    DE(int)     intcor
      1.02      -6.18       0.65        0.00      58.82       3.27       0.16       5.00       ----

> <Gold.Chemscore.Fitness>
1.0193

> <Gold.Chemscore.DG>
-6.1761

> <Gold.Chemscore.ZeroCoef>
-5.4800

> <Gold.Chemscore.Hbond>
0.6519

> <Gold.Chemscore.Metal>
0.0000

> <Gold.Chemscore.Lipo>
58.8215

> <Gold.Chemscore.Internal_Hbond>
0.0000

> <Gold.Chemscore.DEClash>
0.1579

> <Gold.Chemscore.DEInternal>
4.9989

> <Gold.Chemscore.Rot>
3.2669

> <Gold.Chemscore.Internal.Correction>
   9.000000E+99

> <Gold.Chemscore.Hbonds>
donor molecule, donor type, donor heavy atom, donor atom, acceptor molecule, acceptor atom, score
      P1  H  6896  6908       L1    15  0.02
      P1  H  6896  6909       L1    16  0.55

> <Gold.Chemscore.Hbond.Weighted>
-2.1774

> <Gold.Chemscore.Metal.Weighted>
-0.0000

> <Gold.Chemscore.Lipo.Weighted>
-6.8821

> <Gold.Chemscore.Internal_Hbond.Weighted>
0.0000

> <Gold.Chemscore.DEClash.Weighted>
0.1579

> <Gold.Chemscore.DEInternal.Weighted>
4.9989

> <Gold.Chemscore.Rot.Weighted>
8.3634

> <Gold.Chemscore.Internal.Correction.Weighted>
   9.000000E+99

> <Gold.Protein.RotatedTorsions>
[ 6907 6896 6895 6894 ] final   72.35 input  -60.11 | X-H torsion
[ 7974 7965 7964 7962 ] final  -95.52 input  175.53 | X-H torsion
[ 8008 7997 7996 7995 ] final   27.99 input   59.86 | X-H torsion
[ 10167 10162 10161 10158 ] final   94.99 input  -65.29 | X-H torsion
[ 10718 10713 10712 10709 ] final -145.22 input   66.30 | X-H torsion
[ 10763 10752 10751 10750 ] final   59.85 input  -60.55 | X-H torsion
[ 11005 11000 10999 10996 ] final  157.50 input  -57.11 | X-H torsion

> <Gold.Protein.ActiveResidues>
 VAL166  LYS551  ARG553  GLY616  TRP617  ASP618  TYR619  PRO620  LYS621  CYS622 
 ASP623  PHE694  ASN695  SER759  ASP760  ASP761  ALA762  ILE779  LEU786  VAL792 
 PHE793  MET794  SER795  GLU796  ALA797  LYS798  CYS799  TRP800  GLU811  SER814 

> <Gold.Protein.RotatedAtoms>
  152.4863  134.4584  159.9597 H   0  0  0  0  0  0  0  0  0  0  0  0  # atno 6907 bound_to 6896
  151.4580  133.3594  159.2813 H   0  0  0  0  0  0  0  0  0  0  0  0  # atno 6908 bound_to 6896
  150.8976  134.8410  159.7398 H   0  0  0  0  0  0  0  0  0  0  0  0  # atno 6909 bound_to 6896
  145.3590  140.9489  143.2511 H   0  0  0  0  0  0  0  0  0  0  0  0  # atno 7974 bound_to 7965
  155.0516  140.3180  155.4690 H   0  0  0  0  0  0  0  0  0  0  0  0  # atno 8008 bound_to 7997
  156.2833  140.2145  156.5586 H   0  0  0  0  0  0  0  0  0  0  0  0  # atno 8009 bound_to 7997
  154.7205  140.0490  157.0623 H   0  0  0  0  0  0  0  0  0  0  0  0  # atno 8010 bound_to 7997
  139.8031  144.6805  150.9739 H   0  0  0  0  0  0  0  0  0  0  0  0  # atno 10167 bound_to 10162
  156.3797  130.7831  151.2021 H   0  0  0  0  0  0  0  0  0  0  0  0  # atno 10718 bound_to 10713
  152.9905  135.5557  154.5780 H   0  0  0  0  0  0  0  0  0  0  0  0  # atno 10763 bound_to 10752
  154.5167  135.2805  155.1299 H   0  0  0  0  0  0  0  0  0  0  0  0  # atno 10764 bound_to 10752
  154.2669  135.6370  153.5348 H   0  0  0  0  0  0  0  0  0  0  0  0  # atno 10765 bound_to 10752
  140.1776  134.8499  157.2764 H   0  0  0  0  0  0  0  0  0  0  0  0  # atno 11005 bound_to 11000
  144.8660  139.5107  143.6790 LP  0  0  0  0  0  0  0  0  0  0  0  0  # atno 17320 bound_to 7965
  146.2935  139.7209  142.9143 LP  0  0  0  0  0  0  0  0  0  0  0  0  # atno 17321 bound_to 7965
  140.7820  143.4261  151.0765 LP  0  0  0  0  0  0  0  0  0  0  0  0  # atno 17342 bound_to 10162
  139.7932  143.8188  152.3154 LP  0  0  0  0  0  0  0  0  0  0  0  0  # atno 17343 bound_to 10162
  157.7491  131.0348  150.4332 LP  0  0  0  0  0  0  0  0  0  0  0  0  # atno 17370 bound_to 10713
  156.4574  130.4024  149.6598 LP  0  0  0  0  0  0  0  0  0  0  0  0  # atno 17371 bound_to 10713
  140.2305  134.3915  155.7524 LP  0  0  0  0  0  0  0  0  0  0  0  0  # atno 17394 bound_to 11000
  141.2221  133.7212  156.8633 LP  0  0  0  0  0  0  0  0  0  0  0  0  # atno 17395 bound_to 11000

$$$$
