AV-unprocessed.smi:110|AV-procd|sdf|1072|dock9
  -GOLD-   2262018153D 1   1.00000     0.00000
 Structure written by MMmdl.
 46 50  0  0  0  0  0  0  0  0  1 V2000
  145.8176  139.8379  153.4875 O   0  0  0  0  0  0  0  0  0  0  0  0
  147.0807  140.3805  153.1628 C   0  0  0  0  0  0  0  0  0  0  0  0
  148.1746  139.9388  154.1516 C   0  0  2  0  0  0  0  0  0  0  0  0
  149.4527  140.3863  153.7277 O   0  0  0  0  0  0  0  0  0  0  0  0
  150.4306  139.6759  154.4232 C   0  0  1  0  0  0  0  0  0  0  0  0
  150.8155  140.4567  155.6438 N   0  0  0  0  0  0  0  0  0  0  0  0
  150.3641  141.6830  156.0836 C   0  0  0  0  0  0  0  0  0  0  0  0
  150.9058  142.1109  157.1917 N   0  0  0  0  0  0  0  0  0  0  0  0
  151.8286  141.1271  157.5269 C   0  0  0  0  0  0  0  0  0  0  0  0
  152.7573  140.9436  158.5913 C   0  0  0  0  0  0  0  0  0  0  0  0
  152.9383  141.8101  159.6152 N   0  0  0  0  0  0  0  0  0  0  0  0
  153.3590  141.2965  160.9266 C   0  0  0  0  0  0  0  0  0  0  0  0
  153.0320  142.3759  161.9755 C   0  0  0  0  0  0  0  0  0  0  0  0
  152.5557  143.4892  161.0994 C   0  0  0  0  0  0  0  0  0  0  0  0
  152.1855  144.7859  161.4961 C   0  0  0  0  0  0  0  0  0  0  0  0
  151.7874  145.6988  160.4963 C   0  0  0  0  0  0  0  0  0  0  0  0
  151.7754  145.3094  159.1367 C   0  0  0  0  0  0  0  0  0  0  0  0
  152.1532  144.0013  158.7614 C   0  0  0  0  0  0  0  0  0  0  0  0
  152.5288  143.0873  159.7676 C   0  0  0  0  0  0  0  0  0  0  0  0
  153.4766  139.7922  158.6055 N   0  0  0  0  0  0  0  0  0  0  0  0
  153.3328  138.8969  157.6249 C   0  0  0  0  0  0  0  0  0  0  0  0
  152.5264  138.9451  156.5632 N   0  0  0  0  0  0  0  0  0  0  0  0
  151.7753  140.0842  156.5599 C   0  0  0  0  0  0  0  0  0  0  0  0
  149.8111  138.3200  154.8284 C   0  0  2  0  0  0  0  0  0  0  0  0
  150.4542  137.2453  154.1740 O   0  0  0  0  0  0  0  0  0  0  0  0
  148.3547  138.4327  154.3739 C   0  0  1  0  0  0  0  0  0  0  0  0
  147.4769  137.9856  155.3882 O   0  0  0  0  0  0  0  0  0  0  0  0
  147.9767  140.4207  155.1109 H   0  0  0  0  0  0  0  0  0  0  0  0
  151.3558  139.6039  153.8496 H   0  0  0  0  0  0  0  0  0  0  0  0
  149.8862  138.1788  155.9080 H   0  0  0  0  0  0  0  0  0  0  0  0
  148.1919  137.8674  153.4556 H   0  0  0  0  0  0  0  0  0  0  0  0
  145.1491  140.3605  153.0713 H   0  0  0  0  0  0  0  0  0  0  0  0
  147.3490  140.0976  152.1446 H   0  0  0  0  0  0  0  0  0  0  0  0
  146.9904  141.4669  153.1782 H   0  0  0  0  0  0  0  0  0  0  0  0
  149.6130  142.2584  155.5625 H   0  0  0  0  0  0  0  0  0  0  0  0
  152.8528  140.3585  161.1591 H   0  0  0  0  0  0  0  0  0  0  0  0
  154.4317  141.1004  160.9044 H   0  0  0  0  0  0  0  0  0  0  0  0
  152.2383  142.0599  162.6530 H   0  0  0  0  0  0  0  0  0  0  0  0
  153.9076  142.6715  162.5537 H   0  0  0  0  0  0  0  0  0  0  0  0
  152.2106  145.0772  162.5358 H   0  0  0  0  0  0  0  0  0  0  0  0
  151.4987  146.7028  160.7701 H   0  0  0  0  0  0  0  0  0  0  0  0
  151.4799  146.0195  158.3786 H   0  0  0  0  0  0  0  0  0  0  0  0
  152.1574  143.7173  157.7197 H   0  0  0  0  0  0  0  0  0  0  0  0
  153.9503  138.0144  157.7041 H   0  0  0  0  0  0  0  0  0  0  0  0
  150.0033  137.0802  153.3600 H   0  0  0  0  0  0  0  0  0  0  0  0
  147.5616  137.0477  155.4649 H   0  0  0  0  0  0  0  0  0  0  0  0
  1  2  1  0  0  0  0
  1 32  1  0  0  0  0
  2  3  1  0  0  0  0
  2 33  1  0  0  0  0
  2 34  1  0  0  0  0
  3 28  1  0  0  0  0
  3 26  1  0  0  0  0
  3  4  1  0  0  0  0
  4  5  1  0  0  0  0
  5 29  1  0  0  0  0
  5  6  1  0  0  0  0
  5 24  1  0  0  0  0
  6 23  1  0  0  0  0
  6  7  1  0  0  0  0
  7  8  2  0  0  0  0
  7 35  1  0  0  0  0
  8  9  1  0  0  0  0
  9 23  2  0  0  0  0
  9 10  1  0  0  0  0
 10 11  1  0  0  0  0
 10 20  2  0  0  0  0
 11 19  1  0  0  0  0
 11 12  1  0  0  0  0
 12 13  1  0  0  0  0
 12 36  1  0  0  0  0
 12 37  1  0  0  0  0
 13 14  1  0  0  0  0
 13 38  1  0  0  0  0
 13 39  1  0  0  0  0
 14 19  2  0  0  0  0
 14 15  1  0  0  0  0
 15 16  2  0  0  0  0
 15 40  1  0  0  0  0
 16 17  1  0  0  0  0
 16 41  1  0  0  0  0
 17 18  2  0  0  0  0
 17 42  1  0  0  0  0
 18 19  1  0  0  0  0
 18 43  1  0  0  0  0
 20 21  1  0  0  0  0
 21 22  2  0  0  0  0
 21 44  1  0  0  0  0
 22 23  1  0  0  0  0
 24 30  1  0  0  0  0
 24 25  1  0  0  0  0
 24 26  1  0  0  0  0
 25 45  1  0  0  0  0
 26 31  1  0  0  0  0
 26 27  1  0  0  0  0
 27 46  1  0  0  0  0
M  END
> <s_m_source_file>
AV-unprocessed.smi

> <i_m_source_file_index>
110

> <i_lp_mmshare_version>
43012

> <i_f3d_flags>
0

> <s_epik_input>
W09IXVtDSDJdW0NASF0xT1tDQEhdKFtDQEhdKFtPSF0pW0NAQEhdMVtPSF0pbihbY0hdbjIpYyhjMjMpbltjSF1uYzNOKFtDSDJdW0NIMl00KWMoYzQ1KVtjSF1bY0hdW2NIXVtjSF01

> <s_epik_cmdline>
J2VwaWtfcHl0aG9uJywgJy1waCcsICc3LjAnLCAnLXRuJywgJzgnLCAnLW1hJywgJzIwMCcsICctbWV0YWxfYmluZGluZycsICctaW1hZScsICc8aW5maWxlLm1hZT4nLCAnLW9tYWUnLCAnPG91dGZpbGUubWFlPic=

> <r_lp_tautomer_probability>
1

> <r_epik_Ionization_Penalty>
0.00068475

> <r_epik_Ionization_Penalty_Charging>
0

> <r_epik_Ionization_Penalty_Neutral>
0.00068475

> <r_epik_State_Penalty>
0.000417442

> <r_epik_Charging_Adjusted_Penalty>
0.000417442

> <i_epik_Tot_Q>
0

> <i_epik_Tot_abs_Q>
0

> <r_epik_Metal_State_Penalty>
-0

> <b_epik_Metal_Only>
0

> <s_epik_Chemistry_Notes>
This compound contains an acetal/aminal-like group ( X-CH(R)-Y where X, Y are N, S, or O) that may be acid/base labile, releasing an aldehyde.

> <s_lp_Force_Field>
OPLS_2005

> <r_lp_Energy>
55.1552

> <b_lp_Chiralities_Consistent>
1

> <s_lp_Variant>
AV-unprocessed.smi:110-10

> <Gold.Version>
5.8.1

> <Gold.Id.Protein>
6NUR|6NUR_protein|mol2

> <Gold.PLP.Fitness>
62.0342

> <Gold.PLP.PLP>
-53.8131

> <Gold.PLP.part.hbond>
-5.2446

> <Gold.PLP.part.metal>
0.0000

> <Gold.PLP.part.buried>
-0.0844

> <Gold.PLP.part.nonpolar>
-51.5494

> <Gold.PLP.part.repulsive>
3.5373

> <Gold.PLP.ligand.clash>
0.0000

> <Gold.PLP.ligand.torsion>
0.2395

> <Gold.PLP.Chemscore.Hbond>
2.0000

> <Gold.PLP.Chemscore.CHOScore>
0.8736

> <Gold.PLP.Chemscore.Metal>
0.0000

> <Gold.Chemscore.Hbonds>
donor molecule, donor type, donor heavy atom, donor atom, acceptor molecule, acceptor atom, score
      L1  H     1    32       P1 10175  0.99
      L1  H    25    45       P1  7948  1.00
      L1  C     7    35       P1  8028  0.91

> <Gold.PLP.Chemscore.Internal.Correction>
0.0794

> <Gold.Rescore>
     Score         DG    S(hbond)    S(metal)    S(lipo)     H(rot)  DE(clash)    DE(int)     intcor
     12.97     -15.89       1.70        0.00     114.57       3.38       1.24       1.67       ----

> <Gold.Chemscore.Fitness>
12.9729

> <Gold.Chemscore.DG>
-15.8906

> <Gold.Chemscore.ZeroCoef>
-5.4800

> <Gold.Chemscore.Hbond>
1.6970

> <Gold.Chemscore.Metal>
0.0000

> <Gold.Chemscore.Lipo>
114.5712

> <Gold.Chemscore.Internal_Hbond>
0.0000

> <Gold.Chemscore.DEClash>
1.2433

> <Gold.Chemscore.DEInternal>
1.6744

> <Gold.Chemscore.Rot>
3.3837

> <Gold.Chemscore.Internal.Correction>
   9.000000E+99

> <Gold.Chemscore.Hbonds>
donor molecule, donor type, donor heavy atom, donor atom, acceptor molecule, acceptor atom, score
      L1  H     1    32       P1 10175  0.90
      L1  H    25    45       P1  7948  0.25
      P1  H  8011  8017       L1     4  0.02

> <Gold.Chemscore.Hbond.Weighted>
-5.6679

> <Gold.Chemscore.Metal.Weighted>
-0.0000

> <Gold.Chemscore.Lipo.Weighted>
-13.4048

> <Gold.Chemscore.Internal_Hbond.Weighted>
0.0000

> <Gold.Chemscore.DEClash.Weighted>
1.2433

> <Gold.Chemscore.DEInternal.Weighted>
1.6744

> <Gold.Chemscore.Rot.Weighted>
8.6622

> <Gold.Chemscore.Internal.Correction.Weighted>
   9.000000E+99

> <Gold.Protein.RotatedTorsions>
[ 6907 6896 6895 6894 ] final  172.25 input  -60.11 | X-H torsion
[ 7974 7965 7964 7962 ] final  -42.56 input  175.53 | X-H torsion
[ 8008 7997 7996 7995 ] final  129.07 input   59.86 | X-H torsion
[ 10167 10162 10161 10158 ] final  151.39 input  -65.29 | X-H torsion
[ 10718 10713 10712 10709 ] final  121.72 input   66.30 | X-H torsion
[ 10763 10752 10751 10750 ] final   -1.90 input  -60.55 | X-H torsion
[ 11005 11000 10999 10996 ] final  -46.53 input  -57.11 | X-H torsion

> <Gold.Protein.ActiveResidues>
 VAL166  LYS551  ARG553  GLY616  TRP617  ASP618  TYR619  PRO620  LYS621  CYS622 
 ASP623  PHE694  ASN695  SER759  ASP760  ASP761  ALA762  ILE779  LEU786  VAL792 
 PHE793  MET794  SER795  GLU796  ALA797  LYS798  CYS799  TRP800  GLU811  SER814 

> <Gold.Protein.RotatedAtoms>
  151.7873  133.3355  159.3488 H   0  0  0  0  0  0  0  0  0  0  0  0  # atno 6907 bound_to 6896
  150.7404  134.5876  159.5980 H   0  0  0  0  0  0  0  0  0  0  0  0  # atno 6908 bound_to 6896
  152.3235  134.7352  160.0359 H   0  0  0  0  0  0  0  0  0  0  0  0  # atno 6909 bound_to 6896
  146.0104  140.6970  142.9227 H   0  0  0  0  0  0  0  0  0  0  0  0  # atno 7974 bound_to 7965
  156.2928  140.2629  156.2540 H   0  0  0  0  0  0  0  0  0  0  0  0  # atno 8008 bound_to 7997
  154.9855  140.0389  157.2315 H   0  0  0  0  0  0  0  0  0  0  0  0  # atno 8009 bound_to 7997
  154.7733  140.2782  155.6125 H   0  0  0  0  0  0  0  0  0  0  0  0  # atno 8010 bound_to 7997
  139.4841  144.5445  151.7508 H   0  0  0  0  0  0  0  0  0  0  0  0  # atno 10167 bound_to 10162
  157.5796  131.1076  150.8212 H   0  0  0  0  0  0  0  0  0  0  0  0  # atno 10718 bound_to 10713
  153.3509  135.6985  153.6789 H   0  0  0  0  0  0  0  0  0  0  0  0  # atno 10763 bound_to 10752
  153.5517  135.3552  155.2762 H   0  0  0  0  0  0  0  0  0  0  0  0  # atno 10764 bound_to 10752
  154.8653  135.4228  154.2744 H   0  0  0  0  0  0  0  0  0  0  0  0  # atno 10765 bound_to 10752
  141.0585  133.6717  156.3168 H   0  0  0  0  0  0  0  0  0  0  0  0  # atno 11005 bound_to 11000
  144.6951  140.3389  143.7203 LP  0  0  0  0  0  0  0  0  0  0  0  0  # atno 17320 bound_to 7965
  145.7350  139.1747  143.2408 LP  0  0  0  0  0  0  0  0  0  0  0  0  # atno 17321 bound_to 7965
  140.4989  144.1198  150.5966 LP  0  0  0  0  0  0  0  0  0  0  0  0  # atno 17342 bound_to 10162
  140.4085  143.2668  151.9862 LP  0  0  0  0  0  0  0  0  0  0  0  0  # atno 17343 bound_to 10162
  156.8662  130.5130  149.5300 LP  0  0  0  0  0  0  0  0  0  0  0  0  # atno 17370 bound_to 10713
  156.0842  130.5845  150.9618 LP  0  0  0  0  0  0  0  0  0  0  0  0  # atno 17371 bound_to 10713
  140.5917  134.5644  157.5501 LP  0  0  0  0  0  0  0  0  0  0  0  0  # atno 17394 bound_to 11000
  139.9411  134.7785  156.0676 LP  0  0  0  0  0  0  0  0  0  0  0  0  # atno 17395 bound_to 11000

$$$$
