AV-unprocessed.smi:3208|AV-procd|sdf|12265|dock1
  -GOLD-   2272018103D 1   1.00000     0.00000
 Structure written by MMmdl.
 29 29  0  0  0  0  0  0  0  0  2 V2000
  153.3938  142.6386  162.8932 C   0  0  0  0  0  0  0  0  0  0  0  0
  152.4092  142.9501  162.0369 C   0  0  0  0  0  0  0  0  0  0  0  0
  152.6256  143.5074  160.6476 C   0  0  0  0  0  0  0  0  0  0  0  0
  151.9247  142.7259  159.6889 O   0  0  0  0  0  0  0  0  0  0  0  0
  152.7312  141.8339  158.9219 C   0  0  1  0  0  0  0  0  0  0  0  0
  153.3240  140.8015  159.8905 C   0  0  0  0  0  0  0  0  0  0  0  0
  151.8894  141.1315  157.8341 C   0  0  0  0  0  0  0  0  0  0  0  0
  150.6776  141.3360  157.7690 O   0  0  0  0  0  0  0  0  0  0  0  0
  152.5771  140.2089  157.0612 N   0  0  0  0  0  0  0  0  0  0  0  0
  151.9793  139.6159  156.0643 C   0  0  0  0  0  0  0  0  0  0  0  0
  150.6162  139.8130  155.7716 N   0  0  0  0  0  0  0  0  0  0  0  0
  149.9793  139.1954  154.7165 C   0  0  0  0  0  0  0  0  0  0  0  0
  150.6259  138.3549  153.9068 C   0  0  0  0  0  0  0  0  0  0  0  0
  152.0293  138.0881  154.1490 C   0  0  0  0  0  0  0  0  0  0  0  0
  152.7310  138.6873  155.2019 C   0  0  0  0  0  0  0  0  0  0  0  0
  153.9446  138.4295  155.3745 O   0  5  0  0  0  0  0  0  0  0  0  0
  154.4323  142.7742  162.6280 H   0  0  0  0  0  0  0  0  0  0  0  0
  153.1721  142.2431  163.8735 H   0  0  0  0  0  0  0  0  0  0  0  0
  151.3819  142.8022  162.3363 H   0  0  0  0  0  0  0  0  0  0  0  0
  152.2991  144.5476  160.6198 H   0  0  0  0  0  0  0  0  0  0  0  0
  153.6951  143.4921  160.4341 H   0  0  0  0  0  0  0  0  0  0  0  0
  153.5561  142.3926  158.4768 H   0  0  0  0  0  0  0  0  0  0  0  0
  153.9748  140.0979  159.3701 H   0  0  0  0  0  0  0  0  0  0  0  0
  152.5425  140.2288  160.3912 H   0  0  0  0  0  0  0  0  0  0  0  0
  153.9198  141.2915  160.6607 H   0  0  0  0  0  0  0  0  0  0  0  0
  148.9349  139.4475  154.6071 H   0  0  0  0  0  0  0  0  0  0  0  0
  150.1118  137.8795  153.0845 H   0  0  0  0  0  0  0  0  0  0  0  0
  152.5403  137.4017  153.4892 H   0  0  0  0  0  0  0  0  0  0  0  0
  150.0480  140.4254  156.3369 H   0  0  0  0  0  0  0  0  0  0  0  0
  1  2  2  0  0  0  0
  1 17  1  0  0  0  0
  1 18  1  0  0  0  0
  2  3  1  0  0  0  0
  2 19  1  0  0  0  0
  3  4  1  0  0  0  0
  3 20  1  0  0  0  0
  3 21  1  0  0  0  0
  4  5  1  0  0  0  0
  5  6  1  0  0  0  0
  5  7  1  0  0  0  0
  5 22  1  0  0  0  0
  6 23  1  0  0  0  0
  6 24  1  0  0  0  0
  6 25  1  0  0  0  0
  7  8  2  0  0  0  0
  7  9  1  0  0  0  0
  9 10  2  0  0  0  0
 10 15  1  0  0  0  0
 10 11  1  0  0  0  0
 11 29  1  0  0  0  0
 11 12  1  0  0  0  0
 12 26  1  0  0  0  0
 12 13  2  0  0  0  0
 13 27  1  0  0  0  0
 13 14  1  0  0  0  0
 14 15  2  0  0  0  0
 14 28  1  0  0  0  0
 15 16  1  0  0  0  0
M  CHG  1  16  -1
M  END
> <s_m_source_file>
AV-unprocessed.smi

> <i_m_source_file_index>
3208

> <i_lp_mmshare_version>
43012

> <i_f3d_flags>
0

> <s_epik_input>
W0NIMl09W0NIXVtDSDJdT1tDQEhdKFtDSDNdKUMoPU8pW05IXWMxbltjSF1bY0hdW2NIXWMxW09IXQ==

> <s_epik_cmdline>
J2VwaWtfcHl0aG9uJywgJy1waCcsICc3LjAnLCAnLXRuJywgJzgnLCAnLW1hJywgJzIwMCcsICctbWV0YWxfYmluZGluZycsICctaW1hZScsICc8aW5maWxlLm1hZT4nLCAnLW9tYWUnLCAnPG91dGZpbGUubWFlPic=

> <r_epik_Ionization_Penalty>
0.613767

> <r_epik_Ionization_Penalty_Charging>
0.613767

> <r_epik_Ionization_Penalty_Neutral>
1.14324e-13

> <r_epik_State_Penalty>
1.22258

> <r_epik_Charging_Adjusted_Penalty>
1.83635

> <i_epik_Tot_Q>
-1

> <i_epik_Tot_abs_Q>
1

> <r_epik_Metal_State_Penalty>
1.18528

> <b_epik_Metal_Only>
0

> <s_lp_Force_Field>
OPLS_2005

> <r_lp_Energy>
40.4661

> <b_lp_Chiralities_Consistent>
1

> <s_lp_Variant>
AV-unprocessed.smi:3208-6

> <Gold.Version>
5.8.1

> <Gold.Id.Protein>
6NUR|6NUR_protein|mol2

> <Gold.PLP.Fitness>
40.3427

> <Gold.PLP.PLP>
-36.7479

> <Gold.PLP.part.hbond>
-2.0995

> <Gold.PLP.part.metal>
0.0000

> <Gold.PLP.part.buried>
-4.6483

> <Gold.PLP.part.nonpolar>
-28.7789

> <Gold.PLP.part.repulsive>
0.1040

> <Gold.PLP.ligand.clash>
0.0000

> <Gold.PLP.ligand.torsion>
0.3753

> <Gold.PLP.Chemscore.Hbond>
1.4080

> <Gold.PLP.Chemscore.CHOScore>
0.0000

> <Gold.PLP.Chemscore.Metal>
0.0000

> <Gold.Chemscore.Hbonds>
donor molecule, donor type, donor heavy atom, donor atom, acceptor molecule, acceptor atom, score
      P1  H  7997  8010       L1    16  1.09

> <Gold.PLP.Chemscore.Internal.Correction>
0.1214

> <Gold.Rescore>
     Score         DG    S(hbond)    S(metal)    S(lipo)     H(rot)  DE(clash)    DE(int)     intcor
     13.85     -14.32       0.95        0.00      84.53       1.65       0.09       0.38       ----

> <Gold.Chemscore.Fitness>
13.8509

> <Gold.Chemscore.DG>
-14.3233

> <Gold.Chemscore.ZeroCoef>
-5.4800

> <Gold.Chemscore.Hbond>
0.9539

> <Gold.Chemscore.Metal>
0.0000

> <Gold.Chemscore.Lipo>
84.5279

> <Gold.Chemscore.Internal_Hbond>
0.0000

> <Gold.Chemscore.DEClash>
0.0913

> <Gold.Chemscore.DEInternal>
0.3810

> <Gold.Chemscore.Rot>
1.6533

> <Gold.Chemscore.Internal.Correction>
   9.000000E+99

> <Gold.Chemscore.Hbonds>
donor molecule, donor type, donor heavy atom, donor atom, acceptor molecule, acceptor atom, score
      P1  H  7997  8010       L1    16  0.11

> <Gold.Chemscore.Hbond.Weighted>
-3.1859

> <Gold.Chemscore.Metal.Weighted>
-0.0000

> <Gold.Chemscore.Lipo.Weighted>
-9.8898

> <Gold.Chemscore.Internal_Hbond.Weighted>
0.0000

> <Gold.Chemscore.DEClash.Weighted>
0.0913

> <Gold.Chemscore.DEInternal.Weighted>
0.3810

> <Gold.Chemscore.Rot.Weighted>
4.2324

> <Gold.Chemscore.Internal.Correction.Weighted>
   9.000000E+99

> <Gold.Protein.RotatedTorsions>
[ 6907 6896 6895 6894 ] final  -51.70 input  -60.11 | X-H torsion
[ 7974 7965 7964 7962 ] final   31.19 input  175.53 | X-H torsion
[ 8008 7997 7996 7995 ] final  106.71 input   59.86 | X-H torsion
[ 10167 10162 10161 10158 ] final   66.08 input  -65.29 | X-H torsion
[ 10718 10713 10712 10709 ] final  108.36 input   66.30 | X-H torsion
[ 10763 10752 10751 10750 ] final -110.43 input  -60.55 | X-H torsion
[ 11005 11000 10999 10996 ] final  -59.46 input  -57.11 | X-H torsion

> <Gold.Protein.ActiveResidues>
 VAL166  LYS551  ARG553  GLY616  TRP617  ASP618  TYR619  PRO620  LYS621  CYS622 
 ASP623  PHE694  ASN695  SER759  ASP760  ASP761  ALA762  ILE779  LEU786  VAL792 
 PHE793  MET794  SER795  GLU796  ALA797  LYS798  CYS799  TRP800  GLU811  SER814 

> <Gold.Protein.RotatedAtoms>
  150.8587  134.7932  159.7065 H   0  0  0  0  0  0  0  0  0  0  0  0  # atno 6907 bound_to 6896
  152.4630  134.5136  159.9771 H   0  0  0  0  0  0  0  0  0  0  0  0  # atno 6908 bound_to 6896
  151.5244  133.3422  159.2942 H   0  0  0  0  0  0  0  0  0  0  0  0  # atno 6909 bound_to 6896
  146.1566  139.6690  142.9062 H   0  0  0  0  0  0  0  0  0  0  0  0  # atno 7974 bound_to 7965
  156.1765  140.3108  155.9070 H   0  0  0  0  0  0  0  0  0  0  0  0  # atno 8008 bound_to 7997
  155.3475  140.0469  157.3063 H   0  0  0  0  0  0  0  0  0  0  0  0  # atno 8009 bound_to 7997
  154.5296  140.2226  155.8838 H   0  0  0  0  0  0  0  0  0  0  0  0  # atno 8010 bound_to 7997
  140.1044  144.4875  150.7017 H   0  0  0  0  0  0  0  0  0  0  0  0  # atno 10167 bound_to 10162
  157.6589  131.0892  150.6294 H   0  0  0  0  0  0  0  0  0  0  0  0  # atno 10718 bound_to 10713
  154.8247  135.4564  154.0884 H   0  0  0  0  0  0  0  0  0  0  0  0  # atno 10763 bound_to 10752
  153.2208  135.6894  153.8009 H   0  0  0  0  0  0  0  0  0  0  0  0  # atno 10764 bound_to 10752
  153.7426  135.3310  155.3283 H   0  0  0  0  0  0  0  0  0  0  0  0  # atno 10765 bound_to 10752
  141.1249  133.6616  156.5074 H   0  0  0  0  0  0  0  0  0  0  0  0  # atno 11005 bound_to 11000
  145.4694  141.0435  143.2707 LP  0  0  0  0  0  0  0  0  0  0  0  0  # atno 17320 bound_to 7965
  144.7971  139.6213  143.7088 LP  0  0  0  0  0  0  0  0  0  0  0  0  # atno 17321 bound_to 7965
  140.6960  143.2404  151.4998 LP  0  0  0  0  0  0  0  0  0  0  0  0  # atno 17342 bound_to 10162
  139.5654  144.2056  152.1756 LP  0  0  0  0  0  0  0  0  0  0  0  0  # atno 17343 bound_to 10162
  156.6598  130.4509  149.5691 LP  0  0  0  0  0  0  0  0  0  0  0  0  # atno 17370 bound_to 10713
  156.2075  130.6658  151.1234 LP  0  0  0  0  0  0  0  0  0  0  0  0  # atno 17371 bound_to 10713
  140.4396  134.7027  157.4985 LP  0  0  0  0  0  0  0  0  0  0  0  0  # atno 17394 bound_to 11000
  140.0238  134.6508  155.9202 LP  0  0  0  0  0  0  0  0  0  0  0  0  # atno 17395 bound_to 11000

$$$$
