AV-unprocessed.smi:3068|AV-procd|sdf|11708|dock9
  -GOLD-   2272017113D 1   1.00000     0.00000
 Structure written by MMmdl.
 39 41  0  0  0  0  0  0  0  0  1 V2000
  150.4946  136.8146  159.1086 N   0  0  0  0  0  0  0  0  0  0  0  0
  150.4319  137.3423  158.0807 C   0  0  0  0  0  0  0  0  0  0  0  0
  150.3528  138.0065  156.7857 C   0  0  0  0  0  0  0  0  0  0  0  0
  150.7264  137.2796  155.7070 N   0  0  0  0  0  0  0  0  0  0  0  0
  150.6574  137.8823  154.5012 C   0  0  0  0  0  0  0  0  0  0  0  0
  150.2157  139.2126  154.3660 C   0  0  0  0  0  0  0  0  0  0  0  0
  149.8427  139.9452  155.4363 N   0  0  0  0  0  0  0  0  0  0  0  0
  149.9049  139.3516  156.6547 C   0  0  0  0  0  0  0  0  0  0  0  0
  149.5219  140.1033  157.7812 N   0  0  0  0  0  0  0  0  0  0  0  0
  149.6305  141.5573  157.8073 C   0  0  0  0  0  0  0  0  0  0  0  0
  151.0693  142.0464  157.5347 C   0  0  2  0  0  0  0  0  0  0  0  0
  152.0786  141.5460  158.5853 C   0  0  0  0  0  0  0  0  0  0  0  0
  151.9275  142.2082  159.8754 N   0  0  0  0  0  0  0  0  0  0  0  0
  152.9155  141.7190  160.8362 C   0  0  0  0  0  0  0  0  0  0  0  0
  152.7647  142.3729  162.2183 C   0  0  0  0  0  0  0  0  0  0  0  0
  152.8576  143.9001  162.0958 C   0  0  0  0  0  0  0  0  0  0  0  0
  151.8531  144.4053  161.0489 C   0  0  0  0  0  0  0  0  0  0  0  0
  152.0268  143.6607  159.7082 C   0  0  2  0  0  0  0  0  0  0  0  0
  151.0007  144.1683  158.6759 C   0  0  0  0  0  0  0  0  0  0  0  0
  151.1458  143.4704  157.4414 O   0  0  0  0  0  0  0  0  0  0  0  0
  150.9560  137.3017  153.6410 H   0  0  0  0  0  0  0  0  0  0  0  0
  150.1621  139.6896  153.3986 H   0  0  0  0  0  0  0  0  0  0  0  0
  148.9767  139.6567  158.5048 H   0  0  0  0  0  0  0  0  0  0  0  0
  148.9378  141.9662  157.0727 H   0  0  0  0  0  0  0  0  0  0  0  0
  149.2845  141.9309  158.7715 H   0  0  0  0  0  0  0  0  0  0  0  0
  151.3850  141.6519  156.5686 H   0  0  0  0  0  0  0  0  0  0  0  0
  151.9758  140.4670  158.7064 H   0  0  0  0  0  0  0  0  0  0  0  0
  153.0883  141.7163  158.2083 H   0  0  0  0  0  0  0  0  0  0  0  0
  152.8182  140.6380  160.9429 H   0  0  0  0  0  0  0  0  0  0  0  0
  153.9222  141.9016  160.4573 H   0  0  0  0  0  0  0  0  0  0  0  0
  151.8035  142.0945  162.6523 H   0  0  0  0  0  0  0  0  0  0  0  0
  153.5335  142.0019  162.8966 H   0  0  0  0  0  0  0  0  0  0  0  0
  152.6696  144.3709  163.0612 H   0  0  0  0  0  0  0  0  0  0  0  0
  153.8685  144.1835  161.7997 H   0  0  0  0  0  0  0  0  0  0  0  0
  150.8381  144.2611  161.4222 H   0  0  0  0  0  0  0  0  0  0  0  0
  151.9805  145.4786  160.9041 H   0  0  0  0  0  0  0  0  0  0  0  0
  153.0211  143.8966  159.3245 H   0  0  0  0  0  0  0  0  0  0  0  0
  149.9828  144.0605  159.0514 H   0  0  0  0  0  0  0  0  0  0  0  0
  151.1495  145.2318  158.4879 H   0  0  0  0  0  0  0  0  0  0  0  0
  1  2  3  0  0  0  0
  2  3  1  0  0  0  0
  3  8  1  0  0  0  0
  3  4  2  0  0  0  0
  4  5  1  0  0  0  0
  5  6  2  0  0  0  0
  5 21  1  0  0  0  0
  6  7  1  0  0  0  0
  6 22  1  0  0  0  0
  7  8  2  0  0  0  0
  8  9  1  0  0  0  0
  9 10  1  0  0  0  0
  9 23  1  0  0  0  0
 10 11  1  0  0  0  0
 10 24  1  0  0  0  0
 10 25  1  0  0  0  0
 11 20  1  0  0  0  0
 11 12  1  0  0  0  0
 11 26  1  0  0  0  0
 12 13  1  0  0  0  0
 12 27  1  0  0  0  0
 12 28  1  0  0  0  0
 13 18  1  0  0  0  0
 13 14  1  0  0  0  0
 14 15  1  0  0  0  0
 14 29  1  0  0  0  0
 14 30  1  0  0  0  0
 15 16  1  0  0  0  0
 15 31  1  0  0  0  0
 15 32  1  0  0  0  0
 16 17  1  0  0  0  0
 16 33  1  0  0  0  0
 16 34  1  0  0  0  0
 17 18  1  0  0  0  0
 17 35  1  0  0  0  0
 17 36  1  0  0  0  0
 18 19  1  0  0  0  0
 18 37  1  0  0  0  0
 19 20  1  0  0  0  0
 19 38  1  0  0  0  0
 19 39  1  0  0  0  0
M  END
> <s_m_source_file>
AV-unprocessed.smi

> <i_m_source_file_index>
3068

> <i_lp_mmshare_version>
43012

> <i_f3d_flags>
0

> <s_epik_input>
TiNDYzFuW2NIXVtjSF1uYzFbTkhdW0NIMl1bQ0BIXShbQ0gyXTIpT1tDSDJdW0NAQEhdKE4yMylbQ0gyXVtDSDJdW0NIMl1bQ0gyXTM=

> <s_epik_cmdline>
J2VwaWtfcHl0aG9uJywgJy1waCcsICc3LjAnLCAnLXRuJywgJzgnLCAnLW1hJywgJzIwMCcsICctbWV0YWxfYmluZGluZycsICctaW1hZScsICc8aW5maWxlLm1hZT4nLCAnLW9tYWUnLCAnPG91dGZpbGUubWFlPic=

> <r_epik_Ionization_Penalty>
1.22359

> <r_epik_Ionization_Penalty_Charging>
0

> <r_epik_Ionization_Penalty_Neutral>
1.22359

> <r_epik_State_Penalty>
1.29103

> <r_epik_Charging_Adjusted_Penalty>
1.29103

> <i_epik_Tot_Q>
0

> <i_epik_Tot_abs_Q>
0

> <r_epik_Metal_State_Penalty>
1.29103

> <b_epik_Metal_Only>
0

> <s_lp_Force_Field>
OPLS_2005

> <r_lp_Energy>
49.2937

> <b_lp_Chiralities_Consistent>
1

> <s_lp_Variant>
AV-unprocessed.smi:3068-11

> <Gold.Version>
5.8.1

> <Gold.Id.Protein>
6NUR|6NUR_protein|mol2

> <Gold.PLP.Fitness>
44.0234

> <Gold.PLP.PLP>
-35.1436

> <Gold.PLP.part.hbond>
-1.0000

> <Gold.PLP.part.metal>
0.0000

> <Gold.PLP.part.buried>
-7.3720

> <Gold.PLP.part.nonpolar>
-28.3194

> <Gold.PLP.part.repulsive>
0.4569

> <Gold.PLP.ligand.clash>
0.0000

> <Gold.PLP.ligand.torsion>
0.1706

> <Gold.PLP.Chemscore.Hbond>
1.0000

> <Gold.PLP.Chemscore.CHOScore>
2.0720

> <Gold.PLP.Chemscore.Metal>
0.0000

> <Gold.Chemscore.Hbonds>
donor molecule, donor type, donor heavy atom, donor atom, acceptor molecule, acceptor atom, score
      P1  H  6896  6909       L1     1  1.00
      L1  C     5    21       P1  7948  0.07
      L1  C     5    21       P1  7949  1.00
      L1  C     6    22       P1  7957  1.00

> <Gold.PLP.Chemscore.Internal.Correction>
0.0048

> <Gold.Rescore>
     Score         DG    S(hbond)    S(metal)    S(lipo)     H(rot)  DE(clash)    DE(int)     intcor
     17.88     -18.08       0.99        0.00     107.90       1.30       0.04       0.17       ----

> <Gold.Chemscore.Fitness>
17.8787

> <Gold.Chemscore.DG>
-18.0849

> <Gold.Chemscore.ZeroCoef>
-5.4800

> <Gold.Chemscore.Hbond>
0.9920

> <Gold.Chemscore.Metal>
0.0000

> <Gold.Chemscore.Lipo>
107.9003

> <Gold.Chemscore.Internal_Hbond>
0.0000

> <Gold.Chemscore.DEClash>
0.0375

> <Gold.Chemscore.DEInternal>
0.1687

> <Gold.Chemscore.Rot>
1.3019

> <Gold.Chemscore.Internal.Correction>
   9.000000E+99

> <Gold.Chemscore.Hbonds>
donor molecule, donor type, donor heavy atom, donor atom, acceptor molecule, acceptor atom, score
      P1  H  6896  6909       L1     1  0.97

> <Gold.Chemscore.Hbond.Weighted>
-3.3133

> <Gold.Chemscore.Metal.Weighted>
-0.0000

> <Gold.Chemscore.Lipo.Weighted>
-12.6243

> <Gold.Chemscore.Internal_Hbond.Weighted>
0.0000

> <Gold.Chemscore.DEClash.Weighted>
0.0375

> <Gold.Chemscore.DEInternal.Weighted>
0.1687

> <Gold.Chemscore.Rot.Weighted>
3.3327

> <Gold.Chemscore.Internal.Correction.Weighted>
   9.000000E+99

> <Gold.Protein.RotatedTorsions>
[ 6907 6896 6895 6894 ] final   87.77 input  -60.11 | X-H torsion
[ 7974 7965 7964 7962 ] final    8.74 input  175.53 | X-H torsion
[ 8008 7997 7996 7995 ] final   13.77 input   59.86 | X-H torsion
[ 10167 10162 10161 10158 ] final -146.83 input  -65.29 | X-H torsion
[ 10718 10713 10712 10709 ] final   88.46 input   66.30 | X-H torsion
[ 10763 10752 10751 10750 ] final   37.31 input  -60.55 | X-H torsion
[ 11005 11000 10999 10996 ] final  128.65 input  -57.11 | X-H torsion

> <Gold.Protein.ActiveResidues>
 VAL166  LYS551  ARG553  GLY616  TRP617  ASP618  TYR619  PRO620  LYS621  CYS622 
 ASP623  PHE694  ASN695  SER759  ASP760  ASP761  ALA762  ILE779  LEU786  VAL792 
 PHE793  MET794  SER795  GLU796  ALA797  LYS798  CYS799  TRP800  GLU811  SER814 

> <Gold.Protein.RotatedAtoms>
  152.5416  134.2224  159.8792 H   0  0  0  0  0  0  0  0  0  0  0  0  # atno 6907 bound_to 6896
  151.2200  133.4501  159.2608 H   0  0  0  0  0  0  0  0  0  0  0  0  # atno 6908 bound_to 6896
  151.0814  134.9873  159.8414 H   0  0  0  0  0  0  0  0  0  0  0  0  # atno 6909 bound_to 6896
  146.2412  139.9888  142.8428 H   0  0  0  0  0  0  0  0  0  0  0  0  # atno 7974 bound_to 7965
  154.8391  140.2912  155.5671 H   0  0  0  0  0  0  0  0  0  0  0  0  # atno 8008 bound_to 7997
  156.3010  140.2517  156.3261 H   0  0  0  0  0  0  0  0  0  0  0  0  # atno 8009 bound_to 7997
  154.9146  140.0387  157.1954 H   0  0  0  0  0  0  0  0  0  0  0  0  # atno 8010 bound_to 7997
  139.7678  143.8282  152.2619 H   0  0  0  0  0  0  0  0  0  0  0  0  # atno 10167 bound_to 10162
  157.6949  131.0295  150.3278 H   0  0  0  0  0  0  0  0  0  0  0  0  # atno 10718 bound_to 10713
  153.0043  135.6281  154.2124 H   0  0  0  0  0  0  0  0  0  0  0  0  # atno 10763 bound_to 10752
  154.1867  135.2810  155.3036 H   0  0  0  0  0  0  0  0  0  0  0  0  # atno 10764 bound_to 10752
  154.5792  135.5653  153.7228 H   0  0  0  0  0  0  0  0  0  0  0  0  # atno 10765 bound_to 10752
  139.9572  134.9610  156.9033 H   0  0  0  0  0  0  0  0  0  0  0  0  # atno 11005 bound_to 11000
  145.1522  140.9629  143.4426 LP  0  0  0  0  0  0  0  0  0  0  0  0  # atno 17320 bound_to 7965
  145.0194  139.3438  143.6080 LP  0  0  0  0  0  0  0  0  0  0  0  0  # atno 17321 bound_to 7965
  139.8308  144.7254  150.9453 LP  0  0  0  0  0  0  0  0  0  0  0  0  # atno 17342 bound_to 10162
  140.7812  143.4072  151.1052 LP  0  0  0  0  0  0  0  0  0  0  0  0  # atno 17343 bound_to 10162
  156.3756  130.3871  149.7141 LP  0  0  0  0  0  0  0  0  0  0  0  0  # atno 17370 bound_to 10713
  156.4541  130.7920  151.2941 LP  0  0  0  0  0  0  0  0  0  0  0  0  # atno 17371 bound_to 10713
  140.5582  134.0561  155.7390 LP  0  0  0  0  0  0  0  0  0  0  0  0  # atno 17394 bound_to 11000
  141.1245  133.9406  157.2663 LP  0  0  0  0  0  0  0  0  0  0  0  0  # atno 17395 bound_to 11000

$$$$
