AV-unprocessed.smi:324|AV-procd|sdf|2340|dock3
  -GOLD-   2262022253D 1   1.00000     0.00000
 Structure written by MMmdl.
 25 26  0  0  0  0  0  0  0  0  1 V2000
  148.5912  141.0428  153.3416 O   0  0  0  0  0  0  0  0  0  0  0  0
  149.1647  140.6284  154.5641 C   0  0  0  0  0  0  0  0  0  0  0  0
  150.0465  141.7359  155.1657 C   0  0  0  0  0  0  0  0  0  0  0  0
  150.9711  141.2398  156.1783 N   0  0  0  0  0  0  0  0  0  0  0  0
  151.7336  140.1156  156.1551 C   0  0  0  0  0  0  0  0  0  0  0  0
  151.7562  139.1681  154.9945 C   0  0  0  0  0  0  0  0  0  0  0  0
  151.2317  137.5435  155.5060 Cl  0  0  0  0  0  0  0  0  0  0  0  0
  152.4942  139.9092  157.2307 N   0  0  0  0  0  0  0  0  0  0  0  0
  152.1986  140.9972  158.0276 C   0  0  0  0  0  0  0  0  0  0  0  0
  152.6833  141.3567  159.3054 C   0  0  0  0  0  0  0  0  0  0  0  0
  152.2317  142.5352  159.9349 C   0  0  0  0  0  0  0  0  0  0  0  0
  152.8345  142.9599  161.4946 Cl  0  0  0  0  0  0  0  0  0  0  0  0
  151.2910  143.3688  159.2956 C   0  0  0  0  0  0  0  0  0  0  0  0
  150.7953  143.0283  158.0223 C   0  0  0  0  0  0  0  0  0  0  0  0
  151.2486  141.8502  157.3987 C   0  0  0  0  0  0  0  0  0  0  0  0
  148.6478  140.3286  152.7252 H   0  0  0  0  0  0  0  0  0  0  0  0
  148.3635  140.3701  155.2566 H   0  0  0  0  0  0  0  0  0  0  0  0
  149.7424  139.7209  154.3944 H   0  0  0  0  0  0  0  0  0  0  0  0
  150.6241  142.2146  154.3743 H   0  0  0  0  0  0  0  0  0  0  0  0
  149.4300  142.5251  155.5943 H   0  0  0  0  0  0  0  0  0  0  0  0
  151.0688  139.5118  154.2209 H   0  0  0  0  0  0  0  0  0  0  0  0
  152.7459  139.0870  154.5488 H   0  0  0  0  0  0  0  0  0  0  0  0
  153.4050  140.7242  159.8006 H   0  0  0  0  0  0  0  0  0  0  0  0
  150.9498  144.2712  159.7814 H   0  0  0  0  0  0  0  0  0  0  0  0
  150.0780  143.6678  157.5298 H   0  0  0  0  0  0  0  0  0  0  0  0
  1  2  1  0  0  0  0
  1 16  1  0  0  0  0
  2  3  1  0  0  0  0
  2 17  1  0  0  0  0
  2 18  1  0  0  0  0
  3  4  1  0  0  0  0
  3 19  1  0  0  0  0
  3 20  1  0  0  0  0
  4 15  1  0  0  0  0
  4  5  1  0  0  0  0
  5  6  1  0  0  0  0
  5  8  2  0  0  0  0
  6  7  1  0  0  0  0
  6 21  1  0  0  0  0
  6 22  1  0  0  0  0
  8  9  1  0  0  0  0
  9 15  2  0  0  0  0
  9 10  1  0  0  0  0
 10 11  2  0  0  0  0
 10 23  1  0  0  0  0
 11 12  1  0  0  0  0
 11 13  1  0  0  0  0
 13 14  2  0  0  0  0
 13 24  1  0  0  0  0
 14 15  1  0  0  0  0
 14 25  1  0  0  0  0
M  END
> <s_m_source_file>
AV-unprocessed.smi

> <i_m_source_file_index>
324

> <i_lp_mmshare_version>
43012

> <i_f3d_flags>
0

> <s_epik_input>
W09IXVtDSDJdW0NIMl1uKGMobjEpW0NIMl1DbCljKGMxMilbY0hdW2NIXWMoQ2wpW2NIXTI=

> <s_epik_cmdline>
J2VwaWtfcHl0aG9uJywgJy1waCcsICc3LjAnLCAnLXRuJywgJzgnLCAnLW1hJywgJzIwMCcsICctbWV0YWxfYmluZGluZycsICctaW1hZScsICc8aW5maWxlLm1hZT4nLCAnLW9tYWUnLCAnPG91dGZpbGUubWFlPic=

> <r_epik_Ionization_Penalty>
0.00660302

> <r_epik_Ionization_Penalty_Charging>
0

> <r_epik_Ionization_Penalty_Neutral>
0.00660302

> <r_epik_State_Penalty>
0.00489244

> <r_epik_Charging_Adjusted_Penalty>
0.00489244

> <i_epik_Tot_Q>
0

> <i_epik_Tot_abs_Q>
0

> <r_epik_Metal_State_Penalty>
-0

> <b_epik_Metal_Only>
0

> <s_lp_Force_Field>
OPLS_2005

> <r_lp_Energy>
6.37425

> <b_lp_Chiralities_Consistent>
1

> <s_lp_Variant>
AV-unprocessed.smi:324-1

> <Gold.Version>
5.8.1

> <Gold.Id.Protein>
6NUR|6NUR_protein|mol2

> <Gold.PLP.Fitness>
42.7771

> <Gold.PLP.PLP>
-35.2605

> <Gold.PLP.part.hbond>
-2.9935

> <Gold.PLP.part.metal>
0.0000

> <Gold.PLP.part.buried>
-1.8780

> <Gold.PLP.part.nonpolar>
-29.0919

> <Gold.PLP.part.repulsive>
0.0000

> <Gold.PLP.ligand.clash>
0.0000

> <Gold.PLP.ligand.torsion>
0.2996

> <Gold.PLP.Chemscore.Hbond>
2.7040

> <Gold.PLP.Chemscore.CHOScore>
0.0000

> <Gold.PLP.Chemscore.Metal>
0.0000

> <Gold.Chemscore.Hbonds>
donor molecule, donor type, donor heavy atom, donor atom, acceptor molecule, acceptor atom, score
      L1  H     1    16       P1  7957  0.69
      P1  H  7997  8010       L1     8  1.00
      P1  H  8011  8017       L1     1  0.78

> <Gold.PLP.Chemscore.Internal.Correction>
0.0036

> <Gold.Rescore>
     Score         DG    S(hbond)    S(metal)    S(lipo)     H(rot)  DE(clash)    DE(int)     intcor
     14.73     -16.56       1.55        0.00      91.56       1.88       0.30       1.53       ----

> <Gold.Chemscore.Fitness>
14.7319

> <Gold.Chemscore.DG>
-16.5632

> <Gold.Chemscore.ZeroCoef>
-5.4800

> <Gold.Chemscore.Hbond>
1.5513

> <Gold.Chemscore.Metal>
0.0000

> <Gold.Chemscore.Lipo>
91.5633

> <Gold.Chemscore.Internal_Hbond>
0.0000

> <Gold.Chemscore.DEClash>
0.3030

> <Gold.Chemscore.DEInternal>
1.5283

> <Gold.Chemscore.Rot>
1.8794

> <Gold.Chemscore.Internal.Correction>
   9.000000E+99

> <Gold.Chemscore.Hbonds>
donor molecule, donor type, donor heavy atom, donor atom, acceptor molecule, acceptor atom, score
      L1  H     1    16       P1  7957  0.68
      P1  H  7997  8010       L1     8  0.38
      P1  H  8011  8017       L1     1  0.12

> <Gold.Chemscore.Hbond.Weighted>
-5.1815

> <Gold.Chemscore.Metal.Weighted>
-0.0000

> <Gold.Chemscore.Lipo.Weighted>
-10.7129

> <Gold.Chemscore.Internal_Hbond.Weighted>
0.0000

> <Gold.Chemscore.DEClash.Weighted>
0.3030

> <Gold.Chemscore.DEInternal.Weighted>
1.5283

> <Gold.Chemscore.Rot.Weighted>
4.8112

> <Gold.Chemscore.Internal.Correction.Weighted>
   9.000000E+99

> <Gold.Protein.RotatedTorsions>
[ 6907 6896 6895 6894 ] final  -42.57 input  -60.11 | X-H torsion
[ 7974 7965 7964 7962 ] final  143.83 input  175.53 | X-H torsion
[ 8008 7997 7996 7995 ] final   60.11 input   59.86 | X-H torsion
[ 10167 10162 10161 10158 ] final  -53.23 input  -65.29 | X-H torsion
[ 10718 10713 10712 10709 ] final  157.77 input   66.30 | X-H torsion
[ 10763 10752 10751 10750 ] final  144.07 input  -60.55 | X-H torsion
[ 11005 11000 10999 10996 ] final  103.21 input  -57.11 | X-H torsion

> <Gold.Protein.ActiveResidues>
 VAL166  LYS551  ARG553  GLY616  TRP617  ASP618  TYR619  PRO620  LYS621  CYS622 
 ASP623  PHE694  ASN695  SER759  ASP760  ASP761  ALA762  ILE779  LEU786  VAL792 
 PHE793  MET794  SER795  GLU796  ALA797  LYS798  CYS799  TRP800  GLU811  SER814 

> <Gold.Protein.RotatedAtoms>
  150.9537  134.8934  159.7687 H   0  0  0  0  0  0  0  0  0  0  0  0  # atno 6907 bound_to 6896
  152.5130  134.3770  159.9348 H   0  0  0  0  0  0  0  0  0  0  0  0  # atno 6908 bound_to 6896
  151.3784  133.3789  159.2742 H   0  0  0  0  0  0  0  0  0  0  0  0  # atno 6909 bound_to 6896
  144.8887  139.5590  143.5808 H   0  0  0  0  0  0  0  0  0  0  0  0  # atno 7974 bound_to 7965
  155.5770  140.3491  155.4530 H   0  0  0  0  0  0  0  0  0  0  0  0  # atno 8008 bound_to 7997
  156.0402  140.1294  157.0189 H   0  0  0  0  0  0  0  0  0  0  0  0  # atno 8009 bound_to 7997
  154.4388  140.1025  156.6211 H   0  0  0  0  0  0  0  0  0  0  0  0  # atno 8010 bound_to 7997
  140.6496  143.2557  151.4762 H   0  0  0  0  0  0  0  0  0  0  0  0  # atno 10167 bound_to 10162
  157.1870  131.0645  151.2100 H   0  0  0  0  0  0  0  0  0  0  0  0  # atno 10718 bound_to 10713
  153.9828  135.2939  155.3419 H   0  0  0  0  0  0  0  0  0  0  0  0  # atno 10763 bound_to 10752
  154.7259  135.5089  153.8889 H   0  0  0  0  0  0  0  0  0  0  0  0  # atno 10764 bound_to 10752
  153.0846  135.6689  154.0089 H   0  0  0  0  0  0  0  0  0  0  0  0  # atno 10765 bound_to 10752
  139.8782  134.9254  156.5176 H   0  0  0  0  0  0  0  0  0  0  0  0  # atno 11005 bound_to 11000
  146.3040  139.7520  142.9070 LP  0  0  0  0  0  0  0  0  0  0  0  0  # atno 17320 bound_to 7965
  145.3822  141.0360  143.3171 LP  0  0  0  0  0  0  0  0  0  0  0  0  # atno 17321 bound_to 7965
  139.5709  144.1930  152.1835 LP  0  0  0  0  0  0  0  0  0  0  0  0  # atno 17342 bound_to 10162
  140.1226  144.5360  150.6853 LP  0  0  0  0  0  0  0  0  0  0  0  0  # atno 17343 bound_to 10162
  157.3898  130.7276  149.6689 LP  0  0  0  0  0  0  0  0  0  0  0  0  # atno 17370 bound_to 10713
  155.9716  130.4149  150.4158 LP  0  0  0  0  0  0  0  0  0  0  0  0  # atno 17371 bound_to 10713
  140.8474  133.8158  155.9135 LP  0  0  0  0  0  0  0  0  0  0  0  0  # atno 17394 bound_to 11000
  140.9178  134.2180  157.4946 LP  0  0  0  0  0  0  0  0  0  0  0  0  # atno 17395 bound_to 11000

$$$$
