#       Name:                AV-unprocessed.smi:3189
#       Creating user name   scv26
#       Creation time:       Fri Mar 27 18:03:13 2020


#       File generated by GOLD software.
#

@<TRIPOS>MOLECULE
AV-unprocessed.smi:3189
    33    34     1
SMALL
NO_CHARGES


@<TRIPOS>ATOM
      1 ****        -4.3894   1.7064  -0.5212 C.3            1 S1                 0.0000
      2 ****        -3.5384   0.4717  -0.2946 C.ar           1 S1                 0.0000
      3 ****        -4.1763  -0.6985  -0.0716 N.pl3          1 S1                 1.0000
      4 ****        -3.5263  -1.8627   0.1349 C.ar           1 S1                 0.0000
      5 ****        -2.1182  -1.8919   0.1292 C.ar           1 S1                 0.0000
      6 ****        -1.3978  -0.6894  -0.0825 C.ar           1 S1                 0.0000
      7 ****         0.0227  -0.6330  -0.1220 N.am           1 S1                 0.0000
      8 ****         0.9165  -1.4499   0.4687 C.2            1 S1                 0.0000
      9 ****         0.6223  -2.4045   1.1851 O.2            1 S1                 0.0000
     10 ****         2.1979  -1.0946   0.2712 N.am           1 S1                 0.0000
     11 ****         3.3704  -1.7543   0.7643 C.3            1 S1                 0.0000
     12 ****         4.6910  -1.0373   0.5866 C.3            1 S1                 0.0000
     13 ****         4.4000  -2.2766  -0.2196 C.3            1 S1                 0.0000
     14 ****         4.1936  -2.1941  -1.7191 C.3            1 S1                 0.0000
     15 ****        -2.1239   0.5060  -0.3102 C.ar           1 S1                 0.0000
     16 ****        -1.2930   1.9984  -0.5969 Cl             1 S1                 0.0000
     17 ****        -4.1981   2.4458   0.2569 H              1 S1                 0.0000
     18 ****        -5.4531   1.4662  -0.5059 H              1 S1                 0.0000
     19 ****        -4.1589   2.1552  -1.4878 H              1 S1                 0.0000
     20 ****        -4.1481  -2.7321   0.2911 H              1 S1                 0.0000
     21 ****        -1.6178  -2.8371   0.2752 H              1 S1                 0.0000
     22 ****         0.4098   0.1735  -0.5903 H              1 S1                 0.0000
     23 ****         2.3557  -0.2164  -0.2024 H              1 S1                 0.0000
     24 ****         3.2725  -2.2979   1.7030 H              1 S1                 0.0000
     25 ****         4.6856  -0.0819   0.0649 H              1 S1                 0.0000
     26 ****         5.4221  -1.1232   1.3879 H              1 S1                 0.0000
     27 ****         4.9202  -3.1808   0.0911 H              1 S1                 0.0000
     28 ****         3.7486  -1.2404  -2.0040 H              1 S1                 0.0000
     29 ****         3.5365  -2.9983  -2.0504 H              1 S1                 0.0000
     30 ****         5.1500  -2.2931  -2.2323 H              1 S1                 0.0000
     31 ****        -5.1967  -0.7028  -0.0642 H              1 S1                 0.0000
     32 ****        -0.3381  -2.6186   1.3632 LP             1 S1                 0.0000
     33 ****         1.3434  -2.9669   1.5897 LP             1 S1                 0.0000
@<TRIPOS>BOND
    1    1    2 1     
    2    1   17 1     
    3    1   18 1     
    4    1   19 1     
    5    2   15 ar    
    6    2    3 ar    
    7    3    4 ar    
    8    3   31 1     
    9    4    5 ar    
   10    4   20 1     
   11    5    6 ar    
   12    5   21 1     
   13    6    7 1     
   14    6   15 ar    
   15    7    8 am    
   16    7   22 1     
   17    8    9 2     
   18    8   10 am    
   19   10   11 1     
   20   10   23 1     
   21   11   13 1     
   22   11   12 1     
   23   11   24 1     
   24   12   13 1     
   25   12   25 1     
   26   12   26 1     
   27   13   14 1     
   28   13   27 1     
   29   14   28 1     
   30   14   29 1     
   31   14   30 1     
   32   15   16 1     
   33    9   32 1     
   34    9   33 1     
@<TRIPOS>SUBSTRUCTURE
      1 S1             1
@<TRIPOS>SET
LONE_PAIRS      STATIC     ATOMS    <user>   **** ""
2 32 33
DONOR_HYDROGENS      STATIC     ATOMS    <user>   **** ""
3 31 22 23
ATOM$BLUE        STATIC     ATOMS    COLORGROUP SYSTEM
2 32 33
ATOM$RED        STATIC     ATOMS    COLORGROUP SYSTEM
3 31 22 23
