AV-unprocessed.smi:160|AV-procd|sdf|1366|dock4
  -GOLD-   2262019 83D 1   1.00000     0.00000
 Structure written by MMmdl.
 28 29  0  0  0  0  0  0  0  0  2 V2000
  148.8081  135.1152  158.5819 N   0  5  0  0  0  0  0  0  0  0  0  0
  149.0667  136.4399  158.6420 C   0  0  0  0  0  0  0  0  0  0  0  0
  148.8017  137.1917  159.5796 O   0  0  0  0  0  0  0  0  0  0  0  0
  149.7495  137.0007  157.4174 C   0  0  0  0  0  0  0  0  0  0  0  0
  149.9010  136.2393  156.2915 N   0  0  0  0  0  0  0  0  0  0  0  0
  150.5166  137.1243  155.5189 C   0  0  0  0  0  0  0  0  0  0  0  0
  150.7365  138.3059  156.1032 N   0  0  0  0  0  0  0  0  0  0  0  0
  151.3730  139.5460  155.5451 C   0  0  1  0  0  0  0  0  0  0  0  0
  150.5308  140.0397  154.5501 O   0  0  0  0  0  0  0  0  0  0  0  0
  149.8273  141.2033  154.9906 C   0  0  1  0  0  0  0  0  0  0  0  0
  148.3166  141.0245  154.7640 C   0  0  0  0  0  0  0  0  0  0  0  0
  147.6423  142.2446  154.9879 O   0  0  0  0  0  0  0  0  0  0  0  0
  150.2050  141.3996  156.4695 C   0  0  2  0  0  0  0  0  0  0  0  0
  150.3740  142.7744  156.7553 O   0  0  0  0  0  0  0  0  0  0  0  0
  151.5298  140.6608  156.5917 C   0  0  1  0  0  0  0  0  0  0  0  0
  151.7500  140.1878  157.9082 O   0  0  0  0  0  0  0  0  0  0  0  0
  150.2284  138.2466  157.3587 N   0  0  0  0  0  0  0  0  0  0  0  0
  152.3203  139.1987  155.1317 H   0  0  0  0  0  0  0  0  0  0  0  0
  150.2029  142.0463  154.4070 H   0  0  0  0  0  0  0  0  0  0  0  0
  149.4501  140.9669  157.1281 H   0  0  0  0  0  0  0  0  0  0  0  0
  152.3584  141.2962  156.2750 H   0  0  0  0  0  0  0  0  0  0  0  0
  148.1736  134.7740  157.8500 H   0  0  0  0  0  0  0  0  0  0  0  0
  150.8127  136.9059  154.5036 H   0  0  0  0  0  0  0  0  0  0  0  0
  148.1016  140.6523  153.7623 H   0  0  0  0  0  0  0  0  0  0  0  0
  147.9147  140.2977  155.4706 H   0  0  0  0  0  0  0  0  0  0  0  0
  148.2670  142.8749  155.3125 H   0  0  0  0  0  0  0  0  0  0  0  0
  149.8616  143.2740  156.1384 H   0  0  0  0  0  0  0  0  0  0  0  0
  151.8146  139.2456  157.8839 H   0  0  0  0  0  0  0  0  0  0  0  0
  1  2  1  0  0  0  0
  1 22  1  0  0  0  0
  2  3  2  0  0  0  0
  2  4  1  0  0  0  0
  4 17  2  0  0  0  0
  4  5  1  0  0  0  0
  5  6  2  0  0  0  0
  6  7  1  0  0  0  0
  6 23  1  0  0  0  0
  7  8  1  0  0  0  0
  7 17  1  0  0  0  0
  8 18  1  0  0  0  0
  8 15  1  0  0  0  0
  8  9  1  0  0  0  0
  9 10  1  0  0  0  0
 10 19  1  0  0  0  0
 10 11  1  0  0  0  0
 10 13  1  0  0  0  0
 11 12  1  0  0  0  0
 11 24  1  0  0  0  0
 11 25  1  0  0  0  0
 12 26  1  0  0  0  0
 13 20  1  0  0  0  0
 13 14  1  0  0  0  0
 13 15  1  0  0  0  0
 14 27  1  0  0  0  0
 15 21  1  0  0  0  0
 15 16  1  0  0  0  0
 16 28  1  0  0  0  0
M  CHG  1   1  -1
M  END
> <s_m_source_file>
AV-unprocessed.smi

> <i_m_source_file_index>
160

> <i_lp_mmshare_version>
43012

> <i_f3d_flags>
0

> <s_epik_input>
W05IMl1DKD1PKWMxbltjSF1uKG4xKVtDQEBIXTJPW0NASF0oW0NIMl1bT0hdKVtDQEBIXShbT0hdKVtDQEhdMltPSF0=

> <s_epik_cmdline>
J2VwaWtfcHl0aG9uJywgJy1waCcsICc3LjAnLCAnLXRuJywgJzgnLCAnLW1hJywgJzIwMCcsICctbWV0YWxfYmluZGluZycsICctaW1hZScsICc8aW5maWxlLm1hZT4nLCAnLW9tYWUnLCAnPG91dGZpbGUubWFlPic=

> <r_lp_tautomer_probability>
1

> <r_epik_Ionization_Penalty>
6.6993

> <r_epik_Ionization_Penalty_Charging>
6.6993

> <r_epik_Ionization_Penalty_Neutral>
6.01698e-06

> <r_epik_State_Penalty>
6.69929

> <r_epik_Charging_Adjusted_Penalty>
13.3986

> <i_epik_Tot_Q>
-1

> <i_epik_Tot_abs_Q>
1

> <r_epik_Metal_State_Penalty>
2.62798

> <b_epik_Metal_Only>
1

> <s_epik_Chemistry_Notes>
This compound contains an acetal/aminal-like group ( X-CH(R)-Y where X, Y are N, S, or O) that may be acid/base labile, releasing an aldehyde.

> <s_lp_Force_Field>
OPLS_2005

> <r_lp_Energy>
43.6415

> <b_lp_Chiralities_Consistent>
1

> <s_lp_Variant>
AV-unprocessed.smi:160-24

> <Gold.Version>
5.8.1

> <Gold.Id.Protein>
6NUR|6NUR_protein|mol2

> <Gold.PLP.Fitness>
38.5724

> <Gold.PLP.PLP>
-23.3841

> <Gold.PLP.part.hbond>
-5.5129

> <Gold.PLP.part.metal>
0.0000

> <Gold.PLP.part.buried>
-4.4225

> <Gold.PLP.part.nonpolar>
-13.3207

> <Gold.PLP.part.repulsive>
0.0919

> <Gold.PLP.ligand.clash>
0.0000

> <Gold.PLP.ligand.torsion>
0.1789

> <Gold.PLP.Chemscore.Hbond>
5.1778

> <Gold.PLP.Chemscore.CHOScore>
0.0000

> <Gold.PLP.Chemscore.Metal>
0.0000

> <Gold.Chemscore.Hbonds>
donor molecule, donor type, donor heavy atom, donor atom, acceptor molecule, acceptor atom, score
      L1  H    12    26       P1  8028  1.00
      L1  H    14    27       P1  8028  1.00
      P1  H  6896  6907       L1     1  1.12
      P1  H  7989  7998       L1     9  0.80

> <Gold.PLP.Chemscore.Internal.Correction>
0.0126

> <Gold.Rescore>
     Score         DG    S(hbond)    S(metal)    S(lipo)     H(rot)  DE(clash)    DE(int)     intcor
      8.95     -10.88       3.79        0.00      26.39       4.04       0.00       1.93       ----

> <Gold.Chemscore.Fitness>
8.9476

> <Gold.Chemscore.DG>
-10.8753

> <Gold.Chemscore.ZeroCoef>
-5.4800

> <Gold.Chemscore.Hbond>
3.7875

> <Gold.Chemscore.Metal>
0.0000

> <Gold.Chemscore.Lipo>
26.3950

> <Gold.Chemscore.Internal_Hbond>
0.0000

> <Gold.Chemscore.DEClash>
0.0000

> <Gold.Chemscore.DEInternal>
1.9277

> <Gold.Chemscore.Rot>
4.0403

> <Gold.Chemscore.Internal.Correction>
   9.000000E+99

> <Gold.Chemscore.Hbonds>
donor molecule, donor type, donor heavy atom, donor atom, acceptor molecule, acceptor atom, score
      L1  H    12    26       P1  8028  0.93
      L1  H    14    27       P1  8028  0.96
      P1  H  6896  6907       L1     1  0.08
      P1  H  7989  7998       L1     9  0.05

> <Gold.Chemscore.Hbond.Weighted>
-12.6502

> <Gold.Chemscore.Metal.Weighted>
-0.0000

> <Gold.Chemscore.Lipo.Weighted>
-3.0882

> <Gold.Chemscore.Internal_Hbond.Weighted>
0.0000

> <Gold.Chemscore.DEClash.Weighted>
0.0000

> <Gold.Chemscore.DEInternal.Weighted>
1.9277

> <Gold.Chemscore.Rot.Weighted>
10.3431

> <Gold.Chemscore.Internal.Correction.Weighted>
   9.000000E+99

> <Gold.Protein.RotatedTorsions>
[ 6907 6896 6895 6894 ] final  -75.04 input  -60.11 | X-H torsion
[ 7974 7965 7964 7962 ] final  -33.62 input  175.53 | X-H torsion
[ 8008 7997 7996 7995 ] final  -18.21 input   59.86 | X-H torsion
[ 10167 10162 10161 10158 ] final  -37.40 input  -65.29 | X-H torsion
[ 10718 10713 10712 10709 ] final -141.66 input   66.30 | X-H torsion
[ 10763 10752 10751 10750 ] final  -67.57 input  -60.55 | X-H torsion
[ 11005 11000 10999 10996 ] final   45.28 input  -57.11 | X-H torsion

> <Gold.Protein.ActiveResidues>
 VAL166  LYS551  ARG553  GLY616  TRP617  ASP618  TYR619  PRO620  LYS621  CYS622 
 ASP623  PHE694  ASN695  SER759  ASP760  ASP761  ALA762  ILE779  LEU786  VAL792 
 PHE793  MET794  SER795  GLU796  ALA797  LYS798  CYS799  TRP800  GLU811  SER814 

> <Gold.Protein.RotatedAtoms>
  150.7072  134.4780  159.5456 H   0  0  0  0  0  0  0  0  0  0  0  0  # atno 6907 bound_to 6896
  152.2423  134.8213  160.0467 H   0  0  0  0  0  0  0  0  0  0  0  0  # atno 6908 bound_to 6896
  151.8990  133.3498  159.3861 H   0  0  0  0  0  0  0  0  0  0  0  0  # atno 6909 bound_to 6896
  146.0896  140.5938  142.8870 H   0  0  0  0  0  0  0  0  0  0  0  0  # atno 7974 bound_to 7965
  154.4922  140.2122  155.9523 H   0  0  0  0  0  0  0  0  0  0  0  0  # atno 8008 bound_to 7997
  156.1321  140.3195  155.8334 H   0  0  0  0  0  0  0  0  0  0  0  0  # atno 8009 bound_to 7997
  155.4277  140.0501  157.3012 H   0  0  0  0  0  0  0  0  0  0  0  0  # atno 8010 bound_to 7997
  140.7119  143.3344  151.2495 H   0  0  0  0  0  0  0  0  0  0  0  0  # atno 10167 bound_to 10162
  156.3367  130.7615  151.1744 H   0  0  0  0  0  0  0  0  0  0  0  0  # atno 10718 bound_to 10713
  154.3764  135.6084  153.5767 H   0  0  0  0  0  0  0  0  0  0  0  0  # atno 10763 bound_to 10752
  152.9789  135.5850  154.4461 H   0  0  0  0  0  0  0  0  0  0  0  0  # atno 10764 bound_to 10752
  154.4224  135.2846  155.1945 H   0  0  0  0  0  0  0  0  0  0  0  0  # atno 10765 bound_to 10752
  140.1474  134.4505  155.8406 H   0  0  0  0  0  0  0  0  0  0  0  0  # atno 11005 bound_to 11000
  144.7350  140.4783  143.6910 LP  0  0  0  0  0  0  0  0  0  0  0  0  # atno 17320 bound_to 7965
  145.6064  139.1509  143.3100 LP  0  0  0  0  0  0  0  0  0  0  0  0  # atno 17321 bound_to 7965
  139.6835  143.9813  152.2822 LP  0  0  0  0  0  0  0  0  0  0  0  0  # atno 17342 bound_to 10162
  139.9451  144.6657  150.8227 LP  0  0  0  0  0  0  0  0  0  0  0  0  # atno 17343 bound_to 10162
  157.7440  131.0466  150.4902 LP  0  0  0  0  0  0  0  0  0  0  0  0  # atno 17370 bound_to 10713
  156.5076  130.4131  149.6319 LP  0  0  0  0  0  0  0  0  0  0  0  0  # atno 17371 bound_to 10713
  141.2194  133.6858  156.7359 LP  0  0  0  0  0  0  0  0  0  0  0  0  # atno 17394 bound_to 11000
  140.2647  134.8439  157.3791 LP  0  0  0  0  0  0  0  0  0  0  0  0  # atno 17395 bound_to 11000

$$$$
