AV-unprocessed.smi:1404|AV-procd|sdf|5705|dock6
  -GOLD-   22720 5333D 1   1.00000     0.00000
 Structure written by MMmdl.
 47 48  0  0  0  0  0  0  0  0  1 V2000
  152.7488  142.0613  160.7844 C   0  0  0  0  0  0  0  0  0  0  0  0
  152.1994  142.6443  159.5782 N   0  0  0  0  0  0  0  0  0  0  0  0
  152.1614  144.0538  159.4457 C   0  0  0  0  0  0  0  0  0  0  0  0
  152.5796  144.8156  160.3181 O   0  0  0  0  0  0  0  0  0  0  0  0
  151.5890  144.5255  158.1906 C   0  0  0  0  0  0  0  0  0  0  0  0
  151.1463  143.6544  157.2577 C   0  0  0  0  0  0  0  0  0  0  0  0
  151.1991  142.2810  157.4113 N   0  0  0  0  0  0  0  0  0  0  0  0
  150.6891  141.4072  156.3471 C   0  0  0  0  0  0  0  0  0  0  0  0
  149.2215  141.0108  156.5532 C   0  0  0  0  0  0  0  0  0  0  0  0
  148.9129  139.8432  156.7957 O   0  0  0  0  0  0  0  0  0  0  0  0
  148.3268  142.0039  156.4701 N   0  0  0  0  0  0  0  0  0  0  0  0
  146.8837  141.8346  156.6061 C   0  0  0  0  0  0  0  0  0  0  0  0
  146.1647  141.7870  155.2278 C   0  0  0  0  0  0  0  0  0  0  0  0
  144.6883  142.1820  155.4708 C   0  0  0  0  0  0  0  0  0  0  0  0
  146.8046  142.9032  154.3638 C   0  0  0  0  0  0  0  0  0  0  0  0
  146.3140  140.4557  154.5746 N   0  0  0  0  0  0  0  0  0  0  0  0
  147.6754  140.1337  154.1302 C   0  0  0  0  0  0  0  0  0  0  0  0
  147.7331  138.8045  153.3585 C   0  0  0  0  0  0  0  0  0  0  0  0
  147.2109  137.7574  154.1676 O   0  0  0  0  0  0  0  0  0  0  0  0
  145.8689  138.0018  154.5704 C   0  0  0  0  0  0  0  0  0  0  0  0
  145.7938  139.3248  155.3515 C   0  0  0  0  0  0  0  0  0  0  0  0
  151.7373  141.7389  158.5980 C   0  0  0  0  0  0  0  0  0  0  0  0
  151.7973  140.5173  158.7628 O   0  0  0  0  0  0  0  0  0  0  0  0
  153.0352  142.8284  161.5030 H   0  0  0  0  0  0  0  0  0  0  0  0
  153.6241  141.4795  160.4899 H   0  0  0  0  0  0  0  0  0  0  0  0
  151.9758  141.4249  161.2191 H   0  0  0  0  0  0  0  0  0  0  0  0
  151.5185  145.5874  158.0064 H   0  0  0  0  0  0  0  0  0  0  0  0
  150.7277  144.0553  156.3461 H   0  0  0  0  0  0  0  0  0  0  0  0
  150.7730  141.9064  155.3809 H   0  0  0  0  0  0  0  0  0  0  0  0
  151.3096  140.5121  156.2717 H   0  0  0  0  0  0  0  0  0  0  0  0
  148.6600  142.9352  156.2666 H   0  0  0  0  0  0  0  0  0  0  0  0
  146.6704  140.9345  157.1846 H   0  0  0  0  0  0  0  0  0  0  0  0
  146.4995  142.6592  157.2090 H   0  0  0  0  0  0  0  0  0  0  0  0
  144.6196  143.1604  155.9481 H   0  0  0  0  0  0  0  0  0  0  0  0
  144.1770  141.4769  156.1260 H   0  0  0  0  0  0  0  0  0  0  0  0
  144.1195  142.2459  154.5435 H   0  0  0  0  0  0  0  0  0  0  0  0
  146.8571  143.8484  154.9053 H   0  0  0  0  0  0  0  0  0  0  0  0
  146.2322  143.1051  153.4586 H   0  0  0  0  0  0  0  0  0  0  0  0
  147.8203  142.6460  154.0607 H   0  0  0  0  0  0  0  0  0  0  0  0
  148.0652  140.9106  153.4751 H   0  0  0  0  0  0  0  0  0  0  0  0
  148.3477  140.0731  154.9861 H   0  0  0  0  0  0  0  0  0  0  0  0
  147.1674  138.8731  152.4278 H   0  0  0  0  0  0  0  0  0  0  0  0
  148.7627  138.5671  153.0904 H   0  0  0  0  0  0  0  0  0  0  0  0
  145.2179  138.0322  153.6953 H   0  0  0  0  0  0  0  0  0  0  0  0
  145.5289  137.1750  155.1940 H   0  0  0  0  0  0  0  0  0  0  0  0
  146.3547  139.2152  156.2798 H   0  0  0  0  0  0  0  0  0  0  0  0
  144.7536  139.4874  155.6268 H   0  0  0  0  0  0  0  0  0  0  0  0
  1  2  1  0  0  0  0
  1 24  1  0  0  0  0
  1 25  1  0  0  0  0
  1 26  1  0  0  0  0
  2 22  1  0  0  0  0
  2  3  1  0  0  0  0
  3  4  2  0  0  0  0
  3  5  1  0  0  0  0
  5  6  2  0  0  0  0
  5 27  1  0  0  0  0
  6  7  1  0  0  0  0
  6 28  1  0  0  0  0
  7  8  1  0  0  0  0
  7 22  1  0  0  0  0
  8  9  1  0  0  0  0
  8 29  1  0  0  0  0
  8 30  1  0  0  0  0
  9 10  2  0  0  0  0
  9 11  1  0  0  0  0
 11 12  1  0  0  0  0
 11 31  1  0  0  0  0
 12 13  1  0  0  0  0
 12 32  1  0  0  0  0
 12 33  1  0  0  0  0
 13 14  1  0  0  0  0
 13 15  1  0  0  0  0
 13 16  1  0  0  0  0
 14 34  1  0  0  0  0
 14 35  1  0  0  0  0
 14 36  1  0  0  0  0
 15 37  1  0  0  0  0
 15 38  1  0  0  0  0
 15 39  1  0  0  0  0
 16 21  1  0  0  0  0
 16 17  1  0  0  0  0
 17 18  1  0  0  0  0
 17 40  1  0  0  0  0
 17 41  1  0  0  0  0
 18 19  1  0  0  0  0
 18 42  1  0  0  0  0
 18 43  1  0  0  0  0
 19 20  1  0  0  0  0
 20 21  1  0  0  0  0
 20 44  1  0  0  0  0
 20 45  1  0  0  0  0
 21 46  1  0  0  0  0
 21 47  1  0  0  0  0
 22 23  2  0  0  0  0
M  END
> <s_m_source_file>
AV-unprocessed.smi

> <i_m_source_file_index>
1404

> <i_lp_mmshare_version>
43012

> <i_f3d_flags>
0

> <s_epik_input>
W0NIM11uMWMoPU8pW2NIXVtjSF1uKGMxPU8pW0NIMl1DKD1PKVtOSF1bQ0gyXUMoW0NIM10pKFtDSDNdKU4yW0NIMl1bQ0gyXU9bQ0gyXVtDSDJdMg==

> <s_epik_cmdline>
J2VwaWtfcHl0aG9uJywgJy1waCcsICc3LjAnLCAnLXRuJywgJzgnLCAnLW1hJywgJzIwMCcsICctbWV0YWxfYmluZGluZycsICctaW1hZScsICc8aW5maWxlLm1hZT4nLCAnLW9tYWUnLCAnPG91dGZpbGUubWFlPic=

> <r_lp_tautomer_probability>
1

> <r_epik_Ionization_Penalty>
0.237382

> <r_epik_Ionization_Penalty_Charging>
1.16427e-08

> <r_epik_Ionization_Penalty_Neutral>
0.237382

> <r_epik_State_Penalty>
0.228245

> <r_epik_Charging_Adjusted_Penalty>
0.228245

> <i_epik_Tot_Q>
0

> <i_epik_Tot_abs_Q>
0

> <r_epik_Metal_State_Penalty>
0.22822

> <b_epik_Metal_Only>
0

> <s_lp_Force_Field>
OPLS_2005

> <r_lp_Energy>
49.615

> <b_lp_Chiralities_Consistent>
1

> <s_lp_Variant>
AV-unprocessed.smi:1404-1

> <Gold.Version>
5.8.1

> <Gold.Id.Protein>
6NUR|6NUR_protein|mol2

> <Gold.PLP.Fitness>
37.6863

> <Gold.PLP.PLP>
-33.3511

> <Gold.PLP.part.hbond>
-1.0000

> <Gold.PLP.part.metal>
0.0000

> <Gold.PLP.part.buried>
2.2334

> <Gold.PLP.part.nonpolar>
-35.0123

> <Gold.PLP.part.repulsive>
0.3447

> <Gold.PLP.ligand.clash>
0.0005

> <Gold.PLP.ligand.torsion>
0.8861

> <Gold.PLP.Chemscore.Hbond>
1.0000

> <Gold.PLP.Chemscore.CHOScore>
1.0000

> <Gold.PLP.Chemscore.Metal>
0.0000

> <Gold.Chemscore.Hbonds>
donor molecule, donor type, donor heavy atom, donor atom, acceptor molecule, acceptor atom, score
      L1  H    11    31       P1  8028  1.00
      L1  C     6    28       P1  8028  1.00

> <Gold.PLP.Chemscore.Internal.Correction>
0.1079

> <Gold.Rescore>
     Score         DG    S(hbond)    S(metal)    S(lipo)     H(rot)  DE(clash)    DE(int)     intcor
      9.95     -11.93       0.99        0.00      71.98       2.07       0.96       1.01       ----

> <Gold.Chemscore.Fitness>
9.9470

> <Gold.Chemscore.DG>
-11.9257

> <Gold.Chemscore.ZeroCoef>
-5.4800

> <Gold.Chemscore.Hbond>
0.9922

> <Gold.Chemscore.Metal>
0.0000

> <Gold.Chemscore.Lipo>
71.9799

> <Gold.Chemscore.Internal_Hbond>
0.0000

> <Gold.Chemscore.DEClash>
0.9647

> <Gold.Chemscore.DEInternal>
1.0140

> <Gold.Chemscore.Rot>
2.0664

> <Gold.Chemscore.Internal.Correction>
   9.000000E+99

> <Gold.Chemscore.Hbonds>
donor molecule, donor type, donor heavy atom, donor atom, acceptor molecule, acceptor atom, score
      L1  H    11    31       P1  8028  0.98

> <Gold.Chemscore.Hbond.Weighted>
-3.3139

> <Gold.Chemscore.Metal.Weighted>
-0.0000

> <Gold.Chemscore.Lipo.Weighted>
-8.4217

> <Gold.Chemscore.Internal_Hbond.Weighted>
0.0000

> <Gold.Chemscore.DEClash.Weighted>
0.9647

> <Gold.Chemscore.DEInternal.Weighted>
1.0140

> <Gold.Chemscore.Rot.Weighted>
5.2899

> <Gold.Chemscore.Internal.Correction.Weighted>
   9.000000E+99

> <Gold.Protein.RotatedTorsions>
[ 6907 6896 6895 6894 ] final   69.77 input  -60.11 | X-H torsion
[ 7974 7965 7964 7962 ] final   79.33 input  175.53 | X-H torsion
[ 8008 7997 7996 7995 ] final   31.16 input   59.86 | X-H torsion
[ 10167 10162 10161 10158 ] final  -24.33 input  -65.29 | X-H torsion
[ 10718 10713 10712 10709 ] final   74.73 input   66.30 | X-H torsion
[ 10763 10752 10751 10750 ] final -126.56 input  -60.55 | X-H torsion
[ 11005 11000 10999 10996 ] final  -21.12 input  -57.11 | X-H torsion

> <Gold.Protein.ActiveResidues>
 VAL166  LYS551  ARG553  GLY616  TRP617  ASP618  TYR619  PRO620  LYS621  CYS622 
 ASP623  PHE694  ASN695  SER759  ASP760  ASP761  ALA762  ILE779  LEU786  VAL792 
 PHE793  MET794  SER795  GLU796  ALA797  LYS798  CYS799  TRP800  GLU811  SER814 

> <Gold.Protein.RotatedAtoms>
  152.4707  134.4966  159.9711 H   0  0  0  0  0  0  0  0  0  0  0  0  # atno 6907 bound_to 6896
  151.4993  133.3502  159.2874 H   0  0  0  0  0  0  0  0  0  0  0  0  # atno 6908 bound_to 6896
  150.8716  134.8119  159.7221 H   0  0  0  0  0  0  0  0  0  0  0  0  # atno 6909 bound_to 6896
  145.6656  139.2483  143.1897 H   0  0  0  0  0  0  0  0  0  0  0  0  # atno 7974 bound_to 7965
  155.1019  140.3230  155.4545 H   0  0  0  0  0  0  0  0  0  0  0  0  # atno 8008 bound_to 7997
  156.2714  140.2059  156.6092 H   0  0  0  0  0  0  0  0  0  0  0  0  # atno 8009 bound_to 7997
  154.6822  140.0525  157.0265 H   0  0  0  0  0  0  0  0  0  0  0  0  # atno 8010 bound_to 7997
  140.7288  143.4363  151.0725 H   0  0  0  0  0  0  0  0  0  0  0  0  # atno 10167 bound_to 10162
  157.6604  130.9692  150.1252 H   0  0  0  0  0  0  0  0  0  0  0  0  # atno 10718 bound_to 10713
  154.8746  135.3991  154.3451 H   0  0  0  0  0  0  0  0  0  0  0  0  # atno 10763 bound_to 10752
  153.4245  135.7024  153.6277 H   0  0  0  0  0  0  0  0  0  0  0  0  # atno 10764 bound_to 10752
  153.4925  135.3745  155.2469 H   0  0  0  0  0  0  0  0  0  0  0  0  # atno 10765 bound_to 10752
  140.8530  133.7843  155.9988 H   0  0  0  0  0  0  0  0  0  0  0  0  # atno 11005 bound_to 11000
  146.1088  140.7453  142.9513 LP  0  0  0  0  0  0  0  0  0  0  0  0  # atno 17320 bound_to 7965
  144.7074  140.3906  143.7107 LP  0  0  0  0  0  0  0  0  0  0  0  0  # atno 17321 bound_to 7965
  139.8025  143.8064  152.3164 LP  0  0  0  0  0  0  0  0  0  0  0  0  # atno 17342 bound_to 10162
  139.8085  144.7345  150.9729 LP  0  0  0  0  0  0  0  0  0  0  0  0  # atno 17343 bound_to 10162
  156.2113  130.3667  149.8667 LP  0  0  0  0  0  0  0  0  0  0  0  0  # atno 17370 bound_to 10713
  156.6545  130.8757  151.3537 LP  0  0  0  0  0  0  0  0  0  0  0  0  # atno 17371 bound_to 10713
  140.8768  134.2659  157.5164 LP  0  0  0  0  0  0  0  0  0  0  0  0  # atno 17394 bound_to 11000
  139.8704  134.9595  156.4335 LP  0  0  0  0  0  0  0  0  0  0  0  0  # atno 17395 bound_to 11000

$$$$
