#       Name:                AV-unprocessed.smi:2439
#       Creating user name   scv26
#       Creation time:       Fri Mar 27 13:23:55 2020


#       File generated by GOLD software.
#

@<TRIPOS>MOLECULE
AV-unprocessed.smi:2439
    45    47     1
SMALL
NO_CHARGES


@<TRIPOS>ATOM
      1 ****        -1.5544  -5.2650  -2.3712 N.1            1 S1                 0.0000
      2 ****        -2.0287  -4.2127  -2.2917 C.1            1 S1                 0.0000
      3 ****        -2.6255  -2.8864  -2.1911 C.ar           1 S1                 0.0000
      4 ****        -4.0257  -2.7767  -2.0580 C.ar           1 S1                 0.0000
      5 ****        -4.6071  -1.4996  -1.9586 C.ar           1 S1                 0.0000
      6 ****        -3.7602  -0.3774  -1.9975 C.ar           1 S1                 0.0000
      7 ****        -2.4197  -0.4682  -2.1242 N.ar           1 S1                 0.0000
      8 ****        -1.8510  -1.6953  -2.2203 C.ar           1 S1                 0.0000
      9 ****        -0.4510  -1.7588  -2.3535 N.pl3          1 S1                 0.0000
     10 ****         0.3895  -0.5692  -2.2806 C.3            1 S1                 0.0000
     11 ****         0.6015  -0.0856  -0.8355 C.3            1 S1                 0.0000
     12 ****         1.3131   1.2848  -0.7988 C.3            1 S1                 0.0000
     13 ****         1.6312   1.6983   0.5896 N.4            1 S1                 1.0000
     14 ****         0.4543   2.2204   1.3366 C.3            1 S1                 0.0000
     15 ****         0.8522   2.7001   2.7399 C.3            1 S1                 0.0000
     16 ****         1.5260   1.5701   3.5262 C.3            1 S1                 0.0000
     17 ****         2.7372   1.0420   2.7455 C.3            1 S1                 0.0000
     18 ****         2.3772   0.6250   1.3033 C.3            1 S1                 0.0000
     19 ****         1.6233  -0.7181   1.2092 C.3            1 S1                 0.0000
     20 ****         1.4138  -1.0422  -0.1606 O.3            1 S1                 0.0000
     21 ****        -4.6512  -3.6576  -2.0317 H              1 S1                 0.0000
     22 ****        -5.6760  -1.3836  -1.8564 H              1 S1                 0.0000
     23 ****        -4.1688   0.6196  -1.9243 H              1 S1                 0.0000
     24 ****        -0.0004  -2.6610  -2.4149 H              1 S1                 0.0000
     25 ****         1.3512  -0.7967  -2.7411 H              1 S1                 0.0000
     26 ****        -0.0537   0.2230  -2.8851 H              1 S1                 0.0000
     27 ****        -0.3643  -0.0115  -0.3347 H              1 S1                 0.0000
     28 ****         2.2473   1.2255  -1.3592 H              1 S1                 0.0000
     29 ****         0.7080   2.0488  -1.2884 H              1 S1                 0.0000
     30 ****         0.0151   3.0502   0.7818 H              1 S1                 0.0000
     31 ****        -0.3193   1.4569   1.4195 H              1 S1                 0.0000
     32 ****         1.5300   3.5514   2.6608 H              1 S1                 0.0000
     33 ****        -0.0284   3.0538   3.2767 H              1 S1                 0.0000
     34 ****         1.8406   1.9308   4.5062 H              1 S1                 0.0000
     35 ****         0.8135   0.7644   3.7059 H              1 S1                 0.0000
     36 ****         3.4966   1.8244   2.7079 H              1 S1                 0.0000
     37 ****         3.1922   0.2064   3.2788 H              1 S1                 0.0000
     38 ****         3.3203   0.4920   0.7704 H              1 S1                 0.0000
     39 ****         2.2149  -1.5126   1.6645 H              1 S1                 0.0000
     40 ****         0.6710  -0.6914   1.7400 H              1 S1                 0.0000
     41 ****         2.2655   2.4809   0.5141 H              1 S1                 0.0000
     42 ****        -1.1445  -6.1745  -2.4399 LP             1 S1                 0.0000
     43 ****        -1.8547   0.3566  -2.1468 LP             1 S1                 0.0000
     44 ****         2.3020  -1.0868  -0.6180 LP             1 S1                 0.0000
     45 ****         0.9666  -1.9351  -0.2130 LP             1 S1                 0.0000
@<TRIPOS>BOND
    1    1    2 3     
    2    2    3 1     
    3    3    8 ar    
    4    3    4 ar    
    5    4    5 ar    
    6    4   21 1     
    7    5    6 ar    
    8    5   22 1     
    9    6    7 ar    
   10    6   23 1     
   11    7    8 ar    
   12    8    9 1     
   13    9   10 1     
   14    9   24 1     
   15   10   11 1     
   16   10   25 1     
   17   10   26 1     
   18   11   20 1     
   19   11   12 1     
   20   11   27 1     
   21   12   13 1     
   22   12   28 1     
   23   12   29 1     
   24   13   18 1     
   25   13   14 1     
   26   13   41 1     
   27   14   15 1     
   28   14   30 1     
   29   14   31 1     
   30   15   16 1     
   31   15   32 1     
   32   15   33 1     
   33   16   17 1     
   34   16   34 1     
   35   16   35 1     
   36   17   18 1     
   37   17   36 1     
   38   17   37 1     
   39   18   19 1     
   40   18   38 1     
   41   19   20 1     
   42   19   39 1     
   43   19   40 1     
   44    1   42 1     
   45    7   43 1     
   46   20   44 1     
   47   20   45 1     
@<TRIPOS>SUBSTRUCTURE
      1 S1             1
@<TRIPOS>SET
LONE_PAIRS      STATIC     ATOMS    <user>   **** ""
4 42 43 44 45
DONOR_HYDROGENS      STATIC     ATOMS    <user>   **** ""
2 24 41
ATOM$BLUE        STATIC     ATOMS    COLORGROUP SYSTEM
4 42 43 44 45
ATOM$RED        STATIC     ATOMS    COLORGROUP SYSTEM
2 24 41
