AV-unprocessed.smi:2510|AV-procd|sdf|9875|dock10
  -GOLD-   2272013513D 1   1.00000     0.00000
 Structure written by MMmdl.
 48 49  0  0  0  0  0  0  0  0  1 V2000
  148.6138  138.4617  158.0855 C   0  0  0  0  0  0  0  0  0  0  0  0
  149.8753  138.0003  157.3358 C   0  0  0  0  0  0  0  0  0  0  0  0
  149.8668  138.1439  155.7944 C   0  0  0  0  0  0  0  0  0  0  0  0
  151.2116  137.5565  155.2778 C   0  0  0  0  0  0  0  0  0  0  0  0
  152.4653  138.4270  155.4874 C   0  0  0  0  0  0  0  0  0  0  0  0
  148.5923  137.6549  155.0435 C   0  0  2  0  0  0  0  0  0  0  0  0
  148.7426  136.3598  154.3867 N   0  0  0  0  0  0  0  0  0  0  0  0
  148.2815  135.1977  154.8704 C   0  0  0  0  0  0  0  0  0  0  0  0
  147.6875  135.1075  155.9462 O   0  0  0  0  0  0  0  0  0  0  0  0
  148.5371  133.9670  153.9908 C   0  0  0  0  0  0  0  0  0  0  0  0
  147.2598  133.3560  153.4741 C   0  0  0  0  0  0  0  0  0  0  0  0
  146.9700  132.9225  152.1463 C   0  0  0  0  0  0  0  0  0  0  0  0
  145.6885  132.4540  152.2157 C   0  0  0  0  0  0  0  0  0  0  0  0
  144.7977  131.8604  151.1784 C   0  0  0  0  0  0  0  0  0  0  0  0
  145.2869  132.6245  153.5205 N   0  0  0  0  0  0  0  0  0  0  0  0
  146.2355  133.1789  154.2977 N   0  0  0  0  0  0  0  0  0  0  0  0
  148.7189  138.8385  154.0754 C   0  0  1  0  0  0  0  0  0  0  0  0
  147.4494  139.4536  153.4987 C   0  0  0  0  0  0  0  0  0  0  0  0
  149.4508  139.5348  155.2343 C   0  0  2  0  0  0  0  0  0  0  0  0
  150.5497  140.3424  154.8412 O   0  0  0  0  0  0  0  0  0  0  0  0
  151.0912  141.1150  155.8982 C   0  0  0  0  0  0  0  0  0  0  0  0
  144.3811  132.3717  153.8890 H   0  0  0  0  0  0  0  0  0  0  0  0
  148.7751  138.4102  159.1624 H   0  0  0  0  0  0  0  0  0  0  0  0
  147.7578  137.8242  157.8640 H   0  0  0  0  0  0  0  0  0  0  0  0
  148.3464  139.4906  157.8485 H   0  0  0  0  0  0  0  0  0  0  0  0
  150.7129  138.5672  157.7431 H   0  0  0  0  0  0  0  0  0  0  0  0
  150.0587  136.9620  157.6156 H   0  0  0  0  0  0  0  0  0  0  0  0
  151.3988  136.5925  155.7524 H   0  0  0  0  0  0  0  0  0  0  0  0
  151.1428  137.3366  154.2124 H   0  0  0  0  0  0  0  0  0  0  0  0
  153.3305  137.9606  155.0158 H   0  0  0  0  0  0  0  0  0  0  0  0
  152.7069  138.5449  156.5434 H   0  0  0  0  0  0  0  0  0  0  0  0
  152.3601  139.4206  155.0552 H   0  0  0  0  0  0  0  0  0  0  0  0
  147.6751  137.7405  155.6277 H   0  0  0  0  0  0  0  0  0  0  0  0
  149.2212  136.3508  153.4976 H   0  0  0  0  0  0  0  0  0  0  0  0
  149.1859  134.2558  153.1629 H   0  0  0  0  0  0  0  0  0  0  0  0
  149.0899  133.2294  154.5735 H   0  0  0  0  0  0  0  0  0  0  0  0
  147.6099  132.9496  151.2767 H   0  0  0  0  0  0  0  0  0  0  0  0
  145.2848  131.8558  150.2031 H   0  0  0  0  0  0  0  0  0  0  0  0
  143.8727  132.4301  151.0902 H   0  0  0  0  0  0  0  0  0  0  0  0
  144.5409  130.8317  151.4317 H   0  0  0  0  0  0  0  0  0  0  0  0
  149.4277  138.6038  153.2790 H   0  0  0  0  0  0  0  0  0  0  0  0
  146.7616  139.7610  154.2867 H   0  0  0  0  0  0  0  0  0  0  0  0
  146.9228  138.7420  152.8629 H   0  0  0  0  0  0  0  0  0  0  0  0
  147.6691  140.3304  152.8910 H   0  0  0  0  0  0  0  0  0  0  0  0
  148.7660  140.0639  155.8994 H   0  0  0  0  0  0  0  0  0  0  0  0
  151.9651  141.6584  155.5395 H   0  0  0  0  0  0  0  0  0  0  0  0
  151.4063  140.4841  156.7303 H   0  0  0  0  0  0  0  0  0  0  0  0
  150.3731  141.8482  156.2638 H   0  0  0  0  0  0  0  0  0  0  0  0
  1  2  1  0  0  0  0
  1 23  1  0  0  0  0
  1 24  1  0  0  0  0
  1 25  1  0  0  0  0
  2  3  1  0  0  0  0
  2 26  1  0  0  0  0
  2 27  1  0  0  0  0
  3 19  1  0  0  0  0
  3  4  1  0  0  0  0
  3  6  1  0  0  0  0
  4  5  1  0  0  0  0
  4 28  1  0  0  0  0
  4 29  1  0  0  0  0
  5 30  1  0  0  0  0
  5 31  1  0  0  0  0
  5 32  1  0  0  0  0
  6  7  1  0  0  0  0
  6 17  1  0  0  0  0
  6 33  1  0  0  0  0
  7  8  1  0  0  0  0
  7 34  1  0  0  0  0
  8  9  2  0  0  0  0
  8 10  1  0  0  0  0
 10 11  1  0  0  0  0
 10 35  1  0  0  0  0
 10 36  1  0  0  0  0
 11 16  2  0  0  0  0
 11 12  1  0  0  0  0
 12 13  2  0  0  0  0
 12 37  1  0  0  0  0
 13 14  1  0  0  0  0
 13 15  1  0  0  0  0
 14 38  1  0  0  0  0
 14 39  1  0  0  0  0
 14 40  1  0  0  0  0
 15 22  1  0  0  0  0
 15 16  1  0  0  0  0
 17 18  1  0  0  0  0
 17 19  1  0  0  0  0
 17 41  1  0  0  0  0
 18 42  1  0  0  0  0
 18 43  1  0  0  0  0
 18 44  1  0  0  0  0
 19 20  1  0  0  0  0
 19 45  1  0  0  0  0
 20 21  1  0  0  0  0
 21 46  1  0  0  0  0
 21 47  1  0  0  0  0
 21 48  1  0  0  0  0
M  END
> <s_m_source_file>
AV-unprocessed.smi

> <i_m_source_file_index>
2510

> <i_lp_mmshare_version>
43012

> <i_f3d_flags>
0

> <s_epik_input>
W0NIM11PW0NAQEhdMVtDQEhdKFtDSDNdKVtDQEBIXShDMShbQ0gyXVtDSDNdKVtDSDJdW0NIM10pW05IXUMoPU8pW0NIMl1jMltjSF1jKFtDSDNdKVtuSF1uMg==

> <s_epik_cmdline>
J2VwaWtfcHl0aG9uJywgJy1waCcsICc3LjAnLCAnLXRuJywgJzgnLCAnLW1hJywgJzIwMCcsICctbWV0YWxfYmluZGluZycsICctaW1hZScsICc8aW5maWxlLm1hZT4nLCAnLW9tYWUnLCAnPG91dGZpbGUubWFlPic=

> <r_lp_tautomer_probability>
0.5

> <r_epik_Ionization_Penalty>
9.73156e-05

> <r_epik_Ionization_Penalty_Charging>
0

> <r_epik_Ionization_Penalty_Neutral>
9.73156e-05

> <r_epik_State_Penalty>
0.41068

> <r_epik_Charging_Adjusted_Penalty>
0.41068

> <i_epik_Tot_Q>
0

> <i_epik_Tot_abs_Q>
0

> <r_epik_Metal_State_Penalty>
0.410699

> <b_epik_Metal_Only>
0

> <s_lp_Force_Field>
OPLS_2005

> <r_lp_Energy>
28.5674

> <b_lp_Chiralities_Consistent>
1

> <s_lp_Variant>
AV-unprocessed.smi:2510-6

> <Gold.Version>
5.8.1

> <Gold.Id.Protein>
6NUR|6NUR_protein|mol2

> <Gold.PLP.Fitness>
34.5678

> <Gold.PLP.PLP>
-27.2146

> <Gold.PLP.part.hbond>
-2.8921

> <Gold.PLP.part.metal>
0.0000

> <Gold.PLP.part.buried>
-2.5557

> <Gold.PLP.part.nonpolar>
-21.8312

> <Gold.PLP.part.repulsive>
0.1879

> <Gold.PLP.ligand.clash>
0.0000

> <Gold.PLP.ligand.torsion>
0.9565

> <Gold.PLP.Chemscore.Hbond>
2.8960

> <Gold.PLP.Chemscore.CHOScore>
0.0000

> <Gold.PLP.Chemscore.Metal>
0.0000

> <Gold.Chemscore.Hbonds>
donor molecule, donor type, donor heavy atom, donor atom, acceptor molecule, acceptor atom, score
      L1  H     7    34       P1  7948  0.88
      L1  H    15    22       P1 10957  1.00
      P1  H  7989  7998       L1    20  0.95

> <Gold.PLP.Chemscore.Internal.Correction>
0.5782

> <Gold.Rescore>
     Score         DG    S(hbond)    S(metal)    S(lipo)     H(rot)  DE(clash)    DE(int)     intcor
     14.31     -17.75       2.61        0.00      69.93       1.81       0.12       3.32       ----

> <Gold.Chemscore.Fitness>
14.3066

> <Gold.Chemscore.DG>
-17.7513

> <Gold.Chemscore.ZeroCoef>
-5.4800

> <Gold.Chemscore.Hbond>
2.6117

> <Gold.Chemscore.Metal>
0.0000

> <Gold.Chemscore.Lipo>
69.9348

> <Gold.Chemscore.Internal_Hbond>
0.0000

> <Gold.Chemscore.DEClash>
0.1199

> <Gold.Chemscore.DEInternal>
3.3248

> <Gold.Chemscore.Rot>
1.8102

> <Gold.Chemscore.Internal.Correction>
   9.000000E+99

> <Gold.Chemscore.Hbonds>
donor molecule, donor type, donor heavy atom, donor atom, acceptor molecule, acceptor atom, score
      L1  H     7    34       P1  7948  0.80
      L1  H    15    22       P1 10957  0.33
      P1  H  7989  7998       L1    20  0.21

> <Gold.Chemscore.Hbond.Weighted>
-8.7230

> <Gold.Chemscore.Metal.Weighted>
-0.0000

> <Gold.Chemscore.Lipo.Weighted>
-8.1824

> <Gold.Chemscore.Internal_Hbond.Weighted>
0.0000

> <Gold.Chemscore.DEClash.Weighted>
0.1199

> <Gold.Chemscore.DEInternal.Weighted>
3.3248

> <Gold.Chemscore.Rot.Weighted>
4.6341

> <Gold.Chemscore.Internal.Correction.Weighted>
   9.000000E+99

> <Gold.Protein.RotatedTorsions>
[ 6907 6896 6895 6894 ] final   50.89 input  -60.11 | X-H torsion
[ 7974 7965 7964 7962 ] final -175.01 input  175.53 | X-H torsion
[ 8008 7997 7996 7995 ] final    5.49 input   59.86 | X-H torsion
[ 10167 10162 10161 10158 ] final -154.51 input  -65.29 | X-H torsion
[ 10718 10713 10712 10709 ] final   59.16 input   66.30 | X-H torsion
[ 10763 10752 10751 10750 ] final  175.52 input  -60.55 | X-H torsion
[ 11005 11000 10999 10996 ] final   73.10 input  -57.11 | X-H torsion

> <Gold.Protein.ActiveResidues>
 VAL166  LYS551  ARG553  GLY616  TRP617  ASP618  TYR619  PRO620  LYS621  CYS622 
 ASP623  PHE694  ASN695  SER759  ASP760  ASP761  ALA762  ILE779  LEU786  VAL792 
 PHE793  MET794  SER795  GLU796  ALA797  LYS798  CYS799  TRP800  GLU811  SER814 

> <Gold.Protein.RotatedAtoms>
  152.3067  134.7546  160.0345 H   0  0  0  0  0  0  0  0  0  0  0  0  # atno 6907 bound_to 6896
  151.8040  133.3368  159.3543 H   0  0  0  0  0  0  0  0  0  0  0  0  # atno 6908 bound_to 6896
  150.7300  134.5656  159.5909 H   0  0  0  0  0  0  0  0  0  0  0  0  # atno 6909 bound_to 6896
  144.7129  140.1386  143.6393 H   0  0  0  0  0  0  0  0  0  0  0  0  # atno 7974 bound_to 7965
  154.7291  140.2727  155.6472 H   0  0  0  0  0  0  0  0  0  0  0  0  # atno 8008 bound_to 7997
  156.2845  140.2719  156.1911 H   0  0  0  0  0  0  0  0  0  0  0  0  # atno 8009 bound_to 7997
  155.0405  140.0371  157.2498 H   0  0  0  0  0  0  0  0  0  0  0  0  # atno 8010 bound_to 7997
  139.7008  143.9267  152.2427 H   0  0  0  0  0  0  0  0  0  0  0  0  # atno 10167 bound_to 10162
  157.5654  130.8867  149.9178 H   0  0  0  0  0  0  0  0  0  0  0  0  # atno 10718 bound_to 10713
  154.4687  135.2770  155.1659 H   0  0  0  0  0  0  0  0  0  0  0  0  # atno 10763 bound_to 10752
  154.3417  135.6169  153.5603 H   0  0  0  0  0  0  0  0  0  0  0  0  # atno 10764 bound_to 10752
  152.9862  135.5790  154.5064 H   0  0  0  0  0  0  0  0  0  0  0  0  # atno 10765 bound_to 10752
  139.9457  134.7318  156.0986 H   0  0  0  0  0  0  0  0  0  0  0  0  # atno 11005 bound_to 11000
  145.9223  139.2553  143.1374 LP  0  0  0  0  0  0  0  0  0  0  0  0  # atno 17320 bound_to 7965
  145.9608  140.8837  143.0212 LP  0  0  0  0  0  0  0  0  0  0  0  0  # atno 17321 bound_to 7965
  139.9108  144.6857  150.8564 LP  0  0  0  0  0  0  0  0  0  0  0  0  # atno 17342 bound_to 10162
  140.7709  143.3444  151.2141 LP  0  0  0  0  0  0  0  0  0  0  0  0  # atno 17343 bound_to 10162
  156.0703  130.3686  150.0791 LP  0  0  0  0  0  0  0  0  0  0  0  0  # atno 17370 bound_to 10713
  156.8950  130.9601  151.3583 LP  0  0  0  0  0  0  0  0  0  0  0  0  # atno 17371 bound_to 10713
  141.1106  133.6644  156.2970 LP  0  0  0  0  0  0  0  0  0  0  0  0  # atno 17394 bound_to 11000
  140.5841  134.5716  157.5486 LP  0  0  0  0  0  0  0  0  0  0  0  0  # atno 17395 bound_to 11000

$$$$
