AV-unprocessed.smi:1196|AV-procd|sdf|5005|dock6
  -GOLD-   22720 4 13D 1   1.00000     0.00000
 Structure written by MMmdl.
 36 37  0  0  0  0  0  0  0  0  2 V2000
  149.5348  141.1560  158.3317 C   0  0  0  0  0  0  0  0  0  0  0  0
  150.1147  142.3335  157.5364 C   0  0  1  0  0  0  0  0  0  0  0  0
  151.6574  142.3051  157.5360 C   0  0  0  0  0  0  0  0  0  0  0  0
  152.2201  142.4277  158.8695 N   0  0  0  0  0  0  0  0  0  0  0  0
  152.0300  143.4372  159.7894 C   0  0  0  0  0  0  0  0  0  0  0  0
  152.7688  143.1245  160.8943 C   0  0  0  0  0  0  0  0  0  0  0  0
  153.3800  141.8858  160.5525 C   0  0  0  0  0  0  0  0  0  0  0  0
  153.0470  141.4692  159.3414 N   0  0  0  0  0  0  0  0  0  0  0  0
  149.5901  142.2885  156.1718 N   0  0  0  0  0  0  0  0  0  0  0  0
  149.4996  141.1932  155.4002 C   0  0  0  0  0  0  0  0  0  0  0  0
  149.8546  140.0732  155.7684 O   0  0  0  0  0  0  0  0  0  0  0  0
  148.9034  141.3936  154.0050 C   0  0  0  0  0  0  0  0  0  0  0  0
  147.4848  140.8071  153.8781 C   0  0  0  0  0  0  0  0  0  0  0  0
  147.4818  139.2741  153.7167 C   0  0  2  0  0  0  0  0  0  0  0  0
  147.6216  138.8936  152.3276 N   0  0  0  0  0  0  0  0  0  0  0  0
  146.5982  138.1430  151.9246 C   0  0  0  0  0  0  0  0  0  0  0  0
  146.5351  137.6954  150.7817 O   0  0  0  0  0  0  0  0  0  0  0  0
  145.7143  137.9853  152.9289 N   0  5  0  0  0  0  0  0  0  0  0  0
  146.1360  138.6257  154.0408 C   0  0  0  0  0  0  0  0  0  0  0  0
  145.6158  138.7175  155.1517 O   0  0  0  0  0  0  0  0  0  0  0  0
  149.8813  141.1730  159.3653 H   0  0  0  0  0  0  0  0  0  0  0  0
  149.8285  140.1991  157.8983 H   0  0  0  0  0  0  0  0  0  0  0  0
  148.4450  141.1935  158.3505 H   0  0  0  0  0  0  0  0  0  0  0  0
  149.7830  143.2478  158.0320 H   0  0  0  0  0  0  0  0  0  0  0  0
  152.0125  141.3642  157.1142 H   0  0  0  0  0  0  0  0  0  0  0  0
  152.0557  143.0988  156.9013 H   0  0  0  0  0  0  0  0  0  0  0  0
  151.3977  144.2874  159.5803 H   0  0  0  0  0  0  0  0  0  0  0  0
  152.8593  143.6943  161.8070 H   0  0  0  0  0  0  0  0  0  0  0  0
  154.0504  141.2804  161.1442 H   0  0  0  0  0  0  0  0  0  0  0  0
  149.2660  143.1621  155.7832 H   0  0  0  0  0  0  0  0  0  0  0  0
  148.8890  142.4631  153.7933 H   0  0  0  0  0  0  0  0  0  0  0  0
  149.5557  140.9365  153.2593 H   0  0  0  0  0  0  0  0  0  0  0  0
  146.9161  141.0689  154.7721 H   0  0  0  0  0  0  0  0  0  0  0  0
  146.9595  141.2680  153.0393 H   0  0  0  0  0  0  0  0  0  0  0  0
  148.2656  138.8088  154.3158 H   0  0  0  0  0  0  0  0  0  0  0  0
  148.4105  139.1527  151.7541 H   0  0  0  0  0  0  0  0  0  0  0  0
  1  2  1  0  0  0  0
  1 21  1  0  0  0  0
  1 22  1  0  0  0  0
  1 23  1  0  0  0  0
  2  3  1  0  0  0  0
  2  9  1  0  0  0  0
  2 24  1  0  0  0  0
  3  4  1  0  0  0  0
  3 25  1  0  0  0  0
  3 26  1  0  0  0  0
  4  8  1  0  0  0  0
  4  5  1  0  0  0  0
  5  6  2  0  0  0  0
  5 27  1  0  0  0  0
  6  7  1  0  0  0  0
  6 28  1  0  0  0  0
  7  8  2  0  0  0  0
  7 29  1  0  0  0  0
  9 10  1  0  0  0  0
  9 30  1  0  0  0  0
 10 11  2  0  0  0  0
 10 12  1  0  0  0  0
 12 13  1  0  0  0  0
 12 31  1  0  0  0  0
 12 32  1  0  0  0  0
 13 14  1  0  0  0  0
 13 33  1  0  0  0  0
 13 34  1  0  0  0  0
 14 19  1  0  0  0  0
 14 15  1  0  0  0  0
 14 35  1  0  0  0  0
 15 16  1  0  0  0  0
 15 36  1  0  0  0  0
 16 17  2  0  0  0  0
 16 18  1  0  0  0  0
 18 19  1  0  0  0  0
 19 20  2  0  0  0  0
M  CHG  1  18  -1
M  END
> <s_m_source_file>
AV-unprocessed.smi

> <i_m_source_file_index>
1196

> <i_lp_mmshare_version>
43012

> <i_f3d_flags>
0

> <s_epik_input>
bjFbY0hdW2NIXVtjSF1uMVtDSDJdW0NAQEhdKFtDSDNdKVtOSF1DKD1PKVtDSDJdW0NIMl1bQ0BASF0yW05IXUMoPU8pW05IXUMyPU8=

> <s_epik_cmdline>
J2VwaWtfcHl0aG9uJywgJy1waCcsICc3LjAnLCAnLXRuJywgJzgnLCAnLW1hJywgJzIwMCcsICctbWV0YWxfYmluZGluZycsICctaW1hZScsICc8aW5maWxlLm1hZT4nLCAnLW9tYWUnLCAnPG91dGZpbGUubWFlPic=

> <r_lp_tautomer_probability>
1

> <r_epik_Ionization_Penalty>
2.57056

> <r_epik_Ionization_Penalty_Charging>
2.57023

> <r_epik_Ionization_Penalty_Neutral>
0.000331301

> <r_epik_State_Penalty>
2.56828

> <r_epik_Charging_Adjusted_Penalty>
5.13851

> <i_epik_Tot_Q>
-1

> <i_epik_Tot_abs_Q>
1

> <r_epik_Metal_State_Penalty>
0.444883

> <b_epik_Metal_Only>
1

> <s_lp_Force_Field>
OPLS_2005

> <r_lp_Energy>
8.81211

> <b_lp_Chiralities_Consistent>
1

> <s_lp_Variant>
AV-unprocessed.smi:1196-10

> <Gold.Version>
5.8.1

> <Gold.Id.Protein>
6NUR|6NUR_protein|mol2

> <Gold.PLP.Fitness>
40.9540

> <Gold.PLP.PLP>
-33.1921

> <Gold.PLP.part.hbond>
-3.8564

> <Gold.PLP.part.metal>
0.0000

> <Gold.PLP.part.buried>
-3.4611

> <Gold.PLP.part.nonpolar>
-30.0509

> <Gold.PLP.part.repulsive>
2.9105

> <Gold.PLP.ligand.clash>
0.0000

> <Gold.PLP.ligand.torsion>
0.6754

> <Gold.PLP.Chemscore.Hbond>
2.9913

> <Gold.PLP.Chemscore.CHOScore>
0.0000

> <Gold.PLP.Chemscore.Metal>
0.0000

> <Gold.Chemscore.Hbonds>
donor molecule, donor type, donor heavy atom, donor atom, acceptor molecule, acceptor atom, score
      L1  H     9    30       P1  8028  1.00
      L1  H    15    36       P1  7957  1.00
      P1  H  7954  7966       L1    17  1.00

> <Gold.PLP.Chemscore.Internal.Correction>
0.1389

> <Gold.Rescore>
     Score         DG    S(hbond)    S(metal)    S(lipo)     H(rot)  DE(clash)    DE(int)     intcor
     12.90     -16.25       2.96        0.00      70.91       2.89       1.44       1.91       ----

> <Gold.Chemscore.Fitness>
12.9014

> <Gold.Chemscore.DG>
-16.2512

> <Gold.Chemscore.ZeroCoef>
-5.4800

> <Gold.Chemscore.Hbond>
2.9597

> <Gold.Chemscore.Metal>
0.0000

> <Gold.Chemscore.Lipo>
70.9066

> <Gold.Chemscore.Internal_Hbond>
0.0000

> <Gold.Chemscore.DEClash>
1.4357

> <Gold.Chemscore.DEInternal>
1.9141

> <Gold.Chemscore.Rot>
2.8946

> <Gold.Chemscore.Internal.Correction>
   9.000000E+99

> <Gold.Chemscore.Hbonds>
donor molecule, donor type, donor heavy atom, donor atom, acceptor molecule, acceptor atom, score
      L1  H     9    30       P1  8028  0.99
      L1  H    15    36       P1  7957  0.93
      P1  H  7954  7966       L1    17  0.81

> <Gold.Chemscore.Hbond.Weighted>
-9.8852

> <Gold.Chemscore.Metal.Weighted>
-0.0000

> <Gold.Chemscore.Lipo.Weighted>
-8.2961

> <Gold.Chemscore.Internal_Hbond.Weighted>
0.0000

> <Gold.Chemscore.DEClash.Weighted>
1.4357

> <Gold.Chemscore.DEInternal.Weighted>
1.9141

> <Gold.Chemscore.Rot.Weighted>
7.4101

> <Gold.Chemscore.Internal.Correction.Weighted>
   9.000000E+99

> <Gold.Protein.RotatedTorsions>
[ 6907 6896 6895 6894 ] final -146.77 input  -60.11 | X-H torsion
[ 7974 7965 7964 7962 ] final -105.22 input  175.53 | X-H torsion
[ 8008 7997 7996 7995 ] final   66.88 input   59.86 | X-H torsion
[ 10167 10162 10161 10158 ] final -146.59 input  -65.29 | X-H torsion
[ 10718 10713 10712 10709 ] final -130.33 input   66.30 | X-H torsion
[ 10763 10752 10751 10750 ] final  166.43 input  -60.55 | X-H torsion
[ 11005 11000 10999 10996 ] final  132.49 input  -57.11 | X-H torsion

> <Gold.Protein.ActiveResidues>
 VAL166  LYS551  ARG553  GLY616  TRP617  ASP618  TYR619  PRO620  LYS621  CYS622 
 ASP623  PHE694  ASN695  SER759  ASP760  ASP761  ALA762  ILE779  LEU786  VAL792 
 PHE793  MET794  SER795  GLU796  ALA797  LYS798  CYS799  TRP800  GLU811  SER814 

> <Gold.Protein.RotatedAtoms>
  151.1463  133.4937  159.2595 H   0  0  0  0  0  0  0  0  0  0  0  0  # atno 6907 bound_to 6896
  151.1601  135.0269  159.8716 H   0  0  0  0  0  0  0  0  0  0  0  0  # atno 6908 bound_to 6896
  152.5463  134.1338  159.8503 H   0  0  0  0  0  0  0  0  0  0  0  0  # atno 6909 bound_to 6896
  145.2332  140.9178  143.3193 H   0  0  0  0  0  0  0  0  0  0  0  0  # atno 7974 bound_to 7965
  155.6842  140.3496  155.4867 H   0  0  0  0  0  0  0  0  0  0  0  0  # atno 8008 bound_to 7997
  155.9580  140.1132  157.0942 H   0  0  0  0  0  0  0  0  0  0  0  0  # atno 8009 bound_to 7997
  154.4136  140.1181  156.5127 H   0  0  0  0  0  0  0  0  0  0  0  0  # atno 8010 bound_to 7997
  139.7700  143.8252  152.2623 H   0  0  0  0  0  0  0  0  0  0  0  0  # atno 10167 bound_to 10162
  156.2134  130.6933  151.0675 H   0  0  0  0  0  0  0  0  0  0  0  0  # atno 10718 bound_to 10713
  154.3389  135.2754  155.2433 H   0  0  0  0  0  0  0  0  0  0  0  0  # atno 10763 bound_to 10752
  154.4712  135.5882  153.6326 H   0  0  0  0  0  0  0  0  0  0  0  0  # atno 10764 bound_to 10752
  152.9859  135.6088  154.3588 H   0  0  0  0  0  0  0  0  0  0  0  0  # atno 10765 bound_to 10752
  139.9793  134.9553  156.9589 H   0  0  0  0  0  0  0  0  0  0  0  0  # atno 11005 bound_to 11000
  144.9657  139.3932  143.6333 LP  0  0  0  0  0  0  0  0  0  0  0  0  # atno 17320 bound_to 7965
  146.3348  139.8732  142.8836 LP  0  0  0  0  0  0  0  0  0  0  0  0  # atno 17321 bound_to 7965
  139.8283  144.7265  150.9483 LP  0  0  0  0  0  0  0  0  0  0  0  0  # atno 17342 bound_to 10162
  140.7813  143.4093  151.1019 LP  0  0  0  0  0  0  0  0  0  0  0  0  # atno 17343 bound_to 10162
  157.7050  131.0760  150.6696 LP  0  0  0  0  0  0  0  0  0  0  0  0  # atno 17370 bound_to 10713
  156.6756  130.4552  149.5643 LP  0  0  0  0  0  0  0  0  0  0  0  0  # atno 17371 bound_to 10713
  140.5129  134.0984  155.7274 LP  0  0  0  0  0  0  0  0  0  0  0  0  # atno 17394 bound_to 11000
  141.1467  133.9042  157.2198 LP  0  0  0  0  0  0  0  0  0  0  0  0  # atno 17395 bound_to 11000

$$$$
