AV-unprocessed.smi:1740|AV-procd|sdf|7014|dock5
  -GOLD-   22720 8233D 1   1.00000     0.00000
 Structure written by MMmdl.
 52 54  0  0  0  0  0  0  0  0  4 V2000
  154.3215  134.2818  165.5435 N   0  5  0  0  0  0  0  0  0  0  0  0
  154.7095  134.4522  164.2635 C   0  0  0  0  0  0  0  0  0  0  0  0
  154.5444  133.6878  163.3159 O   0  0  0  0  0  0  0  0  0  0  0  0
  155.4358  135.7842  164.0462 C   0  0  0  0  0  0  0  0  0  0  0  0
  154.6986  136.6371  163.0791 N   0  3  2  0  0  0  0  0  0  0  0  0
  154.5993  136.0356  161.7217 C   0  0  0  0  0  0  0  0  0  0  0  0
  153.7213  136.8933  160.7946 C   0  0  0  0  0  0  0  0  0  0  0  0
  154.2471  138.3378  160.7129 C   0  0  1  0  0  0  0  0  0  0  0  0
  153.3627  139.1722  159.9043 N   0  0  0  0  0  0  0  0  0  0  0  0
  153.3372  140.5125  159.9211 C   0  0  0  0  0  0  0  0  0  0  0  0
  154.0856  141.1997  160.6158 O   0  0  0  0  0  0  0  0  0  0  0  0
  152.4103  140.9933  159.0757 N   0  0  0  0  0  0  0  0  0  0  0  0
  152.1011  142.3548  158.7950 C   0  0  0  0  0  0  0  0  0  0  0  0
  152.7353  143.4124  159.4972 C   0  0  0  0  0  0  0  0  0  0  0  0
  152.3575  144.7458  159.2519 C   0  0  0  0  0  0  0  0  0  0  0  0
  151.3384  145.0033  158.3194 C   0  0  0  0  0  0  0  0  0  0  0  0
  150.7457  143.9762  157.6767 N   0  3  0  0  0  0  0  0  0  0  0  0
  151.0751  142.6726  157.8577 C   0  0  0  0  0  0  0  0  0  0  0  0
  150.3735  141.7043  157.1037 N   0  0  0  0  0  0  0  0  0  0  0  0
  151.0111  141.0460  155.9691 C   0  0  0  0  0  0  0  0  0  0  0  0
  150.1166  139.8507  155.6513 C   0  0  0  0  0  0  0  0  0  0  0  0
  149.6312  139.4277  157.0344 C   0  0  0  0  0  0  0  0  0  0  0  0
  149.5124  140.7513  157.7972 C   0  0  0  0  0  0  0  0  0  0  0  0
  154.3631  138.9199  162.1305 C   0  0  0  0  0  0  0  0  0  0  0  0
  155.2298  138.0226  163.0296 C   0  0  0  0  0  0  0  0  0  0  0  0
  153.5519  134.8584  165.9049 H   0  0  0  0  0  0  0  0  0  0  0  0
  155.5117  136.2841  165.0135 H   0  0  0  0  0  0  0  0  0  0  0  0
  156.4577  135.6155  163.7029 H   0  0  0  0  0  0  0  0  0  0  0  0
  155.5984  135.9289  161.2964 H   0  0  0  0  0  0  0  0  0  0  0  0
  154.1759  135.0328  161.7843 H   0  0  0  0  0  0  0  0  0  0  0  0
  153.6930  136.4443  159.8011 H   0  0  0  0  0  0  0  0  0  0  0  0
  152.6949  136.8910  161.1647 H   0  0  0  0  0  0  0  0  0  0  0  0
  155.2425  138.3307  160.2637 H   0  0  0  0  0  0  0  0  0  0  0  0
  152.7161  138.6908  159.2965 H   0  0  0  0  0  0  0  0  0  0  0  0
  151.9379  140.3124  158.4992 H   0  0  0  0  0  0  0  0  0  0  0  0
  153.4929  143.2211  160.2421 H   0  0  0  0  0  0  0  0  0  0  0  0
  152.8338  145.5575  159.7824 H   0  0  0  0  0  0  0  0  0  0  0  0
  150.9774  145.9913  158.0728 H   0  0  0  0  0  0  0  0  0  0  0  0
  151.1040  141.7202  155.1169 H   0  0  0  0  0  0  0  0  0  0  0  0
  152.0075  140.6947  156.2410 H   0  0  0  0  0  0  0  0  0  0  0  0
  149.2699  140.1685  155.0410 H   0  0  0  0  0  0  0  0  0  0  0  0
  150.6404  139.0560  155.1195 H   0  0  0  0  0  0  0  0  0  0  0  0
  148.6953  138.8691  157.0060 H   0  0  0  0  0  0  0  0  0  0  0  0
  150.3842  138.7967  157.5085 H   0  0  0  0  0  0  0  0  0  0  0  0
  149.7887  140.6311  158.8456 H   0  0  0  0  0  0  0  0  0  0  0  0
  148.4852  141.1135  157.7551 H   0  0  0  0  0  0  0  0  0  0  0  0
  154.7903  139.9226  162.0906 H   0  0  0  0  0  0  0  0  0  0  0  0
  153.3710  139.0233  162.5734 H   0  0  0  0  0  0  0  0  0  0  0  0
  155.2533  138.4427  164.0358 H   0  0  0  0  0  0  0  0  0  0  0  0
  156.2589  138.0057  162.6674 H   0  0  0  0  0  0  0  0  0  0  0  0
  153.7588  136.7018  163.4455 H   0  0  0  0  0  0  0  0  0  0  0  0
  150.0082  144.1956  157.0071 H   0  0  0  0  0  0  0  0  0  0  0  0
  1  2  1  0  0  0  0
  1 26  1  0  0  0  0
  2  3  2  0  0  0  0
  2  4  1  0  0  0  0
  4  5  1  0  0  0  0
  4 27  1  0  0  0  0
  4 28  1  0  0  0  0
  5 25  1  0  0  0  0
  5  6  1  0  0  0  0
  5 51  1  0  0  0  0
  6  7  1  0  0  0  0
  6 29  1  0  0  0  0
  6 30  1  0  0  0  0
  7  8  1  0  0  0  0
  7 31  1  0  0  0  0
  7 32  1  0  0  0  0
  8  9  1  0  0  0  0
  8 24  1  0  0  0  0
  8 33  1  0  0  0  0
  9 10  1  0  0  0  0
  9 34  1  0  0  0  0
 10 11  2  0  0  0  0
 10 12  1  0  0  0  0
 12 13  1  0  0  0  0
 12 35  1  0  0  0  0
 13 18  1  0  0  0  0
 13 14  2  0  0  0  0
 14 15  1  0  0  0  0
 14 36  1  0  0  0  0
 15 16  2  0  0  0  0
 15 37  1  0  0  0  0
 16 17  1  0  0  0  0
 16 38  1  0  0  0  0
 17 18  2  0  0  0  0
 17 52  1  0  0  0  0
 18 19  1  0  0  0  0
 19 23  1  0  0  0  0
 19 20  1  0  0  0  0
 20 21  1  0  0  0  0
 20 39  1  0  0  0  0
 20 40  1  0  0  0  0
 21 22  1  0  0  0  0
 21 41  1  0  0  0  0
 21 42  1  0  0  0  0
 22 23  1  0  0  0  0
 22 43  1  0  0  0  0
 22 44  1  0  0  0  0
 23 45  1  0  0  0  0
 23 46  1  0  0  0  0
 24 25  1  0  0  0  0
 24 47  1  0  0  0  0
 24 48  1  0  0  0  0
 25 49  1  0  0  0  0
 25 50  1  0  0  0  0
M  CHG  1   1  -1
M  CHG  1   5   1
M  CHG  1  17   1
M  END
> <s_m_source_file>
AV-unprocessed.smi

> <i_m_source_file_index>
1740

> <i_lp_mmshare_version>
43012

> <i_f3d_flags>
0

> <s_epik_input>
W05IMl1DKD1PKVtDSDJdTjFbQ0gyXVtDSDJdW0NIXShbQ0gyXVtDSDJdMSlbTkhdQyg9TylbTkhdYzJbY0hdW2NIXVtjSF1uYzJOM1tDSDJdW0NIMl1bQ0gyXVtDSDJdMw==

> <s_epik_cmdline>
J2VwaWtfcHl0aG9uJywgJy1waCcsICc3LjAnLCAnLXRuJywgJzgnLCAnLW1hJywgJzIwMCcsICctbWV0YWxfYmluZGluZycsICctaW1hZScsICc8aW5maWxlLm1hZT4nLCAnLW9tYWUnLCAnPG91dGZpbGUubWFlPic=

> <r_lp_tautomer_probability>
0.999994

> <r_epik_Ionization_Penalty>
6.97817

> <r_epik_Ionization_Penalty_Charging>
6.97815

> <r_epik_Ionization_Penalty_Neutral>
1.88285e-05

> <r_epik_State_Penalty>
7.80985

> <r_epik_Charging_Adjusted_Penalty>
14.788

> <i_epik_Tot_Q>
1

> <i_epik_Tot_abs_Q>
3

> <r_epik_Metal_State_Penalty>
3.85728

> <b_epik_Metal_Only>
1

> <s_lp_Force_Field>
OPLS_2005

> <r_lp_Energy>
44.3343

> <b_lp_Chiralities_Consistent>
1

> <s_lp_Variant>
AV-unprocessed.smi:1740-9

> <Gold.Version>
5.8.1

> <Gold.Id.Protein>
6NUR|6NUR_protein|mol2

> <Gold.PLP.Fitness>
48.0918

> <Gold.PLP.PLP>
-42.6577

> <Gold.PLP.part.hbond>
-2.0000

> <Gold.PLP.part.metal>
0.0000

> <Gold.PLP.part.buried>
-8.2346

> <Gold.PLP.part.nonpolar>
-31.7562

> <Gold.PLP.part.repulsive>
0.2841

> <Gold.PLP.ligand.clash>
0.0000

> <Gold.PLP.ligand.torsion>
0.5104

> <Gold.PLP.Chemscore.Hbond>
2.0000

> <Gold.PLP.Chemscore.CHOScore>
0.0000

> <Gold.PLP.Chemscore.Metal>
0.0000

> <Gold.Chemscore.Hbonds>
donor molecule, donor type, donor heavy atom, donor atom, acceptor molecule, acceptor atom, score
      L1  H    17    52       P1  8028  2.00

> <Gold.PLP.Chemscore.Internal.Correction>
0.4548

> <Gold.Rescore>
     Score         DG    S(hbond)    S(metal)    S(lipo)     H(rot)  DE(clash)    DE(int)     intcor
     11.02     -15.48       0.98        0.00     105.37       2.18       1.06       3.41       ----

> <Gold.Chemscore.Fitness>
11.0202

> <Gold.Chemscore.DG>
-15.4843

> <Gold.Chemscore.ZeroCoef>
-5.4800

> <Gold.Chemscore.Hbond>
0.9774

> <Gold.Chemscore.Metal>
0.0000

> <Gold.Chemscore.Lipo>
105.3745

> <Gold.Chemscore.Internal_Hbond>
0.0000

> <Gold.Chemscore.DEClash>
1.0581

> <Gold.Chemscore.DEInternal>
3.4060

> <Gold.Chemscore.Rot>
2.1832

> <Gold.Chemscore.Internal.Correction>
   9.000000E+99

> <Gold.Chemscore.Hbonds>
donor molecule, donor type, donor heavy atom, donor atom, acceptor molecule, acceptor atom, score
      L1  H    17    52       P1  8028  0.85

> <Gold.Chemscore.Hbond.Weighted>
-3.2646

> <Gold.Chemscore.Metal.Weighted>
-0.0000

> <Gold.Chemscore.Lipo.Weighted>
-12.3288

> <Gold.Chemscore.Internal_Hbond.Weighted>
0.0000

> <Gold.Chemscore.DEClash.Weighted>
1.0581

> <Gold.Chemscore.DEInternal.Weighted>
3.4060

> <Gold.Chemscore.Rot.Weighted>
5.5891

> <Gold.Chemscore.Internal.Correction.Weighted>
   9.000000E+99

> <Gold.Protein.RotatedTorsions>
[ 6907 6896 6895 6894 ] final -145.09 input  -60.11 | X-H torsion
[ 7974 7965 7964 7962 ] final  137.72 input  175.53 | X-H torsion
[ 8008 7997 7996 7995 ] final  164.22 input   59.86 | X-H torsion
[ 10167 10162 10161 10158 ] final  -67.92 input  -65.29 | X-H torsion
[ 10718 10713 10712 10709 ] final   11.78 input   66.30 | X-H torsion
[ 10763 10752 10751 10750 ] final   57.18 input  -60.55 | X-H torsion
[ 11005 11000 10999 10996 ] final  -95.51 input  -57.11 | X-H torsion

> <Gold.Protein.ActiveResidues>
 VAL166  LYS551  ARG553  GLY616  TRP617  ASP618  TYR619  PRO620  LYS621  CYS622 
 ASP623  PHE694  ASN695  SER759  ASP760  ASP761  ALA762  ILE779  LEU786  VAL792 
 PHE793  MET794  SER795  GLU796  ALA797  LYS798  CYS799  TRP800  GLU811  SER814 

> <Gold.Protein.RotatedAtoms>
  151.1230  133.5091  159.2601 H   0  0  0  0  0  0  0  0  0  0  0  0  # atno 6907 bound_to 6896
  151.1841  135.0373  159.8815 H   0  0  0  0  0  0  0  0  0  0  0  0  # atno 6908 bound_to 6896
  152.5456  134.1078  159.8399 H   0  0  0  0  0  0  0  0  0  0  0  0  # atno 6909 bound_to 6896
  144.9441  139.4896  143.5558 H   0  0  0  0  0  0  0  0  0  0  0  0  # atno 7974 bound_to 7965
  156.1897  140.1702  156.8116 H   0  0  0  0  0  0  0  0  0  0  0  0  # atno 8008 bound_to 7997
  154.5456  140.0728  156.8616 H   0  0  0  0  0  0  0  0  0  0  0  0  # atno 8009 bound_to 7997
  155.3128  140.3368  155.4246 H   0  0  0  0  0  0  0  0  0  0  0  0  # atno 8010 bound_to 7997
  140.5547  143.2312  151.6844 H   0  0  0  0  0  0  0  0  0  0  0  0  # atno 10167 bound_to 10162
  157.0005  130.6078  149.5696 H   0  0  0  0  0  0  0  0  0  0  0  0  # atno 10718 bound_to 10713
  152.9845  135.5650  154.5348 H   0  0  0  0  0  0  0  0  0  0  0  0  # atno 10763 bound_to 10752
  154.4813  135.2789  155.1570 H   0  0  0  0  0  0  0  0  0  0  0  0  # atno 10764 bound_to 10752
  154.3077  135.6294  153.5505 H   0  0  0  0  0  0  0  0  0  0  0  0  # atno 10765 bound_to 10752
  141.1439  133.8031  157.0445 H   0  0  0  0  0  0  0  0  0  0  0  0  # atno 11005 bound_to 11000
  146.3297  139.8480  142.8878 LP  0  0  0  0  0  0  0  0  0  0  0  0  # atno 17320 bound_to 7965
  145.2945  141.0177  143.3644 LP  0  0  0  0  0  0  0  0  0  0  0  0  # atno 17321 bound_to 7965
  139.5042  144.3761  152.0422 LP  0  0  0  0  0  0  0  0  0  0  0  0  # atno 17342 bound_to 10162
  140.2881  144.3784  150.6097 LP  0  0  0  0  0  0  0  0  0  0  0  0  # atno 17343 bound_to 10162
  156.0173  130.5267  150.8171 LP  0  0  0  0  0  0  0  0  0  0  0  0  # atno 17370 bound_to 10713
  157.5393  131.0940  150.9849 LP  0  0  0  0  0  0  0  0  0  0  0  0  # atno 17371 bound_to 10713
  140.0671  134.9723  157.1405 LP  0  0  0  0  0  0  0  0  0  0  0  0  # atno 17394 bound_to 11000
  140.3764  134.2335  155.7174 LP  0  0  0  0  0  0  0  0  0  0  0  0  # atno 17395 bound_to 11000

$$$$
