AV-unprocessed.smi:395|AV-procd|sdf|2486|dock8
  -GOLD-   2262022433D 1   1.00000     0.00000
 Structure written by MMmdl.
 34 35  0  0  0  0  0  0  0  0  1 V2000
  152.7639  143.1948  162.1098 C   0  0  0  0  0  0  0  0  0  0  0  0
  152.5496  143.1702  160.7828 C   0  0  0  0  0  0  0  0  0  0  0  0
  152.5856  141.9483  159.8748 C   0  0  0  0  0  0  0  0  0  0  0  0
  152.1957  142.2199  158.4938 N   0  0  0  0  0  0  0  0  0  0  0  0
  150.9994  141.9331  157.9582 C   0  0  0  0  0  0  0  0  0  0  0  0
  150.0758  141.4312  158.6005 O   0  0  0  0  0  0  0  0  0  0  0  0
  150.8303  142.2682  156.4689 C   0  0  0  0  0  0  0  0  0  0  0  0
  150.3866  141.1086  155.6649 N   0  0  0  0  0  0  0  0  0  0  0  0
  151.2825  140.0270  155.4666 C   0  0  0  0  0  0  0  0  0  0  0  0
  152.4035  140.0275  155.9780 O   0  0  0  0  0  0  0  0  0  0  0  0
  150.7865  138.9482  154.6152 C   0  0  0  0  0  0  0  0  0  0  0  0
  151.6703  137.8582  154.3643 C   0  0  0  0  0  0  0  0  0  0  0  0
  152.4066  136.9866  154.1702 N   0  0  0  0  0  0  0  0  0  0  0  0
  149.5465  138.9941  154.0861 C   0  0  0  0  0  0  0  0  0  0  0  0
  148.6773  140.0366  154.3228 N   0  0  0  0  0  0  0  0  0  0  0  0
  147.4289  140.1435  153.6217 C   0  0  0  0  0  0  0  0  0  0  0  0
  146.2854  139.2012  153.9437 C   0  0  0  0  0  0  0  0  0  0  0  0
  147.0406  139.0550  152.6450 C   0  0  0  0  0  0  0  0  0  0  0  0
  149.0966  141.1509  155.0816 C   0  0  0  0  0  0  0  0  0  0  0  0
  148.3690  142.1373  155.2241 O   0  0  0  0  0  0  0  0  0  0  0  0
  152.9904  142.3017  162.6732 H   0  0  0  0  0  0  0  0  0  0  0  0
  152.7136  144.1253  162.6555 H   0  0  0  0  0  0  0  0  0  0  0  0
  152.3293  144.1035  160.2854 H   0  0  0  0  0  0  0  0  0  0  0  0
  153.5839  141.5095  159.9091 H   0  0  0  0  0  0  0  0  0  0  0  0
  151.9047  141.2001  160.2806 H   0  0  0  0  0  0  0  0  0  0  0  0
  152.8957  142.6351  157.8961 H   0  0  0  0  0  0  0  0  0  0  0  0
  150.1389  143.1077  156.3863 H   0  0  0  0  0  0  0  0  0  0  0  0
  151.7708  142.6598  156.0764 H   0  0  0  0  0  0  0  0  0  0  0  0
  149.2174  138.1812  153.4546 H   0  0  0  0  0  0  0  0  0  0  0  0
  147.1419  141.1551  153.3397 H   0  0  0  0  0  0  0  0  0  0  0  0
  146.4459  138.4353  154.7002 H   0  0  0  0  0  0  0  0  0  0  0  0
  145.2764  139.6051  153.8972 H   0  0  0  0  0  0  0  0  0  0  0  0
  146.5335  139.3590  151.7317 H   0  0  0  0  0  0  0  0  0  0  0  0
  147.7001  138.1948  152.5470 H   0  0  0  0  0  0  0  0  0  0  0  0
  1  2  2  0  0  0  0
  1 21  1  0  0  0  0
  1 22  1  0  0  0  0
  2  3  1  0  0  0  0
  2 23  1  0  0  0  0
  3  4  1  0  0  0  0
  3 24  1  0  0  0  0
  3 25  1  0  0  0  0
  4  5  1  0  0  0  0
  4 26  1  0  0  0  0
  5  6  2  0  0  0  0
  5  7  1  0  0  0  0
  7  8  1  0  0  0  0
  7 27  1  0  0  0  0
  7 28  1  0  0  0  0
  8 19  1  0  0  0  0
  8  9  1  0  0  0  0
  9 10  2  0  0  0  0
  9 11  1  0  0  0  0
 11 12  1  0  0  0  0
 11 14  2  0  0  0  0
 12 13  3  0  0  0  0
 14 15  1  0  0  0  0
 14 29  1  0  0  0  0
 15 16  1  0  0  0  0
 15 19  1  0  0  0  0
 16 18  1  0  0  0  0
 16 17  1  0  0  0  0
 16 30  1  0  0  0  0
 17 18  1  0  0  0  0
 17 31  1  0  0  0  0
 17 32  1  0  0  0  0
 18 33  1  0  0  0  0
 18 34  1  0  0  0  0
 19 20  2  0  0  0  0
M  END
> <s_m_source_file>
AV-unprocessed.smi

> <i_m_source_file_index>
395

> <i_lp_mmshare_version>
43012

> <i_f3d_flags>
0

> <s_epik_input>
W0NIMl09W0NIXVtDSDJdW05IXUMoPU8pW0NIMl1uMWMoPU8pYyhDI04pW2NIXW4oYzE9TylbQ0hdMltDSDJdW0NIMl0y

> <s_epik_cmdline>
J2VwaWtfcHl0aG9uJywgJy1waCcsICc3LjAnLCAnLXRuJywgJzgnLCAnLW1hJywgJzIwMCcsICctbWV0YWxfYmluZGluZycsICctaW1hZScsICc8aW5maWxlLm1hZT4nLCAnLW9tYWUnLCAnPG91dGZpbGUubWFlPic=

> <r_lp_tautomer_probability>
1

> <r_epik_Ionization_Penalty>
1.93471e-08

> <r_epik_Ionization_Penalty_Charging>
8.01404e-11

> <r_epik_Ionization_Penalty_Neutral>
1.9267e-08

> <r_epik_State_Penalty>
-0

> <r_epik_Charging_Adjusted_Penalty>
8.01404e-11

> <i_epik_Tot_Q>
0

> <i_epik_Tot_abs_Q>
0

> <r_epik_Metal_State_Penalty>
-0

> <b_epik_Metal_Only>
0

> <s_lp_Force_Field>
OPLS_2005

> <r_lp_Energy>
28.6083

> <b_lp_Chiralities_Consistent>
1

> <s_lp_Variant>
AV-unprocessed.smi:395-1

> <Gold.Version>
5.8.1

> <Gold.Id.Protein>
6NUR|6NUR_protein|mol2

> <Gold.PLP.Fitness>
46.8744

> <Gold.PLP.PLP>
-39.5860

> <Gold.PLP.part.hbond>
-1.4615

> <Gold.PLP.part.metal>
0.0000

> <Gold.PLP.part.buried>
-2.6629

> <Gold.PLP.part.nonpolar>
-38.3694

> <Gold.PLP.part.repulsive>
3.2467

> <Gold.PLP.ligand.clash>
0.0000

> <Gold.PLP.ligand.torsion>
0.3375

> <Gold.PLP.Chemscore.Hbond>
1.5829

> <Gold.PLP.Chemscore.CHOScore>
1.0000

> <Gold.PLP.Chemscore.Metal>
0.0000

> <Gold.Chemscore.Hbonds>
donor molecule, donor type, donor heavy atom, donor atom, acceptor molecule, acceptor atom, score
      P1  H  7997  8010       L1    10  1.00
      P1  H 10752 10763       L1    13  0.57
      L1  C    14    29       P1  7948  1.00

> <Gold.PLP.Chemscore.Internal.Correction>
0.2146

> <Gold.Rescore>
     Score         DG    S(hbond)    S(metal)    S(lipo)     H(rot)  DE(clash)    DE(int)     intcor
     12.06     -14.16       1.54        0.00      75.81       2.09       1.71       0.39       ----

> <Gold.Chemscore.Fitness>
12.0599

> <Gold.Chemscore.DG>
-14.1597

> <Gold.Chemscore.ZeroCoef>
-5.4800

> <Gold.Chemscore.Hbond>
1.5439

> <Gold.Chemscore.Metal>
0.0000

> <Gold.Chemscore.Lipo>
75.8112

> <Gold.Chemscore.Internal_Hbond>
0.0000

> <Gold.Chemscore.DEClash>
1.7113

> <Gold.Chemscore.DEInternal>
0.3884

> <Gold.Chemscore.Rot>
2.0886

> <Gold.Chemscore.Internal.Correction>
   9.000000E+99

> <Gold.Chemscore.Hbonds>
donor molecule, donor type, donor heavy atom, donor atom, acceptor molecule, acceptor atom, score
      P1  H  7997  8010       L1    10  0.98
      P1  H 10752 10763       L1    13  0.53

> <Gold.Chemscore.Hbond.Weighted>
-5.1566

> <Gold.Chemscore.Metal.Weighted>
-0.0000

> <Gold.Chemscore.Lipo.Weighted>
-8.8699

> <Gold.Chemscore.Internal_Hbond.Weighted>
0.0000

> <Gold.Chemscore.DEClash.Weighted>
1.7113

> <Gold.Chemscore.DEInternal.Weighted>
0.3884

> <Gold.Chemscore.Rot.Weighted>
5.3469

> <Gold.Chemscore.Internal.Correction.Weighted>
   9.000000E+99

> <Gold.Protein.RotatedTorsions>
[ 6907 6896 6895 6894 ] final   29.59 input  -60.11 | X-H torsion
[ 7974 7965 7964 7962 ] final  -94.30 input  175.53 | X-H torsion
[ 8008 7997 7996 7995 ] final   85.14 input   59.86 | X-H torsion
[ 10167 10162 10161 10158 ] final   91.27 input  -65.29 | X-H torsion
[ 10718 10713 10712 10709 ] final   14.53 input   66.30 | X-H torsion
[ 10763 10752 10751 10750 ] final    7.91 input  -60.55 | X-H torsion
[ 11005 11000 10999 10996 ] final -129.61 input  -57.11 | X-H torsion

> <Gold.Protein.ActiveResidues>
 VAL166  LYS551  ARG553  GLY616  TRP617  ASP618  TYR619  PRO620  LYS621  CYS622 
 ASP623  PHE694  ASN695  SER759  ASP760  ASP761  ALA762  ILE779  LEU786  VAL792 
 PHE793  MET794  SER795  GLU796  ALA797  LYS798  CYS799  TRP800  GLU811  SER814 

> <Gold.Protein.RotatedAtoms>
  152.0338  134.9752  160.0572 H   0  0  0  0  0  0  0  0  0  0  0  0  # atno 6907 bound_to 6896
  152.1218  133.4353  159.4687 H   0  0  0  0  0  0  0  0  0  0  0  0  # atno 6908 bound_to 6896
  150.6849  134.2444  159.4529 H   0  0  0  0  0  0  0  0  0  0  0  0  # atno 6909 bound_to 6896
  145.3750  140.9510  143.2425 H   0  0  0  0  0  0  0  0  0  0  0  0  # atno 7974 bound_to 7965
  155.9462  140.3404  155.6369 H   0  0  0  0  0  0  0  0  0  0  0  0  # atno 8008 bound_to 7997
  155.6978  140.0756  157.2441 H   0  0  0  0  0  0  0  0  0  0  0  0  # atno 8009 bound_to 7997
  154.4112  140.1645  156.2144 H   0  0  0  0  0  0  0  0  0  0  0  0  # atno 8010 bound_to 7997
  139.8391  144.6650  150.9306 H   0  0  0  0  0  0  0  0  0  0  0  0  # atno 10167 bound_to 10162
  157.0405  130.6229  149.5750 H   0  0  0  0  0  0  0  0  0  0  0  0  # atno 10718 bound_to 10713
  153.2310  135.6892  153.7890 H   0  0  0  0  0  0  0  0  0  0  0  0  # atno 10763 bound_to 10752
  153.7055  135.3290  155.3235 H   0  0  0  0  0  0  0  0  0  0  0  0  # atno 10764 bound_to 10752
  154.8313  135.4578  154.1195 H   0  0  0  0  0  0  0  0  0  0  0  0  # atno 10765 bound_to 10752
  140.9416  134.1185  157.4145 H   0  0  0  0  0  0  0  0  0  0  0  0  # atno 11005 bound_to 11000
  144.8548  139.5266  143.6839 LP  0  0  0  0  0  0  0  0  0  0  0  0  # atno 17320 bound_to 7965
  146.2868  139.7026  142.9190 LP  0  0  0  0  0  0  0  0  0  0  0  0  # atno 17321 bound_to 7965
  140.7800  143.3930  151.1278 LP  0  0  0  0  0  0  0  0  0  0  0  0  # atno 17342 bound_to 10162
  139.7577  143.8682  152.3093 LP  0  0  0  0  0  0  0  0  0  0  0  0  # atno 17343 bound_to 10162
  156.0039  130.5123  150.7763 LP  0  0  0  0  0  0  0  0  0  0  0  0  # atno 17370 bound_to 10713
  157.5108  131.0925  151.0200 LP  0  0  0  0  0  0  0  0  0  0  0  0  # atno 17371 bound_to 10713
  139.8822  135.0038  156.6212 LP  0  0  0  0  0  0  0  0  0  0  0  0  # atno 17394 bound_to 11000
  140.7726  133.8726  155.8503 LP  0  0  0  0  0  0  0  0  0  0  0  0  # atno 17395 bound_to 11000

$$$$
