#       Name:                AV-unprocessed.smi:3197
#       Creating user name   scv26
#       Creation time:       Fri Mar 27 18:05:47 2020


#       File generated by GOLD software.
#

@<TRIPOS>MOLECULE
AV-unprocessed.smi:3197
    39    40     1
SMALL
NO_CHARGES


@<TRIPOS>ATOM
      1 ****        -5.8275   0.5391   1.1418 C.ar           1 S1                 0.0000
      2 ****        -4.8541   1.5333   1.3652 C.ar           1 S1                 0.0000
      3 ****        -3.5331   1.2497   1.3579 N.ar           1 S1                 0.0000
      4 ****        -3.1858  -0.0193   1.1288 C.ar           1 S1                 0.0000
      5 ****        -1.8275  -0.2737   1.1296 N.pl3          1 S1                 0.0000
      6 ****        -1.2400  -1.5788   0.8670 C.3            1 S1                 0.0000
      7 ****         0.2861  -1.5478   1.0000 C.3            1 S1                 0.0000
      8 ****         0.8349  -0.8263  -0.0905 O.3            1 S1                 0.0000
      9 ****         2.2493  -0.7418  -0.0355 C.3            1 S1                 0.0000
     10 ****         2.7523   0.0549  -1.2476 C.3            1 S1                 0.0000
     11 ****         4.2605   0.1749  -1.3237 C.3            1 S1                 0.0000
     12 ****         4.4325   1.3567  -2.2726 C.3            1 S1                 0.0000
     13 ****         3.3131   2.2062  -2.0386 O.3            1 S1                 0.0000
     14 ****         2.3407   1.5278  -1.2479 C.3            1 S1                 0.0000
     15 ****        -4.0219  -1.0408   0.9059 N.ar           1 S1                 0.0000
     16 ****        -5.3441  -0.7642   0.9113 C.ar           1 S1                 0.0000
     17 ****        -6.8839   0.7629   1.1469 H              1 S1                 0.0000
     18 ****        -5.1359   2.5591   1.5506 H              1 S1                 0.0000
     19 ****        -1.2085   0.5098   1.2786 H              1 S1                 0.0000
     20 ****        -1.6502  -2.2909   1.5839 H              1 S1                 0.0000
     21 ****        -1.5281  -1.9213  -0.1275 H              1 S1                 0.0000
     22 ****         0.5795  -1.1008   1.9514 H              1 S1                 0.0000
     23 ****         0.6715  -2.5683   0.9865 H              1 S1                 0.0000
     24 ****         2.5637  -0.2629   0.8934 H              1 S1                 0.0000
     25 ****         2.6790  -1.7447  -0.0485 H              1 S1                 0.0000
     26 ****         2.3947  -0.4141  -2.1659 H              1 S1                 0.0000
     27 ****         4.6739   0.4197  -0.3440 H              1 S1                 0.0000
     28 ****         4.7466  -0.7324  -1.6838 H              1 S1                 0.0000
     29 ****         5.3739   1.8839  -2.1165 H              1 S1                 0.0000
     30 ****         4.4008   1.0191  -3.3092 H              1 S1                 0.0000
     31 ****         1.3346   1.6779  -1.6401 H              1 S1                 0.0000
     32 ****         2.3732   1.9400  -0.2384 H              1 S1                 0.0000
     33 ****        -6.0198  -1.5870   0.7308 H              1 S1                 0.0000
     34 ****        -2.8460   1.9586   1.5170 LP             1 S1                 0.0000
     35 ****         0.4587   0.1002  -0.0827 LP             1 S1                 0.0000
     36 ****         0.5747  -1.2845  -0.9404 LP             1 S1                 0.0000
     37 ****         2.9054   2.4649  -2.9143 LP             1 S1                 0.0000
     38 ****         3.6166   3.0281  -1.5565 LP             1 S1                 0.0000
     39 ****        -3.6828  -1.9673   0.7427 LP             1 S1                 0.0000
@<TRIPOS>BOND
    1    1   16 ar    
    2    1    2 ar    
    3    1   17 1     
    4    2    3 ar    
    5    2   18 1     
    6    3    4 ar    
    7    4    5 1     
    8    4   15 ar    
    9    5    6 1     
   10    5   19 1     
   11    6    7 1     
   12    6   20 1     
   13    6   21 1     
   14    7    8 1     
   15    7   22 1     
   16    7   23 1     
   17    8    9 1     
   18    9   10 1     
   19    9   24 1     
   20    9   25 1     
   21   10   14 1     
   22   10   11 1     
   23   10   26 1     
   24   11   12 1     
   25   11   27 1     
   26   11   28 1     
   27   12   13 1     
   28   12   29 1     
   29   12   30 1     
   30   13   14 1     
   31   14   31 1     
   32   14   32 1     
   33   15   16 ar    
   34   16   33 1     
   35    3   34 1     
   36    8   35 1     
   37    8   36 1     
   38   13   37 1     
   39   13   38 1     
   40   15   39 1     
@<TRIPOS>SUBSTRUCTURE
      1 S1             1
@<TRIPOS>SET
LONE_PAIRS      STATIC     ATOMS    <user>   **** ""
6 34 35 36 37 38 39
DONOR_HYDROGENS      STATIC     ATOMS    <user>   **** ""
1 19
ATOM$BLUE        STATIC     ATOMS    COLORGROUP SYSTEM
6 34 35 36 37 38 39
ATOM$RED        STATIC     ATOMS    COLORGROUP SYSTEM
1 19
