#       Name:                AV-unprocessed.smi:1021
#       Creating user name   scv26
#       Creation time:       Fri Mar 27 02:43:01 2020


#       File generated by GOLD software.
#

@<TRIPOS>MOLECULE
AV-unprocessed.smi:1021
    47    49     1
SMALL
NO_CHARGES


@<TRIPOS>ATOM
      1 ****        -4.1694   2.7341   1.5926 O.3            1 S1                 0.0000
      2 ****        -3.6246   3.2173   0.3831 C.3            1 S1                 0.0000
      3 ****        -2.0899   3.1900   0.4366 C.3            1 S1                 0.0000
      4 ****        -1.5119   1.7630   0.4691 C.3            1 S1                 0.0000
      5 ****        -0.0143   1.7266   0.5056 C.2            1 S1                 0.0000
      6 ****         0.8330   2.7953   0.5508 N.pl3          1 S1                 1.0000
      7 ****         2.1556   2.3525   0.5815 C.ar           1 S1                 0.0000
      8 ****         3.3521   3.0612   0.6296 C.ar           1 S1                 0.0000
      9 ****         4.5385   2.2990   0.6494 C.ar           1 S1                 0.0000
     10 ****         4.5058   0.8897   0.6198 C.ar           1 S1                 0.0000
     11 ****         3.2862   0.1827   0.5709 C.ar           1 S1                 0.0000
     12 ****         2.1171   0.9436   0.5543 C.ar           1 S1                 0.0000
     13 ****         0.7594   0.6032   0.5091 N.pl3          1 S1                 0.0000
     14 ****         0.3620  -0.8137   0.4750 C.3            1 S1                 0.0000
     15 ****         0.1207  -1.3357  -0.9555 C.3            1 S1                 0.0000
     16 ****         1.2979  -1.2028  -1.7284 O.3            1 S1                 0.0000
     17 ****        -0.3982  -2.7648  -0.9406 C.ar           1 S1                 0.0000
     18 ****        -1.7725  -3.0174  -1.1408 C.ar           1 S1                 0.0000
     19 ****        -2.2622  -4.3379  -1.1200 C.ar           1 S1                 0.0000
     20 ****        -1.3812  -5.4132  -0.8960 C.ar           1 S1                 0.0000
     21 ****        -1.8529  -6.6821  -0.8746 F              1 S1                 0.0000
     22 ****        -0.0097  -5.1675  -0.6926 C.ar           1 S1                 0.0000
     23 ****         0.4807  -3.8472  -0.7135 C.ar           1 S1                 0.0000
     24 ****        -5.1121   2.7719   1.5351 H              1 S1                 0.0000
     25 ****        -3.9973   2.6191  -0.4490 H              1 S1                 0.0000
     26 ****        -3.9759   4.2380   0.2296 H              1 S1                 0.0000
     27 ****        -1.7043   3.7098  -0.4412 H              1 S1                 0.0000
     28 ****        -1.7479   3.7551   1.3051 H              1 S1                 0.0000
     29 ****        -1.8870   1.2279   1.3420 H              1 S1                 0.0000
     30 ****        -1.8509   1.2089  -0.4065 H              1 S1                 0.0000
     31 ****         3.3792   4.1408   0.6503 H              1 S1                 0.0000
     32 ****         5.4922   2.8052   0.6867 H              1 S1                 0.0000
     33 ****         5.4351   0.3391   0.6338 H              1 S1                 0.0000
     34 ****         3.2739  -0.8966   0.5424 H              1 S1                 0.0000
     35 ****         1.1089  -1.4118   0.9972 H              1 S1                 0.0000
     36 ****        -0.5549  -0.9031   1.0589 H              1 S1                 0.0000
     37 ****        -0.6322  -0.7075  -1.4330 H              1 S1                 0.0000
     38 ****         1.0984  -1.4443  -2.6202 H              1 S1                 0.0000
     39 ****        -2.4576  -2.1997  -1.3099 H              1 S1                 0.0000
     40 ****        -3.3145  -4.5259  -1.2752 H              1 S1                 0.0000
     41 ****         0.6664  -5.9918  -0.5191 H              1 S1                 0.0000
     42 ****         1.5338  -3.6682  -0.5526 H              1 S1                 0.0000
     43 ****         0.5238   3.7586   0.5611 H              1 S1                 0.0000
     44 ****        -3.8553   3.3013   2.3539 LP             1 S1                 0.0000
     45 ****        -3.8785   1.7886   1.7391 LP             1 S1                 0.0000
     46 ****         2.0093  -1.8053  -1.3665 LP             1 S1                 0.0000
     47 ****         1.6164  -0.2554  -1.6983 LP             1 S1                 0.0000
@<TRIPOS>BOND
    1    1    2 1     
    2    1   24 1     
    3    2    3 1     
    4    2   25 1     
    5    2   26 1     
    6    3    4 1     
    7    3   27 1     
    8    3   28 1     
    9    4    5 1     
   10    4   29 1     
   11    4   30 1     
   12    5   13 1     
   13    5    6 2     
   14    6    7 1     
   15    6   43 1     
   16    7   12 ar    
   17    7    8 ar    
   18    8    9 ar    
   19    8   31 1     
   20    9   10 ar    
   21    9   32 1     
   22   10   11 ar    
   23   10   33 1     
   24   11   12 ar    
   25   11   34 1     
   26   12   13 1     
   27   13   14 1     
   28   14   15 1     
   29   14   35 1     
   30   14   36 1     
   31   15   16 1     
   32   15   17 1     
   33   15   37 1     
   34   16   38 1     
   35   17   23 ar    
   36   17   18 ar    
   37   18   19 ar    
   38   18   39 1     
   39   19   20 ar    
   40   19   40 1     
   41   20   21 1     
   42   20   22 ar    
   43   22   23 ar    
   44   22   41 1     
   45   23   42 1     
   46    1   44 1     
   47    1   45 1     
   48   16   46 1     
   49   16   47 1     
@<TRIPOS>SUBSTRUCTURE
      1 S1             1
@<TRIPOS>SET
LONE_PAIRS      STATIC     ATOMS    <user>   **** ""
4 44 45 46 47
DONOR_HYDROGENS      STATIC     ATOMS    <user>   **** ""
3 24 43 38
ATOM$BLUE        STATIC     ATOMS    COLORGROUP SYSTEM
4 44 45 46 47
ATOM$RED        STATIC     ATOMS    COLORGROUP SYSTEM
3 24 43 38
