AV-unprocessed.smi:1116|AV-procd|sdf|4809|dock8
  -GOLD-   22720 3363D 1   1.00000     0.00000
 Structure written by MMmdl.
 35 36  0  0  0  0  0  0  0  0  2 V2000
  152.3287  143.7750  162.0162 C   0  0  0  0  0  0  0  0  0  0  0  0
  151.8148  144.0282  160.6404 C   0  0  0  0  0  0  0  0  0  0  0  0
  151.7828  143.1005  159.6799 N   0  0  0  0  0  0  0  0  0  0  0  0
  151.2587  143.5876  158.4782 C   0  0  0  0  0  0  0  0  0  0  0  0
  151.1566  142.6877  157.2846 C   0  0  0  0  0  0  0  0  0  0  0  0
  150.0254  141.6562  157.4323 C   0  0  0  0  0  0  0  0  0  0  0  0
  148.7571  142.1688  156.9283 N   0  0  0  0  0  0  0  0  0  0  0  0
  147.5562  141.6099  157.1416 C   0  0  0  0  0  0  0  0  0  0  0  0
  147.3955  140.5768  157.7920 O   0  0  0  0  0  0  0  0  0  0  0  0
  146.3549  142.3248  156.5208 C   0  0  0  0  0  0  0  0  0  0  0  0
  146.5400  142.5728  155.0122 C   0  0  0  0  0  0  0  0  0  0  0  0
  145.2189  142.9255  154.2973 C   0  0  2  0  0  0  0  0  0  0  0  0
  145.4529  143.7653  153.1351 N   0  5  0  0  0  0  0  0  0  0  0  0
  144.7631  144.9195  153.2932 C   0  0  0  0  0  0  0  0  0  0  0  0
  144.7026  145.8713  152.5181 O   0  0  0  0  0  0  0  0  0  0  0  0
  144.1105  144.9246  154.4602 N   0  0  0  0  0  0  0  0  0  0  0  0
  144.3186  143.8044  155.1447 C   0  0  0  0  0  0  0  0  0  0  0  0
  143.8744  143.5127  156.2542 O   0  0  0  0  0  0  0  0  0  0  0  0
  150.8869  144.9072  158.5457 C   0  0  0  0  0  0  0  0  0  0  0  0
  151.1872  145.5875  160.1211 S   0  0  0  0  0  0  0  0  0  0  0  0
  152.7558  142.7743  162.0899 H   0  0  0  0  0  0  0  0  0  0  0  0
  151.5169  143.8630  162.7384 H   0  0  0  0  0  0  0  0  0  0  0  0
  153.1004  144.5034  162.2658 H   0  0  0  0  0  0  0  0  0  0  0  0
  150.9974  143.2848  156.3859 H   0  0  0  0  0  0  0  0  0  0  0  0
  152.1031  142.1674  157.1322 H   0  0  0  0  0  0  0  0  0  0  0  0
  150.2698  140.7563  156.8670 H   0  0  0  0  0  0  0  0  0  0  0  0
  149.9171  141.3499  158.4741 H   0  0  0  0  0  0  0  0  0  0  0  0
  148.7917  143.0178  156.3823 H   0  0  0  0  0  0  0  0  0  0  0  0
  145.4527  141.7367  156.6949 H   0  0  0  0  0  0  0  0  0  0  0  0
  146.2097  143.2734  157.0385 H   0  0  0  0  0  0  0  0  0  0  0  0
  147.2513  143.3891  154.8750 H   0  0  0  0  0  0  0  0  0  0  0  0
  146.9946  141.6970  154.5445 H   0  0  0  0  0  0  0  0  0  0  0  0
  144.6726  142.0141  154.0507 H   0  0  0  0  0  0  0  0  0  0  0  0
  143.5388  145.6902  154.7845 H   0  0  0  0  0  0  0  0  0  0  0  0
  150.4586  145.5183  157.7649 H   0  0  0  0  0  0  0  0  0  0  0  0
  1  2  1  0  0  0  0
  1 21  1  0  0  0  0
  1 22  1  0  0  0  0
  1 23  1  0  0  0  0
  2 20  1  0  0  0  0
  2  3  2  0  0  0  0
  3  4  1  0  0  0  0
  4  5  1  0  0  0  0
  4 19  2  0  0  0  0
  5  6  1  0  0  0  0
  5 24  1  0  0  0  0
  5 25  1  0  0  0  0
  6  7  1  0  0  0  0
  6 26  1  0  0  0  0
  6 27  1  0  0  0  0
  7  8  1  0  0  0  0
  7 28  1  0  0  0  0
  8  9  2  0  0  0  0
  8 10  1  0  0  0  0
 10 11  1  0  0  0  0
 10 29  1  0  0  0  0
 10 30  1  0  0  0  0
 11 12  1  0  0  0  0
 11 31  1  0  0  0  0
 11 32  1  0  0  0  0
 12 17  1  0  0  0  0
 12 13  1  0  0  0  0
 12 33  1  0  0  0  0
 13 14  1  0  0  0  0
 14 15  2  0  0  0  0
 14 16  1  0  0  0  0
 16 17  1  0  0  0  0
 16 34  1  0  0  0  0
 17 18  2  0  0  0  0
 19 20  1  0  0  0  0
 19 35  1  0  0  0  0
M  CHG  1  13  -1
M  END
> <s_m_source_file>
AV-unprocessed.smi

> <i_m_source_file_index>
1116

> <i_lp_mmshare_version>
43012

> <i_f3d_flags>
0

> <s_epik_input>
W0NIM11jMW5jKFtjSF1zMSlbQ0gyXVtDSDJdW05IXUMoPU8pW0NIMl1bQ0gyXVtDQEBIXTJbTkhdQyg9TylbTkhdQzI9Tw==

> <s_epik_cmdline>
J2VwaWtfcHl0aG9uJywgJy1waCcsICc3LjAnLCAnLXRuJywgJzgnLCAnLW1hJywgJzIwMCcsICctbWV0YWxfYmluZGluZycsICctaW1hZScsICc8aW5maWxlLm1hZT4nLCAnLW9tYWUnLCAnPG91dGZpbGUubWFlPic=

> <r_lp_tautomer_probability>
1

> <r_epik_Ionization_Penalty>
5.7962

> <r_epik_Ionization_Penalty_Charging>
5.79516

> <r_epik_Ionization_Penalty_Neutral>
0.00104588

> <r_epik_State_Penalty>
5.80096

> <r_epik_Charging_Adjusted_Penalty>
11.5961

> <i_epik_Tot_Q>
-1

> <i_epik_Tot_abs_Q>
1

> <r_epik_Metal_State_Penalty>
2.1448

> <b_epik_Metal_Only>
1

> <s_lp_Force_Field>
OPLS_2005

> <r_lp_Energy>
4.59195

> <b_lp_Chiralities_Consistent>
1

> <s_lp_Variant>
AV-unprocessed.smi:1116-3

> <Gold.Version>
5.8.1

> <Gold.Id.Protein>
6NUR|6NUR_protein|mol2

> <Gold.PLP.Fitness>
43.1816

> <Gold.PLP.PLP>
-40.2412

> <Gold.PLP.part.hbond>
-3.4639

> <Gold.PLP.part.metal>
0.0000

> <Gold.PLP.part.buried>
-8.3998

> <Gold.PLP.part.nonpolar>
-30.0636

> <Gold.PLP.part.repulsive>
0.4887

> <Gold.PLP.ligand.clash>
0.0000

> <Gold.PLP.ligand.torsion>
0.7997

> <Gold.PLP.Chemscore.Hbond>
1.0000

> <Gold.PLP.Chemscore.CHOScore>
0.4903

> <Gold.PLP.Chemscore.Metal>
0.0000

> <Gold.Chemscore.Hbonds>
donor molecule, donor type, donor heavy atom, donor atom, acceptor molecule, acceptor atom, score
      L1  H     7    28       P1  8028  1.00
      L1  C    19    35       P1  8028  0.21
      L1  C    19    35       P1  8029  0.40

> <Gold.PLP.Chemscore.Internal.Correction>
0.0690

> <Gold.Rescore>
     Score         DG    S(hbond)    S(metal)    S(lipo)     H(rot)  DE(clash)    DE(int)     intcor
      8.66     -11.57       0.97        0.00      85.03       2.77       0.99       1.92       ----

> <Gold.Chemscore.Fitness>
8.6622

> <Gold.Chemscore.DG>
-11.5750

> <Gold.Chemscore.ZeroCoef>
-5.4800

> <Gold.Chemscore.Hbond>
0.9685

> <Gold.Chemscore.Metal>
0.0000

> <Gold.Chemscore.Lipo>
85.0335

> <Gold.Chemscore.Internal_Hbond>
0.0000

> <Gold.Chemscore.DEClash>
0.9913

> <Gold.Chemscore.DEInternal>
1.9215

> <Gold.Chemscore.Rot>
2.7691

> <Gold.Chemscore.Internal.Correction>
   9.000000E+99

> <Gold.Chemscore.Hbonds>
donor molecule, donor type, donor heavy atom, donor atom, acceptor molecule, acceptor atom, score
      L1  H     7    28       P1  8028  0.98

> <Gold.Chemscore.Hbond.Weighted>
-3.2349

> <Gold.Chemscore.Metal.Weighted>
-0.0000

> <Gold.Chemscore.Lipo.Weighted>
-9.9489

> <Gold.Chemscore.Internal_Hbond.Weighted>
0.0000

> <Gold.Chemscore.DEClash.Weighted>
0.9913

> <Gold.Chemscore.DEInternal.Weighted>
1.9215

> <Gold.Chemscore.Rot.Weighted>
7.0889

> <Gold.Chemscore.Internal.Correction.Weighted>
   9.000000E+99

> <Gold.Protein.RotatedTorsions>
[ 6907 6896 6895 6894 ] final   83.22 input  -60.11 | X-H torsion
[ 7974 7965 7964 7962 ] final   41.13 input  175.53 | X-H torsion
[ 8008 7997 7996 7995 ] final  -26.86 input   59.86 | X-H torsion
[ 10167 10162 10161 10158 ] final -129.79 input  -65.29 | X-H torsion
[ 10718 10713 10712 10709 ] final   22.55 input   66.30 | X-H torsion
[ 10763 10752 10751 10750 ] final -139.94 input  -60.55 | X-H torsion
[ 11005 11000 10999 10996 ] final  107.83 input  -57.11 | X-H torsion

> <Gold.Protein.ActiveResidues>
 VAL166  LYS551  ARG553  GLY616  TRP617  ASP618  TYR619  PRO620  LYS621  CYS622 
 ASP623  PHE694  ASN695  SER759  ASP760  ASP761  ALA762  ILE779  LEU786  VAL792 
 PHE793  MET794  SER795  GLU796  ALA797  LYS798  CYS799  TRP800  GLU811  SER814 

> <Gold.Protein.RotatedAtoms>
  152.5321  134.2929  159.9049 H   0  0  0  0  0  0  0  0  0  0  0  0  # atno 6907 bound_to 6896
  151.2881  133.4172  159.2639 H   0  0  0  0  0  0  0  0  0  0  0  0  # atno 6908 bound_to 6896
  151.0225  134.9495  159.8124 H   0  0  0  0  0  0  0  0  0  0  0  0  # atno 6909 bound_to 6896
  146.0848  139.5451  142.9514 H   0  0  0  0  0  0  0  0  0  0  0  0  # atno 7974 bound_to 7965
  154.4405  140.1888  156.0841 H   0  0  0  0  0  0  0  0  0  0  0  0  # atno 8008 bound_to 7997
  156.0416  140.3319  155.7224 H   0  0  0  0  0  0  0  0  0  0  0  0  # atno 8009 bound_to 7997
  155.5691  140.0611  157.2801 H   0  0  0  0  0  0  0  0  0  0  0  0  # atno 8010 bound_to 7997
  139.9361  143.6216  152.2516 H   0  0  0  0  0  0  0  0  0  0  0  0  # atno 10167 bound_to 10162
  157.1538  130.6686  149.6021 H   0  0  0  0  0  0  0  0  0  0  0  0  # atno 10718 bound_to 10713
  154.8594  135.3568  154.5627 H   0  0  0  0  0  0  0  0  0  0  0  0  # atno 10763 bound_to 10752
  153.6242  135.7005  153.5304 H   0  0  0  0  0  0  0  0  0  0  0  0  # atno 10764 bound_to 10752
  153.3103  135.4180  155.1290 H   0  0  0  0  0  0  0  0  0  0  0  0  # atno 10765 bound_to 10752
  139.8834  134.9412  156.5879 H   0  0  0  0  0  0  0  0  0  0  0  0  # atno 11005 bound_to 11000
  145.6150  141.0333  143.1946 LP  0  0  0  0  0  0  0  0  0  0  0  0  # atno 17320 bound_to 7965
  144.7318  139.7703  143.7344 LP  0  0  0  0  0  0  0  0  0  0  0  0  # atno 17321 bound_to 7965
  139.6742  144.7659  151.1726 LP  0  0  0  0  0  0  0  0  0  0  0  0  # atno 17342 bound_to 10162
  140.7624  143.5819  150.8886 LP  0  0  0  0  0  0  0  0  0  0  0  0  # atno 17343 bound_to 10162
  155.9766  130.4735  150.6536 LP  0  0  0  0  0  0  0  0  0  0  0  0  # atno 17370 bound_to 10713
  157.4196  131.0835  151.1144 LP  0  0  0  0  0  0  0  0  0  0  0  0  # atno 17371 bound_to 10713
  140.7978  133.8530  155.8700 LP  0  0  0  0  0  0  0  0  0  0  0  0  # atno 17394 bound_to 11000
  140.9620  134.1643  157.4646 LP  0  0  0  0  0  0  0  0  0  0  0  0  # atno 17395 bound_to 11000

$$$$
