AV-unprocessed.smi:2954|AV-procd|sdf|11297|dock4
  -GOLD-   2272016193D 1   1.00000     0.00000
 Structure written by MMmdl.
 42 44  0  0  0  0  0  0  0  0  1 V2000
  150.0988  135.4757  154.6559 C   0  0  0  0  0  0  0  0  0  0  0  0
  150.7119  136.7911  155.1716 C   0  0  2  0  0  0  0  0  0  0  0  0
  151.0039  136.7789  156.6070 N   0  0  0  0  0  0  0  0  0  0  0  0
  152.1929  136.5476  157.1820 C   0  0  0  0  0  0  0  0  0  0  0  0
  153.2137  136.3142  156.5398 O   0  0  0  0  0  0  0  0  0  0  0  0
  149.8788  138.0035  154.8270 C   0  0  0  0  0  0  0  0  0  0  0  0
  148.6878  137.8985  154.2310 N   0  0  0  0  0  0  0  0  0  0  0  0
  148.2930  139.2128  154.0884 C   0  0  0  0  0  0  0  0  0  0  0  0
  147.1231  139.7632  153.5179 C   0  0  0  0  0  0  0  0  0  0  0  0
  146.9398  141.1607  153.4748 C   0  0  0  0  0  0  0  0  0  0  0  0
  147.9213  142.0253  154.0008 C   0  0  0  0  0  0  0  0  0  0  0  0
  149.0923  141.4964  154.5767 C   0  0  0  0  0  0  0  0  0  0  0  0
  149.2700  140.1001  154.6184 C   0  0  0  0  0  0  0  0  0  0  0  0
  150.2822  139.2735  155.0987 N   0  0  0  0  0  0  0  0  0  0  0  0
  151.5135  139.7242  155.7342 C   0  0  0  0  0  0  0  0  0  0  0  0
  151.3010  140.0538  157.2184 C   0  0  0  0  0  0  0  0  0  0  0  0
  151.5718  141.4344  157.4180 O   0  0  0  0  0  0  0  0  0  0  0  0
  151.9977  141.8530  158.6598 C   0  0  0  0  0  0  0  0  0  0  0  0
  152.4326  140.9741  159.6840 C   0  0  0  0  0  0  0  0  0  0  0  0
  152.8537  141.4818  160.9285 C   0  0  0  0  0  0  0  0  0  0  0  0
  152.8448  142.8685  161.1657 C   0  0  0  0  0  0  0  0  0  0  0  0
  152.4131  143.7483  160.1564 C   0  0  0  0  0  0  0  0  0  0  0  0
  151.9921  143.2433  158.9105 C   0  0  0  0  0  0  0  0  0  0  0  0
  151.4734  144.3435  157.6833 Cl  0  0  0  0  0  0  0  0  0  0  0  0
  150.0054  135.4951  153.5697 H   0  0  0  0  0  0  0  0  0  0  0  0
  149.1033  135.2984  155.0643 H   0  0  0  0  0  0  0  0  0  0  0  0
  150.7242  134.6216  154.9168 H   0  0  0  0  0  0  0  0  0  0  0  0
  151.6851  136.8725  154.6934 H   0  0  0  0  0  0  0  0  0  0  0  0
  150.2255  136.9683  157.2213 H   0  0  0  0  0  0  0  0  0  0  0  0
  152.1398  136.5967  158.2801 H   0  0  0  0  0  0  0  0  0  0  0  0
  146.3671  139.1088  153.1097 H   0  0  0  0  0  0  0  0  0  0  0  0
  146.0430  141.5710  153.0342 H   0  0  0  0  0  0  0  0  0  0  0  0
  147.7754  143.0949  153.9609 H   0  0  0  0  0  0  0  0  0  0  0  0
  149.8471  142.1580  154.9749 H   0  0  0  0  0  0  0  0  0  0  0  0
  152.2615  138.9367  155.6389 H   0  0  0  0  0  0  0  0  0  0  0  0
  151.9158  140.5794  155.1918 H   0  0  0  0  0  0  0  0  0  0  0  0
  150.2739  139.8230  157.5044 H   0  0  0  0  0  0  0  0  0  0  0  0
  151.9682  139.4452  157.8306 H   0  0  0  0  0  0  0  0  0  0  0  0
  152.4506  139.9045  159.5406 H   0  0  0  0  0  0  0  0  0  0  0  0
  153.1839  140.8050  161.7024 H   0  0  0  0  0  0  0  0  0  0  0  0
  153.1681  143.2567  162.1203 H   0  0  0  0  0  0  0  0  0  0  0  0
  152.4062  144.8131  160.3382 H   0  0  0  0  0  0  0  0  0  0  0  0
  1  2  1  0  0  0  0
  1 25  1  0  0  0  0
  1 26  1  0  0  0  0
  1 27  1  0  0  0  0
  2  3  1  0  0  0  0
  2  6  1  0  0  0  0
  2 28  1  0  0  0  0
  3  4  1  0  0  0  0
  3 29  1  0  0  0  0
  4  5  2  0  0  0  0
  4 30  1  0  0  0  0
  6 14  1  0  0  0  0
  6  7  2  0  0  0  0
  7  8  1  0  0  0  0
  8 13  2  0  0  0  0
  8  9  1  0  0  0  0
  9 10  2  0  0  0  0
  9 31  1  0  0  0  0
 10 11  1  0  0  0  0
 10 32  1  0  0  0  0
 11 12  2  0  0  0  0
 11 33  1  0  0  0  0
 12 13  1  0  0  0  0
 12 34  1  0  0  0  0
 13 14  1  0  0  0  0
 14 15  1  0  0  0  0
 15 16  1  0  0  0  0
 15 35  1  0  0  0  0
 15 36  1  0  0  0  0
 16 17  1  0  0  0  0
 16 37  1  0  0  0  0
 16 38  1  0  0  0  0
 17 18  1  0  0  0  0
 18 23  1  0  0  0  0
 18 19  2  0  0  0  0
 19 20  1  0  0  0  0
 19 39  1  0  0  0  0
 20 21  2  0  0  0  0
 20 40  1  0  0  0  0
 21 22  1  0  0  0  0
 21 41  1  0  0  0  0
 22 23  2  0  0  0  0
 22 42  1  0  0  0  0
 23 24  1  0  0  0  0
M  END
> <s_m_source_file>
AV-unprocessed.smi

> <i_m_source_file_index>
2954

> <i_lp_mmshare_version>
43012

> <i_f3d_flags>
0

> <s_epik_input>
Tz1bQ0hdW05IXVtDQEBIXShbQ0gzXSljKG4xKW4oYyhjMTIpW2NIXVtjSF1bY0hdW2NIXTIpW0NIMl1bQ0gyXU9jM1tjSF1bY0hdW2NIXVtjSF1jM0Ns

> <s_epik_cmdline>
J2VwaWtfcHl0aG9uJywgJy1waCcsICc3LjAnLCAnLXRuJywgJzgnLCAnLW1hJywgJzIwMCcsICctbWV0YWxfYmluZGluZycsICctaW1hZScsICc8aW5maWxlLm1hZT4nLCAnLW9tYWUnLCAnPG91dGZpbGUubWFlPic=

> <r_lp_tautomer_probability>
1

> <r_epik_Ionization_Penalty>
0.0861383

> <r_epik_Ionization_Penalty_Charging>
0

> <r_epik_Ionization_Penalty_Neutral>
0.0861383

> <r_epik_State_Penalty>
0.0766841

> <r_epik_Charging_Adjusted_Penalty>
0.0766841

> <i_epik_Tot_Q>
0

> <i_epik_Tot_abs_Q>
0

> <r_epik_Metal_State_Penalty>
0.0668745

> <b_epik_Metal_Only>
0

> <s_lp_Force_Field>
OPLS_2005

> <r_lp_Energy>
13.8103

> <b_lp_Chiralities_Consistent>
1

> <s_lp_Variant>
AV-unprocessed.smi:2954-1

> <Gold.Version>
5.8.1

> <Gold.Id.Protein>
6NUR|6NUR_protein|mol2

> <Gold.PLP.Fitness>
50.2370

> <Gold.PLP.PLP>
-49.6343

> <Gold.PLP.part.hbond>
-0.8324

> <Gold.PLP.part.metal>
0.0000

> <Gold.PLP.part.buried>
-3.4148

> <Gold.PLP.part.nonpolar>
-46.6237

> <Gold.PLP.part.repulsive>
1.5750

> <Gold.PLP.ligand.clash>
0.0000

> <Gold.PLP.ligand.torsion>
1.2379

> <Gold.PLP.Chemscore.Hbond>
0.9920

> <Gold.PLP.Chemscore.CHOScore>
0.0000

> <Gold.PLP.Chemscore.Metal>
0.0000

> <Gold.Chemscore.Hbonds>
donor molecule, donor type, donor heavy atom, donor atom, acceptor molecule, acceptor atom, score
      P1  H 10752 10765       L1     5  1.00

> <Gold.PLP.Chemscore.Internal.Correction>
0.1026

> <Gold.Rescore>
     Score         DG    S(hbond)    S(metal)    S(lipo)     H(rot)  DE(clash)    DE(int)     intcor
     17.82     -19.16       0.99        0.00     138.56       2.28       0.07       1.27       ----

> <Gold.Chemscore.Fitness>
17.8190

> <Gold.Chemscore.DG>
-19.1585

> <Gold.Chemscore.ZeroCoef>
-5.4800

> <Gold.Chemscore.Hbond>
0.9930

> <Gold.Chemscore.Metal>
0.0000

> <Gold.Chemscore.Lipo>
138.5594

> <Gold.Chemscore.Internal_Hbond>
0.0000

> <Gold.Chemscore.DEClash>
0.0734

> <Gold.Chemscore.DEInternal>
1.2660

> <Gold.Chemscore.Rot>
2.2849

> <Gold.Chemscore.Internal.Correction>
   9.000000E+99

> <Gold.Chemscore.Hbonds>
donor molecule, donor type, donor heavy atom, donor atom, acceptor molecule, acceptor atom, score
      P1  H 10752 10765       L1     5  0.92

> <Gold.Chemscore.Hbond.Weighted>
-3.3165

> <Gold.Chemscore.Metal.Weighted>
-0.0000

> <Gold.Chemscore.Lipo.Weighted>
-16.2114

> <Gold.Chemscore.Internal_Hbond.Weighted>
0.0000

> <Gold.Chemscore.DEClash.Weighted>
0.0734

> <Gold.Chemscore.DEInternal.Weighted>
1.2660

> <Gold.Chemscore.Rot.Weighted>
5.8495

> <Gold.Chemscore.Internal.Correction.Weighted>
   9.000000E+99

> <Gold.Protein.RotatedTorsions>
[ 6907 6896 6895 6894 ] final  -99.88 input  -60.11 | X-H torsion
[ 7974 7965 7964 7962 ] final  -29.51 input  175.53 | X-H torsion
[ 8008 7997 7996 7995 ] final  174.43 input   59.86 | X-H torsion
[ 10167 10162 10161 10158 ] final  -91.89 input  -65.29 | X-H torsion
[ 10718 10713 10712 10709 ] final  -56.16 input   66.30 | X-H torsion
[ 10763 10752 10751 10750 ] final -111.92 input  -60.55 | X-H torsion
[ 11005 11000 10999 10996 ] final  -75.17 input  -57.11 | X-H torsion

> <Gold.Protein.ActiveResidues>
 VAL166  LYS551  ARG553  GLY616  TRP617  ASP618  TYR619  PRO620  LYS621  CYS622 
 ASP623  PHE694  ASN695  SER759  ASP760  ASP761  ALA762  ILE779  LEU786  VAL792 
 PHE793  MET794  SER795  GLU796  ALA797  LYS798  CYS799  TRP800  GLU811  SER814 

> <Gold.Protein.RotatedAtoms>
  150.7095  134.0973  159.3952 H   0  0  0  0  0  0  0  0  0  0  0  0  # atno 6907 bound_to 6896
  151.8959  135.0396  160.0511 H   0  0  0  0  0  0  0  0  0  0  0  0  # atno 6908 bound_to 6896
  152.2454  133.5134  159.5331 H   0  0  0  0  0  0  0  0  0  0  0  0  # atno 6909 bound_to 6896
  146.1211  140.5421  142.8735 H   0  0  0  0  0  0  0  0  0  0  0  0  # atno 7974 bound_to 7965
  156.0974  140.1434  156.9512 H   0  0  0  0  0  0  0  0  0  0  0  0  # atno 8008 bound_to 7997
  154.4680  140.0919  156.7118 H   0  0  0  0  0  0  0  0  0  0  0  0  # atno 8009 bound_to 7997
  155.4817  140.3445  155.4343 H   0  0  0  0  0  0  0  0  0  0  0  0  # atno 8010 bound_to 7997
  140.3403  143.2946  151.9843 H   0  0  0  0  0  0  0  0  0  0  0  0  # atno 10167 bound_to 10162
  156.1310  130.4159  150.0268 H   0  0  0  0  0  0  0  0  0  0  0  0  # atno 10718 bound_to 10713
  154.8324  135.4510  154.1113 H   0  0  0  0  0  0  0  0  0  0  0  0  # atno 10763 bound_to 10752
  153.2375  135.6912  153.7827 H   0  0  0  0  0  0  0  0  0  0  0  0  # atno 10764 bound_to 10752
  153.7187  135.3345  155.3238 H   0  0  0  0  0  0  0  0  0  0  0  0  # atno 10765 bound_to 10752
  141.1643  133.6937  156.7476 H   0  0  0  0  0  0  0  0  0  0  0  0  # atno 11005 bound_to 11000
  144.7598  140.5395  143.6743 LP  0  0  0  0  0  0  0  0  0  0  0  0  # atno 17320 bound_to 7965
  145.5463  139.1476  143.3419 LP  0  0  0  0  0  0  0  0  0  0  0  0  # atno 17321 bound_to 7965
  139.4841  144.6162  151.7341 LP  0  0  0  0  0  0  0  0  0  0  0  0  # atno 17342 bound_to 10162
  140.5315  144.0723  150.6055 LP  0  0  0  0  0  0  0  0  0  0  0  0  # atno 17343 bound_to 10162
  156.8180  130.9348  151.3642 LP  0  0  0  0  0  0  0  0  0  0  0  0  # atno 17370 bound_to 10713
  157.6488  130.8867  149.9592 LP  0  0  0  0  0  0  0  0  0  0  0  0  # atno 17371 bound_to 10713
  140.2628  134.8453  157.3774 LP  0  0  0  0  0  0  0  0  0  0  0  0  # atno 17394 bound_to 11000
  140.1595  134.4747  155.7904 LP  0  0  0  0  0  0  0  0  0  0  0  0  # atno 17395 bound_to 11000

$$$$
