AV-unprocessed.smi:1850|AV-procd|sdf|7522|dock5
  -GOLD-   22720 9233D 1   1.00000     0.00000
 Structure written by MMmdl.
 40 41  0  0  0  0  0  0  0  0  1 V2000
  151.3155  129.6357  154.7758 C   0  0  0  0  0  0  0  0  0  0  0  0
  150.7324  130.2908  156.0358 C   0  0  0  0  0  0  0  0  0  0  0  0
  150.5537  131.7377  155.8539 N   0  0  0  0  0  0  0  0  0  0  0  0
  149.7349  132.1471  154.7835 C   0  0  0  0  0  0  0  0  0  0  0  0
  149.4867  133.4480  154.5170 C   0  0  0  0  0  0  0  0  0  0  0  0
  148.6599  133.9211  153.4871 N   0  0  0  0  0  0  0  0  0  0  0  0
  147.5813  133.3396  152.9292 C   0  0  0  0  0  0  0  0  0  0  0  0
  147.1563  132.2132  153.1853 O   0  0  0  0  0  0  0  0  0  0  0  0
  147.0152  134.1510  152.0241 N   0  0  0  0  0  0  0  0  0  0  0  0
  145.8354  133.8335  151.2249 C   0  0  0  0  0  0  0  0  0  0  0  0
  144.6516  133.4551  152.1389 C   0  0  0  0  0  0  0  0  0  0  0  0
  143.4193  133.0371  151.3205 C   0  0  0  0  0  0  0  0  0  0  0  0
  143.7554  131.8940  150.3500 C   0  0  0  0  0  0  0  0  0  0  0  0
  144.9293  132.2721  149.4333 C   0  0  0  0  0  0  0  0  0  0  0  0
  146.1639  132.6868  150.2501 C   0  0  0  0  0  0  0  0  0  0  0  0
  150.0972  134.4230  155.3950 C   0  0  0  0  0  0  0  0  0  0  0  0
  150.8726  134.0422  156.4286 C   0  0  0  0  0  0  0  0  0  0  0  0
  151.1336  132.6290  156.7120 C   0  0  0  0  0  0  0  0  0  0  0  0
  151.8277  132.2707  157.6638 O   0  0  0  0  0  0  0  0  0  0  0  0
  151.4590  128.5657  154.9267 H   0  0  0  0  0  0  0  0  0  0  0  0
  152.2835  130.0670  154.5191 H   0  0  0  0  0  0  0  0  0  0  0  0
  150.6532  129.7636  153.9192 H   0  0  0  0  0  0  0  0  0  0  0  0
  149.7889  129.8099  156.3000 H   0  0  0  0  0  0  0  0  0  0  0  0
  151.3923  130.0988  156.8832 H   0  0  0  0  0  0  0  0  0  0  0  0
  149.3184  131.3225  154.2268 H   0  0  0  0  0  0  0  0  0  0  0  0
  148.9147  134.8278  153.1243 H   0  0  0  0  0  0  0  0  0  0  0  0
  147.4309  135.0590  151.8760 H   0  0  0  0  0  0  0  0  0  0  0  0
  145.5557  134.7069  150.6324 H   0  0  0  0  0  0  0  0  0  0  0  0
  144.9414  132.6350  152.7976 H   0  0  0  0  0  0  0  0  0  0  0  0
  144.3925  134.2939  152.7860 H   0  0  0  0  0  0  0  0  0  0  0  0
  142.6147  132.7323  151.9903 H   0  0  0  0  0  0  0  0  0  0  0  0
  143.0465  133.8950  150.7593 H   0  0  0  0  0  0  0  0  0  0  0  0
  144.0074  130.9962  150.9159 H   0  0  0  0  0  0  0  0  0  0  0  0
  142.8796  131.6460  149.7495 H   0  0  0  0  0  0  0  0  0  0  0  0
  145.1785  131.4333  148.7828 H   0  0  0  0  0  0  0  0  0  0  0  0
  144.6321  133.0927  148.7791 H   0  0  0  0  0  0  0  0  0  0  0  0
  146.9651  132.9889  149.5745 H   0  0  0  0  0  0  0  0  0  0  0  0
  146.5361  131.8238  150.8043 H   0  0  0  0  0  0  0  0  0  0  0  0
  149.9326  135.4767  155.2220 H   0  0  0  0  0  0  0  0  0  0  0  0
  151.3140  134.7954  157.0648 H   0  0  0  0  0  0  0  0  0  0  0  0
  1  2  1  0  0  0  0
  1 20  1  0  0  0  0
  1 21  1  0  0  0  0
  1 22  1  0  0  0  0
  2  3  1  0  0  0  0
  2 23  1  0  0  0  0
  2 24  1  0  0  0  0
  3 18  1  0  0  0  0
  3  4  1  0  0  0  0
  4  5  2  0  0  0  0
  4 25  1  0  0  0  0
  5  6  1  0  0  0  0
  5 16  1  0  0  0  0
  6  7  1  0  0  0  0
  6 26  1  0  0  0  0
  7  8  2  0  0  0  0
  7  9  1  0  0  0  0
  9 10  1  0  0  0  0
  9 27  1  0  0  0  0
 10 15  1  0  0  0  0
 10 11  1  0  0  0  0
 10 28  1  0  0  0  0
 11 12  1  0  0  0  0
 11 29  1  0  0  0  0
 11 30  1  0  0  0  0
 12 13  1  0  0  0  0
 12 31  1  0  0  0  0
 12 32  1  0  0  0  0
 13 14  1  0  0  0  0
 13 33  1  0  0  0  0
 13 34  1  0  0  0  0
 14 15  1  0  0  0  0
 14 35  1  0  0  0  0
 14 36  1  0  0  0  0
 15 37  1  0  0  0  0
 15 38  1  0  0  0  0
 16 17  2  0  0  0  0
 16 39  1  0  0  0  0
 17 18  1  0  0  0  0
 17 40  1  0  0  0  0
 18 19  2  0  0  0  0
M  END
> <s_m_source_file>
AV-unprocessed.smi

> <i_m_source_file_index>
1850

> <i_lp_mmshare_version>
43012

> <i_f3d_flags>
0

> <s_epik_input>
W0NIM11bQ0gyXW4xW2NIXWMoW2NIXVtjSF1jMT1PKVtOSF1DKD1PKVtOSF1bQ0hdMltDSDJdW0NIMl1bQ0gyXVtDSDJdW0NIMl0y

> <s_epik_cmdline>
J2VwaWtfcHl0aG9uJywgJy1waCcsICc3LjAnLCAnLXRuJywgJzgnLCAnLW1hJywgJzIwMCcsICctbWV0YWxfYmluZGluZycsICctaW1hZScsICc8aW5maWxlLm1hZT4nLCAnLW9tYWUnLCAnPG91dGZpbGUubWFlPic=

> <r_lp_tautomer_probability>
1

> <r_epik_Ionization_Penalty>
2.61962e-05

> <r_epik_Ionization_Penalty_Charging>
4.78076e-06

> <r_epik_Ionization_Penalty_Neutral>
2.14155e-05

> <r_epik_State_Penalty>
-0

> <r_epik_Charging_Adjusted_Penalty>
4.78076e-06

> <i_epik_Tot_Q>
0

> <i_epik_Tot_abs_Q>
0

> <r_epik_Metal_State_Penalty>
-0

> <b_epik_Metal_Only>
0

> <s_lp_Force_Field>
OPLS_2005

> <r_lp_Energy>
22.0322

> <b_lp_Chiralities_Consistent>
1

> <s_lp_Variant>
AV-unprocessed.smi:1850-1

> <Gold.Version>
5.8.1

> <Gold.Id.Protein>
6NUR|6NUR_protein|mol2

> <Gold.PLP.Fitness>
46.3804

> <Gold.PLP.PLP>
-38.2875

> <Gold.PLP.part.hbond>
-3.0000

> <Gold.PLP.part.metal>
0.0000

> <Gold.PLP.part.buried>
-4.8226

> <Gold.PLP.part.nonpolar>
-31.1519

> <Gold.PLP.part.repulsive>
0.1321

> <Gold.PLP.ligand.clash>
0.0000

> <Gold.PLP.ligand.torsion>
0.2311

> <Gold.PLP.Chemscore.Hbond>
2.8500

> <Gold.PLP.Chemscore.CHOScore>
0.0000

> <Gold.PLP.Chemscore.Metal>
0.0000

> <Gold.Chemscore.Hbonds>
donor molecule, donor type, donor heavy atom, donor atom, acceptor molecule, acceptor atom, score
      L1  H     6    26       P1  7948  0.85
      L1  H     9    27       P1  7948  1.00
      P1  H  6896  6907       L1    19  1.00

> <Gold.PLP.Chemscore.Internal.Correction>
0.0050

> <Gold.Rescore>
     Score         DG    S(hbond)    S(metal)    S(lipo)     H(rot)  DE(clash)    DE(int)     intcor
     17.22     -19.42       2.20        0.00      81.91       1.17       0.03       2.17       ----

> <Gold.Chemscore.Fitness>
17.2240

> <Gold.Chemscore.DG>
-19.4215

> <Gold.Chemscore.ZeroCoef>
-5.4800

> <Gold.Chemscore.Hbond>
2.1984

> <Gold.Chemscore.Metal>
0.0000

> <Gold.Chemscore.Lipo>
81.9123

> <Gold.Chemscore.Internal_Hbond>
0.0000

> <Gold.Chemscore.DEClash>
0.0276

> <Gold.Chemscore.DEInternal>
2.1700

> <Gold.Chemscore.Rot>
1.1660

> <Gold.Chemscore.Internal.Correction>
   9.000000E+99

> <Gold.Chemscore.Hbonds>
donor molecule, donor type, donor heavy atom, donor atom, acceptor molecule, acceptor atom, score
      L1  H     6    26       P1  7948  0.14
      L1  H     9    27       P1  7948  0.86
      P1  H  6896  6907       L1    19  0.94

> <Gold.Chemscore.Hbond.Weighted>
-7.3428

> <Gold.Chemscore.Metal.Weighted>
-0.0000

> <Gold.Chemscore.Lipo.Weighted>
-9.5837

> <Gold.Chemscore.Internal_Hbond.Weighted>
0.0000

> <Gold.Chemscore.DEClash.Weighted>
0.0276

> <Gold.Chemscore.DEInternal.Weighted>
2.1700

> <Gold.Chemscore.Rot.Weighted>
2.9850

> <Gold.Chemscore.Internal.Correction.Weighted>
   9.000000E+99

> <Gold.Protein.RotatedTorsions>
[ 6907 6896 6895 6894 ] final  168.05 input  -60.11 | X-H torsion
[ 7974 7965 7964 7962 ] final   59.45 input  175.53 | X-H torsion
[ 8008 7997 7996 7995 ] final    8.52 input   59.86 | X-H torsion
[ 10167 10162 10161 10158 ] final -129.52 input  -65.29 | X-H torsion
[ 10718 10713 10712 10709 ] final  -66.50 input   66.30 | X-H torsion
[ 10763 10752 10751 10750 ] final -122.15 input  -60.55 | X-H torsion
[ 11005 11000 10999 10996 ] final   70.29 input  -57.11 | X-H torsion

> <Gold.Protein.ActiveResidues>
 VAL166  LYS551  ARG553  GLY616  TRP617  ASP618  TYR619  PRO620  LYS621  CYS622 
 ASP623  PHE694  ASN695  SER759  ASP760  ASP761  ALA762  ILE779  LEU786  VAL792 
 PHE793  MET794  SER795  GLU796  ALA797  LYS798  CYS799  TRP800  GLU811  SER814 

> <Gold.Protein.RotatedAtoms>
  151.8537  133.3444  159.3681 H   0  0  0  0  0  0  0  0  0  0  0  0  # atno 6907 bound_to 6896
  150.7199  134.5274  159.5692 H   0  0  0  0  0  0  0  0  0  0  0  0  # atno 6908 bound_to 6896
  152.2773  134.7868  160.0454 H   0  0  0  0  0  0  0  0  0  0  0  0  # atno 6909 bound_to 6896
  145.9070  139.3625  143.0558 H   0  0  0  0  0  0  0  0  0  0  0  0  # atno 7974 bound_to 7965
  154.7679  140.2796  155.6161 H   0  0  0  0  0  0  0  0  0  0  0  0  # atno 8008 bound_to 7997
  156.2928  140.2647  156.2401 H   0  0  0  0  0  0  0  0  0  0  0  0  # atno 8009 bound_to 7997
  154.9937  140.0373  157.2320 H   0  0  0  0  0  0  0  0  0  0  0  0  # atno 8010 bound_to 7997
  139.9389  143.6185  152.2509 H   0  0  0  0  0  0  0  0  0  0  0  0  # atno 10167 bound_to 10162
  156.0609  130.4263  150.1718 H   0  0  0  0  0  0  0  0  0  0  0  0  # atno 10718 bound_to 10713
  154.8683  135.4143  154.2736 H   0  0  0  0  0  0  0  0  0  0  0  0  # atno 10763 bound_to 10752
  153.3641  135.7004  153.6694 H   0  0  0  0  0  0  0  0  0  0  0  0  # atno 10764 bound_to 10752
  153.5583  135.3615  155.2761 H   0  0  0  0  0  0  0  0  0  0  0  0  # atno 10765 bound_to 10752
  139.9606  134.7068  156.0656 H   0  0  0  0  0  0  0  0  0  0  0  0  # atno 11005 bound_to 11000
  145.8719  140.9414  143.0646 LP  0  0  0  0  0  0  0  0  0  0  0  0  # atno 17320 bound_to 7965
  144.6740  140.0666  143.7474 LP  0  0  0  0  0  0  0  0  0  0  0  0  # atno 17321 bound_to 7965
  139.6720  144.7660  151.1765 LP  0  0  0  0  0  0  0  0  0  0  0  0  # atno 17342 bound_to 10162
  140.7616  143.5850  150.8855 LP  0  0  0  0  0  0  0  0  0  0  0  0  # atno 17343 bound_to 10162
  156.9786  130.9857  151.3442 LP  0  0  0  0  0  0  0  0  0  0  0  0  # atno 17370 bound_to 10713
  157.5616  130.8250  149.8274 LP  0  0  0  0  0  0  0  0  0  0  0  0  # atno 17371 bound_to 10713
  141.1282  133.6593  156.3393 LP  0  0  0  0  0  0  0  0  0  0  0  0  # atno 17394 bound_to 11000
  140.5510  134.6028  157.5407 LP  0  0  0  0  0  0  0  0  0  0  0  0  # atno 17395 bound_to 11000

$$$$
