#       Name:                AV-unprocessed.smi:40
#       Creating user name   scv26
#       Creation time:       Thu Mar 26 16:20:41 2020


#       File generated by GOLD software.
#

@<TRIPOS>MOLECULE
AV-unprocessed.smi:40
    58    59     1
SMALL
NO_CHARGES


@<TRIPOS>ATOM
      1 ****        -7.0921   3.0922   1.3901 C.3            1 S1                 0.0000
      2 ****        -5.5805   2.8422   1.4229 C.3            1 S1                 0.0000
      3 ****        -5.2330   1.3811   1.7419 C.3            1 S1                 0.0000
      4 ****        -3.7203   1.1256   1.7642 C.3            1 S1                 0.0000
      5 ****        -3.3835  -0.3426   2.0640 C.3            1 S1                 0.0000
      6 ****        -1.9808  -0.5544   1.9928 O.3            1 S1                 0.0000
      7 ****        -1.1903  -0.3608   3.0701 C.2            1 S1                 0.0000
      8 ****        -1.6098  -0.0603   4.1874 O.2            1 S1                 0.0000
      9 ****         0.2116  -0.5835   2.7546 N.am           1 S1                 0.0000
     10 ****         1.2986  -0.4893   3.5597 C.2            1 S1                 0.0000
     11 ****         1.2350  -0.6588   4.8706 N.2            1 S1                 0.0000
     12 ****         2.3161  -0.5878   5.7064 C.2            1 S1                 0.0000
     13 ****         2.1724  -0.7023   6.9222 O.2            1 S1                 0.0000
     14 ****         3.5866  -0.3688   5.1204 N.am           1 S1                 0.0000
     15 ****         4.7939  -0.2521   6.0383 C.3            1 S1                 0.0000
     16 ****         5.9347   0.0181   5.2717 O.3            1 S1                 0.0000
     17 ****         6.8023  -1.1124   5.1997 C.3            1 S1                 0.0000
     18 ****         6.5054  -1.9676   3.9572 C.3            1 S1                 0.0000
     19 ****         6.5449  -1.8540   6.5094 C.3            1 S1                 0.0000
     20 ****         7.4221  -1.3390   7.4970 O.3            1 S1                 0.0000
     21 ****         5.0714  -1.5699   6.8008 C.3            1 S1                 0.0000
     22 ****         4.8259  -1.4800   8.1925 O.3            1 S1                 0.0000
     23 ****         3.6691  -0.1651   3.7478 C.2            1 S1                 0.0000
     24 ****         2.5832  -0.2301   2.9472 C.2            1 S1                 0.0000
     25 ****         2.6975  -0.0507   1.6197 F              1 S1                 0.0000
     26 ****         4.5744   0.6009   6.6828 H              1 S1                 0.0000
     27 ****         7.8351  -0.7673   5.1315 H              1 S1                 0.0000
     28 ****         6.7389  -2.9238   6.4221 H              1 S1                 0.0000
     29 ****         4.4642  -2.3699   6.3745 H              1 S1                 0.0000
     30 ****        -7.3089   4.1337   1.1518 H              1 S1                 0.0000
     31 ****        -7.5491   2.8687   2.3545 H              1 S1                 0.0000
     32 ****        -7.5766   2.4707   0.6365 H              1 S1                 0.0000
     33 ****        -5.1509   3.1185   0.4592 H              1 S1                 0.0000
     34 ****        -5.1233   3.4987   2.1642 H              1 S1                 0.0000
     35 ****        -5.6605   1.1074   2.7073 H              1 S1                 0.0000
     36 ****        -5.6980   0.7288   1.0015 H              1 S1                 0.0000
     37 ****        -3.2900   1.4030   0.8011 H              1 S1                 0.0000
     38 ****        -3.2528   1.7701   2.5096 H              1 S1                 0.0000
     39 ****        -3.7807  -0.6451   3.0341 H              1 S1                 0.0000
     40 ****        -3.8569  -0.9843   1.3207 H              1 S1                 0.0000
     41 ****         0.3809  -0.8294   1.7900 H              1 S1                 0.0000
     42 ****         7.1848  -2.8183   3.9025 H              1 S1                 0.0000
     43 ****         6.6343  -1.3859   3.0443 H              1 S1                 0.0000
     44 ****         5.4885  -2.3600   3.9660 H              1 S1                 0.0000
     45 ****         7.2525  -1.7910   8.3099 H              1 S1                 0.0000
     46 ****         5.3506  -0.7758   8.5420 H              1 S1                 0.0000
     47 ****         4.6125   0.0529   3.2720 H              1 S1                 0.0000
     48 ****        -2.5916   0.0548   4.3386 LP             1 S1                 0.0000
     49 ****        -0.9689   0.0688   4.9441 LP             1 S1                 0.0000
     50 ****         0.3410  -0.8508   5.2757 LP             1 S1                 0.0000
     51 ****         1.2608  -0.8483   7.3064 LP             1 S1                 0.0000
     52 ****         2.9672  -0.6493   7.5268 LP             1 S1                 0.0000
     53 ****         6.4305   0.7812   5.6863 LP             1 S1                 0.0000
     54 ****         5.6513   0.2686   4.3460 LP             1 S1                 0.0000
     55 ****         7.2604  -0.3592   7.6149 LP             1 S1                 0.0000
     56 ****         8.3706  -1.4891   7.2181 LP             1 S1                 0.0000
     57 ****         5.0764  -2.3405   8.6362 LP             1 S1                 0.0000
     58 ****         3.8571  -1.2917   8.3534 LP             1 S1                 0.0000
@<TRIPOS>BOND
    1    1    2 1     
    2    1   30 1     
    3    1   31 1     
    4    1   32 1     
    5    2    3 1     
    6    2   33 1     
    7    2   34 1     
    8    3    4 1     
    9    3   35 1     
   10    3   36 1     
   11    4    5 1     
   12    4   37 1     
   13    4   38 1     
   14    5    6 1     
   15    5   39 1     
   16    5   40 1     
   17    6    7 1     
   18    7    8 2     
   19    7    9 am    
   20    9   10 1     
   21    9   41 1     
   22   10   24 1     
   23   10   11 2     
   24   11   12 1     
   25   12   13 2     
   26   12   14 am    
   27   14   15 1     
   28   14   23 1     
   29   15   26 1     
   30   15   21 1     
   31   15   16 1     
   32   16   17 1     
   33   17   27 1     
   34   17   18 1     
   35   17   19 1     
   36   18   42 1     
   37   18   43 1     
   38   18   44 1     
   39   19   28 1     
   40   19   20 1     
   41   19   21 1     
   42   20   45 1     
   43   21   29 1     
   44   21   22 1     
   45   22   46 1     
   46   23   24 2     
   47   23   47 1     
   48   24   25 1     
   49    8   48 1     
   50    8   49 1     
   51   11   50 1     
   52   13   51 1     
   53   13   52 1     
   54   16   53 1     
   55   16   54 1     
   56   20   55 1     
   57   20   56 1     
   58   22   57 1     
   59   22   58 1     
@<TRIPOS>SUBSTRUCTURE
      1 S1             1
@<TRIPOS>SET
LONE_PAIRS      STATIC     ATOMS    <user>   **** ""
11 48 49 50 51 52 53 54 55 56 57 58
DONOR_HYDROGENS      STATIC     ATOMS    <user>   **** ""
3 41 45 46
ATOM$BLUE        STATIC     ATOMS    COLORGROUP SYSTEM
11 48 49 50 51 52 53 54 55 56 57 58
ATOM$RED        STATIC     ATOMS    COLORGROUP SYSTEM
3 41 45 46
