AV-unprocessed.smi:605|AV-procd|sdf|3039|dock6
  -GOLD-   2262023553D 1   1.00000     0.00000
 Structure written by MMmdl.
 35 36  0  0  0  0  0  0  0  0  1 V2000
  142.3337  142.3273  160.1937 C   0  0  0  0  0  0  0  0  0  0  0  0
  143.3532  143.0183  161.1113 C   0  0  0  0  0  0  0  0  0  0  0  0
  142.8739  144.3830  161.6263 C   0  0  0  0  0  0  0  0  0  0  0  0
  144.7123  143.0963  160.4882 C   0  0  0  0  0  0  0  0  0  0  0  0
  145.4121  142.0130  160.1260 N   0  0  0  0  0  0  0  0  0  0  0  0
  146.6387  142.3396  159.5676 N   0  0  0  0  0  0  0  0  0  0  0  0
  146.8376  143.6648  159.5278 C   0  0  0  0  0  0  0  0  0  0  0  0
  147.9997  144.2935  158.9927 N   0  0  0  0  0  0  0  0  0  0  0  0
  149.2795  144.3278  159.4223 C   0  0  0  0  0  0  0  0  0  0  0  0
  149.6169  143.7345  160.4452 O   0  0  0  0  0  0  0  0  0  0  0  0
  150.1412  145.0268  158.6652 N   0  0  0  0  0  0  0  0  0  0  0  0
  151.5688  145.2051  158.9188 C   0  0  0  0  0  0  0  0  0  0  0  0
  152.3575  143.9442  158.5125 C   0  0  0  0  0  0  0  0  0  0  0  0
  153.1908  143.5483  159.7339 C   0  0  0  0  0  0  0  0  0  0  0  0
  152.4002  144.0804  160.9249 C   0  0  0  0  0  0  0  0  0  0  0  0
  151.8235  145.4036  160.4234 C   0  0  0  0  0  0  0  0  0  0  0  0
  145.5139  144.6290  160.1607 S   0  0  0  0  0  0  0  0  0  0  0  0
  142.6659  141.3249  159.9224 H   0  0  0  0  0  0  0  0  0  0  0  0
  142.1841  142.8901  159.2716 H   0  0  0  0  0  0  0  0  0  0  0  0
  141.3646  142.2325  160.6840 H   0  0  0  0  0  0  0  0  0  0  0  0
  143.4546  142.3792  161.9894 H   0  0  0  0  0  0  0  0  0  0  0  0
  143.5819  144.8025  162.3418 H   0  0  0  0  0  0  0  0  0  0  0  0
  141.9099  144.2965  162.1281 H   0  0  0  0  0  0  0  0  0  0  0  0
  142.7609  145.0980  160.8107 H   0  0  0  0  0  0  0  0  0  0  0  0
  147.8392  144.7915  158.1292 H   0  0  0  0  0  0  0  0  0  0  0  0
  149.7727  145.4799  157.8409 H   0  0  0  0  0  0  0  0  0  0  0  0
  151.9569  146.0709  158.3798 H   0  0  0  0  0  0  0  0  0  0  0  0
  151.6790  143.1267  158.2622 H   0  0  0  0  0  0  0  0  0  0  0  0
  152.9839  144.1186  157.6372 H   0  0  0  0  0  0  0  0  0  0  0  0
  153.3657  142.4735  159.7921 H   0  0  0  0  0  0  0  0  0  0  0  0
  154.1626  144.0417  159.6911 H   0  0  0  0  0  0  0  0  0  0  0  0
  151.5885  143.3925  161.1655 H   0  0  0  0  0  0  0  0  0  0  0  0
  153.0135  144.2006  161.8183 H   0  0  0  0  0  0  0  0  0  0  0  0
  152.5658  146.1911  160.5606 H   0  0  0  0  0  0  0  0  0  0  0  0
  150.9337  145.7043  160.9785 H   0  0  0  0  0  0  0  0  0  0  0  0
  1  2  1  0  0  0  0
  1 18  1  0  0  0  0
  1 19  1  0  0  0  0
  1 20  1  0  0  0  0
  2  3  1  0  0  0  0
  2  4  1  0  0  0  0
  2 21  1  0  0  0  0
  3 22  1  0  0  0  0
  3 23  1  0  0  0  0
  3 24  1  0  0  0  0
  4 17  1  0  0  0  0
  4  5  2  0  0  0  0
  5  6  1  0  0  0  0
  6  7  2  0  0  0  0
  7  8  1  0  0  0  0
  7 17  1  0  0  0  0
  8  9  1  0  0  0  0
  8 25  1  0  0  0  0
  9 10  2  0  0  0  0
  9 11  1  0  0  0  0
 11 12  1  0  0  0  0
 11 26  1  0  0  0  0
 12 16  1  0  0  0  0
 12 13  1  0  0  0  0
 12 27  1  0  0  0  0
 13 14  1  0  0  0  0
 13 28  1  0  0  0  0
 13 29  1  0  0  0  0
 14 15  1  0  0  0  0
 14 30  1  0  0  0  0
 14 31  1  0  0  0  0
 15 16  1  0  0  0  0
 15 32  1  0  0  0  0
 15 33  1  0  0  0  0
 16 34  1  0  0  0  0
 16 35  1  0  0  0  0
M  END
> <s_m_source_file>
AV-unprocessed.smi

> <i_m_source_file_index>
605

> <i_lp_mmshare_version>
43012

> <i_f3d_flags>
0

> <s_epik_input>
W0NIM11bQ0hdKFtDSDNdKWMxbm5jKHMxKVtOSF1DKD1PKVtOSF1bQ0hdMltDSDJdW0NIMl1bQ0gyXVtDSDJdMg==

> <s_epik_cmdline>
J2VwaWtfcHl0aG9uJywgJy1waCcsICc3LjAnLCAnLXRuJywgJzgnLCAnLW1hJywgJzIwMCcsICctbWV0YWxfYmluZGluZycsICctaW1hZScsICc8aW5maWxlLm1hZT4nLCAnLW9tYWUnLCAnPG91dGZpbGUubWFlPic=

> <r_lp_tautomer_probability>
1

> <r_epik_Ionization_Penalty>
0.000375049

> <r_epik_Ionization_Penalty_Charging>
0

> <r_epik_Ionization_Penalty_Neutral>
0.000375049

> <r_epik_State_Penalty>
-0

> <r_epik_Charging_Adjusted_Penalty>
0

> <i_epik_Tot_Q>
0

> <i_epik_Tot_abs_Q>
0

> <r_epik_Metal_State_Penalty>
0.186879

> <b_epik_Metal_Only>
0

> <s_lp_Force_Field>
OPLS_2005

> <r_lp_Energy>
14.8416

> <b_lp_Chiralities_Consistent>
1

> <s_lp_Variant>
AV-unprocessed.smi:605-1

> <Gold.Version>
5.8.1

> <Gold.Id.Protein>
6NUR|6NUR_protein|mol2

> <Gold.PLP.Fitness>
40.9509

> <Gold.PLP.PLP>
-37.2393

> <Gold.PLP.part.hbond>
-4.7407

> <Gold.PLP.part.metal>
0.0000

> <Gold.PLP.part.buried>
-4.4025

> <Gold.PLP.part.nonpolar>
-29.0266

> <Gold.PLP.part.repulsive>
0.5054

> <Gold.PLP.ligand.clash>
0.0000

> <Gold.PLP.ligand.torsion>
0.9915

> <Gold.PLP.Chemscore.Hbond>
1.8713

> <Gold.PLP.Chemscore.CHOScore>
0.0000

> <Gold.PLP.Chemscore.Metal>
0.0000

> <Gold.Chemscore.Hbonds>
donor molecule, donor type, donor heavy atom, donor atom, acceptor molecule, acceptor atom, score
      L1  H     8    25       P1  8029  0.75
      L1  H    11    26       P1  8029  0.50
      P1  H  6933  6944       L1    10  0.26

> <Gold.PLP.Chemscore.Internal.Correction>
0.0810

> <Gold.Rescore>
     Score         DG    S(hbond)    S(metal)    S(lipo)     H(rot)  DE(clash)    DE(int)     intcor
     16.00     -19.26       1.82        0.00      92.04       1.20       0.07       3.19       ----

> <Gold.Chemscore.Fitness>
16.0025

> <Gold.Chemscore.DG>
-19.2567

> <Gold.Chemscore.ZeroCoef>
-5.4800

> <Gold.Chemscore.Hbond>
1.8183

> <Gold.Chemscore.Metal>
0.0000

> <Gold.Chemscore.Lipo>
92.0353

> <Gold.Chemscore.Internal_Hbond>
0.0000

> <Gold.Chemscore.DEClash>
0.0650

> <Gold.Chemscore.DEInternal>
3.1891

> <Gold.Chemscore.Rot>
1.1971

> <Gold.Chemscore.Internal.Correction>
   9.000000E+99

> <Gold.Chemscore.Hbonds>
donor molecule, donor type, donor heavy atom, donor atom, acceptor molecule, acceptor atom, score
      L1  H     8    25       P1  8029  0.60
      L1  H    11    26       P1  8029  0.06
      P1  H  6933  6944       L1    10  0.25

> <Gold.Chemscore.Hbond.Weighted>
-6.0732

> <Gold.Chemscore.Metal.Weighted>
-0.0000

> <Gold.Chemscore.Lipo.Weighted>
-10.7681

> <Gold.Chemscore.Internal_Hbond.Weighted>
0.0000

> <Gold.Chemscore.DEClash.Weighted>
0.0650

> <Gold.Chemscore.DEInternal.Weighted>
3.1891

> <Gold.Chemscore.Rot.Weighted>
3.0647

> <Gold.Chemscore.Internal.Correction.Weighted>
   9.000000E+99

> <Gold.Protein.RotatedTorsions>
[ 6907 6896 6895 6894 ] final  -32.81 input  -60.11 | X-H torsion
[ 7974 7965 7964 7962 ] final  118.11 input  175.53 | X-H torsion
[ 8008 7997 7996 7995 ] final  121.83 input   59.86 | X-H torsion
[ 10167 10162 10161 10158 ] final  -98.77 input  -65.29 | X-H torsion
[ 10718 10713 10712 10709 ] final  -58.04 input   66.30 | X-H torsion
[ 10763 10752 10751 10750 ] final   56.82 input  -60.55 | X-H torsion
[ 11005 11000 10999 10996 ] final  -73.70 input  -57.11 | X-H torsion

> <Gold.Protein.ActiveResidues>
 VAL166  LYS551  ARG553  GLY616  TRP617  ASP618  TYR619  PRO620  LYS621  CYS622 
 ASP623  PHE694  ASN695  SER759  ASP760  ASP761  ALA762  ILE779  LEU786  VAL792 
 PHE793  MET794  SER795  GLU796  ALA797  LYS798  CYS799  TRP800  GLU811  SER814 

> <Gold.Protein.RotatedAtoms>
  151.0738  134.9815  159.8321 H   0  0  0  0  0  0  0  0  0  0  0  0  # atno 6907 bound_to 6896
  152.5411  134.2266  159.8818 H   0  0  0  0  0  0  0  0  0  0  0  0  # atno 6908 bound_to 6896
  151.2292  133.4416  159.2637 H   0  0  0  0  0  0  0  0  0  0  0  0  # atno 6909 bound_to 6896
  145.1591  139.3165  143.4526 H   0  0  0  0  0  0  0  0  0  0  0  0  # atno 7974 bound_to 7965
  156.2703  140.2799  156.1370 H   0  0  0  0  0  0  0  0  0  0  0  0  # atno 8008 bound_to 7997
  155.0993  140.0389  157.2710 H   0  0  0  0  0  0  0  0  0  0  0  0  # atno 8009 bound_to 7997
  154.6827  140.2612  155.6897 H   0  0  0  0  0  0  0  0  0  0  0  0  # atno 8010 bound_to 7997
  140.2695  143.3354  152.0549 H   0  0  0  0  0  0  0  0  0  0  0  0  # atno 10167 bound_to 10162
  156.1165  130.4170  150.0522 H   0  0  0  0  0  0  0  0  0  0  0  0  # atno 10718 bound_to 10713
  152.9838  135.5663  154.5291 H   0  0  0  0  0  0  0  0  0  0  0  0  # atno 10763 bound_to 10752
  154.4766  135.2787  155.1605 H   0  0  0  0  0  0  0  0  0  0  0  0  # atno 10764 bound_to 10752
  154.3131  135.6284  153.5527 H   0  0  0  0  0  0  0  0  0  0  0  0  # atno 10765 bound_to 10752
  141.1626  133.6887  156.7251 H   0  0  0  0  0  0  0  0  0  0  0  0  # atno 11005 bound_to 11000
  146.3485  140.1695  142.8590 LP  0  0  0  0  0  0  0  0  0  0  0  0  # atno 17320 bound_to 7965
  145.0350  140.8900  143.5087 LP  0  0  0  0  0  0  0  0  0  0  0  0  # atno 17321 bound_to 7965
  139.4993  144.6666  151.6342 LP  0  0  0  0  0  0  0  0  0  0  0  0  # atno 17342 bound_to 10162
  140.5901  143.9794  150.6319 LP  0  0  0  0  0  0  0  0  0  0  0  0  # atno 17343 bound_to 10162
  156.8472  130.9446  151.3628 LP  0  0  0  0  0  0  0  0  0  0  0  0  # atno 17370 bound_to 10713
  157.6348  130.8758  149.9340 LP  0  0  0  0  0  0  0  0  0  0  0  0  # atno 17371 bound_to 10713
  140.2786  134.8334  157.3913 LP  0  0  0  0  0  0  0  0  0  0  0  0  # atno 17394 bound_to 11000
  140.1454  134.4918  155.8000 LP  0  0  0  0  0  0  0  0  0  0  0  0  # atno 17395 bound_to 11000

$$$$
