#       Name:                AV-unprocessed.smi:1514
#       Creating user name   scv26
#       Creation time:       Fri Mar 27 06:24:59 2020


#       File generated by GOLD software.
#

@<TRIPOS>MOLECULE
AV-unprocessed.smi:1514
    52    53     1
SMALL
NO_CHARGES


@<TRIPOS>ATOM
      1 ****        -3.4252   4.6527  -2.6737 C.3            1 S1                 0.0000
      2 ****        -3.7104   3.4505  -1.7620 C.3            1 S1                 0.0000
      3 ****        -3.4614   3.7594  -0.3519 N.3            1 S1                 0.0000
      4 ****        -4.0255   2.7513   0.5486 C.3            1 S1                 0.0000
      5 ****        -3.2449   1.4211   0.4916 C.3            1 S1                 0.0000
      6 ****        -1.8176   1.6369   0.8312 N.4            1 S1                 1.0000
      7 ****        -1.0466   0.3695   0.8637 C.3            1 S1                 0.0000
      8 ****         0.2508   0.4899   1.6865 C.3            1 S1                 0.0000
      9 ****         0.9731  -0.7761   1.7368 N.am           1 S1                 0.0000
     10 ****         1.7164  -1.2728   0.7373 C.2            1 S1                 0.0000
     11 ****         1.8563  -0.7033  -0.3453 O.2            1 S1                 0.0000
     12 ****         2.2683  -2.4504   1.0787 N.am           1 S1                 0.0000
     13 ****         3.0748  -3.2567   0.3384 C.2            1 S1                 0.0000
     14 ****         3.5360  -3.0764  -0.9370 C.2            1 S1                 0.0000
     15 ****         4.3231  -4.2447  -1.1538 C.2            1 S1                 0.0000
     16 ****         5.0935  -4.6241  -2.3839 C.3            1 S1                 0.0000
     17 ****         4.3348  -5.0573  -0.1030 N.2            1 S1                 0.0000
     18 ****         3.5635  -4.4493   0.8240 N.pl3          1 S1                 0.0000
     19 ****         3.3559  -5.0716   2.1172 C.3            1 S1                 0.0000
     20 ****        -1.2318   2.6653  -0.0655 C.3            1 S1                 0.0000
     21 ****        -2.0526   3.9707  -0.0022 C.3            1 S1                 0.0000
     22 ****        -3.7433   4.4391  -3.6941 H              1 S1                 0.0000
     23 ****        -2.3638   4.8952  -2.7136 H              1 S1                 0.0000
     24 ****        -3.9647   5.5398  -2.3401 H              1 S1                 0.0000
     25 ****        -4.7630   3.1875  -1.8745 H              1 S1                 0.0000
     26 ****        -3.1396   2.5838  -2.0930 H              1 S1                 0.0000
     27 ****        -4.0056   3.1427   1.5667 H              1 S1                 0.0000
     28 ****        -5.0759   2.5862   0.3057 H              1 S1                 0.0000
     29 ****        -3.6849   0.7235   1.2051 H              1 S1                 0.0000
     30 ****        -3.3306   0.9555  -0.4912 H              1 S1                 0.0000
     31 ****        -1.6613  -0.4108   1.3153 H              1 S1                 0.0000
     32 ****        -0.8389   0.0446  -0.1571 H              1 S1                 0.0000
     33 ****         0.9110   1.2588   1.2841 H              1 S1                 0.0000
     34 ****         0.0162   0.7870   2.7090 H              1 S1                 0.0000
     35 ****         0.9117  -1.3050   2.5949 H              1 S1                 0.0000
     36 ****         2.0596  -2.7886   2.0065 H              1 S1                 0.0000
     37 ****         3.3554  -2.2579  -1.6171 H              1 S1                 0.0000
     38 ****         5.1020  -3.8108  -3.1097 H              1 S1                 0.0000
     39 ****         4.6532  -5.4962  -2.8678 H              1 S1                 0.0000
     40 ****         6.1295  -4.8628  -2.1421 H              1 S1                 0.0000
     41 ****         2.2915  -5.2498   2.2711 H              1 S1                 0.0000
     42 ****         3.7257  -4.4137   2.9039 H              1 S1                 0.0000
     43 ****         3.8853  -6.0237   2.1754 H              1 S1                 0.0000
     44 ****        -0.2093   2.8859   0.2386 H              1 S1                 0.0000
     45 ****        -1.1734   2.2868  -1.0867 H              1 S1                 0.0000
     46 ****        -1.6078   4.7301  -0.6440 H              1 S1                 0.0000
     47 ****        -2.0080   4.3746   1.0101 H              1 S1                 0.0000
     48 ****        -1.8029   2.0147   1.7677 H              1 S1                 0.0000
     49 ****        -3.9305   4.6334  -0.2252 LP             1 S1                 0.0000
     50 ****         1.4040   0.1729  -0.5114 LP             1 S1                 0.0000
     51 ****         2.4223  -1.1170  -1.0584 LP             1 S1                 0.0000
     52 ****         4.8123  -5.9317  -0.0168 LP             1 S1                 0.0000
@<TRIPOS>BOND
    1    1    2 1     
    2    1   22 1     
    3    1   23 1     
    4    1   24 1     
    5    2    3 1     
    6    2   25 1     
    7    2   26 1     
    8    3   21 1     
    9    3    4 1     
   10    4    5 1     
   11    4   27 1     
   12    4   28 1     
   13    5    6 1     
   14    5   29 1     
   15    5   30 1     
   16    6    7 1     
   17    6   20 1     
   18    6   48 1     
   19    7    8 1     
   20    7   31 1     
   21    7   32 1     
   22    8    9 1     
   23    8   33 1     
   24    8   34 1     
   25    9   10 am    
   26    9   35 1     
   27   10   11 2     
   28   10   12 am    
   29   12   13 1     
   30   12   36 1     
   31   13   18 1     
   32   13   14 2     
   33   14   15 1     
   34   14   37 1     
   35   15   16 1     
   36   15   17 2     
   37   16   38 1     
   38   16   39 1     
   39   16   40 1     
   40   17   18 1     
   41   18   19 1     
   42   19   41 1     
   43   19   42 1     
   44   19   43 1     
   45   20   21 1     
   46   20   44 1     
   47   20   45 1     
   48   21   46 1     
   49   21   47 1     
   50    3   49 1     
   51   11   50 1     
   52   11   51 1     
   53   17   52 1     
@<TRIPOS>SUBSTRUCTURE
      1 S1             1
@<TRIPOS>SET
LONE_PAIRS      STATIC     ATOMS    <user>   **** ""
4 49 50 51 52
DONOR_HYDROGENS      STATIC     ATOMS    <user>   **** ""
3 48 35 36
ATOM$BLUE        STATIC     ATOMS    COLORGROUP SYSTEM
4 49 50 51 52
ATOM$RED        STATIC     ATOMS    COLORGROUP SYSTEM
3 48 35 36
