AV-unprocessed.smi:1198|AV-procd|sdf|5011|dock9
  -GOLD-   22720 4 23D 1   1.00000     0.00000
 Structure written by MMmdl.
 40 41  0  0  0  0  0  0  0  0  2 V2000
  150.5000  142.3233  157.5109 C   0  0  0  0  0  0  0  0  0  0  0  0
  151.1181  141.7638  156.3572 O   0  0  0  0  0  0  0  0  0  0  0  0
  150.3971  140.8639  155.5996 C   0  0  0  0  0  0  0  0  0  0  0  0
  148.9943  140.9832  155.5646 C   0  0  0  0  0  0  0  0  0  0  0  0
  148.2559  140.0676  154.7917 C   0  0  0  0  0  0  0  0  0  0  0  0
  148.9348  139.0612  154.0752 C   0  0  0  0  0  0  0  0  0  0  0  0
  148.1462  138.1561  153.3112 N   0  0  0  0  0  0  0  0  0  0  0  0
  146.8140  137.9748  153.3059 C   0  0  0  0  0  0  0  0  0  0  0  0
  146.0020  138.5927  153.9930 O   0  0  0  0  0  0  0  0  0  0  0  0
  146.4637  137.0059  152.4475 N   0  0  0  0  0  0  0  0  0  0  0  0
  145.0985  136.5570  152.1887 C   0  0  0  0  0  0  0  0  0  0  0  0
  145.0502  135.0984  151.6933 C   0  0  1  0  0  0  0  0  0  0  0  0
  144.2598  134.1312  152.5754 C   0  0  0  0  0  0  0  0  0  0  0  0
  143.9634  132.9766  151.6236 C   0  0  0  0  0  0  0  0  0  0  0  0
  143.7310  133.6081  150.3076 N   0  3  2  0  0  0  0  0  0  0  0  0
  144.0892  132.7556  149.1546 C   0  0  0  0  0  0  0  0  0  0  0  0
  144.3864  134.9376  150.3171 C   0  0  0  0  0  0  0  0  0  0  0  0
  150.3477  139.0224  154.1801 C   0  0  0  0  0  0  0  0  0  0  0  0
  151.0616  139.8982  154.9190 N   0  0  0  0  0  0  0  0  0  0  0  0
  151.1951  143.0086  157.9958 H   0  0  0  0  0  0  0  0  0  0  0  0
  150.2360  141.5520  158.2360 H   0  0  0  0  0  0  0  0  0  0  0  0
  149.6055  142.8904  157.2491 H   0  0  0  0  0  0  0  0  0  0  0  0
  148.4938  141.7623  156.1202 H   0  0  0  0  0  0  0  0  0  0  0  0
  147.1787  140.1412  154.7511 H   0  0  0  0  0  0  0  0  0  0  0  0
  148.6715  137.5502  152.6978 H   0  0  0  0  0  0  0  0  0  0  0  0
  147.1973  136.5499  151.9247 H   0  0  0  0  0  0  0  0  0  0  0  0
  144.4754  136.6831  153.0759 H   0  0  0  0  0  0  0  0  0  0  0  0
  144.6761  137.2127  151.4270 H   0  0  0  0  0  0  0  0  0  0  0  0
  146.0711  134.7202  151.6161 H   0  0  0  0  0  0  0  0  0  0  0  0
  144.8106  133.8142  153.4616 H   0  0  0  0  0  0  0  0  0  0  0  0
  143.3262  134.5913  152.9029 H   0  0  0  0  0  0  0  0  0  0  0  0
  144.8320  132.3176  151.5730 H   0  0  0  0  0  0  0  0  0  0  0  0
  143.1071  132.3803  151.9398 H   0  0  0  0  0  0  0  0  0  0  0  0
  145.1544  132.5210  149.1547 H   0  0  0  0  0  0  0  0  0  0  0  0
  143.8487  133.2603  148.2185 H   0  0  0  0  0  0  0  0  0  0  0  0
  143.5310  131.8193  149.1860 H   0  0  0  0  0  0  0  0  0  0  0  0
  143.6127  135.6911  150.1653 H   0  0  0  0  0  0  0  0  0  0  0  0
  145.1151  135.0517  149.5129 H   0  0  0  0  0  0  0  0  0  0  0  0
  150.9482  138.2818  153.6783 H   0  0  0  0  0  0  0  0  0  0  0  0
  142.7388  133.7885  150.2476 H   0  0  0  0  0  0  0  0  0  0  0  0
  1  2  1  0  0  0  0
  1 20  1  0  0  0  0
  1 21  1  0  0  0  0
  1 22  1  0  0  0  0
  2  3  1  0  0  0  0
  3 19  1  0  0  0  0
  3  4  2  0  0  0  0
  4  5  1  0  0  0  0
  4 23  1  0  0  0  0
  5  6  2  0  0  0  0
  5 24  1  0  0  0  0
  6  7  1  0  0  0  0
  6 18  1  0  0  0  0
  7  8  1  0  0  0  0
  7 25  1  0  0  0  0
  8  9  2  0  0  0  0
  8 10  1  0  0  0  0
 10 11  1  0  0  0  0
 10 26  1  0  0  0  0
 11 12  1  0  0  0  0
 11 27  1  0  0  0  0
 11 28  1  0  0  0  0
 12 17  1  0  0  0  0
 12 13  1  0  0  0  0
 12 29  1  0  0  0  0
 13 14  1  0  0  0  0
 13 30  1  0  0  0  0
 13 31  1  0  0  0  0
 14 15  1  0  0  0  0
 14 32  1  0  0  0  0
 14 33  1  0  0  0  0
 15 16  1  0  0  0  0
 15 17  1  0  0  0  0
 15 40  1  0  0  0  0
 16 34  1  0  0  0  0
 16 35  1  0  0  0  0
 16 36  1  0  0  0  0
 17 37  1  0  0  0  0
 17 38  1  0  0  0  0
 18 19  2  0  0  0  0
 18 39  1  0  0  0  0
M  CHG  1  15   1
M  END
> <s_m_source_file>
AV-unprocessed.smi

> <i_m_source_file_index>
1198

> <i_lp_mmshare_version>
43012

> <i_f3d_flags>
0

> <s_epik_input>
W0NIM11PYzFbY0hdW2NIXWMoW2NIXW4xKVtOSF1DKD1PKVtOSF1bQ0gyXVtDQEBIXTJbQ0gyXVtDSDJdTihbQ0gzXSlbQ0gyXTI=

> <s_epik_cmdline>
J2VwaWtfcHl0aG9uJywgJy1waCcsICc3LjAnLCAnLXRuJywgJzgnLCAnLW1hJywgJzIwMCcsICctbWV0YWxfYmluZGluZycsICctaW1hZScsICc8aW5maWxlLm1hZT4nLCAnLW9tYWUnLCAnPG91dGZpbGUubWFlPic=

> <r_lp_tautomer_probability>
1

> <r_epik_Ionization_Penalty>
0.00131396

> <r_epik_Ionization_Penalty_Charging>
0.0012301

> <r_epik_Ionization_Penalty_Neutral>
8.38549e-05

> <r_epik_State_Penalty>
0.00081314

> <r_epik_Charging_Adjusted_Penalty>
0.00204324

> <i_epik_Tot_Q>
1

> <i_epik_Tot_abs_Q>
1

> <r_epik_Metal_State_Penalty>
-0

> <b_epik_Metal_Only>
0

> <s_lp_Force_Field>
OPLS_2005

> <r_lp_Energy>
29.7758

> <b_lp_Chiralities_Consistent>
1

> <s_lp_Variant>
AV-unprocessed.smi:1198-2

> <Gold.Version>
5.8.1

> <Gold.Id.Protein>
6NUR|6NUR_protein|mol2

> <Gold.PLP.Fitness>
43.7764

> <Gold.PLP.PLP>
-32.4484

> <Gold.PLP.part.hbond>
-4.4761

> <Gold.PLP.part.metal>
0.0000

> <Gold.PLP.part.buried>
-2.7169

> <Gold.PLP.part.nonpolar>
-25.1223

> <Gold.PLP.part.repulsive>
0.3611

> <Gold.PLP.ligand.clash>
0.0000

> <Gold.PLP.ligand.torsion>
1.3306

> <Gold.PLP.Chemscore.Hbond>
4.6620

> <Gold.PLP.Chemscore.CHOScore>
0.0000

> <Gold.PLP.Chemscore.Metal>
0.0000

> <Gold.Chemscore.Hbonds>
donor molecule, donor type, donor heavy atom, donor atom, acceptor molecule, acceptor atom, score
      L1  H     7    25       P1  7948  1.00
      L1  H    10    26       P1  7948  0.91
      L1  H    15    40       P1 10186  2.00
      P1  H  7989  7998       L1    19  0.75

> <Gold.PLP.Chemscore.Internal.Correction>
0.0032

> <Gold.Rescore>
     Score         DG    S(hbond)    S(metal)    S(lipo)     H(rot)  DE(clash)    DE(int)     intcor
     16.66     -19.41       2.90        0.00      69.38       1.51       0.04       2.70       ----

> <Gold.Chemscore.Fitness>
16.6640

> <Gold.Chemscore.DG>
-19.4087

> <Gold.Chemscore.ZeroCoef>
-5.4800

> <Gold.Chemscore.Hbond>
2.9010

> <Gold.Chemscore.Metal>
0.0000

> <Gold.Chemscore.Lipo>
69.3792

> <Gold.Chemscore.Internal_Hbond>
0.0000

> <Gold.Chemscore.DEClash>
0.0417

> <Gold.Chemscore.DEInternal>
2.7029

> <Gold.Chemscore.Rot>
1.5149

> <Gold.Chemscore.Internal.Correction>
   9.000000E+99

> <Gold.Chemscore.Hbonds>
donor molecule, donor type, donor heavy atom, donor atom, acceptor molecule, acceptor atom, score
      L1  H     7    25       P1  7948  0.96
      L1  H    10    26       P1  7948  0.90
      L1  H    15    40       P1 10186  0.97
      P1  H  7989  7998       L1    19  0.02

> <Gold.Chemscore.Hbond.Weighted>
-9.6894

> <Gold.Chemscore.Metal.Weighted>
-0.0000

> <Gold.Chemscore.Lipo.Weighted>
-8.1174

> <Gold.Chemscore.Internal_Hbond.Weighted>
0.0000

> <Gold.Chemscore.DEClash.Weighted>
0.0417

> <Gold.Chemscore.DEInternal.Weighted>
2.7029

> <Gold.Chemscore.Rot.Weighted>
3.8781

> <Gold.Chemscore.Internal.Correction.Weighted>
   9.000000E+99

> <Gold.Protein.RotatedTorsions>
[ 6907 6896 6895 6894 ] final -120.05 input  -60.11 | X-H torsion
[ 7974 7965 7964 7962 ] final  -75.42 input  175.53 | X-H torsion
[ 8008 7997 7996 7995 ] final   31.14 input   59.86 | X-H torsion
[ 10167 10162 10161 10158 ] final  134.99 input  -65.29 | X-H torsion
[ 10718 10713 10712 10709 ] final  109.80 input   66.30 | X-H torsion
[ 10763 10752 10751 10750 ] final   83.50 input  -60.55 | X-H torsion
[ 11005 11000 10999 10996 ] final  160.00 input  -57.11 | X-H torsion

> <Gold.Protein.ActiveResidues>
 VAL166  LYS551  ARG553  GLY616  TRP617  ASP618  TYR619  PRO620  LYS621  CYS622 
 ASP623  PHE694  ASN695  SER759  ASP760  ASP761  ALA762  ILE779  LEU786  VAL792 
 PHE793  MET794  SER795  GLU796  ALA797  LYS798  CYS799  TRP800  GLU811  SER814 

> <Gold.Protein.RotatedAtoms>
  150.8358  133.8015  159.3079 H   0  0  0  0  0  0  0  0  0  0  0  0  # atno 6907 bound_to 6896
  151.5731  135.1060  160.0009 H   0  0  0  0  0  0  0  0  0  0  0  0  # atno 6908 bound_to 6896
  152.4431  133.7443  159.6715 H   0  0  0  0  0  0  0  0  0  0  0  0  # atno 6909 bound_to 6896
  145.6262  140.9350  143.1111 H   0  0  0  0  0  0  0  0  0  0  0  0  # atno 7974 bound_to 7965
  155.1016  140.3230  155.4545 H   0  0  0  0  0  0  0  0  0  0  0  0  # atno 8008 bound_to 7997
  156.2715  140.2060  156.6089 H   0  0  0  0  0  0  0  0  0  0  0  0  # atno 8009 bound_to 7997
  154.6824  140.0525  157.0267 H   0  0  0  0  0  0  0  0  0  0  0  0  # atno 8010 bound_to 7997
  139.5234  144.6539  151.5219 H   0  0  0  0  0  0  0  0  0  0  0  0  # atno 10167 bound_to 10162
  157.6524  131.0920  150.6507 H   0  0  0  0  0  0  0  0  0  0  0  0  # atno 10718 bound_to 10713
  153.1297  135.4689  154.9329 H   0  0  0  0  0  0  0  0  0  0  0  0  # atno 10763 bound_to 10752
  154.7652  135.3143  154.8301 H   0  0  0  0  0  0  0  0  0  0  0  0  # atno 10764 bound_to 10752
  153.8847  135.6891  153.4818 H   0  0  0  0  0  0  0  0  0  0  0  0  # atno 10765 bound_to 10752
  140.2017  134.8333  157.3025 H   0  0  0  0  0  0  0  0  0  0  0  0  # atno 11005 bound_to 11000
  144.7211  139.8027  143.7381 LP  0  0  0  0  0  0  0  0  0  0  0  0  # atno 17320 bound_to 7965
  146.1392  139.4445  143.0119 LP  0  0  0  0  0  0  0  0  0  0  0  0  # atno 17321 bound_to 7965
  140.6356  143.8990  150.6645 LP  0  0  0  0  0  0  0  0  0  0  0  0  # atno 17342 bound_to 10162
  140.2308  143.3737  152.1567 LP  0  0  0  0  0  0  0  0  0  0  0  0  # atno 17343 bound_to 10162
  156.6817  130.4569  149.5626 LP  0  0  0  0  0  0  0  0  0  0  0  0  # atno 17370 bound_to 10713
  156.1924  130.6568  151.1076 LP  0  0  0  0  0  0  0  0  0  0  0  0  # atno 17371 bound_to 10713
  140.2047  134.4211  155.7644 LP  0  0  0  0  0  0  0  0  0  0  0  0  # atno 17394 bound_to 11000
  141.2227  133.7089  156.8241 LP  0  0  0  0  0  0  0  0  0  0  0  0  # atno 17395 bound_to 11000

$$$$
