AV-unprocessed.smi:1406|AV-procd|sdf|5712|dock10
  -GOLD-   22720 5343D 1   1.00000     0.00000
 Structure written by MMmdl.
 41 43  0  0  0  0  0  0  0  0  2 V2000
  147.8899  127.6625  150.5646 C   0  0  0  0  0  0  0  0  0  0  0  0
  148.3155  127.9445  152.0201 C   0  0  1  0  0  0  0  0  0  0  0  0
  147.2935  128.8056  152.7889 C   0  0  0  0  0  0  0  0  0  0  0  0
  146.6632  128.3369  153.7376 O   0  0  0  0  0  0  0  0  0  0  0  0
  147.1149  130.0655  152.3577 N   0  0  0  0  0  0  0  0  0  0  0  0
  146.2003  131.0330  152.9562 C   0  0  1  0  0  0  0  0  0  0  0  0
  146.9003  132.3135  153.4295 C   0  0  0  0  0  0  0  0  0  0  0  0
  145.8545  133.4289  153.2547 C   0  0  0  0  0  0  0  0  0  0  0  0
  144.6563  132.7842  152.6716 N   0  3  1  0  0  0  0  0  0  0  0  0
  143.7530  133.6595  151.8813 C   0  0  0  0  0  0  0  0  0  0  0  0
  144.2771  133.9256  150.4602 C   0  0  0  0  0  0  0  0  0  0  0  0
  144.5833  132.6080  149.7408 C   0  0  0  0  0  0  0  0  0  0  0  0
  145.6033  131.8054  150.5549 C   0  0  0  0  0  0  0  0  0  0  0  0
  145.1088  131.5445  152.0012 C   0  0  1  0  0  0  0  0  0  0  0  0
  148.6178  126.7071  152.7332 N   0  0  0  0  0  0  0  0  0  0  0  0
  149.7279  126.3341  153.3740 C   0  0  0  0  0  0  0  0  0  0  0  0
  149.6421  125.1441  153.9514 N   0  0  0  0  0  0  0  0  0  0  0  0
  148.3627  124.8135  153.6042 C   0  0  0  0  0  0  0  0  0  0  0  0
  147.7018  125.7177  152.8815 N   0  0  0  0  0  0  0  0  0  0  0  0
  147.7627  128.5876  150.0014 H   0  0  0  0  0  0  0  0  0  0  0  0
  146.9489  127.1128  150.5162 H   0  0  0  0  0  0  0  0  0  0  0  0
  148.6453  127.0713  150.0462 H   0  0  0  0  0  0  0  0  0  0  0  0
  149.2385  128.5248  151.9835 H   0  0  0  0  0  0  0  0  0  0  0  0
  147.6658  130.3801  151.5720 H   0  0  0  0  0  0  0  0  0  0  0  0
  145.7177  130.5783  153.8243 H   0  0  0  0  0  0  0  0  0  0  0  0
  147.2422  132.2265  154.4615 H   0  0  0  0  0  0  0  0  0  0  0  0
  147.7739  132.5316  152.8130 H   0  0  0  0  0  0  0  0  0  0  0  0
  145.5991  133.9007  154.2041 H   0  0  0  0  0  0  0  0  0  0  0  0
  146.2435  134.2031  152.5926 H   0  0  0  0  0  0  0  0  0  0  0  0
  142.7824  133.1663  151.8173 H   0  0  0  0  0  0  0  0  0  0  0  0
  143.5885  134.5971  152.4134 H   0  0  0  0  0  0  0  0  0  0  0  0
  143.5396  134.4954  149.8941 H   0  0  0  0  0  0  0  0  0  0  0  0
  145.1757  134.5421  150.4992 H   0  0  0  0  0  0  0  0  0  0  0  0
  143.6680  132.0287  149.6130 H   0  0  0  0  0  0  0  0  0  0  0  0
  144.9722  132.8064  148.7415 H   0  0  0  0  0  0  0  0  0  0  0  0
  145.8062  130.8600  150.0509 H   0  0  0  0  0  0  0  0  0  0  0  0
  146.5477  132.3509  150.5712 H   0  0  0  0  0  0  0  0  0  0  0  0
  144.2760  130.8406  151.9651 H   0  0  0  0  0  0  0  0  0  0  0  0
  150.6149  126.9485  153.4254 H   0  0  0  0  0  0  0  0  0  0  0  0
  147.9023  123.8818  153.8987 H   0  0  0  0  0  0  0  0  0  0  0  0
  144.1194  132.4744  153.4693 H   0  0  0  0  0  0  0  0  0  0  0  0
  1  2  1  0  0  0  0
  1 20  1  0  0  0  0
  1 21  1  0  0  0  0
  1 22  1  0  0  0  0
  2  3  1  0  0  0  0
  2 15  1  0  0  0  0
  2 23  1  0  0  0  0
  3  4  2  0  0  0  0
  3  5  1  0  0  0  0
  5  6  1  0  0  0  0
  5 24  1  0  0  0  0
  6 14  1  0  0  0  0
  6  7  1  0  0  0  0
  6 25  1  0  0  0  0
  7  8  1  0  0  0  0
  7 26  1  0  0  0  0
  7 27  1  0  0  0  0
  8  9  1  0  0  0  0
  8 28  1  0  0  0  0
  8 29  1  0  0  0  0
  9 14  1  0  0  0  0
  9 10  1  0  0  0  0
  9 41  1  0  0  0  0
 10 11  1  0  0  0  0
 10 30  1  0  0  0  0
 10 31  1  0  0  0  0
 11 12  1  0  0  0  0
 11 32  1  0  0  0  0
 11 33  1  0  0  0  0
 12 13  1  0  0  0  0
 12 34  1  0  0  0  0
 12 35  1  0  0  0  0
 13 14  1  0  0  0  0
 13 36  1  0  0  0  0
 13 37  1  0  0  0  0
 14 38  1  0  0  0  0
 15 19  1  0  0  0  0
 15 16  1  0  0  0  0
 16 17  2  0  0  0  0
 16 39  1  0  0  0  0
 17 18  1  0  0  0  0
 18 19  2  0  0  0  0
 18 40  1  0  0  0  0
M  CHG  1   9   1
M  END
> <s_m_source_file>
AV-unprocessed.smi

> <i_m_source_file_index>
1406

> <i_lp_mmshare_version>
43012

> <i_f3d_flags>
0

> <s_epik_input>
bjFbY0hdbltjSF1uMVtDQEhdKFtDSDNdKUMoPU8pW05IXVtDQEhdKFtDSDJdW0NIMl0yKVtDQEBIXShOMjMpW0NIMl1bQ0gyXVtDSDJdW0NIMl0z

> <s_epik_cmdline>
J2VwaWtfcHl0aG9uJywgJy1waCcsICc3LjAnLCAnLXRuJywgJzgnLCAnLW1hJywgJzIwMCcsICctbWV0YWxfYmluZGluZycsICctaW1hZScsICc8aW5maWxlLm1hZT4nLCAnLW9tYWUnLCAnPG91dGZpbGUubWFlPic=

> <r_lp_tautomer_probability>
1

> <r_epik_Ionization_Penalty>
0.00197066

> <r_epik_Ionization_Penalty_Charging>
0.00196223

> <r_epik_Ionization_Penalty_Neutral>
8.43107e-06

> <r_epik_State_Penalty>
0.00133866

> <r_epik_Charging_Adjusted_Penalty>
0.00330089

> <i_epik_Tot_Q>
1

> <i_epik_Tot_abs_Q>
1

> <r_epik_Metal_State_Penalty>
-0

> <b_epik_Metal_Only>
0

> <s_lp_Force_Field>
OPLS_2005

> <r_lp_Energy>
42.4798

> <b_lp_Chiralities_Consistent>
1

> <s_lp_Variant>
AV-unprocessed.smi:1406-4

> <Gold.Version>
5.8.1

> <Gold.Id.Protein>
6NUR|6NUR_protein|mol2

> <Gold.PLP.Fitness>
41.7637

> <Gold.PLP.PLP>
-30.7292

> <Gold.PLP.part.hbond>
-2.9030

> <Gold.PLP.part.metal>
0.0000

> <Gold.PLP.part.buried>
-4.9010

> <Gold.PLP.part.nonpolar>
-23.9383

> <Gold.PLP.part.repulsive>
0.1226

> <Gold.PLP.ligand.clash>
0.0000

> <Gold.PLP.ligand.torsion>
0.2630

> <Gold.PLP.Chemscore.Hbond>
2.8200

> <Gold.PLP.Chemscore.CHOScore>
1.0000

> <Gold.PLP.Chemscore.Metal>
0.0000

> <Gold.Chemscore.Hbonds>
donor molecule, donor type, donor heavy atom, donor atom, acceptor molecule, acceptor atom, score
      L1  H     5    24       P1 10747  1.00
      L1  H     9    41       P1 10957  1.82
      L1  C    16    39       P1 10737  1.00

> <Gold.PLP.Chemscore.Internal.Correction>
0.1006

> <Gold.Rescore>
     Score         DG    S(hbond)    S(metal)    S(lipo)     H(rot)  DE(clash)    DE(int)     intcor
     12.15     -12.85       1.01        0.00      75.42       1.89       0.19       0.52       ----

> <Gold.Chemscore.Fitness>
12.1461

> <Gold.Chemscore.DG>
-12.8550

> <Gold.Chemscore.ZeroCoef>
-5.4800

> <Gold.Chemscore.Hbond>
1.0122

> <Gold.Chemscore.Metal>
0.0000

> <Gold.Chemscore.Lipo>
75.4165

> <Gold.Chemscore.Internal_Hbond>
0.0000

> <Gold.Chemscore.DEClash>
0.1853

> <Gold.Chemscore.DEInternal>
0.5237

> <Gold.Chemscore.Rot>
1.8865

> <Gold.Chemscore.Internal.Correction>
   9.000000E+99

> <Gold.Chemscore.Hbonds>
donor molecule, donor type, donor heavy atom, donor atom, acceptor molecule, acceptor atom, score
      L1  H     5    24       P1 10747  1.00
      L1  H     9    41       P1 10957  0.22

> <Gold.Chemscore.Hbond.Weighted>
-3.3808

> <Gold.Chemscore.Metal.Weighted>
-0.0000

> <Gold.Chemscore.Lipo.Weighted>
-8.8237

> <Gold.Chemscore.Internal_Hbond.Weighted>
0.0000

> <Gold.Chemscore.DEClash.Weighted>
0.1853

> <Gold.Chemscore.DEInternal.Weighted>
0.5237

> <Gold.Chemscore.Rot.Weighted>
4.8295

> <Gold.Chemscore.Internal.Correction.Weighted>
   9.000000E+99

> <Gold.Protein.RotatedTorsions>
[ 6907 6896 6895 6894 ] final  130.10 input  -60.11 | X-H torsion
[ 7974 7965 7964 7962 ] final  -65.89 input  175.53 | X-H torsion
[ 8008 7997 7996 7995 ] final -149.31 input   59.86 | X-H torsion
[ 10167 10162 10161 10158 ] final   30.47 input  -65.29 | X-H torsion
[ 10718 10713 10712 10709 ] final  -55.63 input   66.30 | X-H torsion
[ 10763 10752 10751 10750 ] final -175.00 input  -60.55 | X-H torsion
[ 11005 11000 10999 10996 ] final -136.89 input  -57.11 | X-H torsion

> <Gold.Protein.ActiveResidues>
 VAL166  LYS551  ARG553  GLY616  TRP617  ASP618  TYR619  PRO620  LYS621  CYS622 
 ASP623  PHE694  ASN695  SER759  ASP760  ASP761  ALA762  ILE779  LEU786  VAL792 
 PHE793  MET794  SER795  GLU796  ALA797  LYS798  CYS799  TRP800  GLU811  SER814 

> <Gold.Protein.RotatedAtoms>
  152.3559  133.6236  159.5978 H   0  0  0  0  0  0  0  0  0  0  0  0  # atno 6907 bound_to 6896
  150.7568  133.9501  159.3492 H   0  0  0  0  0  0  0  0  0  0  0  0  # atno 6908 bound_to 6896
  151.7346  135.0868  160.0357 H   0  0  0  0  0  0  0  0  0  0  0  0  # atno 6909 bound_to 6896
  145.7486  140.8919  143.0492 H   0  0  0  0  0  0  0  0  0  0  0  0  # atno 7974 bound_to 7965
  155.6055  140.0666  157.2721 H   0  0  0  0  0  0  0  0  0  0  0  0  # atno 8008 bound_to 7997
  154.4267  140.1810  156.1266 H   0  0  0  0  0  0  0  0  0  0  0  0  # atno 8009 bound_to 7997
  156.0125  140.3325  155.6959 H   0  0  0  0  0  0  0  0  0  0  0  0  # atno 8010 bound_to 7997
  140.4675  144.0813  150.6228 H   0  0  0  0  0  0  0  0  0  0  0  0  # atno 10167 bound_to 10162
  156.1353  130.4157  150.0197 H   0  0  0  0  0  0  0  0  0  0  0  0  # atno 10718 bound_to 10713
  154.5896  135.2844  155.0649 H   0  0  0  0  0  0  0  0  0  0  0  0  # atno 10763 bound_to 10752
  154.1954  135.6433  153.5075 H   0  0  0  0  0  0  0  0  0  0  0  0  # atno 10764 bound_to 10752
  153.0116  135.5456  154.6578 H   0  0  0  0  0  0  0  0  0  0  0  0  # atno 10765 bound_to 10752
  140.8762  134.1989  157.4620 H   0  0  0  0  0  0  0  0  0  0  0  0  # atno 11005 bound_to 11000
  144.6854  139.9560  143.7479 LP  0  0  0  0  0  0  0  0  0  0  0  0  # atno 17320 bound_to 7965
  146.0378  139.3394  143.0716 LP  0  0  0  0  0  0  0  0  0  0  0  0  # atno 17321 bound_to 7965
  140.4018  143.2700  151.9939 LP  0  0  0  0  0  0  0  0  0  0  0  0  # atno 17342 bound_to 10162
  139.4814  144.5991  151.7637 LP  0  0  0  0  0  0  0  0  0  0  0  0  # atno 17343 bound_to 10162
  156.8098  130.9320  151.3644 LP  0  0  0  0  0  0  0  0  0  0  0  0  # atno 17370 bound_to 10713
  157.6526  130.8897  149.9664 LP  0  0  0  0  0  0  0  0  0  0  0  0  # atno 17371 bound_to 10713
  139.8716  134.9797  156.5046 LP  0  0  0  0  0  0  0  0  0  0  0  0  # atno 17394 bound_to 11000
  140.8515  133.8128  155.9173 LP  0  0  0  0  0  0  0  0  0  0  0  0  # atno 17395 bound_to 11000

$$$$
