AV-unprocessed.smi:1464|AV-procd|sdf|5942|dock9
  -GOLD-   22720 6 23D 1   1.00000     0.00000
 Structure written by MMmdl.
 40 41  0  0  0  0  0  0  0  0  2 V2000
  153.1494  142.4724  162.7866 C   0  0  0  0  0  0  0  0  0  0  0  0
  152.5516  142.7953  161.4056 C   0  0  1  0  0  0  0  0  0  0  0  0
  152.3232  144.3161  161.2780 C   0  0  0  0  0  0  0  0  0  0  0  0
  151.7155  144.7000  159.9220 C   0  0  0  0  0  0  0  0  0  0  0  0
  152.5880  144.1889  158.7664 C   0  0  0  0  0  0  0  0  0  0  0  0
  152.8193  142.6675  158.8562 C   0  0  2  0  0  0  0  0  0  0  0  0
  151.5753  141.9416  158.6186 N   0  0  0  0  0  0  0  0  0  0  0  0
  151.3724  140.9516  157.7351 C   0  0  0  0  0  0  0  0  0  0  0  0
  152.2573  140.5177  156.9978 O   0  0  0  0  0  0  0  0  0  0  0  0
  149.9545  140.3583  157.6530 C   0  0  0  0  0  0  0  0  0  0  0  0
  149.1819  140.7984  156.4782 N   0  0  0  0  0  0  0  0  0  0  0  0
  147.9128  141.4399  156.8116 N   0  5  0  0  0  0  0  0  0  0  0  0
  147.1632  141.9824  155.8157 C   0  0  0  0  0  0  0  0  0  0  0  0
  146.1057  142.5725  156.0237 O   0  0  0  0  0  0  0  0  0  0  0  0
  147.6411  141.8488  154.4495 C   0  0  0  0  0  0  0  0  0  0  0  0
  148.8028  141.2265  154.1681 C   0  0  0  0  0  0  0  0  0  0  0  0
  149.6561  140.6622  155.2067 C   0  0  0  0  0  0  0  0  0  0  0  0
  150.7339  140.1217  154.9592 O   0  0  0  0  0  0  0  0  0  0  0  0
  153.4220  142.2687  160.2287 C   0  0  2  0  0  0  0  0  0  0  0  0
  153.6768  140.7490  160.3033 C   0  0  0  0  0  0  0  0  0  0  0  0
  154.1609  142.8675  162.8842 H   0  0  0  0  0  0  0  0  0  0  0  0
  153.1878  141.3989  162.9688 H   0  0  0  0  0  0  0  0  0  0  0  0
  152.5458  142.9058  163.5846 H   0  0  0  0  0  0  0  0  0  0  0  0
  151.5760  142.3088  161.3558 H   0  0  0  0  0  0  0  0  0  0  0  0
  151.6663  144.6621  162.0767 H   0  0  0  0  0  0  0  0  0  0  0  0
  153.2700  144.8417  161.4103 H   0  0  0  0  0  0  0  0  0  0  0  0
  150.7085  144.2886  159.8396 H   0  0  0  0  0  0  0  0  0  0  0  0
  151.6106  145.7830  159.8555 H   0  0  0  0  0  0  0  0  0  0  0  0
  152.1320  144.4504  157.8107 H   0  0  0  0  0  0  0  0  0  0  0  0
  153.5509  144.7005  158.7909 H   0  0  0  0  0  0  0  0  0  0  0  0
  153.5305  142.3845  158.0782 H   0  0  0  0  0  0  0  0  0  0  0  0
  150.7837  142.2128  159.1850 H   0  0  0  0  0  0  0  0  0  0  0  0
  150.0269  139.2696  157.6709 H   0  0  0  0  0  0  0  0  0  0  0  0
  149.4240  140.6280  158.5678 H   0  0  0  0  0  0  0  0  0  0  0  0
  147.0493  142.2538  153.6418 H   0  0  0  0  0  0  0  0  0  0  0  0
  149.1175  141.1481  153.1382 H   0  0  0  0  0  0  0  0  0  0  0  0
  154.3963  142.7546  160.2992 H   0  0  0  0  0  0  0  0  0  0  0  0
  152.7448  140.1862  160.3728 H   0  0  0  0  0  0  0  0  0  0  0  0
  154.2884  140.4856  161.1657 H   0  0  0  0  0  0  0  0  0  0  0  0
  154.2099  140.3984  159.4192 H   0  0  0  0  0  0  0  0  0  0  0  0
  1  2  1  0  0  0  0
  1 21  1  0  0  0  0
  1 22  1  0  0  0  0
  1 23  1  0  0  0  0
  2 19  1  0  0  0  0
  2  3  1  0  0  0  0
  2 24  1  0  0  0  0
  3  4  1  0  0  0  0
  3 25  1  0  0  0  0
  3 26  1  0  0  0  0
  4  5  1  0  0  0  0
  4 27  1  0  0  0  0
  4 28  1  0  0  0  0
  5  6  1  0  0  0  0
  5 29  1  0  0  0  0
  5 30  1  0  0  0  0
  6  7  1  0  0  0  0
  6 19  1  0  0  0  0
  6 31  1  0  0  0  0
  7  8  1  0  0  0  0
  7 32  1  0  0  0  0
  8  9  2  0  0  0  0
  8 10  1  0  0  0  0
 10 33  1  0  0  0  0
 10 34  1  0  0  0  0
 10 11  1  0  0  0  0
 11 12  1  0  0  0  0
 11 17  1  0  0  0  0
 12 13  1  0  0  0  0
 13 14  2  0  0  0  0
 13 15  1  0  0  0  0
 15 35  1  0  0  0  0
 15 16  2  0  0  0  0
 16 36  1  0  0  0  0
 16 17  1  0  0  0  0
 17 18  2  0  0  0  0
 19 20  1  0  0  0  0
 19 37  1  0  0  0  0
 20 38  1  0  0  0  0
 20 39  1  0  0  0  0
 20 40  1  0  0  0  0
M  CHG  1  12  -1
M  END
> <s_m_source_file>
AV-unprocessed.smi

> <i_m_source_file_index>
1464

> <i_lp_mmshare_version>
43012

> <i_f3d_flags>
0

> <s_epik_input>
W0NIM11bQ0BASF0xW0NIMl1bQ0gyXVtDSDJdW0NASF0oW0NASF0xW0NIM10pW05IXUMoPU8pW0NIMl1uMltuSF1jKD1PKVtjSF1bY0hdYzI9Tw==

> <s_epik_cmdline>
J2VwaWtfcHl0aG9uJywgJy1waCcsICc3LjAnLCAnLXRuJywgJzgnLCAnLW1hJywgJzIwMCcsICctbWV0YWxfYmluZGluZycsICctaW1hZScsICc8aW5maWxlLm1hZT4nLCAnLW9tYWUnLCAnPG91dGZpbGUubWFlPic=

> <r_lp_tautomer_probability>
1

> <r_epik_Ionization_Penalty>
0.101366

> <r_epik_Ionization_Penalty_Charging>
0.101366

> <r_epik_Ionization_Penalty_Neutral>
1.90469e-08

> <r_epik_State_Penalty>
0.035861

> <r_epik_Charging_Adjusted_Penalty>
0.137227

> <i_epik_Tot_Q>
-1

> <i_epik_Tot_abs_Q>
1

> <r_epik_Metal_State_Penalty>
0.035861

> <b_epik_Metal_Only>
0

> <s_lp_Force_Field>
OPLS_2005

> <r_lp_Energy>
23.814

> <b_lp_Chiralities_Consistent>
1

> <s_lp_Variant>
AV-unprocessed.smi:1464-8

> <Gold.Version>
5.8.1

> <Gold.Id.Protein>
6NUR|6NUR_protein|mol2

> <Gold.PLP.Fitness>
50.8008

> <Gold.PLP.PLP>
-46.5028

> <Gold.PLP.part.hbond>
-2.0000

> <Gold.PLP.part.metal>
0.0000

> <Gold.PLP.part.buried>
-2.7058

> <Gold.PLP.part.nonpolar>
-41.0174

> <Gold.PLP.part.repulsive>
0.3645

> <Gold.PLP.ligand.clash>
0.0000

> <Gold.PLP.ligand.torsion>
0.3081

> <Gold.PLP.Chemscore.Hbond>
1.6339

> <Gold.PLP.Chemscore.CHOScore>
0.0000

> <Gold.PLP.Chemscore.Metal>
0.0000

> <Gold.Chemscore.Hbonds>
donor molecule, donor type, donor heavy atom, donor atom, acceptor molecule, acceptor atom, score
      P1  H  7989  7998       L1    18  1.00
      P1  H  7997  8010       L1     9  0.57

> <Gold.PLP.Chemscore.Internal.Correction>
0.0126

> <Gold.Rescore>
     Score         DG    S(hbond)    S(metal)    S(lipo)     H(rot)  DE(clash)    DE(int)     intcor
     17.41     -20.31       1.77        0.00     112.23       1.64       1.20       1.70       ----

> <Gold.Chemscore.Fitness>
17.4104

> <Gold.Chemscore.DG>
-20.3132

> <Gold.Chemscore.ZeroCoef>
-5.4800

> <Gold.Chemscore.Hbond>
1.7695

> <Gold.Chemscore.Metal>
0.0000

> <Gold.Chemscore.Lipo>
112.2327

> <Gold.Chemscore.Internal_Hbond>
0.0000

> <Gold.Chemscore.DEClash>
1.1988

> <Gold.Chemscore.DEInternal>
1.7041

> <Gold.Chemscore.Rot>
1.6438

> <Gold.Chemscore.Internal.Correction>
   9.000000E+99

> <Gold.Chemscore.Hbonds>
donor molecule, donor type, donor heavy atom, donor atom, acceptor molecule, acceptor atom, score
      P1  H  7989  7998       L1    18  0.88
      P1  H  7997  8010       L1     9  0.55

> <Gold.Chemscore.Hbond.Weighted>
-5.9100

> <Gold.Chemscore.Metal.Weighted>
-0.0000

> <Gold.Chemscore.Lipo.Weighted>
-13.1312

> <Gold.Chemscore.Internal_Hbond.Weighted>
0.0000

> <Gold.Chemscore.DEClash.Weighted>
1.1988

> <Gold.Chemscore.DEInternal.Weighted>
1.7041

> <Gold.Chemscore.Rot.Weighted>
4.2080

> <Gold.Chemscore.Internal.Correction.Weighted>
   9.000000E+99

> <Gold.Protein.RotatedTorsions>
[ 6907 6896 6895 6894 ] final  116.05 input  -60.11 | X-H torsion
[ 7974 7965 7964 7962 ] final -103.28 input  175.53 | X-H torsion
[ 8008 7997 7996 7995 ] final   68.65 input   59.86 | X-H torsion
[ 10167 10162 10161 10158 ] final   31.34 input  -65.29 | X-H torsion
[ 10718 10713 10712 10709 ] final -113.50 input   66.30 | X-H torsion
[ 10763 10752 10751 10750 ] final  176.25 input  -60.55 | X-H torsion
[ 11005 11000 10999 10996 ] final    4.50 input  -57.11 | X-H torsion

> <Gold.Protein.ActiveResidues>
 VAL166  LYS551  ARG553  GLY616  TRP617  ASP618  TYR619  PRO620  LYS621  CYS622 
 ASP623  PHE694  ASN695  SER759  ASP760  ASP761  ALA762  ILE779  LEU786  VAL792 
 PHE793  MET794  SER795  GLU796  ALA797  LYS798  CYS799  TRP800  GLU811  SER814 

> <Gold.Protein.RotatedAtoms>
  152.4703  133.8014  159.6954 H   0  0  0  0  0  0  0  0  0  0  0  0  # atno 6907 bound_to 6896
  150.8688  133.7525  159.2974 H   0  0  0  0  0  0  0  0  0  0  0  0  # atno 6908 bound_to 6896
  151.5067  135.1067  159.9895 H   0  0  0  0  0  0  0  0  0  0  0  0  # atno 6909 bound_to 6896
  145.2579  140.9259  143.3058 H   0  0  0  0  0  0  0  0  0  0  0  0  # atno 7974 bound_to 7965
  155.7116  140.3494  155.4976 H   0  0  0  0  0  0  0  0  0  0  0  0  # atno 8008 bound_to 7997
  155.9350  140.1091  157.1123 H   0  0  0  0  0  0  0  0  0  0  0  0  # atno 8009 bound_to 7997
  154.4092  140.1224  156.4839 H   0  0  0  0  0  0  0  0  0  0  0  0  # atno 8010 bound_to 7997
  140.4597  144.0925  150.6210 H   0  0  0  0  0  0  0  0  0  0  0  0  # atno 10167 bound_to 10162
  156.0770  130.5976  150.8650 H   0  0  0  0  0  0  0  0  0  0  0  0  # atno 10718 bound_to 10713
  154.4785  135.2774  155.1588 H   0  0  0  0  0  0  0  0  0  0  0  0  # atno 10763 bound_to 10752
  154.3308  135.6190  153.5554 H   0  0  0  0  0  0  0  0  0  0  0  0  # atno 10764 bound_to 10752
  152.9872  135.5765  154.5181 H   0  0  0  0  0  0  0  0  0  0  0  0  # atno 10765 bound_to 10752
  140.5812  134.0011  155.8048 H   0  0  0  0  0  0  0  0  0  0  0  0  # atno 11005 bound_to 11000
  144.9445  139.4152  143.6433 LP  0  0  0  0  0  0  0  0  0  0  0  0  # atno 17320 bound_to 7965
  146.3284  139.8421  142.8888 LP  0  0  0  0  0  0  0  0  0  0  0  0  # atno 17321 bound_to 7965
  140.4108  143.2658  151.9835 LP  0  0  0  0  0  0  0  0  0  0  0  0  # atno 17342 bound_to 10162
  139.4805  144.5917  151.7760 LP  0  0  0  0  0  0  0  0  0  0  0  0  # atno 17343 bound_to 10162
  157.5870  131.0945  150.9180 LP  0  0  0  0  0  0  0  0  0  0  0  0  # atno 17370 bound_to 10713
  156.9363  130.5368  149.5279 LP  0  0  0  0  0  0  0  0  0  0  0  0  # atno 17371 bound_to 10713
  141.0995  133.9790  157.3103 LP  0  0  0  0  0  0  0  0  0  0  0  0  # atno 17394 bound_to 11000
  139.9316  135.0199  156.8420 LP  0  0  0  0  0  0  0  0  0  0  0  0  # atno 17395 bound_to 11000

$$$$
