AV-unprocessed.smi:3348|AV-procd|sdf|12928|dock1
  -GOLD-   2272019353D 1   1.00000     0.00000
 Structure written by MMmdl.
 46 47  0  0  0  0  0  0  0  0  1 V2000
  147.0162  141.8992  155.2008 C   0  0  0  0  0  0  0  0  0  0  0  0
  148.2912  141.0797  155.4919 C   0  0  1  0  0  0  0  0  0  0  0  0
  148.7020  140.1988  154.2938 C   0  0  0  0  0  0  0  0  0  0  0  0
  149.9112  139.4335  154.5421 N   0  0  0  0  0  0  0  0  0  0  0  0
  150.0984  138.0723  154.4263 C   0  0  0  0  0  0  0  0  0  0  0  0
  151.3951  137.8099  154.7640 C   0  0  0  0  0  0  0  0  0  0  0  0
  151.9275  139.0910  155.0802 C   0  0  0  0  0  0  0  0  0  0  0  0
  151.0365  140.0604  154.9492 N   0  0  0  0  0  0  0  0  0  0  0  0
  149.4206  141.9398  155.8591 N   0  0  0  0  0  0  0  0  0  0  0  0
  149.7384  141.9960  157.2855 C   0  0  0  0  0  0  0  0  0  0  0  0
  151.0042  142.8231  157.5290 C   0  0  0  0  0  0  0  0  0  0  0  0
  151.5993  142.3902  158.7432 O   0  0  0  0  0  0  0  0  0  0  0  0
  152.8754  142.9597  159.0144 C   0  0  2  0  0  0  0  0  0  0  0  0
  153.7434  141.9633  159.8119 C   0  0  0  0  0  0  0  0  0  0  0  0
  153.1523  141.6825  161.2034 C   0  0  0  0  0  0  0  0  0  0  0  0
  152.9431  142.9837  161.9927 C   0  0  0  0  0  0  0  0  0  0  0  0
  152.0785  143.9821  161.2063 C   0  0  0  0  0  0  0  0  0  0  0  0
  152.6710  144.2673  159.8116 C   0  0  2  0  0  0  0  0  0  0  0  0
  151.8334  145.2926  159.0315 C   0  0  0  0  0  0  0  0  0  0  0  0
  146.1853  141.2560  154.9120 H   0  0  0  0  0  0  0  0  0  0  0  0
  147.1794  142.6100  154.3901 H   0  0  0  0  0  0  0  0  0  0  0  0
  146.6789  142.4568  156.0736 H   0  0  0  0  0  0  0  0  0  0  0  0
  148.0758  140.4153  156.3298 H   0  0  0  0  0  0  0  0  0  0  0  0
  147.8946  139.5133  154.0306 H   0  0  0  0  0  0  0  0  0  0  0  0
  148.8784  140.8207  153.4150 H   0  0  0  0  0  0  0  0  0  0  0  0
  149.3021  137.4126  154.1146 H   0  0  0  0  0  0  0  0  0  0  0  0
  151.8881  136.8495  154.7830 H   0  0  0  0  0  0  0  0  0  0  0  0
  152.9278  139.3435  155.3998 H   0  0  0  0  0  0  0  0  0  0  0  0
  149.2591  142.8813  155.5150 H   0  0  0  0  0  0  0  0  0  0  0  0
  148.9188  142.4274  157.8591 H   0  0  0  0  0  0  0  0  0  0  0  0
  149.8921  140.9848  157.6638 H   0  0  0  0  0  0  0  0  0  0  0  0
  151.6947  142.6714  156.6996 H   0  0  0  0  0  0  0  0  0  0  0  0
  150.7700  143.8884  157.5681 H   0  0  0  0  0  0  0  0  0  0  0  0
  153.3767  143.2068  158.0769 H   0  0  0  0  0  0  0  0  0  0  0  0
  153.8646  141.0288  159.2650 H   0  0  0  0  0  0  0  0  0  0  0  0
  154.7467  142.3751  159.9264 H   0  0  0  0  0  0  0  0  0  0  0  0
  152.1999  141.1613  161.0984 H   0  0  0  0  0  0  0  0  0  0  0  0
  153.8099  141.0131  161.7583 H   0  0  0  0  0  0  0  0  0  0  0  0
  152.4766  142.7648  162.9538 H   0  0  0  0  0  0  0  0  0  0  0  0
  153.9107  143.4351  162.2152 H   0  0  0  0  0  0  0  0  0  0  0  0
  151.0662  143.5879  161.1062 H   0  0  0  0  0  0  0  0  0  0  0  0
  151.9911  144.9109  161.7709 H   0  0  0  0  0  0  0  0  0  0  0  0
  153.6554  144.7133  159.9618 H   0  0  0  0  0  0  0  0  0  0  0  0
  150.8213  144.9289  158.8522 H   0  0  0  0  0  0  0  0  0  0  0  0
  152.2841  145.5120  158.0632 H   0  0  0  0  0  0  0  0  0  0  0  0
  151.7555  146.2322  159.5789 H   0  0  0  0  0  0  0  0  0  0  0  0
  1  2  1  0  0  0  0
  1 20  1  0  0  0  0
  1 21  1  0  0  0  0
  1 22  1  0  0  0  0
  2  3  1  0  0  0  0
  2  9  1  0  0  0  0
  2 23  1  0  0  0  0
  3  4  1  0  0  0  0
  3 24  1  0  0  0  0
  3 25  1  0  0  0  0
  4  8  1  0  0  0  0
  4  5  1  0  0  0  0
  5  6  2  0  0  0  0
  5 26  1  0  0  0  0
  6  7  1  0  0  0  0
  6 27  1  0  0  0  0
  7  8  2  0  0  0  0
  7 28  1  0  0  0  0
  9 10  1  0  0  0  0
  9 29  1  0  0  0  0
 10 11  1  0  0  0  0
 10 30  1  0  0  0  0
 10 31  1  0  0  0  0
 11 12  1  0  0  0  0
 11 32  1  0  0  0  0
 11 33  1  0  0  0  0
 12 13  1  0  0  0  0
 13 18  1  0  0  0  0
 13 14  1  0  0  0  0
 13 34  1  0  0  0  0
 14 15  1  0  0  0  0
 14 35  1  0  0  0  0
 14 36  1  0  0  0  0
 15 16  1  0  0  0  0
 15 37  1  0  0  0  0
 15 38  1  0  0  0  0
 16 17  1  0  0  0  0
 16 39  1  0  0  0  0
 16 40  1  0  0  0  0
 17 18  1  0  0  0  0
 17 41  1  0  0  0  0
 17 42  1  0  0  0  0
 18 19  1  0  0  0  0
 18 43  1  0  0  0  0
 19 44  1  0  0  0  0
 19 45  1  0  0  0  0
 19 46  1  0  0  0  0
M  END
> <s_m_source_file>
AV-unprocessed.smi

> <i_m_source_file_index>
3348

> <i_lp_mmshare_version>
43012

> <i_f3d_flags>
0

> <s_epik_input>
bjFbY0hdW2NIXVtjSF1uMVtDSDJdW0NAQEhdKFtDSDNdKVtOSF1bQ0gyXVtDSDJdT1tDQEBIXTJbQ0gyXVtDSDJdW0NIMl1bQ0gyXVtDQEhdMltDSDNd

> <s_epik_cmdline>
J2VwaWtfcHl0aG9uJywgJy1waCcsICc3LjAnLCAnLXRuJywgJzgnLCAnLW1hJywgJzIwMCcsICctbWV0YWxfYmluZGluZycsICctaW1hZScsICc8aW5maWxlLm1hZT4nLCAnLW9tYWUnLCAnPG91dGZpbGUubWFlPic=

> <r_lp_tautomer_probability>
1

> <r_epik_Ionization_Penalty>
2.46945

> <r_epik_Ionization_Penalty_Charging>
0

> <r_epik_Ionization_Penalty_Neutral>
2.46945

> <r_epik_State_Penalty>
2.6322

> <r_epik_Charging_Adjusted_Penalty>
2.6322

> <i_epik_Tot_Q>
0

> <i_epik_Tot_abs_Q>
0

> <r_epik_Metal_State_Penalty>
2.63217

> <b_epik_Metal_Only>
0

> <s_lp_Force_Field>
OPLS_2005

> <r_lp_Energy>
17.7248

> <b_lp_Chiralities_Consistent>
1

> <s_lp_Variant>
AV-unprocessed.smi:3348-14

> <Gold.Version>
5.8.1

> <Gold.Id.Protein>
6NUR|6NUR_protein|mol2

> <Gold.PLP.Fitness>
58.2931

> <Gold.PLP.PLP>
-51.5321

> <Gold.PLP.part.hbond>
-2.0000

> <Gold.PLP.part.metal>
0.0000

> <Gold.PLP.part.buried>
-5.0882

> <Gold.PLP.part.nonpolar>
-45.2581

> <Gold.PLP.part.repulsive>
0.0725

> <Gold.PLP.ligand.clash>
0.0000

> <Gold.PLP.ligand.torsion>
1.2245

> <Gold.PLP.Chemscore.Hbond>
2.0000

> <Gold.PLP.Chemscore.CHOScore>
1.0000

> <Gold.PLP.Chemscore.Metal>
0.0000

> <Gold.Chemscore.Hbonds>
donor molecule, donor type, donor heavy atom, donor atom, acceptor molecule, acceptor atom, score
      L1  H     9    29       P1  8028  1.00
      P1  H  7989  7998       L1     8  1.00
      L1  C     5    26       P1  7948  0.93

> <Gold.PLP.Chemscore.Internal.Correction>
0.2100

> <Gold.Rescore>
     Score         DG    S(hbond)    S(metal)    S(lipo)     H(rot)  DE(clash)    DE(int)     intcor
     21.47     -22.98       1.87        0.00     134.04       1.72       0.00       1.51       ----

> <Gold.Chemscore.Fitness>
21.4686

> <Gold.Chemscore.DG>
-22.9797

> <Gold.Chemscore.ZeroCoef>
-5.4800

> <Gold.Chemscore.Hbond>
1.8652

> <Gold.Chemscore.Metal>
0.0000

> <Gold.Chemscore.Lipo>
134.0379

> <Gold.Chemscore.Internal_Hbond>
0.0000

> <Gold.Chemscore.DEClash>
0.0042

> <Gold.Chemscore.DEInternal>
1.5069

> <Gold.Chemscore.Rot>
1.7237

> <Gold.Chemscore.Internal.Correction>
   9.000000E+99

> <Gold.Chemscore.Hbonds>
donor molecule, donor type, donor heavy atom, donor atom, acceptor molecule, acceptor atom, score
      L1  H     9    29       P1  8028  0.98
      P1  H  7989  7998       L1     8  0.15

> <Gold.Chemscore.Hbond.Weighted>
-6.2299

> <Gold.Chemscore.Metal.Weighted>
-0.0000

> <Gold.Chemscore.Lipo.Weighted>
-15.6824

> <Gold.Chemscore.Internal_Hbond.Weighted>
0.0000

> <Gold.Chemscore.DEClash.Weighted>
0.0042

> <Gold.Chemscore.DEInternal.Weighted>
1.5069

> <Gold.Chemscore.Rot.Weighted>
4.4126

> <Gold.Chemscore.Internal.Correction.Weighted>
   9.000000E+99

> <Gold.Protein.RotatedTorsions>
[ 6907 6896 6895 6894 ] final   66.75 input  -60.11 | X-H torsion
[ 7974 7965 7964 7962 ] final  101.59 input  175.53 | X-H torsion
[ 8008 7997 7996 7995 ] final  115.21 input   59.86 | X-H torsion
[ 10167 10162 10161 10158 ] final -145.40 input  -65.29 | X-H torsion
[ 10718 10713 10712 10709 ] final  -50.06 input   66.30 | X-H torsion
[ 10763 10752 10751 10750 ] final   10.97 input  -60.55 | X-H torsion
[ 11005 11000 10999 10996 ] final -134.01 input  -57.11 | X-H torsion

> <Gold.Protein.ActiveResidues>
 VAL166  LYS551  ARG553  GLY616  TRP617  ASP618  TYR619  PRO620  LYS621  CYS622 
 ASP623  PHE694  ASN695  SER759  ASP760  ASP761  ALA762  ILE779  LEU786  VAL792 
 PHE793  MET794  SER795  GLU796  ALA797  LYS798  CYS799  TRP800  GLU811  SER814 

> <Gold.Protein.RotatedAtoms>
  152.4503  134.5407  159.9838 H   0  0  0  0  0  0  0  0  0  0  0  0  # atno 6907 bound_to 6896
  151.5482  133.3416  159.2956 H   0  0  0  0  0  0  0  0  0  0  0  0  # atno 6908 bound_to 6896
  150.8430  134.7761  159.7011 H   0  0  0  0  0  0  0  0  0  0  0  0  # atno 6909 bound_to 6896
  145.3704  139.2399  143.3458 H   0  0  0  0  0  0  0  0  0  0  0  0  # atno 7974 bound_to 7965
  156.2368  140.2943  156.0334 H   0  0  0  0  0  0  0  0  0  0  0  0  # atno 8008 bound_to 7997
  155.2069  140.0411  157.2944 H   0  0  0  0  0  0  0  0  0  0  0  0  # atno 8009 bound_to 7997
  154.6093  140.2447  155.7697 H   0  0  0  0  0  0  0  0  0  0  0  0  # atno 8010 bound_to 7997
  139.7809  143.8103  152.2638 H   0  0  0  0  0  0  0  0  0  0  0  0  # atno 10167 bound_to 10162
  156.1836  130.4151  149.9472 H   0  0  0  0  0  0  0  0  0  0  0  0  # atno 10718 bound_to 10713
  153.1976  135.6851  153.8272 H   0  0  0  0  0  0  0  0  0  0  0  0  # atno 10763 bound_to 10752
  153.7550  135.3218  155.3328 H   0  0  0  0  0  0  0  0  0  0  0  0  # atno 10764 bound_to 10752
  154.8153  135.4690  154.0727 H   0  0  0  0  0  0  0  0  0  0  0  0  # atno 10765 bound_to 10752
  140.9028  134.1668  157.4447 H   0  0  0  0  0  0  0  0  0  0  0  0  # atno 11005 bound_to 11000
  146.2888  140.4354  142.8747 LP  0  0  0  0  0  0  0  0  0  0  0  0  # atno 17320 bound_to 7965
  144.8581  140.7099  143.6125 LP  0  0  0  0  0  0  0  0  0  0  0  0  # atno 17321 bound_to 7965
  139.8165  144.7314  150.9628 LP  0  0  0  0  0  0  0  0  0  0  0  0  # atno 17342 bound_to 10162
  140.7818  143.4200  151.0856 LP  0  0  0  0  0  0  0  0  0  0  0  0  # atno 17343 bound_to 10162
  156.7234  130.9015  151.3620 LP  0  0  0  0  0  0  0  0  0  0  0  0  # atno 17370 bound_to 10713
  157.6884  130.9209  150.0448 LP  0  0  0  0  0  0  0  0  0  0  0  0  # atno 17371 bound_to 10713
  139.8745  134.9905  156.5506 LP  0  0  0  0  0  0  0  0  0  0  0  0  # atno 17394 bound_to 11000
  140.8208  133.8355  155.8894 LP  0  0  0  0  0  0  0  0  0  0  0  0  # atno 17395 bound_to 11000

$$$$
