AV-unprocessed.smi:557|AV-procd|sdf|2920|dock8
  -GOLD-   2262023413D 1   1.00000     0.00000
 Structure written by MMmdl.
 47 49  0  0  0  0  0  0  0  0  2 V2000
  148.9732  141.2535  154.6636 C   0  0  0  0  0  0  0  0  0  0  0  0
  149.5931  140.0356  155.1400 N   0  0  0  0  0  0  0  0  0  0  0  0
  148.9986  138.9415  155.7310 C   0  0  0  0  0  0  0  0  0  0  0  0
  149.9858  138.0381  156.0085 C   0  0  0  0  0  0  0  0  0  0  0  0
  149.8694  136.6859  156.6547 C   0  0  0  0  0  0  0  0  0  0  0  0
  150.4194  135.5786  155.7460 C   0  0  0  0  0  0  0  0  0  0  0  0
  149.4524  135.2407  154.7049 N   0  0  0  0  0  0  0  0  0  0  0  0
  148.5579  134.2380  154.7199 C   0  0  0  0  0  0  0  0  0  0  0  0
  148.4616  133.4656  155.6714 O   0  0  0  0  0  0  0  0  0  0  0  0
  147.7879  134.1594  153.6212 N   0  0  0  0  0  0  0  0  0  0  0  0
  146.7491  133.1601  153.3908 C   0  0  2  0  0  0  0  0  0  0  0  0
  147.2676  131.7172  153.5243 C   0  0  0  0  0  0  0  0  0  0  0  0
  146.5410  130.9176  152.4253 C   0  0  0  0  0  0  0  0  0  0  0  0
  145.5951  131.8684  151.8113 N   0  3  2  0  0  0  0  0  0  0  0  0
  145.1584  131.5858  150.4267 C   0  0  0  0  0  0  0  0  0  0  0  0
  144.1115  132.6340  150.0008 C   0  0  0  0  0  0  0  0  0  0  0  0
  144.6299  134.0728  150.2012 C   0  0  0  0  0  0  0  0  0  0  0  0
  145.1606  134.2798  151.6333 C   0  0  0  0  0  0  0  0  0  0  0  0
  146.2053  133.1986  151.9598 C   0  0  1  0  0  0  0  0  0  0  0  0
  151.1653  138.6834  155.5390 C   0  0  0  0  0  0  0  0  0  0  0  0
  150.9274  139.8771  155.0203 N   0  0  0  0  0  0  0  0  0  0  0  0
  147.9414  141.3084  155.0123 H   0  0  0  0  0  0  0  0  0  0  0  0
  148.9811  141.2675  153.5735 H   0  0  0  0  0  0  0  0  0  0  0  0
  149.5188  142.1206  155.0372 H   0  0  0  0  0  0  0  0  0  0  0  0
  147.9335  138.8963  155.9045 H   0  0  0  0  0  0  0  0  0  0  0  0
  150.4046  136.6719  157.6050 H   0  0  0  0  0  0  0  0  0  0  0  0
  148.8283  136.4692  156.8977 H   0  0  0  0  0  0  0  0  0  0  0  0
  151.3514  135.9065  155.2825 H   0  0  0  0  0  0  0  0  0  0  0  0
  150.6433  134.6903  156.3393 H   0  0  0  0  0  0  0  0  0  0  0  0
  149.4583  135.8327  153.8865 H   0  0  0  0  0  0  0  0  0  0  0  0
  147.9396  134.8391  152.8899 H   0  0  0  0  0  0  0  0  0  0  0  0
  145.9262  133.2941  154.0965 H   0  0  0  0  0  0  0  0  0  0  0  0
  148.3460  131.6637  153.3668 H   0  0  0  0  0  0  0  0  0  0  0  0
  147.0628  131.3185  154.5184 H   0  0  0  0  0  0  0  0  0  0  0  0
  147.2587  130.5687  151.6812 H   0  0  0  0  0  0  0  0  0  0  0  0
  146.0145  130.0489  152.8213 H   0  0  0  0  0  0  0  0  0  0  0  0
  146.0168  131.6076  149.7535 H   0  0  0  0  0  0  0  0  0  0  0  0
  144.7312  130.5837  150.3745 H   0  0  0  0  0  0  0  0  0  0  0  0
  143.8297  132.4794  148.9589 H   0  0  0  0  0  0  0  0  0  0  0  0
  143.2030  132.4951  150.5883 H   0  0  0  0  0  0  0  0  0  0  0  0
  145.4295  134.2714  149.4863 H   0  0  0  0  0  0  0  0  0  0  0  0
  143.8380  134.7911  149.9863 H   0  0  0  0  0  0  0  0  0  0  0  0
  145.5993  135.2735  151.7241 H   0  0  0  0  0  0  0  0  0  0  0  0
  144.3359  134.2343  152.3459 H   0  0  0  0  0  0  0  0  0  0  0  0
  147.0412  133.2780  151.2606 H   0  0  0  0  0  0  0  0  0  0  0  0
  152.1825  138.3213  155.5612 H   0  0  0  0  0  0  0  0  0  0  0  0
  144.7693  131.8679  152.3931 H   0  0  0  0  0  0  0  0  0  0  0  0
  1  2  1  0  0  0  0
  1 22  1  0  0  0  0
  1 23  1  0  0  0  0
  1 24  1  0  0  0  0
  2 21  1  0  0  0  0
  2  3  1  0  0  0  0
  3  4  2  0  0  0  0
  3 25  1  0  0  0  0
  4  5  1  0  0  0  0
  4 20  1  0  0  0  0
  5  6  1  0  0  0  0
  5 26  1  0  0  0  0
  5 27  1  0  0  0  0
  6  7  1  0  0  0  0
  6 28  1  0  0  0  0
  6 29  1  0  0  0  0
  7  8  1  0  0  0  0
  7 30  1  0  0  0  0
  8  9  2  0  0  0  0
  8 10  1  0  0  0  0
 10 11  1  0  0  0  0
 10 31  1  0  0  0  0
 11 19  1  0  0  0  0
 11 12  1  0  0  0  0
 11 32  1  0  0  0  0
 12 13  1  0  0  0  0
 12 33  1  0  0  0  0
 12 34  1  0  0  0  0
 13 14  1  0  0  0  0
 13 35  1  0  0  0  0
 13 36  1  0  0  0  0
 14 19  1  0  0  0  0
 14 15  1  0  0  0  0
 14 47  1  0  0  0  0
 15 16  1  0  0  0  0
 15 37  1  0  0  0  0
 15 38  1  0  0  0  0
 16 17  1  0  0  0  0
 16 39  1  0  0  0  0
 16 40  1  0  0  0  0
 17 18  1  0  0  0  0
 17 41  1  0  0  0  0
 17 42  1  0  0  0  0
 18 19  1  0  0  0  0
 18 43  1  0  0  0  0
 18 44  1  0  0  0  0
 19 45  1  0  0  0  0
 20 21  2  0  0  0  0
 20 46  1  0  0  0  0
M  CHG  1  14   1
M  END
> <s_m_source_file>
AV-unprocessed.smi

> <i_m_source_file_index>
557

> <i_lp_mmshare_version>
43012

> <i_f3d_flags>
0

> <s_epik_input>
W0NIM11uMVtjSF1jKFtjSF1uMSlbQ0gyXVtDSDJdW05IXUMoPU8pW05IXVtDQEhdKFtDSDJdW0NIMl0yKVtDQEhdKE4yMylbQ0gyXVtDSDJdW0NIMl1bQ0gyXTM=

> <s_epik_cmdline>
J2VwaWtfcHl0aG9uJywgJy1waCcsICc3LjAnLCAnLXRuJywgJzgnLCAnLW1hJywgJzIwMCcsICctbWV0YWxfYmluZGluZycsICctaW1hZScsICc8aW5maWxlLm1hZT4nLCAnLW9tYWUnLCAnPG91dGZpbGUubWFlPic=

> <r_lp_tautomer_probability>
1

> <r_epik_Ionization_Penalty>
0.000956547

> <r_epik_Ionization_Penalty_Charging>
0.000435796

> <r_epik_Ionization_Penalty_Neutral>
0.000520752

> <r_epik_State_Penalty>
-0

> <r_epik_Charging_Adjusted_Penalty>
0.000435796

> <i_epik_Tot_Q>
1

> <i_epik_Tot_abs_Q>
1

> <r_epik_Metal_State_Penalty>
-0

> <b_epik_Metal_Only>
0

> <s_lp_Force_Field>
OPLS_2005

> <r_lp_Energy>
39.998

> <b_lp_Chiralities_Consistent>
1

> <s_lp_Variant>
AV-unprocessed.smi:557-7

> <Gold.Version>
5.8.1

> <Gold.Id.Protein>
6NUR|6NUR_protein|mol2

> <Gold.PLP.Fitness>
44.1910

> <Gold.PLP.PLP>
-35.8537

> <Gold.PLP.part.hbond>
-3.1069

> <Gold.PLP.part.metal>
0.0000

> <Gold.PLP.part.buried>
-3.7995

> <Gold.PLP.part.nonpolar>
-28.0626

> <Gold.PLP.part.repulsive>
0.1635

> <Gold.PLP.ligand.clash>
0.0000

> <Gold.PLP.ligand.torsion>
0.3056

> <Gold.PLP.Chemscore.Hbond>
2.9760

> <Gold.PLP.Chemscore.CHOScore>
0.0000

> <Gold.PLP.Chemscore.Metal>
0.0000

> <Gold.Chemscore.Hbonds>
donor molecule, donor type, donor heavy atom, donor atom, acceptor molecule, acceptor atom, score
      L1  H     7    30       P1  7948  0.84
      L1  H    10    31       P1  7948  1.00
      P1  H  7989  7998       L1    21  1.00

> <Gold.PLP.Chemscore.Internal.Correction>
0.0205

> <Gold.Rescore>
     Score         DG    S(hbond)    S(metal)    S(lipo)     H(rot)  DE(clash)    DE(int)     intcor
     17.25     -18.83       2.50        0.00      77.88       1.60       0.04       1.55       ----

> <Gold.Chemscore.Fitness>
17.2467

> <Gold.Chemscore.DG>
-18.8322

> <Gold.Chemscore.ZeroCoef>
-5.4800

> <Gold.Chemscore.Hbond>
2.4973

> <Gold.Chemscore.Metal>
0.0000

> <Gold.Chemscore.Lipo>
77.8793

> <Gold.Chemscore.Internal_Hbond>
0.0000

> <Gold.Chemscore.DEClash>
0.0402

> <Gold.Chemscore.DEInternal>
1.5453

> <Gold.Chemscore.Rot>
1.6018

> <Gold.Chemscore.Internal.Correction>
   9.000000E+99

> <Gold.Chemscore.Hbonds>
donor molecule, donor type, donor heavy atom, donor atom, acceptor molecule, acceptor atom, score
      L1  H     7    30       P1  7948  0.44
      L1  H    10    31       P1  7948  0.87
      P1  H  7989  7998       L1    21  0.81

> <Gold.Chemscore.Hbond.Weighted>
-8.3409

> <Gold.Chemscore.Metal.Weighted>
-0.0000

> <Gold.Chemscore.Lipo.Weighted>
-9.1119

> <Gold.Chemscore.Internal_Hbond.Weighted>
0.0000

> <Gold.Chemscore.DEClash.Weighted>
0.0402

> <Gold.Chemscore.DEInternal.Weighted>
1.5453

> <Gold.Chemscore.Rot.Weighted>
4.1006

> <Gold.Chemscore.Internal.Correction.Weighted>
   9.000000E+99

> <Gold.Protein.RotatedTorsions>
[ 6907 6896 6895 6894 ] final  141.20 input  -60.11 | X-H torsion
[ 7974 7965 7964 7962 ] final   10.90 input  175.53 | X-H torsion
[ 8008 7997 7996 7995 ] final  -57.49 input   59.86 | X-H torsion
[ 10167 10162 10161 10158 ] final -114.27 input  -65.29 | X-H torsion
[ 10718 10713 10712 10709 ] final -106.63 input   66.30 | X-H torsion
[ 10763 10752 10751 10750 ] final  169.45 input  -60.55 | X-H torsion
[ 11005 11000 10999 10996 ] final  156.82 input  -57.11 | X-H torsion

> <Gold.Protein.ActiveResidues>
 VAL166  LYS551  ARG553  GLY616  TRP617  ASP618  TYR619  PRO620  LYS621  CYS622 
 ASP623  PHE694  ASN695  SER759  ASP760  ASP761  ALA762  ILE779  LEU786  VAL792 
 PHE793  MET794  SER795  GLU796  ALA797  LYS798  CYS799  TRP800  GLU811  SER814 

> <Gold.Protein.RotatedAtoms>
  152.2338  133.5080  159.5230 H   0  0  0  0  0  0  0  0  0  0  0  0  # atno 6907 bound_to 6896
  150.7045  134.1180  159.4033 H   0  0  0  0  0  0  0  0  0  0  0  0  # atno 6908 bound_to 6896
  151.9101  135.0342  160.0564 H   0  0  0  0  0  0  0  0  0  0  0  0  # atno 6909 bound_to 6896
  146.2380  139.9565  142.8464 H   0  0  0  0  0  0  0  0  0  0  0  0  # atno 7974 bound_to 7965
  154.4270  140.1105  156.5806 H   0  0  0  0  0  0  0  0  0  0  0  0  # atno 8008 bound_to 7997
  155.6116  140.3494  155.4605 H   0  0  0  0  0  0  0  0  0  0  0  0  # atno 8009 bound_to 7997
  156.0094  140.1216  157.0458 H   0  0  0  0  0  0  0  0  0  0  0  0  # atno 8010 bound_to 7997
  140.1027  143.4598  152.1802 H   0  0  0  0  0  0  0  0  0  0  0  0  # atno 10167 bound_to 10162
  156.0399  130.5622  150.7708 H   0  0  0  0  0  0  0  0  0  0  0  0  # atno 10718 bound_to 10713
  154.3833  135.2753  155.2198 H   0  0  0  0  0  0  0  0  0  0  0  0  # atno 10763 bound_to 10752
  154.4296  135.5980  153.6064 H   0  0  0  0  0  0  0  0  0  0  0  0  # atno 10764 bound_to 10752
  152.9834  135.5992  154.4078 H   0  0  0  0  0  0  0  0  0  0  0  0  # atno 10765 bound_to 10752
  140.1710  134.8543  157.2691 H   0  0  0  0  0  0  0  0  0  0  0  0  # atno 11005 bound_to 11000
  145.1811  140.9768  143.4265 LP  0  0  0  0  0  0  0  0  0  0  0  0  # atno 17320 bound_to 7965
  144.9941  139.3661  143.6200 LP  0  0  0  0  0  0  0  0  0  0  0  0  # atno 17321 bound_to 7965
  139.5662  144.7436  151.4016 LP  0  0  0  0  0  0  0  0  0  0  0  0  # atno 17342 bound_to 10162
  140.6969  143.7728  150.7340 LP  0  0  0  0  0  0  0  0  0  0  0  0  # atno 17343 bound_to 10162
  157.5202  131.0931  151.0088 LP  0  0  0  0  0  0  0  0  0  0  0  0  # atno 17370 bound_to 10713
  157.0420  130.5753  149.5357 LP  0  0  0  0  0  0  0  0  0  0  0  0  # atno 17371 bound_to 10713
  140.2377  134.3833  155.7494 LP  0  0  0  0  0  0  0  0  0  0  0  0  # atno 17394 bound_to 11000
  141.2217  133.7248  156.8740 LP  0  0  0  0  0  0  0  0  0  0  0  0  # atno 17395 bound_to 11000

$$$$
