#       Name:                AV-unprocessed.smi:2495
#       Creating user name   scv26
#       Creation time:       Fri Mar 27 13:45:32 2020


#       File generated by GOLD software.
#

@<TRIPOS>MOLECULE
AV-unprocessed.smi:2495
    40    41     1
SMALL
NO_CHARGES


@<TRIPOS>ATOM
      1 ****        -4.4382  -3.0391  -0.7479 C.3            1 S1                 0.0000
      2 ****        -3.0779  -2.5905  -1.0015 N.am           1 S1                 0.0000
      3 ****        -2.3780  -1.7915  -0.1820 C.2            1 S1                 0.0000
      4 ****        -2.8291  -1.3700   0.8838 O.2            1 S1                 0.0000
      5 ****        -0.9501  -1.4344  -0.6216 C.3            1 S1                 0.0000
      6 ****        -0.4473  -0.1197   0.0183 C.3            1 S1                 0.0000
      7 ****         0.8617   0.2510  -0.5157 N.3            1 S1                 0.0000
      8 ****         1.5369   1.2807   0.1754 C.ar           1 S1                 0.0000
      9 ****         1.6877   1.2373   1.5827 C.ar           1 S1                 0.0000
     10 ****         2.3758   2.3111   2.1854 C.ar           1 S1                 0.0000
     11 ****         2.5919   2.3665   3.6830 C.3            1 S1                 0.0000
     12 ****         2.8695   3.3376   1.4610 N.ar           1 S1                 0.0000
     13 ****         2.6801   3.2814   0.1416 C.ar           1 S1                 0.0000
     14 ****         2.0498   2.3175  -0.5334 N.ar           1 S1                 0.0000
     15 ****         0.9146   0.2626  -1.9757 C.3            1 S1                 0.0000
     16 ****         0.3871  -1.0654  -2.5397 C.3            1 S1                 0.0000
     17 ****        -0.9244  -1.3052  -2.0433 O.3            1 S1                 0.0000
     18 ****        -4.7516  -3.7350  -1.5259 H              1 S1                 0.0000
     19 ****        -5.1285  -2.1949  -0.7465 H              1 S1                 0.0000
     20 ****        -4.5092  -3.5489   0.2138 H              1 S1                 0.0000
     21 ****        -2.6398  -2.8968  -1.8586 H              1 S1                 0.0000
     22 ****        -0.3009  -2.2603  -0.3253 H              1 S1                 0.0000
     23 ****        -1.1476   0.6921  -0.1841 H              1 S1                 0.0000
     24 ****        -0.4108  -0.2439   1.0996 H              1 S1                 0.0000
     25 ****         1.3118   0.4196   2.1793 H              1 S1                 0.0000
     26 ****         2.5537   1.3676   4.1185 H              1 S1                 0.0000
     27 ****         1.8185   2.9753   4.1515 H              1 S1                 0.0000
     28 ****         3.5635   2.8013   3.9200 H              1 S1                 0.0000
     29 ****         3.0773   4.0998  -0.4402 H              1 S1                 0.0000
     30 ****         0.3162   1.0933  -2.3525 H              1 S1                 0.0000
     31 ****         1.9392   0.4159  -2.3169 H              1 S1                 0.0000
     32 ****         0.3523  -1.0231  -3.6283 H              1 S1                 0.0000
     33 ****         1.0470  -1.8927  -2.2737 H              1 S1                 0.0000
     34 ****        -3.7538  -1.6215   1.1697 LP             1 S1                 0.0000
     35 ****        -2.2707  -0.7762   1.4631 LP             1 S1                 0.0000
     36 ****         1.4644  -0.5135  -0.2873 LP             1 S1                 0.0000
     37 ****         3.3521   4.1006   1.8910 LP             1 S1                 0.0000
     38 ****         1.9587   2.3584  -1.5284 LP             1 S1                 0.0000
     39 ****        -1.5130  -0.5412  -2.3076 LP             1 S1                 0.0000
     40 ****        -1.2726  -2.1501  -2.4494 LP             1 S1                 0.0000
@<TRIPOS>BOND
    1    1    2 1     
    2    1   18 1     
    3    1   19 1     
    4    1   20 1     
    5    2    3 am    
    6    2   21 1     
    7    3    4 2     
    8    3    5 1     
    9    5   17 1     
   10    5    6 1     
   11    5   22 1     
   12    6    7 1     
   13    6   23 1     
   14    6   24 1     
   15    7    8 1     
   16    7   15 1     
   17    8   14 ar    
   18    8    9 ar    
   19    9   10 ar    
   20    9   25 1     
   21   10   11 1     
   22   10   12 ar    
   23   11   26 1     
   24   11   27 1     
   25   11   28 1     
   26   12   13 ar    
   27   13   14 ar    
   28   13   29 1     
   29   15   16 1     
   30   15   30 1     
   31   15   31 1     
   32   16   17 1     
   33   16   32 1     
   34   16   33 1     
   35    4   34 1     
   36    4   35 1     
   37    7   36 1     
   38   12   37 1     
   39   14   38 1     
   40   17   39 1     
   41   17   40 1     
@<TRIPOS>SUBSTRUCTURE
      1 S1             1
@<TRIPOS>SET
LONE_PAIRS      STATIC     ATOMS    <user>   **** ""
7 34 35 36 37 38 39 40
DONOR_HYDROGENS      STATIC     ATOMS    <user>   **** ""
1 21
ATOM$BLUE        STATIC     ATOMS    COLORGROUP SYSTEM
7 34 35 36 37 38 39 40
ATOM$RED        STATIC     ATOMS    COLORGROUP SYSTEM
1 21
