#       Name:                AV-unprocessed.smi:287
#       Creating user name   scv26
#       Creation time:       Thu Mar 26 22:01:05 2020


#       File generated by GOLD software.
#

@<TRIPOS>MOLECULE
AV-unprocessed.smi:287
    70    73     1
SMALL
NO_CHARGES


@<TRIPOS>ATOM
      1 ****        -1.5412   4.1655   3.7657 C.3            1 S1                 0.0000
      2 ****        -2.1277   3.8974   2.4222 C.2            1 S1                 0.0000
      3 ****        -2.7355   2.8149   1.8566 C.2            1 S1                 0.0000
      4 ****        -3.0758   3.1683   0.5167 C.2            1 S1                 0.0000
      5 ****        -3.7651   2.2637  -0.4964 C.3            1 S1                 0.0000
      6 ****        -5.2453   2.0902  -0.1185 C.3            1 S1                 0.0000
      7 ****        -3.7729   2.8063  -1.8028 O.3            1 S1                 0.0000
      8 ****        -3.0788   0.8830  -0.6114 C.3            1 S1                 0.0000
      9 ****        -1.6239   0.9801  -0.6627 N.pl3          1 S1                 0.0000
     10 ****        -0.8633  -0.1320  -0.5984 C.ar           1 S1                 0.0000
     11 ****        -1.4264  -1.3683  -0.5970 N.ar           1 S1                 0.0000
     12 ****        -0.6490  -2.4532  -0.5277 C.ar           1 S1                 0.0000
     13 ****         0.6819  -2.5227  -0.4539 N.ar           1 S1                 0.0000
     14 ****         1.2522  -1.2828  -0.4588 C.ar           1 S1                 0.0000
     15 ****         0.5507  -0.0471  -0.5283 C.ar           1 S1                 0.0000
     16 ****         1.4516   1.0094  -0.5082 N.2            1 S1                 0.0000
     17 ****         2.6179   0.4271  -0.4330 C.2            1 S1                 0.0000
     18 ****         2.5907  -0.9496  -0.3992 N.pl3          1 S1                 0.0000
     19 ****         3.7580  -1.8780  -0.3205 C.3            1 S1                 0.0000
     20 ****         3.4369  -2.9116   0.5542 O.3            1 S1                 0.0000
     21 ****         4.0333  -4.1134   0.0891 C.3            1 S1                 0.0000
     22 ****         3.3572  -5.3430   0.7200 C.3            1 S1                 0.0000
     23 ****         3.9013  -5.5910   1.9986 O.3            1 S1                 0.0000
     24 ****         3.9182  -3.9971  -1.4390 C.3            1 S1                 0.0000
     25 ****         2.6653  -4.4606  -1.9068 O.3            1 S1                 0.0000
     26 ****         4.0647  -2.4986  -1.6949 C.3            1 S1                 0.0000
     27 ****         5.3920  -2.2161  -2.0928 O.3            1 S1                 0.0000
     28 ****        -2.6513   4.4683   0.3787 C.2            1 S1                 0.0000
     29 ****        -2.6912   5.4611  -0.7361 C.3            1 S1                 0.0000
     30 ****        -2.0731   4.9161   1.5283 O.3            1 S1                 0.0000
     31 ****         4.5726  -1.2742   0.0828 H              1 S1                 0.0000
     32 ****         5.0936  -4.0928   0.3494 H              1 S1                 0.0000
     33 ****         4.6882  -4.5854  -1.9403 H              1 S1                 0.0000
     34 ****         3.3759  -2.1342  -2.4595 H              1 S1                 0.0000
     35 ****        -1.4985   3.2529   4.3604 H              1 S1                 0.0000
     36 ****        -2.1401   4.8959   4.3095 H              1 S1                 0.0000
     37 ****        -0.5277   4.5566   3.6747 H              1 S1                 0.0000
     38 ****        -2.9103   1.8684   2.3464 H              1 S1                 0.0000
     39 ****        -5.3514   1.6372   0.8679 H              1 S1                 0.0000
     40 ****        -5.7676   1.4489  -0.8297 H              1 S1                 0.0000
     41 ****        -5.7636   3.0498  -0.0957 H              1 S1                 0.0000
     42 ****        -4.2066   2.1952  -2.3783 H              1 S1                 0.0000
     43 ****        -3.3318   0.2957   0.2727 H              1 S1                 0.0000
     44 ****        -3.4544   0.3281  -1.4725 H              1 S1                 0.0000
     45 ****        -1.2431   1.9159  -0.6647 H              1 S1                 0.0000
     46 ****        -1.1664  -3.4010  -0.5316 H              1 S1                 0.0000
     47 ****         3.5386   0.9913  -0.4031 H              1 S1                 0.0000
     48 ****         2.2767  -5.2112   0.7874 H              1 S1                 0.0000
     49 ****         3.5417  -6.2285   0.1115 H              1 S1                 0.0000
     50 ****         3.4637  -6.3410   2.3717 H              1 S1                 0.0000
     51 ****         2.5828  -5.3770  -1.6931 H              1 S1                 0.0000
     52 ****         5.9800  -2.5368  -1.4264 H              1 S1                 0.0000
     53 ****        -3.7143   5.6165  -1.0784 H              1 S1                 0.0000
     54 ****        -2.0980   5.1149  -1.5824 H              1 S1                 0.0000
     55 ****        -2.2934   6.4259  -0.4210 H              1 S1                 0.0000
     56 ****        -2.8335   2.9533  -2.1128 LP             1 S1                 0.0000
     57 ****        -4.2642   3.6773  -1.8035 LP             1 S1                 0.0000
     58 ****        -2.4203  -1.4663  -0.6477 LP             1 S1                 0.0000
     59 ****         1.1976  -3.3778  -0.4015 LP             1 S1                 0.0000
     60 ****         1.2532   1.9889  -0.5432 LP             1 S1                 0.0000
     61 ****         2.4438  -3.0228   0.5915 LP             1 S1                 0.0000
     62 ****         3.7829  -2.6973   1.4676 LP             1 S1                 0.0000
     63 ****         3.7615  -4.7930   2.5849 LP             1 S1                 0.0000
     64 ****         4.8804  -5.7777   1.9178 LP             1 S1                 0.0000
     65 ****         2.6105  -4.3398  -2.8980 LP             1 S1                 0.0000
     66 ****         1.9301  -3.9448  -1.4670 LP             1 S1                 0.0000
     67 ****         5.5093  -1.2287  -2.1991 LP             1 S1                 0.0000
     68 ****         5.5874  -2.6704  -2.9620 LP             1 S1                 0.0000
     69 ****        -1.1217   5.1723   1.3571 LP             1 S1                 0.0000
     70 ****        -2.5735   5.7078   1.8787 LP             1 S1                 0.0000
@<TRIPOS>BOND
    1    1    2 1     
    2    1   35 1     
    3    1   36 1     
    4    1   37 1     
    5    2   30 1     
    6    2    3 2     
    7    3    4 1     
    8    3   38 1     
    9    4    5 1     
   10    4   28 2     
   11    5    6 1     
   12    5    7 1     
   13    5    8 1     
   14    6   39 1     
   15    6   40 1     
   16    6   41 1     
   17    7   42 1     
   18    8    9 1     
   19    8   43 1     
   20    8   44 1     
   21    9   10 1     
   22    9   45 1     
   23   10   15 ar    
   24   10   11 ar    
   25   11   12 ar    
   26   12   13 ar    
   27   12   46 1     
   28   13   14 ar    
   29   14   18 1     
   30   14   15 ar    
   31   15   16 1     
   32   16   17 2     
   33   17   18 1     
   34   17   47 1     
   35   18   19 1     
   36   19   31 1     
   37   19   26 1     
   38   19   20 1     
   39   20   21 1     
   40   21   32 1     
   41   21   22 1     
   42   21   24 1     
   43   22   23 1     
   44   22   48 1     
   45   22   49 1     
   46   23   50 1     
   47   24   33 1     
   48   24   25 1     
   49   24   26 1     
   50   25   51 1     
   51   26   34 1     
   52   26   27 1     
   53   27   52 1     
   54   28   29 1     
   55   28   30 1     
   56   29   53 1     
   57   29   54 1     
   58   29   55 1     
   59    7   56 1     
   60    7   57 1     
   61   11   58 1     
   62   13   59 1     
   63   16   60 1     
   64   20   61 1     
   65   20   62 1     
   66   23   63 1     
   67   23   64 1     
   68   25   65 1     
   69   25   66 1     
   70   27   67 1     
   71   27   68 1     
   72   30   69 1     
   73   30   70 1     
@<TRIPOS>SUBSTRUCTURE
      1 S1             1
@<TRIPOS>SET
LONE_PAIRS      STATIC     ATOMS    <user>   **** ""
15 56 57 58 59 60 61 62 63 64 65 66 67 68 69 70
DONOR_HYDROGENS      STATIC     ATOMS    <user>   **** ""
5 42 45 50 51 52
ATOM$BLUE        STATIC     ATOMS    COLORGROUP SYSTEM
15 56 57 58 59 60 61 62 63 64 65 66 67 68 69 70
ATOM$RED        STATIC     ATOMS    COLORGROUP SYSTEM
5 42 45 50 51 52
