#       Name:                AV-unprocessed.smi:1459
#       Creating user name   scv26
#       Creation time:       Fri Mar 27 06:01:05 2020


#       File generated by GOLD software.
#

@<TRIPOS>MOLECULE
AV-unprocessed.smi:1459
    41    42     1
SMALL
NO_CHARGES


@<TRIPOS>ATOM
      1 ****        -6.0642   2.3841   0.8425 C.3            1 S1                 0.0000
      2 ****        -4.6130   2.0492   0.7941 C.2            1 S1                 0.0000
      3 ****        -3.9215   0.8818   0.9573 C.2            1 S1                 0.0000
      4 ****        -2.5705   1.2825   0.7793 C.2            1 S1                 0.0000
      5 ****        -1.5136   0.3411   0.8729 N.am           1 S1                 0.0000
      6 ****        -0.1978   0.5684   0.7215 C.2            1 S1                 0.0000
      7 ****         0.3071   1.6624   0.4682 O.2            1 S1                 0.0000
      8 ****         0.5099  -0.5608   0.8757 N.am           1 S1                 0.0000
      9 ****         1.9640  -0.6827   0.7772 C.3            1 S1                 0.0000
     10 ****         2.4737  -1.4942   1.9772 C.3            1 S1                 0.0000
     11 ****         2.3621  -1.3310  -0.5652 C.3            1 S1                 0.0000
     12 ****         1.8910  -0.5795  -1.8126 C.3            1 S1                 0.0000
     13 ****         2.8811  -1.0556  -2.8498 C.3            1 S1                 0.0000
     14 ****         4.1718  -1.1140  -2.0395 C.3            1 S1                 0.0000
     15 ****         3.7815  -1.3847  -0.6953 O.3            1 S1                 0.0000
     16 ****        -2.4485   2.5774   0.5300 N.2            1 S1                 0.0000
     17 ****        -3.7567   3.0754   0.5386 O.3            1 S1                 0.0000
     18 ****        -6.6560   1.5137   1.1262 H              1 S1                 0.0000
     19 ****        -6.4137   2.7284  -0.1310 H              1 S1                 0.0000
     20 ****        -6.2551   3.1733   1.5698 H              1 S1                 0.0000
     21 ****        -4.3211  -0.0986   1.1696 H              1 S1                 0.0000
     22 ****        -1.7892  -0.6081   1.0760 H              1 S1                 0.0000
     23 ****         0.0030  -1.4099   1.0776 H              1 S1                 0.0000
     24 ****         2.4234   0.3058   0.8315 H              1 S1                 0.0000
     25 ****         3.5607  -1.5780   1.9641 H              1 S1                 0.0000
     26 ****         2.0630  -2.5045   1.9784 H              1 S1                 0.0000
     27 ****         2.1951  -1.0193   2.9186 H              1 S1                 0.0000
     28 ****         1.9892  -2.3557  -0.6112 H              1 S1                 0.0000
     29 ****         0.8560  -0.7973  -2.0778 H              1 S1                 0.0000
     30 ****         1.9889   0.4983  -1.6732 H              1 S1                 0.0000
     31 ****         2.6085  -2.0526  -3.1987 H              1 S1                 0.0000
     32 ****         2.9497  -0.3956  -3.7149 H              1 S1                 0.0000
     33 ****         4.8629  -1.8696  -2.4137 H              1 S1                 0.0000
     34 ****         4.6797  -0.1492  -2.0628 H              1 S1                 0.0000
     35 ****        -0.2747   2.4684   0.3594 LP             1 S1                 0.0000
     36 ****         1.2989   1.7449   0.3713 LP             1 S1                 0.0000
     37 ****         4.1010  -2.2965  -0.4374 LP             1 S1                 0.0000
     38 ****         4.1932  -0.7036  -0.0899 LP             1 S1                 0.0000
     39 ****        -1.6043   3.0889   0.3701 LP             1 S1                 0.0000
     40 ****        -3.8464   3.7732   1.2492 LP             1 S1                 0.0000
     41 ****        -3.9696   3.4773  -0.3520 LP             1 S1                 0.0000
@<TRIPOS>BOND
    1    1    2 1     
    2    1   18 1     
    3    1   19 1     
    4    1   20 1     
    5    2   17 1     
    6    2    3 2     
    7    3    4 1     
    8    3   21 1     
    9    4    5 1     
   10    4   16 2     
   11    5    6 am    
   12    5   22 1     
   13    6    7 2     
   14    6    8 am    
   15    8    9 1     
   16    8   23 1     
   17    9   10 1     
   18    9   11 1     
   19    9   24 1     
   20   10   25 1     
   21   10   26 1     
   22   10   27 1     
   23   11   15 1     
   24   11   12 1     
   25   11   28 1     
   26   12   13 1     
   27   12   29 1     
   28   12   30 1     
   29   13   14 1     
   30   13   31 1     
   31   13   32 1     
   32   14   15 1     
   33   14   33 1     
   34   14   34 1     
   35   16   17 1     
   36    7   35 1     
   37    7   36 1     
   38   15   37 1     
   39   15   38 1     
   40   16   39 1     
   41   17   40 1     
   42   17   41 1     
@<TRIPOS>SUBSTRUCTURE
      1 S1             1
@<TRIPOS>SET
LONE_PAIRS      STATIC     ATOMS    <user>   **** ""
7 35 36 37 38 39 40 41
DONOR_HYDROGENS      STATIC     ATOMS    <user>   **** ""
2 22 23
ATOM$BLUE        STATIC     ATOMS    COLORGROUP SYSTEM
7 35 36 37 38 39 40 41
ATOM$RED        STATIC     ATOMS    COLORGROUP SYSTEM
2 22 23
