AV-unprocessed.smi:1854|AV-procd|sdf|7529|dock10
  -GOLD-   22720 9243D 1   1.00000     0.00000
 Structure written by MMmdl.
 39 41  0  0  0  0  0  0  0  0  1 V2000
  154.0354  135.8665  160.6947 O   0  0  0  0  0  0  0  0  0  0  0  0
  154.7186  136.6799  160.0749 C   0  0  0  0  0  0  0  0  0  0  0  0
  154.4272  137.1411  158.8503 N   0  0  0  0  0  0  0  0  0  0  0  0
  153.2650  136.7475  158.0602 C   0  0  0  0  0  0  0  0  0  0  0  0
  152.4227  137.9591  157.7848 C   0  0  0  0  0  0  0  0  0  0  0  0
  152.8551  138.9606  157.0177 N   0  0  0  0  0  0  0  0  0  0  0  0
  151.7870  139.8361  157.0286 C   0  0  0  0  0  0  0  0  0  0  0  0
  151.6209  141.0906  156.3993 C   0  0  0  0  0  0  0  0  0  0  0  0
  150.4184  141.8116  156.5516 C   0  0  0  0  0  0  0  0  0  0  0  0
  149.3674  141.2902  157.3338 C   0  0  0  0  0  0  0  0  0  0  0  0
  149.5132  140.0429  157.9709 C   0  0  0  0  0  0  0  0  0  0  0  0
  150.7157  139.3278  157.8164 C   0  0  0  0  0  0  0  0  0  0  0  0
  151.1729  138.1041  158.2935 N   0  0  0  0  0  0  0  0  0  0  0  0
  150.4347  137.1873  159.1475 C   0  0  0  0  0  0  0  0  0  0  0  0
  149.2975  136.5005  158.3826 C   0  0  0  0  0  0  0  0  0  0  0  0
  149.0044  135.2667  159.0217 O   0  0  0  0  0  0  0  0  0  0  0  0
  148.3292  135.2947  160.2244 C   0  0  0  0  0  0  0  0  0  0  0  0
  148.0158  136.4865  160.9273 C   0  0  0  0  0  0  0  0  0  0  0  0
  147.3215  136.4336  162.1514 C   0  0  0  0  0  0  0  0  0  0  0  0
  146.9315  135.1941  162.6896 C   0  0  0  0  0  0  0  0  0  0  0  0
  147.2380  134.0059  162.0017 C   0  0  0  0  0  0  0  0  0  0  0  0
  147.9326  134.0559  160.7770 C   0  0  0  0  0  0  0  0  0  0  0  0
  148.2944  132.5814  159.9528 Cl  0  0  0  0  0  0  0  0  0  0  0  0
  155.6513  137.1283  160.4507 H   0  0  0  0  0  0  0  0  0  0  0  0
  155.0596  137.8076  158.4315 H   0  0  0  0  0  0  0  0  0  0  0  0
  153.5671  136.2832  157.1197 H   0  0  0  0  0  0  0  0  0  0  0  0
  152.6856  136.0029  158.6056 H   0  0  0  0  0  0  0  0  0  0  0  0
  152.4197  141.4980  155.7973 H   0  0  0  0  0  0  0  0  0  0  0  0
  150.3012  142.7690  156.0653 H   0  0  0  0  0  0  0  0  0  0  0  0
  148.4493  141.8483  157.4445 H   0  0  0  0  0  0  0  0  0  0  0  0
  148.7101  139.6404  158.5702 H   0  0  0  0  0  0  0  0  0  0  0  0
  151.1177  136.4481  159.5656 H   0  0  0  0  0  0  0  0  0  0  0  0
  150.0339  137.7458  159.9938 H   0  0  0  0  0  0  0  0  0  0  0  0
  148.4157  137.1434  158.3791 H   0  0  0  0  0  0  0  0  0  0  0  0
  149.5984  136.3268  157.3482 H   0  0  0  0  0  0  0  0  0  0  0  0
  148.2977  137.4571  160.5490 H   0  0  0  0  0  0  0  0  0  0  0  0
  147.0881  137.3471  162.6784 H   0  0  0  0  0  0  0  0  0  0  0  0
  146.3986  135.1544  163.6282 H   0  0  0  0  0  0  0  0  0  0  0  0
  146.9391  133.0540  162.4155 H   0  0  0  0  0  0  0  0  0  0  0  0
  1  2  2  0  0  0  0
  2  3  1  0  0  0  0
  2 24  1  0  0  0  0
  3  4  1  0  0  0  0
  3 25  1  0  0  0  0
  4  5  1  0  0  0  0
  4 26  1  0  0  0  0
  4 27  1  0  0  0  0
  5 13  1  0  0  0  0
  5  6  2  0  0  0  0
  6  7  1  0  0  0  0
  7 12  2  0  0  0  0
  7  8  1  0  0  0  0
  8  9  2  0  0  0  0
  8 28  1  0  0  0  0
  9 10  1  0  0  0  0
  9 29  1  0  0  0  0
 10 11  2  0  0  0  0
 10 30  1  0  0  0  0
 11 12  1  0  0  0  0
 11 31  1  0  0  0  0
 12 13  1  0  0  0  0
 13 14  1  0  0  0  0
 14 15  1  0  0  0  0
 14 32  1  0  0  0  0
 14 33  1  0  0  0  0
 15 16  1  0  0  0  0
 15 34  1  0  0  0  0
 15 35  1  0  0  0  0
 16 17  1  0  0  0  0
 17 22  1  0  0  0  0
 17 18  2  0  0  0  0
 18 19  1  0  0  0  0
 18 36  1  0  0  0  0
 19 20  2  0  0  0  0
 19 37  1  0  0  0  0
 20 21  1  0  0  0  0
 20 38  1  0  0  0  0
 21 22  2  0  0  0  0
 21 39  1  0  0  0  0
 22 23  1  0  0  0  0
M  END
> <s_m_source_file>
AV-unprocessed.smi

> <i_m_source_file_index>
1854

> <i_lp_mmshare_version>
43012

> <i_f3d_flags>
0

> <s_epik_input>
Tz1bQ0hdW05IXVtDSDJdYyhuMSluKGMoYzEyKVtjSF1bY0hdW2NIXVtjSF0yKVtDSDJdW0NIMl1PYzNbY0hdW2NIXVtjSF1bY0hdYzNDbA==

> <s_epik_cmdline>
J2VwaWtfcHl0aG9uJywgJy1waCcsICc3LjAnLCAnLXRuJywgJzgnLCAnLW1hJywgJzIwMCcsICctbWV0YWxfYmluZGluZycsICctaW1hZScsICc8aW5maWxlLm1hZT4nLCAnLW9tYWUnLCAnPG91dGZpbGUubWFlPic=

> <r_lp_tautomer_probability>
1

> <r_epik_Ionization_Penalty>
0.0546265

> <r_epik_Ionization_Penalty_Charging>
0

> <r_epik_Ionization_Penalty_Neutral>
0.0546265

> <r_epik_State_Penalty>
0.0470049

> <r_epik_Charging_Adjusted_Penalty>
0.0470049

> <i_epik_Tot_Q>
0

> <i_epik_Tot_abs_Q>
0

> <r_epik_Metal_State_Penalty>
0.0430103

> <b_epik_Metal_Only>
0

> <s_lp_Force_Field>
OPLS_2005

> <r_lp_Energy>
13.3616

> <b_lp_Chiralities_Consistent>
1

> <s_lp_Variant>
AV-unprocessed.smi:1854-1

> <Gold.Version>
5.8.1

> <Gold.Id.Protein>
6NUR|6NUR_protein|mol2

> <Gold.PLP.Fitness>
44.3862

> <Gold.PLP.PLP>
-36.1116

> <Gold.PLP.part.hbond>
-3.0000

> <Gold.PLP.part.metal>
0.0000

> <Gold.PLP.part.buried>
-4.5920

> <Gold.PLP.part.nonpolar>
-28.5313

> <Gold.PLP.part.repulsive>
0.0977

> <Gold.PLP.ligand.clash>
0.0000

> <Gold.PLP.ligand.torsion>
0.3872

> <Gold.PLP.Chemscore.Hbond>
3.0000

> <Gold.PLP.Chemscore.CHOScore>
0.0000

> <Gold.PLP.Chemscore.Metal>
0.0000

> <Gold.Chemscore.Hbonds>
donor molecule, donor type, donor heavy atom, donor atom, acceptor molecule, acceptor atom, score
      P1  H  6896  6908       L1    16  1.00
      P1  H  6896  6909       L1     1  0.70
      P1  H  7997  8010       L1     6  1.00

> <Gold.PLP.Chemscore.Internal.Correction>
0.0491

> <Gold.Rescore>
     Score         DG    S(hbond)    S(metal)    S(lipo)     H(rot)  DE(clash)    DE(int)     intcor
     16.33     -17.11       2.37        0.00      84.71       2.42       0.17       0.61       ----

> <Gold.Chemscore.Fitness>
16.3346

> <Gold.Chemscore.DG>
-17.1067

> <Gold.Chemscore.ZeroCoef>
-5.4800

> <Gold.Chemscore.Hbond>
2.3690

> <Gold.Chemscore.Metal>
0.0000

> <Gold.Chemscore.Lipo>
84.7080

> <Gold.Chemscore.Internal_Hbond>
0.0000

> <Gold.Chemscore.DEClash>
0.1652

> <Gold.Chemscore.DEInternal>
0.6069

> <Gold.Chemscore.Rot>
2.4205

> <Gold.Chemscore.Internal.Correction>
   9.000000E+99

> <Gold.Chemscore.Hbonds>
donor molecule, donor type, donor heavy atom, donor atom, acceptor molecule, acceptor atom, score
      P1  H  6896  6908       L1    16  0.28
      P1  H  6896  6909       L1     1  0.68
      P1  H  7997  8010       L1     6  0.39

> <Gold.Chemscore.Hbond.Weighted>
-7.9124

> <Gold.Chemscore.Metal.Weighted>
-0.0000

> <Gold.Chemscore.Lipo.Weighted>
-9.9108

> <Gold.Chemscore.Internal_Hbond.Weighted>
0.0000

> <Gold.Chemscore.DEClash.Weighted>
0.1652

> <Gold.Chemscore.DEInternal.Weighted>
0.6069

> <Gold.Chemscore.Rot.Weighted>
6.1965

> <Gold.Chemscore.Internal.Correction.Weighted>
   9.000000E+99

> <Gold.Protein.RotatedTorsions>
[ 6907 6896 6895 6894 ] final  156.91 input  -60.11 | X-H torsion
[ 7974 7965 7964 7962 ] final   50.03 input  175.53 | X-H torsion
[ 8008 7997 7996 7995 ] final   71.43 input   59.86 | X-H torsion
[ 10167 10162 10161 10158 ] final   57.46 input  -65.29 | X-H torsion
[ 10718 10713 10712 10709 ] final  -55.56 input   66.30 | X-H torsion
[ 10763 10752 10751 10750 ] final   29.52 input  -60.55 | X-H torsion
[ 11005 11000 10999 10996 ] final -131.73 input  -57.11 | X-H torsion

> <Gold.Protein.ActiveResidues>
 VAL166  LYS551  ARG553  GLY616  TRP617  ASP618  TYR619  PRO620  LYS621  CYS622 
 ASP623  PHE694  ASN695  SER759  ASP760  ASP761  ALA762  ILE779  LEU786  VAL792 
 PHE793  MET794  SER795  GLU796  ALA797  LYS798  CYS799  TRP800  GLU811  SER814 

> <Gold.Protein.RotatedAtoms>
  152.0229  133.3906  159.4265 H   0  0  0  0  0  0  0  0  0  0  0  0  # atno 6907 bound_to 6896
  150.6888  134.3606  159.4958 H   0  0  0  0  0  0  0  0  0  0  0  0  # atno 6908 bound_to 6896
  152.1382  134.9082  160.0606 H   0  0  0  0  0  0  0  0  0  0  0  0  # atno 6909 bound_to 6896
  146.0051  139.4481  142.9991 H   0  0  0  0  0  0  0  0  0  0  0  0  # atno 7974 bound_to 7965
  155.7538  140.3488  155.5164 H   0  0  0  0  0  0  0  0  0  0  0  0  # atno 8008 bound_to 7997
  155.8979  140.1029  157.1392 H   0  0  0  0  0  0  0  0  0  0  0  0  # atno 8009 bound_to 7997
  154.4040  140.1292  156.4386 H   0  0  0  0  0  0  0  0  0  0  0  0  # atno 8010 bound_to 7997
  140.1977  144.4020  150.6543 H   0  0  0  0  0  0  0  0  0  0  0  0  # atno 10167 bound_to 10162
  156.1359  130.4157  150.0187 H   0  0  0  0  0  0  0  0  0  0  0  0  # atno 10718 bound_to 10713
  153.0425  135.6487  154.0904 H   0  0  0  0  0  0  0  0  0  0  0  0  # atno 10763 bound_to 10752
  154.0608  135.2888  155.3326 H   0  0  0  0  0  0  0  0  0  0  0  0  # atno 10764 bound_to 10752
  154.6659  135.5374  153.8141 H   0  0  0  0  0  0  0  0  0  0  0  0  # atno 10765 bound_to 10752
  140.9233  134.1416  157.4296 H   0  0  0  0  0  0  0  0  0  0  0  0  # atno 11005 bound_to 11000
  145.7428  141.0002  143.1292 LP  0  0  0  0  0  0  0  0  0  0  0  0  # atno 17320 bound_to 7965
  144.6933  139.9119  143.7464 LP  0  0  0  0  0  0  0  0  0  0  0  0  # atno 17321 bound_to 7965
  140.6412  143.2204  151.6286 LP  0  0  0  0  0  0  0  0  0  0  0  0  # atno 17342 bound_to 10162
  139.5230  144.3147  152.0963 LP  0  0  0  0  0  0  0  0  0  0  0  0  # atno 17343 bound_to 10162
  156.8087  130.9317  151.3644 LP  0  0  0  0  0  0  0  0  0  0  0  0  # atno 17370 bound_to 10713
  157.6531  130.8901  149.9674 LP  0  0  0  0  0  0  0  0  0  0  0  0  # atno 17371 bound_to 10713
  139.8780  134.9979  156.5871 LP  0  0  0  0  0  0  0  0  0  0  0  0  # atno 17394 bound_to 11000
  140.7960  133.8544  155.8686 LP  0  0  0  0  0  0  0  0  0  0  0  0  # atno 17395 bound_to 11000

$$$$
