#       Name:                AV-unprocessed.smi:3261
#       Creating user name   scv26
#       Creation time:       Fri Mar 27 18:38:05 2020


#       File generated by GOLD software.
#

@<TRIPOS>MOLECULE
AV-unprocessed.smi:3261
    33    34     1
SMALL
NO_CHARGES


@<TRIPOS>ATOM
      1 ****         0.4939   2.8380   0.2227 O.2            1 S1                 0.0000
      2 ****         0.1754   1.6512   0.2075 C.2            1 S1                 0.0000
      3 ****         1.0431   0.6204   0.1626 N.am           1 S1                 0.0000
      4 ****         2.4642   0.6403   0.1839 C.ar           1 S1                 0.0000
      5 ****         3.1379  -0.5314  -0.2188 C.ar           1 S1                 0.0000
      6 ****         4.5465  -0.5495  -0.1912 C.ar           1 S1                 0.0000
      7 ****         5.2933   0.5000   0.2107 N.ar           1 S1                 0.0000
      8 ****         4.6474   1.6166   0.6077 C.ar           1 S1                 0.0000
      9 ****         3.2435   1.7398   0.6183 C.ar           1 S1                 0.0000
     10 ****        -1.1186   1.2825   0.2024 N.am           1 S1                 0.0000
     11 ****        -2.3056   2.1384   0.2429 C.3            1 S1                 0.0000
     12 ****        -3.5402   1.3952  -0.3001 C.3            1 S1                 0.0000
     13 ****        -4.7978   2.1835   0.0865 C.3            1 S1                 0.0000
     14 ****        -4.4106   3.0136   1.6746 S.o2           1 S1                 0.0000
     15 ****        -4.5740   4.4653   1.5052 O.2            1 S1                 0.0000
     16 ****        -5.0692   2.3007   2.7795 O.2            1 S1                 0.0000
     17 ****        -2.6263   2.5988   1.6739 C.3            1 S1                 0.0000
     18 ****         0.6295  -0.2954   0.0684 H              1 S1                 0.0000
     19 ****         2.5896  -1.4024  -0.5473 H              1 S1                 0.0000
     20 ****         5.0875  -1.4322  -0.4984 H              1 S1                 0.0000
     21 ****         5.2683   2.4377   0.9338 H              1 S1                 0.0000
     22 ****         2.8034   2.6604   0.9681 H              1 S1                 0.0000
     23 ****        -1.2982   0.2908   0.1352 H              1 S1                 0.0000
     24 ****        -2.1561   3.0181  -0.3859 H              1 S1                 0.0000
     25 ****        -3.4812   1.2430  -1.3784 H              1 S1                 0.0000
     26 ****        -3.5951   0.4062   0.1576 H              1 S1                 0.0000
     27 ****        -5.0125   2.9557  -0.6527 H              1 S1                 0.0000
     28 ****        -5.6794   1.5518   0.1956 H              1 S1                 0.0000
     29 ****        -2.4738   1.7914   2.3913 H              1 S1                 0.0000
     30 ****        -2.0411   3.4619   1.9917 H              1 S1                 0.0000
     31 ****         1.4595   3.0968   0.2012 LP             1 S1                 0.0000
     32 ****        -0.2127   3.5449   0.2566 LP             1 S1                 0.0000
     33 ****         6.2922   0.4521   0.2143 LP             1 S1                 0.0000
@<TRIPOS>BOND
    1    1    2 2     
    2    2    3 am    
    3    2   10 am    
    4    3    4 1     
    5    3   18 1     
    6    4    9 ar    
    7    4    5 ar    
    8    5    6 ar    
    9    5   19 1     
   10    6    7 ar    
   11    6   20 1     
   12    7    8 ar    
   13    8    9 ar    
   14    8   21 1     
   15    9   22 1     
   16   10   11 1     
   17   10   23 1     
   18   11   17 1     
   19   11   12 1     
   20   11   24 1     
   21   12   13 1     
   22   12   25 1     
   23   12   26 1     
   24   13   14 1     
   25   13   27 1     
   26   13   28 1     
   27   14   15 2     
   28   14   16 2     
   29   14   17 1     
   30   17   29 1     
   31   17   30 1     
   32    1   31 1     
   33    1   32 1     
   34    7   33 1     
@<TRIPOS>SUBSTRUCTURE
      1 S1             1
@<TRIPOS>SET
LONE_PAIRS      STATIC     ATOMS    <user>   **** ""
5 31 32 33 15 16
DONOR_HYDROGENS      STATIC     ATOMS    <user>   **** ""
2 18 23
ATOM$BLUE        STATIC     ATOMS    COLORGROUP SYSTEM
5 31 32 33 15 16
ATOM$RED        STATIC     ATOMS    COLORGROUP SYSTEM
2 18 23
