AV-unprocessed.smi:588|AV-procd|sdf|3004|dock3
  -GOLD-   2262023513D 1   1.00000     0.00000
 Structure written by MMmdl.
 50 51  0  0  0  0  0  0  0  0  1 V2000
  147.9751  141.7005  154.3406 C   0  0  0  0  0  0  0  0  0  0  0  0
  148.5125  140.5148  155.1478 C   0  0  0  0  0  0  0  0  0  0  0  0
  148.6595  140.8441  156.6426 C   0  0  0  0  0  0  0  0  0  0  0  0
  149.2688  139.7648  157.3943 N   0  0  0  0  0  0  0  0  0  0  0  0
  148.5833  138.6109  157.7853 C   0  0  0  0  0  0  0  0  0  0  0  0
  147.2486  138.4914  157.4268 N   0  0  0  0  0  0  0  0  0  0  0  0
  149.1952  137.6218  158.5025 C   0  0  0  0  0  0  0  0  0  0  0  0
  148.5131  136.4474  158.8683 N   0  0  0  0  0  0  0  0  0  0  0  0
  148.6552  135.2952  157.9653 C   0  0  0  0  0  0  0  0  0  0  0  0
  148.1205  135.6044  156.5579 C   0  0  0  0  0  0  0  0  0  0  0  0
  148.3891  134.4991  155.7125 O   0  0  0  0  0  0  0  0  0  0  0  0
  149.7678  134.3707  155.4118 C   0  0  0  0  0  0  0  0  0  0  0  0
  147.7635  136.3558  159.9992 C   0  0  0  0  0  0  0  0  0  0  0  0
  147.5617  137.3336  160.7220 O   0  0  0  0  0  0  0  0  0  0  0  0
  147.1634  134.9942  160.4309 C   0  0  0  0  0  0  0  0  0  0  0  0
  145.6207  135.0582  160.5199 C   0  0  0  0  0  0  0  0  0  0  0  0
  145.2377  134.6774  161.9546 C   0  0  0  0  0  0  0  0  0  0  0  0
  146.4878  134.9502  162.7844 C   0  0  0  0  0  0  0  0  0  0  0  0
  147.6321  134.5813  161.8420 C   0  0  0  0  0  0  0  0  0  0  0  0
  150.6162  137.7265  158.8608 C   0  0  0  0  0  0  0  0  0  0  0  0
  151.2614  136.8908  159.4925 O   0  0  0  0  0  0  0  0  0  0  0  0
  151.2476  138.8850  158.4161 N   0  0  0  0  0  0  0  0  0  0  0  0
  150.6460  139.9073  157.6907 C   0  0  0  0  0  0  0  0  0  0  0  0
  151.3216  140.8746  157.3380 O   0  0  0  0  0  0  0  0  0  0  0  0
  152.2286  138.9878  158.6315 H   0  0  0  0  0  0  0  0  0  0  0  0
  147.8809  141.4415  153.2859 H   0  0  0  0  0  0  0  0  0  0  0  0
  148.6415  142.5602  154.4142 H   0  0  0  0  0  0  0  0  0  0  0  0
  146.9915  142.0062  154.6981 H   0  0  0  0  0  0  0  0  0  0  0  0
  147.8431  139.6628  155.0237 H   0  0  0  0  0  0  0  0  0  0  0  0
  149.4765  140.2111  154.7383 H   0  0  0  0  0  0  0  0  0  0  0  0
  149.2461  141.7495  156.8082 H   0  0  0  0  0  0  0  0  0  0  0  0
  147.6938  141.0478  157.1044 H   0  0  0  0  0  0  0  0  0  0  0  0
  146.7727  139.2091  156.8988 H   0  0  0  0  0  0  0  0  0  0  0  0
  146.6882  137.7023  157.7156 H   0  0  0  0  0  0  0  0  0  0  0  0
  149.6987  134.9798  157.9114 H   0  0  0  0  0  0  0  0  0  0  0  0
  148.1126  134.4382  158.3672 H   0  0  0  0  0  0  0  0  0  0  0  0
  147.0455  135.7872  156.5963 H   0  0  0  0  0  0  0  0  0  0  0  0
  148.5926  136.5018  156.1555 H   0  0  0  0  0  0  0  0  0  0  0  0
  149.9225  133.5110  154.7598 H   0  0  0  0  0  0  0  0  0  0  0  0
  150.3563  134.2168  156.3170 H   0  0  0  0  0  0  0  0  0  0  0  0
  150.1431  135.2558  154.8966 H   0  0  0  0  0  0  0  0  0  0  0  0
  147.4590  134.1943  159.7533 H   0  0  0  0  0  0  0  0  0  0  0  0
  145.2463  136.0592  160.2977 H   0  0  0  0  0  0  0  0  0  0  0  0
  145.1528  134.3856  159.8003 H   0  0  0  0  0  0  0  0  0  0  0  0
  144.3674  135.2262  162.3156 H   0  0  0  0  0  0  0  0  0  0  0  0
  144.9989  133.6139  161.9980 H   0  0  0  0  0  0  0  0  0  0  0  0
  146.5411  136.0094  163.0397 H   0  0  0  0  0  0  0  0  0  0  0  0
  146.5083  134.3805  163.7138 H   0  0  0  0  0  0  0  0  0  0  0  0
  147.7898  133.5022  161.8682 H   0  0  0  0  0  0  0  0  0  0  0  0
  148.5734  135.0433  162.1442 H   0  0  0  0  0  0  0  0  0  0  0  0
  1  2  1  0  0  0  0
  1 26  1  0  0  0  0
  1 27  1  0  0  0  0
  1 28  1  0  0  0  0
  2  3  1  0  0  0  0
  2 29  1  0  0  0  0
  2 30  1  0  0  0  0
  3  4  1  0  0  0  0
  3 31  1  0  0  0  0
  3 32  1  0  0  0  0
  4 23  1  0  0  0  0
  4  5  1  0  0  0  0
  5  6  1  0  0  0  0
  5  7  2  0  0  0  0
  6 33  1  0  0  0  0
  6 34  1  0  0  0  0
  7  8  1  0  0  0  0
  7 20  1  0  0  0  0
  8  9  1  0  0  0  0
  8 13  1  0  0  0  0
  9 10  1  0  0  0  0
  9 35  1  0  0  0  0
  9 36  1  0  0  0  0
 10 11  1  0  0  0  0
 10 37  1  0  0  0  0
 10 38  1  0  0  0  0
 11 12  1  0  0  0  0
 12 39  1  0  0  0  0
 12 40  1  0  0  0  0
 12 41  1  0  0  0  0
 13 14  2  0  0  0  0
 13 15  1  0  0  0  0
 15 19  1  0  0  0  0
 15 16  1  0  0  0  0
 15 42  1  0  0  0  0
 16 17  1  0  0  0  0
 16 43  1  0  0  0  0
 16 44  1  0  0  0  0
 17 18  1  0  0  0  0
 17 45  1  0  0  0  0
 17 46  1  0  0  0  0
 18 19  1  0  0  0  0
 18 47  1  0  0  0  0
 18 48  1  0  0  0  0
 19 49  1  0  0  0  0
 19 50  1  0  0  0  0
 20 21  2  0  0  0  0
 20 22  1  0  0  0  0
 22 25  1  0  0  0  0
 22 23  1  0  0  0  0
 23 24  2  0  0  0  0
M  END
> <s_m_source_file>
AV-unprocessed.smi

> <i_m_source_file_index>
588

> <i_lp_mmshare_version>
43012

> <i_f3d_flags>
0

> <s_epik_input>
W0NIM11bQ0gyXVtDSDJdbjFjKFtOSDJdKWMoYyg9TylbbkhdYzE9TylOKFtDSDJdW0NIMl1PW0NIM10pQyg9TylbQ0hdMltDSDJdW0NIMl1bQ0gyXVtDSDJdMg==

> <s_epik_cmdline>
J2VwaWtfcHl0aG9uJywgJy1waCcsICc3LjAnLCAnLXRuJywgJzgnLCAnLW1hJywgJzIwMCcsICctbWV0YWxfYmluZGluZycsICctaW1hZScsICc8aW5maWxlLm1hZT4nLCAnLW9tYWUnLCAnPG91dGZpbGUubWFlPic=

> <r_lp_tautomer_probability>
1

> <r_epik_Ionization_Penalty>
2.06963e-05

> <r_epik_Ionization_Penalty_Charging>
5.41733e-06

> <r_epik_Ionization_Penalty_Neutral>
1.52789e-05

> <r_epik_State_Penalty>
-0

> <r_epik_Charging_Adjusted_Penalty>
5.41733e-06

> <i_epik_Tot_Q>
0

> <i_epik_Tot_abs_Q>
0

> <r_epik_Metal_State_Penalty>
-0

> <b_epik_Metal_Only>
0

> <s_epik_Chemistry_Notes>
This compound has an imine and may undergo hydrolysis.

> <s_lp_Force_Field>
OPLS_2005

> <r_lp_Energy>
42.8074

> <b_lp_Chiralities_Consistent>
1

> <s_lp_Variant>
AV-unprocessed.smi:588-1

> <Gold.Version>
5.8.1

> <Gold.Id.Protein>
6NUR|6NUR_protein|mol2

> <Gold.PLP.Fitness>
37.6270

> <Gold.PLP.PLP>
-30.7357

> <Gold.PLP.part.hbond>
-3.0000

> <Gold.PLP.part.metal>
0.0000

> <Gold.PLP.part.buried>
-5.3090

> <Gold.PLP.part.nonpolar>
-23.1684

> <Gold.PLP.part.repulsive>
0.1997

> <Gold.PLP.ligand.clash>
0.0000

> <Gold.PLP.ligand.torsion>
1.8072

> <Gold.PLP.Chemscore.Hbond>
2.6800

> <Gold.PLP.Chemscore.CHOScore>
0.0000

> <Gold.PLP.Chemscore.Metal>
0.0000

> <Gold.Chemscore.Hbonds>
donor molecule, donor type, donor heavy atom, donor atom, acceptor molecule, acceptor atom, score
      P1  H  6896  6909       L1    21  1.00
      P1  H  6931  6943       L1    14  0.62
      P1  H  6934  6947       L1    14  0.98

> <Gold.PLP.Chemscore.Internal.Correction>
2.4658

> <Gold.Rescore>
     Score         DG    S(hbond)    S(metal)    S(lipo)     H(rot)  DE(clash)    DE(int)     intcor
     14.73     -16.46       2.69        0.00      62.31       2.07       0.01       1.71       ----

> <Gold.Chemscore.Fitness>
14.7343

> <Gold.Chemscore.DG>
-16.4567

> <Gold.Chemscore.ZeroCoef>
-5.4800

> <Gold.Chemscore.Hbond>
2.6877

> <Gold.Chemscore.Metal>
0.0000

> <Gold.Chemscore.Lipo>
62.3089

> <Gold.Chemscore.Internal_Hbond>
0.0000

> <Gold.Chemscore.DEClash>
0.0088

> <Gold.Chemscore.DEInternal>
1.7135

> <Gold.Chemscore.Rot>
2.0666

> <Gold.Chemscore.Internal.Correction>
   9.000000E+99

> <Gold.Chemscore.Hbonds>
donor molecule, donor type, donor heavy atom, donor atom, acceptor molecule, acceptor atom, score
      P1  H  6896  6909       L1    21  1.00
      P1  H  6931  6943       L1    14  0.61
      P1  H  6934  6947       L1    14  0.93

> <Gold.Chemscore.Hbond.Weighted>
-8.9770

> <Gold.Chemscore.Metal.Weighted>
-0.0000

> <Gold.Chemscore.Lipo.Weighted>
-7.2901

> <Gold.Chemscore.Internal_Hbond.Weighted>
0.0000

> <Gold.Chemscore.DEClash.Weighted>
0.0088

> <Gold.Chemscore.DEInternal.Weighted>
1.7135

> <Gold.Chemscore.Rot.Weighted>
5.2905

> <Gold.Chemscore.Internal.Correction.Weighted>
   9.000000E+99

> <Gold.Protein.RotatedTorsions>
[ 6907 6896 6895 6894 ] final  102.09 input  -60.11 | X-H torsion
[ 7974 7965 7964 7962 ] final  -96.41 input  175.53 | X-H torsion
[ 8008 7997 7996 7995 ] final -132.40 input   59.86 | X-H torsion
[ 10167 10162 10161 10158 ] final   -1.61 input  -65.29 | X-H torsion
[ 10718 10713 10712 10709 ] final  140.55 input   66.30 | X-H torsion
[ 10763 10752 10751 10750 ] final  106.37 input  -60.55 | X-H torsion
[ 11005 11000 10999 10996 ] final  -29.61 input  -57.11 | X-H torsion

> <Gold.Protein.ActiveResidues>
 VAL166  LYS551  ARG553  GLY616  TRP617  ASP618  TYR619  PRO620  LYS621  CYS622 
 ASP623  PHE694  ASN695  SER759  ASP760  ASP761  ALA762  ILE779  LEU786  VAL792 
 PHE793  MET794  SER795  GLU796  ALA797  LYS798  CYS799  TRP800  GLU811  SER814 

> <Gold.Protein.RotatedAtoms>
  152.5333  134.0028  159.7902 H   0  0  0  0  0  0  0  0  0  0  0  0  # atno 6907 bound_to 6896
  151.0244  133.5839  159.2675 H   0  0  0  0  0  0  0  0  0  0  0  0  # atno 6908 bound_to 6896
  151.2867  135.0737  159.9243 H   0  0  0  0  0  0  0  0  0  0  0  0  # atno 6909 bound_to 6896
  145.3473  140.9470  143.2574 H   0  0  0  0  0  0  0  0  0  0  0  0  # atno 7974 bound_to 7965
  155.3283  140.0465  157.3042 H   0  0  0  0  0  0  0  0  0  0  0  0  # atno 8008 bound_to 7997
  154.5342  140.2267  155.8717 H   0  0  0  0  0  0  0  0  0  0  0  0  # atno 8009 bound_to 7997
  156.1819  140.3072  155.9171 H   0  0  0  0  0  0  0  0  0  0  0  0  # atno 8010 bound_to 7997
  140.6817  143.6755  150.8149 H   0  0  0  0  0  0  0  0  0  0  0  0  # atno 10167 bound_to 10162
  157.4020  131.1018  151.0541 H   0  0  0  0  0  0  0  0  0  0  0  0  # atno 10718 bound_to 10713
  153.3920  135.3879  155.1929 H   0  0  0  0  0  0  0  0  0  0  0  0  # atno 10763 bound_to 10752
  154.8720  135.3750  154.4725 H   0  0  0  0  0  0  0  0  0  0  0  0  # atno 10764 bound_to 10752
  153.5213  135.7087  153.5791 H   0  0  0  0  0  0  0  0  0  0  0  0  # atno 10765 bound_to 10752
  140.9311  133.7337  156.0938 H   0  0  0  0  0  0  0  0  0  0  0  0  # atno 11005 bound_to 11000
  144.8744  139.4992  143.6752 LP  0  0  0  0  0  0  0  0  0  0  0  0  # atno 17320 bound_to 7965
  146.2983  139.7345  142.9110 LP  0  0  0  0  0  0  0  0  0  0  0  0  # atno 17321 bound_to 7965
  140.0456  143.5302  152.2698 LP  0  0  0  0  0  0  0  0  0  0  0  0  # atno 17342 bound_to 10162
  139.6145  144.7616  151.2878 LP  0  0  0  0  0  0  0  0  0  0  0  0  # atno 17343 bound_to 10162
  157.1537  130.6195  149.5590 LP  0  0  0  0  0  0  0  0  0  0  0  0  # atno 17370 bound_to 10713
  155.9826  130.4840  150.6889 LP  0  0  0  0  0  0  0  0  0  0  0  0  # atno 17371 bound_to 10713
  140.7860  134.3671  157.5476 LP  0  0  0  0  0  0  0  0  0  0  0  0  # atno 17394 bound_to 11000
  139.8797  134.9111  156.3029 LP  0  0  0  0  0  0  0  0  0  0  0  0  # atno 17395 bound_to 11000

$$$$
