AV-unprocessed.smi:1072|AV-procd|sdf|4684|dock10
  -GOLD-   22720 3203D 1   1.00000     0.00000
 Structure written by MMmdl.
 46 47  0  0  0  0  0  0  0  0  1 V2000
  152.4412  143.9354  161.1545 C   0  0  0  0  0  0  0  0  0  0  0  0
  152.4177  142.5930  160.4545 C   0  0  0  0  0  0  0  0  0  0  0  0
  153.2976  141.6654  160.6439 N   0  0  0  0  0  0  0  0  0  0  0  0
  153.1710  140.4620  159.9363 C   0  0  0  0  0  0  0  0  0  0  0  0
  154.2398  139.4196  160.2181 C   0  0  0  0  0  0  0  0  0  0  0  0
  152.1474  140.2530  159.0567 C   0  0  0  0  0  0  0  0  0  0  0  0
  151.9820  138.9505  158.2749 C   0  0  0  0  0  0  0  0  0  0  0  0
  150.9580  137.9631  158.8399 C   0  0  0  0  0  0  0  0  0  0  0  0
  151.3370  136.9785  159.4737 O   0  0  0  0  0  0  0  0  0  0  0  0
  149.6685  138.2448  158.5800 N   0  0  0  0  0  0  0  0  0  0  0  0
  148.4593  137.4813  158.9188 C   0  0  1  0  0  0  0  0  0  0  0  0
  147.2831  138.4434  158.6460 C   0  0  0  0  0  0  0  0  0  0  0  0
  148.3472  136.2244  158.0128 C   0  0  0  0  0  0  0  0  0  0  0  0
  147.1865  135.2944  158.4088 C   0  0  0  0  0  0  0  0  0  0  0  0
  147.2667  134.8822  159.8897 C   0  0  2  0  0  0  0  0  0  0  0  0
  146.1087  133.9506  160.2751 C   0  0  0  0  0  0  0  0  0  0  0  0
  147.3126  136.1279  160.7935 C   0  0  0  0  0  0  0  0  0  0  0  0
  148.4746  137.0646  160.4155 C   0  0  0  0  0  0  0  0  0  0  0  0
  151.1492  141.3198  158.8476 C   0  0  0  0  0  0  0  0  0  0  0  0
  150.1881  141.2371  158.0842 O   0  0  0  0  0  0  0  0  0  0  0  0
  151.3492  142.4432  159.5724 N   0  0  0  0  0  0  0  0  0  0  0  0
  150.6915  143.2018  159.4665 H   0  0  0  0  0  0  0  0  0  0  0  0
  152.3616  143.7979  162.2332 H   0  0  0  0  0  0  0  0  0  0  0  0
  151.6181  144.5736  160.8300 H   0  0  0  0  0  0  0  0  0  0  0  0
  153.3776  144.4523  160.9428 H   0  0  0  0  0  0  0  0  0  0  0  0
  154.8030  139.1935  159.3125 H   0  0  0  0  0  0  0  0  0  0  0  0
  153.7920  138.4976  160.5893 H   0  0  0  0  0  0  0  0  0  0  0  0
  154.9461  139.7711  160.9712 H   0  0  0  0  0  0  0  0  0  0  0  0
  151.7183  139.1529  157.2364 H   0  0  0  0  0  0  0  0  0  0  0  0
  152.9543  138.4594  158.2226 H   0  0  0  0  0  0  0  0  0  0  0  0
  149.5016  139.0901  158.0536 H   0  0  0  0  0  0  0  0  0  0  0  0
  146.3145  137.9917  158.8542 H   0  0  0  0  0  0  0  0  0  0  0  0
  147.2687  138.7638  157.6034 H   0  0  0  0  0  0  0  0  0  0  0  0
  147.3567  139.3408  159.2615 H   0  0  0  0  0  0  0  0  0  0  0  0
  148.2411  136.5212  156.9686 H   0  0  0  0  0  0  0  0  0  0  0  0
  149.2635  135.6366  158.0609 H   0  0  0  0  0  0  0  0  0  0  0  0
  146.2313  135.7800  158.2073 H   0  0  0  0  0  0  0  0  0  0  0  0
  147.2088  134.4053  157.7777 H   0  0  0  0  0  0  0  0  0  0  0  0
  148.1956  134.3285  160.0343 H   0  0  0  0  0  0  0  0  0  0  0  0
  145.1442  134.4440  160.1506 H   0  0  0  0  0  0  0  0  0  0  0  0
  146.1886  133.6338  161.3152 H   0  0  0  0  0  0  0  0  0  0  0  0
  146.1054  133.0523  159.6570 H   0  0  0  0  0  0  0  0  0  0  0  0
  146.3651  136.6642  160.7376 H   0  0  0  0  0  0  0  0  0  0  0  0
  147.4227  135.8228  161.8348 H   0  0  0  0  0  0  0  0  0  0  0  0
  149.4004  136.5443  160.6581 H   0  0  0  0  0  0  0  0  0  0  0  0
  148.4565  137.9494  161.0533 H   0  0  0  0  0  0  0  0  0  0  0  0
  1  2  1  0  0  0  0
  1 23  1  0  0  0  0
  1 24  1  0  0  0  0
  1 25  1  0  0  0  0
  2 21  1  0  0  0  0
  2  3  2  0  0  0  0
  3  4  1  0  0  0  0
  4  5  1  0  0  0  0
  4  6  2  0  0  0  0
  5 26  1  0  0  0  0
  5 27  1  0  0  0  0
  5 28  1  0  0  0  0
  6  7  1  0  0  0  0
  6 19  1  0  0  0  0
  7  8  1  0  0  0  0
  7 29  1  0  0  0  0
  7 30  1  0  0  0  0
  8  9  2  0  0  0  0
  8 10  1  0  0  0  0
 10 11  1  0  0  0  0
 10 31  1  0  0  0  0
 11 18  1  0  0  0  0
 11 12  1  0  0  0  0
 11 13  1  0  0  0  0
 12 32  1  0  0  0  0
 12 33  1  0  0  0  0
 12 34  1  0  0  0  0
 13 14  1  0  0  0  0
 13 35  1  0  0  0  0
 13 36  1  0  0  0  0
 14 15  1  0  0  0  0
 14 37  1  0  0  0  0
 14 38  1  0  0  0  0
 15 16  1  0  0  0  0
 15 17  1  0  0  0  0
 15 39  1  0  0  0  0
 16 40  1  0  0  0  0
 16 41  1  0  0  0  0
 16 42  1  0  0  0  0
 17 18  1  0  0  0  0
 17 43  1  0  0  0  0
 17 44  1  0  0  0  0
 18 45  1  0  0  0  0
 18 46  1  0  0  0  0
 19 20  2  0  0  0  0
 19 21  1  0  0  0  0
 21 22  1  0  0  0  0
M  END
> <s_m_source_file>
AV-unprocessed.smi

> <i_m_source_file_index>
1072

> <i_lp_mmshare_version>
43012

> <i_f3d_flags>
0

> <s_epik_input>
W0NIM11jMW5jKFtDSDNdKWMoYyg9TylbbkhdMSlbQ0gyXUMoPU8pW05IXVtDQEBdMihbQ0gzXSlbQ0gyXVtDSDJdW0NAQEhdKFtDSDNdKVtDSDJdW0NIMl0y

> <s_epik_cmdline>
J2VwaWtfcHl0aG9uJywgJy1waCcsICc3LjAnLCAnLXRuJywgJzgnLCAnLW1hJywgJzIwMCcsICctbWV0YWxfYmluZGluZycsICctaW1hZScsICc8aW5maWxlLm1hZT4nLCAnLW9tYWUnLCAnPG91dGZpbGUubWFlPic=

> <r_lp_tautomer_probability>
0.839158

> <r_epik_Ionization_Penalty>
0.000352328

> <r_epik_Ionization_Penalty_Charging>
0.000314696

> <r_epik_Ionization_Penalty_Neutral>
3.76315e-05

> <r_epik_State_Penalty>
0.09125

> <r_epik_Charging_Adjusted_Penalty>
0.0915647

> <i_epik_Tot_Q>
0

> <i_epik_Tot_abs_Q>
0

> <r_epik_Metal_State_Penalty>
0.245598

> <b_epik_Metal_Only>
0

> <s_lp_Force_Field>
OPLS_2005

> <r_lp_Energy>
14.8959

> <b_lp_Chiralities_Consistent>
1

> <s_lp_Variant>
AV-unprocessed.smi:1072-2

> <Gold.Version>
5.8.1

> <Gold.Id.Protein>
6NUR|6NUR_protein|mol2

> <Gold.PLP.Fitness>
31.3786

> <Gold.PLP.PLP>
-29.8387

> <Gold.PLP.part.hbond>
-1.0000

> <Gold.PLP.part.metal>
0.0000

> <Gold.PLP.part.buried>
-4.6867

> <Gold.PLP.part.nonpolar>
-24.7695

> <Gold.PLP.part.repulsive>
0.2564

> <Gold.PLP.ligand.clash>
0.0000

> <Gold.PLP.ligand.torsion>
0.7318

> <Gold.PLP.Chemscore.Hbond>
1.0000

> <Gold.PLP.Chemscore.CHOScore>
0.0000

> <Gold.PLP.Chemscore.Metal>
0.0000

> <Gold.Chemscore.Hbonds>
donor molecule, donor type, donor heavy atom, donor atom, acceptor molecule, acceptor atom, score
      P1  H  6896  6909       L1     9  1.00

> <Gold.PLP.Chemscore.Internal.Correction>
0.0034

> <Gold.Rescore>
     Score         DG    S(hbond)    S(metal)    S(lipo)     H(rot)  DE(clash)    DE(int)     intcor
     11.31     -13.29       1.00        0.00      70.38       1.47       0.03       1.95       ----

> <Gold.Chemscore.Fitness>
11.3097

> <Gold.Chemscore.DG>
-13.2941

> <Gold.Chemscore.ZeroCoef>
-5.4800

> <Gold.Chemscore.Hbond>
1.0000

> <Gold.Chemscore.Metal>
0.0000

> <Gold.Chemscore.Lipo>
70.3828

> <Gold.Chemscore.Internal_Hbond>
0.0000

> <Gold.Chemscore.DEClash>
0.0318

> <Gold.Chemscore.DEInternal>
1.9526

> <Gold.Chemscore.Rot>
1.4690

> <Gold.Chemscore.Internal.Correction>
   9.000000E+99

> <Gold.Chemscore.Hbonds>
donor molecule, donor type, donor heavy atom, donor atom, acceptor molecule, acceptor atom, score
      P1  H  6896  6909       L1     9  0.99

> <Gold.Chemscore.Hbond.Weighted>
-3.3400

> <Gold.Chemscore.Metal.Weighted>
-0.0000

> <Gold.Chemscore.Lipo.Weighted>
-8.2348

> <Gold.Chemscore.Internal_Hbond.Weighted>
0.0000

> <Gold.Chemscore.DEClash.Weighted>
0.0318

> <Gold.Chemscore.DEInternal.Weighted>
1.9526

> <Gold.Chemscore.Rot.Weighted>
3.7607

> <Gold.Chemscore.Internal.Correction.Weighted>
   9.000000E+99

> <Gold.Protein.RotatedTorsions>
[ 6907 6896 6895 6894 ] final  120.99 input  -60.11 | X-H torsion
[ 7974 7965 7964 7962 ] final   75.35 input  175.53 | X-H torsion
[ 8008 7997 7996 7995 ] final  -13.80 input   59.86 | X-H torsion
[ 10167 10162 10161 10158 ] final   45.12 input  -65.29 | X-H torsion
[ 10718 10713 10712 10709 ] final   -9.97 input   66.30 | X-H torsion
[ 10763 10752 10751 10750 ] final  -54.40 input  -60.55 | X-H torsion
[ 11005 11000 10999 10996 ] final  -11.79 input  -57.11 | X-H torsion

> <Gold.Protein.ActiveResidues>
 VAL166  LYS551  ARG553  GLY616  TRP617  ASP618  TYR619  PRO620  LYS621  CYS622 
 ASP623  PHE694  ASN695  SER759  ASP760  ASP761  ALA762  ILE779  LEU786  VAL792 
 PHE793  MET794  SER795  GLU796  ALA797  LYS798  CYS799  TRP800  GLU811  SER814 

> <Gold.Protein.RotatedAtoms>
  152.4356  133.7355  159.6611 H   0  0  0  0  0  0  0  0  0  0  0  0  # atno 6907 bound_to 6896
  150.8240  133.8194  159.3133 H   0  0  0  0  0  0  0  0  0  0  0  0  # atno 6908 bound_to 6896
  151.5867  135.1058  160.0081 H   0  0  0  0  0  0  0  0  0  0  0  0  # atno 6909 bound_to 6896
  145.7167  139.2633  143.1620 H   0  0  0  0  0  0  0  0  0  0  0  0  # atno 7974 bound_to 7965
  154.5263  140.2240  155.8885 H   0  0  0  0  0  0  0  0  0  0  0  0  # atno 8008 bound_to 7997
  156.1716  140.3120  155.8948 H   0  0  0  0  0  0  0  0  0  0  0  0  # atno 8009 bound_to 7997
  155.3546  140.0457  157.3037 H   0  0  0  0  0  0  0  0  0  0  0  0  # atno 8010 bound_to 7997
  140.3273  144.2631  150.6173 H   0  0  0  0  0  0  0  0  0  0  0  0  # atno 10167 bound_to 10162
  156.6804  130.5035  149.5973 H   0  0  0  0  0  0  0  0  0  0  0  0  # atno 10718 bound_to 10713
  154.1742  135.6454  153.5017 H   0  0  0  0  0  0  0  0  0  0  0  0  # atno 10763 bound_to 10752
  153.0076  135.5390  154.6581 H   0  0  0  0  0  0  0  0  0  0  0  0  # atno 10764 bound_to 10752
  154.5928  135.2936  155.0590 H   0  0  0  0  0  0  0  0  0  0  0  0  # atno 10765 bound_to 10752
  140.7590  133.8530  155.9108 H   0  0  0  0  0  0  0  0  0  0  0  0  # atno 11005 bound_to 11000
  146.0663  140.7917  142.9710 LP  0  0  0  0  0  0  0  0  0  0  0  0  # atno 17320 bound_to 7965
  144.6927  140.3274  143.7222 LP  0  0  0  0  0  0  0  0  0  0  0  0  # atno 17321 bound_to 7965
  140.5429  143.2220  151.8055 LP  0  0  0  0  0  0  0  0  0  0  0  0  # atno 17342 bound_to 10162
  139.4863  144.4577  151.9578 LP  0  0  0  0  0  0  0  0  0  0  0  0  # atno 17343 bound_to 10162
  156.1872  130.6537  151.1020 LP  0  0  0  0  0  0  0  0  0  0  0  0  # atno 17370 bound_to 10713
  157.7046  131.0762  150.6710 LP  0  0  0  0  0  0  0  0  0  0  0  0  # atno 17371 bound_to 10713
  140.9681  134.1567  157.4599 LP  0  0  0  0  0  0  0  0  0  0  0  0  # atno 17394 bound_to 11000
  139.8774  134.9969  156.5817 LP  0  0  0  0  0  0  0  0  0  0  0  0  # atno 17395 bound_to 11000

$$$$
