AV-unprocessed.smi:966|AV-procd|sdf|4283|dock4
  -GOLD-   22720 2193D 1   1.00000     0.00000
 Structure written by MMmdl.
 30 31  0  0  0  0  0  0  0  0  2 V2000
  150.8254  138.5020  153.7786 C   0  0  0  0  0  0  0  0  0  0  0  0
  151.0657  139.2391  155.0836 C   0  0  0  0  0  0  0  0  0  0  0  0
  152.1719  138.8474  155.9275 C   0  0  0  0  0  0  0  0  0  0  0  0
  152.3719  139.5194  157.1178 C   0  0  0  0  0  0  0  0  0  0  0  0
  153.2667  139.3555  157.9802 O   0  5  0  0  0  0  0  0  0  0  0  0
  151.4961  140.5848  157.5156 N   0  0  0  0  0  0  0  0  0  0  0  0
  151.6827  141.3106  158.8061 C   0  0  0  0  0  0  0  0  0  0  0  0
  152.3243  142.6978  158.6008 C   0  0  2  0  0  0  0  0  0  0  0  0
  152.3185  143.5635  159.8602 C   0  0  0  0  0  0  0  0  0  0  0  0
  152.3752  144.9562  159.2765 C   0  0  0  0  0  0  0  0  0  0  0  0
  151.4698  144.8114  158.0583 C   0  0  0  0  0  0  0  0  0  0  0  0
  151.6108  143.4604  157.6284 O   0  0  0  0  0  0  0  0  0  0  0  0
  150.4601  140.9953  156.7163 C   0  0  0  0  0  0  0  0  0  0  0  0
  149.7228  141.9344  157.0268 O   0  0  0  0  0  0  0  0  0  0  0  0
  150.2668  140.2572  155.4646 C   0  0  0  0  0  0  0  0  0  0  0  0
  149.1659  140.6844  154.6600 C   0  0  0  0  0  0  0  0  0  0  0  0
  148.2889  141.0387  153.9915 N   0  0  0  0  0  0  0  0  0  0  0  0
  151.5545  137.7039  153.6362 H   0  0  0  0  0  0  0  0  0  0  0  0
  150.9058  139.1868  152.9338 H   0  0  0  0  0  0  0  0  0  0  0  0
  149.8307  138.0554  153.7694 H   0  0  0  0  0  0  0  0  0  0  0  0
  152.8365  138.0500  155.6282 H   0  0  0  0  0  0  0  0  0  0  0  0
  150.7452  141.4277  159.3518 H   0  0  0  0  0  0  0  0  0  0  0  0
  152.2823  140.7253  159.5048 H   0  0  0  0  0  0  0  0  0  0  0  0
  153.3527  142.5977  158.2509 H   0  0  0  0  0  0  0  0  0  0  0  0
  151.3883  143.4314  160.4149 H   0  0  0  0  0  0  0  0  0  0  0  0
  153.1509  143.3440  160.5293 H   0  0  0  0  0  0  0  0  0  0  0  0
  152.0409  145.7288  159.9694 H   0  0  0  0  0  0  0  0  0  0  0  0
  153.3935  145.1914  158.9641 H   0  0  0  0  0  0  0  0  0  0  0  0
  150.4284  144.9772  158.3367 H   0  0  0  0  0  0  0  0  0  0  0  0
  151.7240  145.5132  157.2639 H   0  0  0  0  0  0  0  0  0  0  0  0
  1  2  1  0  0  0  0
  1 18  1  0  0  0  0
  1 19  1  0  0  0  0
  1 20  1  0  0  0  0
  2 15  2  0  0  0  0
  2  3  1  0  0  0  0
  3  4  2  0  0  0  0
  3 21  1  0  0  0  0
  4  5  1  0  0  0  0
  4  6  1  0  0  0  0
  6  7  1  0  0  0  0
  6 13  1  0  0  0  0
  7  8  1  0  0  0  0
  7 22  1  0  0  0  0
  7 23  1  0  0  0  0
  8 12  1  0  0  0  0
  8  9  1  0  0  0  0
  8 24  1  0  0  0  0
  9 10  1  0  0  0  0
  9 25  1  0  0  0  0
  9 26  1  0  0  0  0
 10 11  1  0  0  0  0
 10 27  1  0  0  0  0
 10 28  1  0  0  0  0
 11 12  1  0  0  0  0
 11 29  1  0  0  0  0
 11 30  1  0  0  0  0
 13 14  2  0  0  0  0
 13 15  1  0  0  0  0
 15 16  1  0  0  0  0
 16 17  3  0  0  0  0
M  CHG  1   5  -1
M  END
> <s_m_source_file>
AV-unprocessed.smi

> <i_m_source_file_index>
966

> <i_lp_mmshare_version>
43012

> <i_f3d_flags>
0

> <s_epik_input>
W0NIM11jMVtjSF1jKFtPSF0pbihjKD1PKWMxQyNOKVtDSDJdW0NAQEhdMltDSDJdW0NIMl1bQ0gyXU8y

> <s_epik_cmdline>
J2VwaWtfcHl0aG9uJywgJy1waCcsICc3LjAnLCAnLXRuJywgJzgnLCAnLW1hJywgJzIwMCcsICctbWV0YWxfYmluZGluZycsICctaW1hZScsICc8aW5maWxlLm1hZT4nLCAnLW9tYWUnLCAnPG91dGZpbGUubWFlPic=

> <r_lp_tautomer_probability>
1

> <r_epik_Ionization_Penalty>
3.48555e-06

> <r_epik_Ionization_Penalty_Charging>
3.48554e-06

> <r_epik_Ionization_Penalty_Neutral>
1.71861e-11

> <r_epik_State_Penalty>
-0

> <r_epik_Charging_Adjusted_Penalty>
3.48554e-06

> <i_epik_Tot_Q>
-1

> <i_epik_Tot_abs_Q>
1

> <r_epik_Metal_State_Penalty>
-0

> <b_epik_Metal_Only>
0

> <s_lp_Force_Field>
OPLS_2005

> <r_lp_Energy>
36.1557

> <b_lp_Chiralities_Consistent>
1

> <s_lp_Variant>
AV-unprocessed.smi:966-1

> <Gold.Version>
5.8.1

> <Gold.Id.Protein>
6NUR|6NUR_protein|mol2

> <Gold.PLP.Fitness>
39.8864

> <Gold.PLP.PLP>
-34.3887

> <Gold.PLP.part.hbond>
-1.0000

> <Gold.PLP.part.metal>
0.0000

> <Gold.PLP.part.buried>
-4.8164

> <Gold.PLP.part.nonpolar>
-29.1379

> <Gold.PLP.part.repulsive>
0.3650

> <Gold.PLP.ligand.clash>
0.0000

> <Gold.PLP.ligand.torsion>
0.2520

> <Gold.PLP.Chemscore.Hbond>
2.0000

> <Gold.PLP.Chemscore.CHOScore>
0.0000

> <Gold.PLP.Chemscore.Metal>
0.0000

> <Gold.Chemscore.Hbonds>
donor molecule, donor type, donor heavy atom, donor atom, acceptor molecule, acceptor atom, score
      P1  H  7997  8009       L1     5  2.00

> <Gold.PLP.Chemscore.Internal.Correction>
0.0018

> <Gold.Rescore>
     Score         DG    S(hbond)    S(metal)    S(lipo)     H(rot)  DE(clash)    DE(int)     intcor
     12.46     -15.24       0.88        0.00      85.56       1.25       0.19       2.58       ----

> <Gold.Chemscore.Fitness>
12.4639

> <Gold.Chemscore.DG>
-15.2358

> <Gold.Chemscore.ZeroCoef>
-5.4800

> <Gold.Chemscore.Hbond>
0.8830

> <Gold.Chemscore.Metal>
0.0000

> <Gold.Chemscore.Lipo>
85.5572

> <Gold.Chemscore.Internal_Hbond>
0.0000

> <Gold.Chemscore.DEClash>
0.1929

> <Gold.Chemscore.DEInternal>
2.5791

> <Gold.Chemscore.Rot>
1.2514

> <Gold.Chemscore.Internal.Correction>
   9.000000E+99

> <Gold.Chemscore.Hbonds>
donor molecule, donor type, donor heavy atom, donor atom, acceptor molecule, acceptor atom, score
      P1  H  7997  8009       L1     5  0.39

> <Gold.Chemscore.Hbond.Weighted>
-2.9492

> <Gold.Chemscore.Metal.Weighted>
-0.0000

> <Gold.Chemscore.Lipo.Weighted>
-10.0102

> <Gold.Chemscore.Internal_Hbond.Weighted>
0.0000

> <Gold.Chemscore.DEClash.Weighted>
0.1929

> <Gold.Chemscore.DEInternal.Weighted>
2.5791

> <Gold.Chemscore.Rot.Weighted>
3.2036

> <Gold.Chemscore.Internal.Correction.Weighted>
   9.000000E+99

> <Gold.Protein.RotatedTorsions>
[ 6907 6896 6895 6894 ] final  -25.08 input  -60.11 | X-H torsion
[ 7974 7965 7964 7962 ] final   -0.46 input  175.53 | X-H torsion
[ 8008 7997 7996 7995 ] final  140.46 input   59.86 | X-H torsion
[ 10167 10162 10161 10158 ] final -168.11 input  -65.29 | X-H torsion
[ 10718 10713 10712 10709 ] final   50.61 input   66.30 | X-H torsion
[ 10763 10752 10751 10750 ] final  164.63 input  -60.55 | X-H torsion
[ 11005 11000 10999 10996 ] final  150.59 input  -57.11 | X-H torsion

> <Gold.Protein.ActiveResidues>
 VAL166  LYS551  ARG553  GLY616  TRP617  ASP618  TYR619  PRO620  LYS621  CYS622 
 ASP623  PHE694  ASN695  SER759  ASP760  ASP761  ALA762  ILE779  LEU786  VAL792 
 PHE793  MET794  SER795  GLU796  ALA797  LYS798  CYS799  TRP800  GLU811  SER814 

> <Gold.Protein.RotatedAtoms>
  151.1803  135.0358  159.8789 H   0  0  0  0  0  0  0  0  0  0  0  0  # atno 6907 bound_to 6896
  152.5445  134.1071  159.8352 H   0  0  0  0  0  0  0  0  0  0  0  0  # atno 6908 bound_to 6896
  151.1187  133.5073  159.2635 H   0  0  0  0  0  0  0  0  0  0  0  0  # atno 6909 bound_to 6896
  146.2427  140.1272  142.8339 H   0  0  0  0  0  0  0  0  0  0  0  0  # atno 7974 bound_to 7965
  156.2979  140.2341  156.4404 H   0  0  0  0  0  0  0  0  0  0  0  0  # atno 8008 bound_to 7997
  154.8190  140.0439  157.1418 H   0  0  0  0  0  0  0  0  0  0  0  0  # atno 8009 bound_to 7997
  154.9336  140.3020  155.5159 H   0  0  0  0  0  0  0  0  0  0  0  0  # atno 8010 bound_to 7997
  139.6006  144.1019  152.1738 H   0  0  0  0  0  0  0  0  0  0  0  0  # atno 10167 bound_to 10162
  157.4902  130.8371  149.8193 H   0  0  0  0  0  0  0  0  0  0  0  0  # atno 10718 bound_to 10713
  154.3119  135.2757  155.2562 H   0  0  0  0  0  0  0  0  0  0  0  0  # atno 10763 bound_to 10752
  154.4953  135.5822  153.6493 H   0  0  0  0  0  0  0  0  0  0  0  0  # atno 10764 bound_to 10752
  152.9887  135.6144  154.3297 H   0  0  0  0  0  0  0  0  0  0  0  0  # atno 10765 bound_to 10752
  140.1145  134.8903  157.1983 H   0  0  0  0  0  0  0  0  0  0  0  0  # atno 11005 bound_to 11000
  145.0356  140.8905  143.5083 LP  0  0  0  0  0  0  0  0  0  0  0  0  # atno 17320 bound_to 7965
  145.1344  139.2611  143.5522 LP  0  0  0  0  0  0  0  0  0  0  0  0  # atno 17321 bound_to 7965
  140.0614  144.5853  150.7260 LP  0  0  0  0  0  0  0  0  0  0  0  0  # atno 17342 bound_to 10162
  140.7246  143.2623  151.4163 LP  0  0  0  0  0  0  0  0  0  0  0  0  # atno 17343 bound_to 10162
  156.0169  130.3810  150.2083 LP  0  0  0  0  0  0  0  0  0  0  0  0  # atno 17370 bound_to 10713
  157.0271  130.9996  151.3323 LP  0  0  0  0  0  0  0  0  0  0  0  0  # atno 17371 bound_to 10713
  140.3047  134.3091  155.7281 LP  0  0  0  0  0  0  0  0  0  0  0  0  # atno 17394 bound_to 11000
  141.2138  133.7613  156.9691 LP  0  0  0  0  0  0  0  0  0  0  0  0  # atno 17395 bound_to 11000

$$$$
