AV-unprocessed.smi:1831|AV-procd|sdf|7462|dock8
  -GOLD-   22720 9153D 1   1.00000     0.00000
 Structure written by MMmdl.
 40 41  0  0  0  0  0  0  0  0  3 V2000
  147.5937  135.6671  162.6792 C   0  0  0  0  0  0  0  0  0  0  0  0
  147.8745  135.0374  161.3581 C   0  0  0  0  0  0  0  0  0  0  0  0
  148.4648  135.6947  160.3572 N   0  0  0  0  0  0  0  0  0  0  0  0
  148.6225  134.9000  159.2312 N   0  0  0  0  0  0  0  0  0  0  0  0
  148.1427  133.6588  159.3920 C   0  0  0  0  0  0  0  0  0  0  0  0
  148.1993  132.7331  158.4201 N   0  5  0  0  0  0  0  0  0  0  0  0
  149.3182  132.6069  157.6726 C   0  0  0  0  0  0  0  0  0  0  0  0
  150.4354  133.0488  157.9504 O   0  0  0  0  0  0  0  0  0  0  0  0
  149.1274  131.9394  156.5253 N   0  0  0  0  0  0  0  0  0  0  0  0
  150.1364  131.6699  155.5049 C   0  0  0  0  0  0  0  0  0  0  0  0
  149.5734  131.8497  154.0823 C   0  0  2  0  0  0  0  0  0  0  0  0
  148.9777  133.2313  153.8218 C   0  0  0  0  0  0  0  0  0  0  0  0
  147.9648  133.0159  152.6890 C   0  0  0  0  0  0  0  0  0  0  0  0
  147.7698  131.5509  152.5473 N   0  3  2  0  0  0  0  0  0  0  0  0
  146.3708  131.1185  152.2715 C   0  0  0  0  0  0  0  0  0  0  0  0
  146.2752  129.5945  152.0631 C   0  0  0  0  0  0  0  0  0  0  0  0
  145.7997  131.8438  151.0386 C   0  0  0  0  0  0  0  0  0  0  0  0
  148.4102  130.9251  153.7228 C   0  0  0  0  0  0  0  0  0  0  0  0
  147.4619  133.3703  160.9928 S   0  0  0  0  0  0  0  0  0  0  0  0
  148.5223  135.7966  163.2353 H   0  0  0  0  0  0  0  0  0  0  0  0
  146.9199  135.0400  163.2630 H   0  0  0  0  0  0  0  0  0  0  0  0
  147.1281  136.6429  162.5396 H   0  0  0  0  0  0  0  0  0  0  0  0
  148.1965  131.5916  156.3465 H   0  0  0  0  0  0  0  0  0  0  0  0
  151.0174  132.2958  155.6557 H   0  0  0  0  0  0  0  0  0  0  0  0
  150.4703  130.6405  155.6361 H   0  0  0  0  0  0  0  0  0  0  0  0
  150.3756  131.6847  153.3608 H   0  0  0  0  0  0  0  0  0  0  0  0
  148.4556  133.5879  154.7110 H   0  0  0  0  0  0  0  0  0  0  0  0
  149.7381  133.9704  153.5679 H   0  0  0  0  0  0  0  0  0  0  0  0
  147.0322  133.5293  152.9286 H   0  0  0  0  0  0  0  0  0  0  0  0
  148.3332  133.4191  151.7451 H   0  0  0  0  0  0  0  0  0  0  0  0
  145.7589  131.3790  153.1368 H   0  0  0  0  0  0  0  0  0  0  0  0
  145.2566  129.2979  151.8108 H   0  0  0  0  0  0  0  0  0  0  0  0
  146.5492  129.0405  152.9611 H   0  0  0  0  0  0  0  0  0  0  0  0
  146.9253  129.2630  151.2526 H   0  0  0  0  0  0  0  0  0  0  0  0
  144.7823  131.5130  150.8279 H   0  0  0  0  0  0  0  0  0  0  0  0
  146.4011  131.6463  150.1504 H   0  0  0  0  0  0  0  0  0  0  0  0
  145.7582  132.9239  151.1791 H   0  0  0  0  0  0  0  0  0  0  0  0
  148.7453  129.9104  153.5054 H   0  0  0  0  0  0  0  0  0  0  0  0
  147.6968  130.8818  154.5478 H   0  0  0  0  0  0  0  0  0  0  0  0
  148.3288  131.2709  151.7540 H   0  0  0  0  0  0  0  0  0  0  0  0
  1  2  1  0  0  0  0
  1 20  1  0  0  0  0
  1 21  1  0  0  0  0
  1 22  1  0  0  0  0
  2 19  1  0  0  0  0
  2  3  2  0  0  0  0
  3  4  1  0  0  0  0
  4  5  2  0  0  0  0
  5  6  1  0  0  0  0
  5 19  1  0  0  0  0
  6  7  1  0  0  0  0
  7  8  2  0  0  0  0
  7  9  1  0  0  0  0
  9 10  1  0  0  0  0
  9 23  1  0  0  0  0
 10 11  1  0  0  0  0
 10 24  1  0  0  0  0
 10 25  1  0  0  0  0
 11 18  1  0  0  0  0
 11 12  1  0  0  0  0
 11 26  1  0  0  0  0
 12 13  1  0  0  0  0
 12 27  1  0  0  0  0
 12 28  1  0  0  0  0
 13 14  1  0  0  0  0
 13 29  1  0  0  0  0
 13 30  1  0  0  0  0
 14 15  1  0  0  0  0
 14 18  1  0  0  0  0
 14 40  1  0  0  0  0
 15 16  1  0  0  0  0
 15 17  1  0  0  0  0
 15 31  1  0  0  0  0
 16 32  1  0  0  0  0
 16 33  1  0  0  0  0
 16 34  1  0  0  0  0
 17 35  1  0  0  0  0
 17 36  1  0  0  0  0
 17 37  1  0  0  0  0
 18 38  1  0  0  0  0
 18 39  1  0  0  0  0
M  CHG  1   6  -1
M  CHG  1  14   1
M  END
> <s_m_source_file>
AV-unprocessed.smi

> <i_m_source_file_index>
1831

> <i_lp_mmshare_version>
43012

> <i_f3d_flags>
0

> <s_epik_input>
W0NIM11jMW5uYyhzMSlbTkhdQyg9TylbTkhdW0NIMl1bQ0BASF0yW0NIMl1bQ0gyXU4oW0NIMl0yKVtDSF0oW0NIM10pW0NIM10=

> <s_epik_cmdline>
J2VwaWtfcHl0aG9uJywgJy1waCcsICc3LjAnLCAnLXRuJywgJzgnLCAnLW1hJywgJzIwMCcsICctbWV0YWxfYmluZGluZycsICctaW1hZScsICc8aW5maWxlLm1hZT4nLCAnLW9tYWUnLCAnPG91dGZpbGUubWFlPic=

> <r_lp_tautomer_probability>
1

> <r_epik_Ionization_Penalty>
4.24531

> <r_epik_Ionization_Penalty_Charging>
4.11954

> <r_epik_Ionization_Penalty_Neutral>
0.125766

> <r_epik_State_Penalty>
4.11879

> <r_epik_Charging_Adjusted_Penalty>
8.23833

> <i_epik_Tot_Q>
0

> <i_epik_Tot_abs_Q>
2

> <r_epik_Metal_State_Penalty>
0.659341

> <b_epik_Metal_Only>
1

> <s_lp_Force_Field>
OPLS_2005

> <r_lp_Energy>
22.0207

> <b_lp_Chiralities_Consistent>
1

> <s_lp_Variant>
AV-unprocessed.smi:1831-7

> <Gold.Version>
5.8.1

> <Gold.Id.Protein>
6NUR|6NUR_protein|mol2

> <Gold.PLP.Fitness>
39.2060

> <Gold.PLP.PLP>
-34.2679

> <Gold.PLP.part.hbond>
-2.4644

> <Gold.PLP.part.metal>
0.0000

> <Gold.PLP.part.buried>
-4.6134

> <Gold.PLP.part.nonpolar>
-27.5788

> <Gold.PLP.part.repulsive>
0.0140

> <Gold.PLP.ligand.clash>
0.0000

> <Gold.PLP.ligand.torsion>
0.5562

> <Gold.PLP.Chemscore.Hbond>
2.0000

> <Gold.PLP.Chemscore.CHOScore>
0.0000

> <Gold.PLP.Chemscore.Metal>
0.0000

> <Gold.Chemscore.Hbonds>
donor molecule, donor type, donor heavy atom, donor atom, acceptor molecule, acceptor atom, score
      L1  H    14    40       P1 10747  1.00
      P1  H  6896  6907       L1     8  0.99

> <Gold.PLP.Chemscore.Internal.Correction>
0.0505

> <Gold.Rescore>
     Score         DG    S(hbond)    S(metal)    S(lipo)     H(rot)  DE(clash)    DE(int)     intcor
     15.81     -17.61       1.99        0.00      79.94       1.51       0.02       1.78       ----

> <Gold.Chemscore.Fitness>
15.8143

> <Gold.Chemscore.DG>
-17.6129

> <Gold.Chemscore.ZeroCoef>
-5.4800

> <Gold.Chemscore.Hbond>
1.9920

> <Gold.Chemscore.Metal>
0.0000

> <Gold.Chemscore.Lipo>
79.9401

> <Gold.Chemscore.Internal_Hbond>
0.0000

> <Gold.Chemscore.DEClash>
0.0166

> <Gold.Chemscore.DEInternal>
1.7820

> <Gold.Chemscore.Rot>
1.5131

> <Gold.Chemscore.Internal.Correction>
   9.000000E+99

> <Gold.Chemscore.Hbonds>
donor molecule, donor type, donor heavy atom, donor atom, acceptor molecule, acceptor atom, score
      L1  H    14    40       P1 10747  1.00
      P1  H  6896  6907       L1     8  0.88

> <Gold.Chemscore.Hbond.Weighted>
-6.6534

> <Gold.Chemscore.Metal.Weighted>
-0.0000

> <Gold.Chemscore.Lipo.Weighted>
-9.3530

> <Gold.Chemscore.Internal_Hbond.Weighted>
0.0000

> <Gold.Chemscore.DEClash.Weighted>
0.0166

> <Gold.Chemscore.DEInternal.Weighted>
1.7820

> <Gold.Chemscore.Rot.Weighted>
3.8735

> <Gold.Chemscore.Internal.Correction.Weighted>
   9.000000E+99

> <Gold.Protein.RotatedTorsions>
[ 6907 6896 6895 6894 ] final -154.88 input  -60.11 | X-H torsion
[ 7974 7965 7964 7962 ] final  103.18 input  175.53 | X-H torsion
[ 8008 7997 7996 7995 ] final -101.53 input   59.86 | X-H torsion
[ 10167 10162 10161 10158 ] final   -2.78 input  -65.29 | X-H torsion
[ 10718 10713 10712 10709 ] final   74.00 input   66.30 | X-H torsion
[ 10763 10752 10751 10750 ] final -118.20 input  -60.55 | X-H torsion
[ 11005 11000 10999 10996 ] final  -45.09 input  -57.11 | X-H torsion

> <Gold.Protein.ActiveResidues>
 VAL166  LYS551  ARG553  GLY616  TRP617  ASP618  TYR619  PRO620  LYS621  CYS622 
 ASP623  PHE694  ASN695  SER759  ASP760  ASP761  ALA762  ILE779  LEU786  VAL792 
 PHE793  MET794  SER795  GLU796  ALA797  LYS798  CYS799  TRP800  GLU811  SER814 

> <Gold.Protein.RotatedAtoms>
  151.2641  133.4287  159.2617 H   0  0  0  0  0  0  0  0  0  0  0  0  # atno 6907 bound_to 6896
  151.0504  134.9669  159.8218 H   0  0  0  0  0  0  0  0  0  0  0  0  # atno 6908 bound_to 6896
  152.5381  134.2596  159.8982 H   0  0  0  0  0  0  0  0  0  0  0  0  # atno 6909 bound_to 6896
  145.3493  139.2443  143.3567 H   0  0  0  0  0  0  0  0  0  0  0  0  # atno 7974 bound_to 7965
  154.8439  140.0434  157.1559 H   0  0  0  0  0  0  0  0  0  0  0  0  # atno 8008 bound_to 7997
  154.9017  140.3001  155.5294 H   0  0  0  0  0  0  0  0  0  0  0  0  # atno 8009 bound_to 7997
  156.2993  140.2374  156.4045 H   0  0  0  0  0  0  0  0  0  0  0  0  # atno 8010 bound_to 7997
  140.6864  143.6617  150.8261 H   0  0  0  0  0  0  0  0  0  0  0  0  # atno 10167 bound_to 10162
  157.6573  130.9656  150.1149 H   0  0  0  0  0  0  0  0  0  0  0  0  # atno 10718 bound_to 10713
  154.8580  135.4282  154.2101 H   0  0  0  0  0  0  0  0  0  0  0  0  # atno 10763 bound_to 10752
  153.3129  135.6977  153.7105 H   0  0  0  0  0  0  0  0  0  0  0  0  # atno 10764 bound_to 10752
  153.6191  135.3505  155.2978 H   0  0  0  0  0  0  0  0  0  0  0  0  # atno 10765 bound_to 10752
  141.0493  133.6749  156.2964 H   0  0  0  0  0  0  0  0  0  0  0  0  # atno 11005 bound_to 11000
  146.2975  140.4106  142.8716 LP  0  0  0  0  0  0  0  0  0  0  0  0  # atno 17320 bound_to 7965
  144.8730  140.7298  143.6035 LP  0  0  0  0  0  0  0  0  0  0  0  0  # atno 17321 bound_to 7965
  140.0324  143.5430  152.2754 LP  0  0  0  0  0  0  0  0  0  0  0  0  # atno 17342 bound_to 10162
  139.6227  144.7632  151.2705 LP  0  0  0  0  0  0  0  0  0  0  0  0  # atno 17343 bound_to 10162
  156.2035  130.3662  149.8758 LP  0  0  0  0  0  0  0  0  0  0  0  0  # atno 17370 bound_to 10713
  156.6655  130.8799  151.3554 LP  0  0  0  0  0  0  0  0  0  0  0  0  # atno 17371 bound_to 10713
  140.6086  134.5481  157.5530 LP  0  0  0  0  0  0  0  0  0  0  0  0  # atno 17394 bound_to 11000
  139.9337  134.7915  156.0860 LP  0  0  0  0  0  0  0  0  0  0  0  0  # atno 17395 bound_to 11000

$$$$
