AV-unprocessed.smi:2171|AV-procd|sdf|8832|dock1
  -GOLD-   2272012 23D 1   1.00000     0.00000
 Structure written by MMmdl.
 39 41  0  0  0  0  0  0  0  0  2 V2000
  151.7483  140.1463  155.2953 O   0  0  0  0  0  0  0  0  0  0  0  0
  151.0274  140.6676  156.1468 C   0  0  0  0  0  0  0  0  0  0  0  0
  151.5088  140.8181  157.5933 C   0  0  0  0  0  0  0  0  0  0  0  0
  151.7719  142.2048  157.9391 N   0  0  0  0  0  0  0  0  0  0  0  0
  151.2792  143.3462  157.3409 C   0  0  0  0  0  0  0  0  0  0  0  0
  151.8017  144.4148  158.0112 C   0  0  0  0  0  0  0  0  0  0  0  0
  152.6134  143.8188  159.0165 C   0  0  0  0  0  0  0  0  0  0  0  0
  152.5922  142.4964  158.9723 N   0  0  0  0  0  0  0  0  0  0  0  0
  149.7913  141.1175  155.8814 N   0  0  0  0  0  0  0  0  0  0  0  0
  149.1494  141.0613  154.5706 C   0  0  2  0  0  0  0  0  0  0  0  0
  147.8804  141.8994  154.4814 C   0  0  0  0  0  0  0  0  0  0  0  0
  147.1724  141.3233  153.2504 C   0  0  0  0  0  0  0  0  0  0  0  0
  147.6228  139.9159  153.1141 N   0  3  2  0  0  0  0  0  0  0  0  0
  146.5128  138.9261  153.0723 C   0  0  0  0  0  0  0  0  0  0  0  0
  147.0318  137.5058  153.3410 C   0  0  0  0  0  0  0  0  0  0  0  0
  147.6544  137.3903  154.7454 C   0  0  0  0  0  0  0  0  0  0  0  0
  148.1562  138.7453  155.2808 C   0  0  0  0  0  0  0  0  0  0  0  0
  148.6717  139.6599  154.1421 C   0  0  2  0  0  0  0  0  0  0  0  0
  150.7623  140.4280  158.2868 H   0  0  0  0  0  0  0  0  0  0  0  0
  152.4166  140.2294  157.7332 H   0  0  0  0  0  0  0  0  0  0  0  0
  150.6055  143.3031  156.4977 H   0  0  0  0  0  0  0  0  0  0  0  0
  151.6301  145.4626  157.8140 H   0  0  0  0  0  0  0  0  0  0  0  0
  153.2123  144.3044  159.7730 H   0  0  0  0  0  0  0  0  0  0  0  0
  149.2619  141.5294  156.6364 H   0  0  0  0  0  0  0  0  0  0  0  0
  149.8483  141.4378  153.8205 H   0  0  0  0  0  0  0  0  0  0  0  0
  147.2622  141.7472  155.3675 H   0  0  0  0  0  0  0  0  0  0  0  0
  148.0811  142.9675  154.3906 H   0  0  0  0  0  0  0  0  0  0  0  0
  146.0889  141.4230  153.3287 H   0  0  0  0  0  0  0  0  0  0  0  0
  147.4828  141.8618  152.3545 H   0  0  0  0  0  0  0  0  0  0  0  0
  145.7562  139.1762  153.8180 H   0  0  0  0  0  0  0  0  0  0  0  0
  146.0259  138.9801  152.0980 H   0  0  0  0  0  0  0  0  0  0  0  0
  146.2295  136.7760  153.2278 H   0  0  0  0  0  0  0  0  0  0  0  0
  147.7803  137.2544  152.5883 H   0  0  0  0  0  0  0  0  0  0  0  0
  146.9257  136.9821  155.4466 H   0  0  0  0  0  0  0  0  0  0  0  0
  148.4754  136.6729  154.7118 H   0  0  0  0  0  0  0  0  0  0  0  0
  147.3437  139.2488  155.8066 H   0  0  0  0  0  0  0  0  0  0  0  0
  148.9319  138.5649  156.0250 H   0  0  0  0  0  0  0  0  0  0  0  0
  149.4990  139.1412  153.6551 H   0  0  0  0  0  0  0  0  0  0  0  0
  148.0950  139.8561  152.2232 H   0  0  0  0  0  0  0  0  0  0  0  0
  1  2  2  0  0  0  0
  2  3  1  0  0  0  0
  2  9  1  0  0  0  0
  3  4  1  0  0  0  0
  3 19  1  0  0  0  0
  3 20  1  0  0  0  0
  4  8  1  0  0  0  0
  4  5  1  0  0  0  0
  5  6  2  0  0  0  0
  5 21  1  0  0  0  0
  6  7  1  0  0  0  0
  6 22  1  0  0  0  0
  7  8  2  0  0  0  0
  7 23  1  0  0  0  0
  9 10  1  0  0  0  0
  9 24  1  0  0  0  0
 10 18  1  0  0  0  0
 10 11  1  0  0  0  0
 10 25  1  0  0  0  0
 11 12  1  0  0  0  0
 11 26  1  0  0  0  0
 11 27  1  0  0  0  0
 12 13  1  0  0  0  0
 12 28  1  0  0  0  0
 12 29  1  0  0  0  0
 13 18  1  0  0  0  0
 13 14  1  0  0  0  0
 13 39  1  0  0  0  0
 14 15  1  0  0  0  0
 14 30  1  0  0  0  0
 14 31  1  0  0  0  0
 15 16  1  0  0  0  0
 15 32  1  0  0  0  0
 15 33  1  0  0  0  0
 16 17  1  0  0  0  0
 16 34  1  0  0  0  0
 16 35  1  0  0  0  0
 17 18  1  0  0  0  0
 17 36  1  0  0  0  0
 17 37  1  0  0  0  0
 18 38  1  0  0  0  0
M  CHG  1  13   1
M  END
> <s_m_source_file>
AV-unprocessed.smi

> <i_m_source_file_index>
2171

> <i_lp_mmshare_version>
43012

> <i_f3d_flags>
0

> <s_epik_input>
bjFbY0hdW2NIXVtjSF1uMVtDSDJdQyg9TylbTkhdW0NASF0oW0NIMl1bQ0gyXTIpW0NAQEhdKE4yMylbQ0gyXVtDSDJdW0NIMl1bQ0gyXTM=

> <s_epik_cmdline>
J2VwaWtfcHl0aG9uJywgJy1waCcsICc3LjAnLCAnLXRuJywgJzgnLCAnLW1hJywgJzIwMCcsICctbWV0YWxfYmluZGluZycsICctaW1hZScsICc8aW5maWxlLm1hZT4nLCAnLW9tYWUnLCAnPG91dGZpbGUubWFlPic=

> <r_lp_tautomer_probability>
1

> <r_epik_Ionization_Penalty>
0.00204179

> <r_epik_Ionization_Penalty_Charging>
0.00203239

> <r_epik_Ionization_Penalty_Neutral>
9.40205e-06

> <r_epik_State_Penalty>
0.00138983

> <r_epik_Charging_Adjusted_Penalty>
0.00342221

> <i_epik_Tot_Q>
1

> <i_epik_Tot_abs_Q>
1

> <r_epik_Metal_State_Penalty>
-0

> <b_epik_Metal_Only>
0

> <s_lp_Force_Field>
OPLS_2005

> <r_lp_Energy>
41.0306

> <b_lp_Chiralities_Consistent>
1

> <s_lp_Variant>
AV-unprocessed.smi:2171-7

> <Gold.Version>
5.8.1

> <Gold.Id.Protein>
6NUR|6NUR_protein|mol2

> <Gold.PLP.Fitness>
39.7343

> <Gold.PLP.PLP>
-32.1146

> <Gold.PLP.part.hbond>
-2.0000

> <Gold.PLP.part.metal>
0.0000

> <Gold.PLP.part.buried>
-1.3432

> <Gold.PLP.part.nonpolar>
-28.8480

> <Gold.PLP.part.repulsive>
0.1739

> <Gold.PLP.ligand.clash>
0.0000

> <Gold.PLP.ligand.torsion>
0.5648

> <Gold.PLP.Chemscore.Hbond>
1.9120

> <Gold.PLP.Chemscore.CHOScore>
1.0000

> <Gold.PLP.Chemscore.Metal>
0.0000

> <Gold.Chemscore.Hbonds>
donor molecule, donor type, donor heavy atom, donor atom, acceptor molecule, acceptor atom, score
      L1  H    13    39       P1  7957  1.00
      P1  H  7989  7998       L1     1  0.90
      L1  C     5    21       P1  8028  1.00

> <Gold.PLP.Chemscore.Internal.Correction>
0.0134

> <Gold.Rescore>
     Score         DG    S(hbond)    S(metal)    S(lipo)     H(rot)  DE(clash)    DE(int)     intcor
     15.99     -17.65       1.76        0.00      85.27       1.44       1.25       0.41       ----

> <Gold.Chemscore.Fitness>
15.9855

> <Gold.Chemscore.DG>
-17.6482

> <Gold.Chemscore.ZeroCoef>
-5.4800

> <Gold.Chemscore.Hbond>
1.7606

> <Gold.Chemscore.Metal>
0.0000

> <Gold.Chemscore.Lipo>
85.2715

> <Gold.Chemscore.Internal_Hbond>
0.0000

> <Gold.Chemscore.DEClash>
1.2515

> <Gold.Chemscore.DEInternal>
0.4111

> <Gold.Chemscore.Rot>
1.4410

> <Gold.Chemscore.Internal.Correction>
   9.000000E+99

> <Gold.Chemscore.Hbonds>
donor molecule, donor type, donor heavy atom, donor atom, acceptor molecule, acceptor atom, score
      L1  H    13    39       P1  7957  0.97
      P1  H  7989  7998       L1     1  0.83

> <Gold.Chemscore.Hbond.Weighted>
-5.8804

> <Gold.Chemscore.Metal.Weighted>
-0.0000

> <Gold.Chemscore.Lipo.Weighted>
-9.9768

> <Gold.Chemscore.Internal_Hbond.Weighted>
0.0000

> <Gold.Chemscore.DEClash.Weighted>
1.2515

> <Gold.Chemscore.DEInternal.Weighted>
0.4111

> <Gold.Chemscore.Rot.Weighted>
3.6889

> <Gold.Chemscore.Internal.Correction.Weighted>
   9.000000E+99

> <Gold.Protein.RotatedTorsions>
[ 6907 6896 6895 6894 ] final   77.78 input  -60.11 | X-H torsion
[ 7974 7965 7964 7962 ] final   15.38 input  175.53 | X-H torsion
[ 8008 7997 7996 7995 ] final  149.04 input   59.86 | X-H torsion
[ 10167 10162 10161 10158 ] final   19.22 input  -65.29 | X-H torsion
[ 10718 10713 10712 10709 ] final    1.02 input   66.30 | X-H torsion
[ 10763 10752 10751 10750 ] final   47.78 input  -60.55 | X-H torsion
[ 11005 11000 10999 10996 ] final  -84.00 input  -57.11 | X-H torsion

> <Gold.Protein.ActiveResidues>
 VAL166  LYS551  ARG553  GLY616  TRP617  ASP618  TYR619  PRO620  LYS621  CYS622 
 ASP623  PHE694  ASN695  SER759  ASP760  ASP761  ALA762  ILE779  LEU786  VAL792 
 PHE793  MET794  SER795  GLU796  ALA797  LYS798  CYS799  TRP800  GLU811  SER814 

> <Gold.Protein.RotatedAtoms>
  152.5132  134.3765  159.9335 H   0  0  0  0  0  0  0  0  0  0  0  0  # atno 6907 bound_to 6896
  151.3720  133.3845  159.2708 H   0  0  0  0  0  0  0  0  0  0  0  0  # atno 6908 bound_to 6896
  150.9570  134.8983  159.7766 H   0  0  0  0  0  0  0  0  0  0  0  0  # atno 6909 bound_to 6896
  146.2280  139.8902  142.8556 H   0  0  0  0  0  0  0  0  0  0  0  0  # atno 7974 bound_to 7965
  156.2769  140.2112  156.5794 H   0  0  0  0  0  0  0  0  0  0  0  0  # atno 8008 bound_to 7997
  154.7071  140.0515  157.0537 H   0  0  0  0  0  0  0  0  0  0  0  0  # atno 8009 bound_to 7997
  155.0656  140.3171  155.4649 H   0  0  0  0  0  0  0  0  0  0  0  0  # atno 8010 bound_to 7997
  140.5595  143.9363  150.6633 H   0  0  0  0  0  0  0  0  0  0  0  0  # atno 10167 bound_to 10162
  156.8420  130.5524  149.5677 H   0  0  0  0  0  0  0  0  0  0  0  0  # atno 10718 bound_to 10713
  152.9797  135.5965  154.3818 H   0  0  0  0  0  0  0  0  0  0  0  0  # atno 10763 bound_to 10752
  154.3482  135.2767  155.2388 H   0  0  0  0  0  0  0  0  0  0  0  0  # atno 10764 bound_to 10752
  154.4439  135.6006  153.6202 H   0  0  0  0  0  0  0  0  0  0  0  0  # atno 10765 bound_to 10752
  141.1654  133.7323  156.8803 H   0  0  0  0  0  0  0  0  0  0  0  0  # atno 11005 bound_to 11000
  145.2425  141.0014  143.3927 LP  0  0  0  0  0  0  0  0  0  0  0  0  # atno 17320 bound_to 7965
  144.9440  139.4157  143.6435 LP  0  0  0  0  0  0  0  0  0  0  0  0  # atno 17321 bound_to 7965
  140.2810  143.3390  152.1151 LP  0  0  0  0  0  0  0  0  0  0  0  0  # atno 17342 bound_to 10162
  139.5063  144.6812  151.6004 LP  0  0  0  0  0  0  0  0  0  0  0  0  # atno 17343 bound_to 10162
  156.0875  130.5870  150.9675 LP  0  0  0  0  0  0  0  0  0  0  0  0  # atno 17370 bound_to 10713
  157.6350  131.0917  150.8365 LP  0  0  0  0  0  0  0  0  0  0  0  0  # atno 17371 bound_to 10713
  140.1719  134.9094  157.2844 LP  0  0  0  0  0  0  0  0  0  0  0  0  # atno 17394 bound_to 11000
  140.2492  134.3703  155.7449 LP  0  0  0  0  0  0  0  0  0  0  0  0  # atno 17395 bound_to 11000

$$$$
