AV-unprocessed.smi:2850|AV-procd|sdf|10967|dock10
  -GOLD-   2272015423D 1   1.00000     0.00000
 Structure written by MMmdl.
 45 46  0  0  0  0  0  0  0  0  2 V2000
  152.2698  143.5900  162.3989 C   0  0  0  0  0  0  0  0  0  0  0  0
  153.1766  142.5188  161.2482 S   0  0  0  0  0  0  0  0  0  0  0  0
  152.2419  142.4528  159.7502 C   0  0  0  0  0  0  0  0  0  0  0  0
  151.8547  143.6346  159.0936 C   0  0  0  0  0  0  0  0  0  0  0  0
  151.1207  143.4923  157.9029 C   0  0  0  0  0  0  0  0  0  0  0  0
  150.8296  142.1847  157.4640 C   0  0  0  0  0  0  0  0  0  0  0  0
  150.1106  142.0162  156.2714 N   0  0  0  0  0  0  0  0  0  0  0  0
  150.3214  140.8649  155.4001 C   0  0  0  0  0  0  0  0  0  0  0  0
  149.0203  140.3400  154.7648 C   0  0  2  0  0  0  0  0  0  0  0  0
  149.2348  139.0737  153.9074 C   0  0  0  0  0  0  0  0  0  0  0  0
  147.9660  138.6377  153.2752 N   0  3  1  0  0  0  0  0  0  0  0  0
  147.0388  137.9546  154.2184 C   0  0  0  0  0  0  0  0  0  0  0  0
  145.6391  137.7047  153.6181 C   0  0  0  0  0  0  0  0  0  0  0  0
  144.7610  136.9284  154.6111 C   0  0  0  0  0  0  0  0  0  0  0  0
  145.7145  136.9616  152.2740 C   0  0  0  0  0  0  0  0  0  0  0  0
  147.3609  139.7569  152.5087 C   0  0  0  0  0  0  0  0  0  0  0  0
  147.2385  141.0309  153.3678 C   0  0  0  0  0  0  0  0  0  0  0  0
  148.5058  141.3652  153.9220 O   0  0  0  0  0  0  0  0  0  0  0  0
  151.2313  141.0899  158.1585 N   0  0  0  0  0  0  0  0  0  0  0  0
  151.9340  141.2195  159.2890 N   0  0  0  0  0  0  0  0  0  0  0  0
  152.7941  143.6429  163.3529 H   0  0  0  0  0  0  0  0  0  0  0  0
  151.2688  143.1965  162.5768 H   0  0  0  0  0  0  0  0  0  0  0  0
  152.1833  144.6000  161.9978 H   0  0  0  0  0  0  0  0  0  0  0  0
  152.1130  144.6084  159.4823 H   0  0  0  0  0  0  0  0  0  0  0  0
  150.7965  144.3594  157.3460 H   0  0  0  0  0  0  0  0  0  0  0  0
  149.4247  142.7074  156.0032 H   0  0  0  0  0  0  0  0  0  0  0  0
  151.0384  141.1305  154.6223 H   0  0  0  0  0  0  0  0  0  0  0  0
  150.7902  140.0744  155.9867 H   0  0  0  0  0  0  0  0  0  0  0  0
  148.2922  140.1400  155.5515 H   0  0  0  0  0  0  0  0  0  0  0  0
  149.9593  139.2838  153.1193 H   0  0  0  0  0  0  0  0  0  0  0  0
  149.6571  138.2614  154.4999 H   0  0  0  0  0  0  0  0  0  0  0  0
  147.4601  136.9902  154.5061 H   0  0  0  0  0  0  0  0  0  0  0  0
  146.9570  138.5295  155.1409 H   0  0  0  0  0  0  0  0  0  0  0  0
  145.1470  138.6612  153.4443 H   0  0  0  0  0  0  0  0  0  0  0  0
  145.1879  135.9512  154.8392 H   0  0  0  0  0  0  0  0  0  0  0  0
  143.7595  136.7678  154.2108 H   0  0  0  0  0  0  0  0  0  0  0  0
  144.6545  137.4720  155.5504 H   0  0  0  0  0  0  0  0  0  0  0  0
  146.1964  135.9896  152.3836 H   0  0  0  0  0  0  0  0  0  0  0  0
  146.2760  137.5309  151.5330 H   0  0  0  0  0  0  0  0  0  0  0  0
  144.7181  136.7927  151.8644 H   0  0  0  0  0  0  0  0  0  0  0  0
  148.0046  139.9662  151.6533 H   0  0  0  0  0  0  0  0  0  0  0  0
  146.3921  139.4783  152.0966 H   0  0  0  0  0  0  0  0  0  0  0  0
  146.8959  141.8623  152.7517 H   0  0  0  0  0  0  0  0  0  0  0  0
  146.5015  140.9091  154.1625 H   0  0  0  0  0  0  0  0  0  0  0  0
  148.2230  137.9302  152.6015 H   0  0  0  0  0  0  0  0  0  0  0  0
  1  2  1  0  0  0  0
  1 21  1  0  0  0  0
  1 22  1  0  0  0  0
  1 23  1  0  0  0  0
  2  3  1  0  0  0  0
  3 20  1  0  0  0  0
  3  4  2  0  0  0  0
  4  5  1  0  0  0  0
  4 24  1  0  0  0  0
  5  6  2  0  0  0  0
  5 25  1  0  0  0  0
  6  7  1  0  0  0  0
  6 19  1  0  0  0  0
  7  8  1  0  0  0  0
  7 26  1  0  0  0  0
  8  9  1  0  0  0  0
  8 27  1  0  0  0  0
  8 28  1  0  0  0  0
  9 18  1  0  0  0  0
  9 10  1  0  0  0  0
  9 29  1  0  0  0  0
 10 11  1  0  0  0  0
 10 30  1  0  0  0  0
 10 31  1  0  0  0  0
 11 12  1  0  0  0  0
 11 16  1  0  0  0  0
 11 45  1  0  0  0  0
 12 13  1  0  0  0  0
 12 32  1  0  0  0  0
 12 33  1  0  0  0  0
 13 14  1  0  0  0  0
 13 15  1  0  0  0  0
 13 34  1  0  0  0  0
 14 35  1  0  0  0  0
 14 36  1  0  0  0  0
 14 37  1  0  0  0  0
 15 38  1  0  0  0  0
 15 39  1  0  0  0  0
 15 40  1  0  0  0  0
 16 17  1  0  0  0  0
 16 41  1  0  0  0  0
 16 42  1  0  0  0  0
 17 18  1  0  0  0  0
 17 43  1  0  0  0  0
 17 44  1  0  0  0  0
 19 20  2  0  0  0  0
M  CHG  1  11   1
M  END
> <s_m_source_file>
AV-unprocessed.smi

> <i_m_source_file_index>
2850

> <i_lp_mmshare_version>
43012

> <i_f3d_flags>
0

> <s_epik_input>
W0NIM11TYzFbY0hdW2NIXWMobm4xKVtOSF1bQ0gyXVtDQEBIXTJbQ0gyXU4oW0NIMl1bQ0gyXU8yKVtDSDJdW0NIXShbQ0gzXSlbQ0gzXQ==

> <s_epik_cmdline>
J2VwaWtfcHl0aG9uJywgJy1waCcsICc3LjAnLCAnLXRuJywgJzgnLCAnLW1hJywgJzIwMCcsICctbWV0YWxfYmluZGluZycsICctaW1hZScsICc8aW5maWxlLm1hZT4nLCAnLW9tYWUnLCAnPG91dGZpbGUubWFlPic=

> <r_lp_tautomer_probability>
0.999978

> <r_epik_Ionization_Penalty>
0.0874875

> <r_epik_Ionization_Penalty_Charging>
0.0831532

> <r_epik_Ionization_Penalty_Neutral>
0.00433433

> <r_epik_State_Penalty>
0.0738301

> <r_epik_Charging_Adjusted_Penalty>
0.156983

> <i_epik_Tot_Q>
1

> <i_epik_Tot_abs_Q>
1

> <r_epik_Metal_State_Penalty>
0.073888

> <b_epik_Metal_Only>
0

> <s_lp_Force_Field>
OPLS_2005

> <r_lp_Energy>
26.7302

> <b_lp_Chiralities_Consistent>
1

> <s_lp_Variant>
AV-unprocessed.smi:2850-3

> <Gold.Version>
5.8.1

> <Gold.Id.Protein>
6NUR|6NUR_protein|mol2

> <Gold.PLP.Fitness>
46.1529

> <Gold.PLP.PLP>
-36.1623

> <Gold.PLP.part.hbond>
-4.0000

> <Gold.PLP.part.metal>
0.0000

> <Gold.PLP.part.buried>
2.6032

> <Gold.PLP.part.nonpolar>
-34.2393

> <Gold.PLP.part.repulsive>
0.3172

> <Gold.PLP.ligand.clash>
0.0000

> <Gold.PLP.ligand.torsion>
0.5157

> <Gold.PLP.Chemscore.Hbond>
3.6348

> <Gold.PLP.Chemscore.CHOScore>
0.0000

> <Gold.PLP.Chemscore.Metal>
0.0000

> <Gold.Chemscore.Hbonds>
donor molecule, donor type, donor heavy atom, donor atom, acceptor molecule, acceptor atom, score
      L1  H     7    26       P1  8028  0.80
      L1  H    11    45       P1  7948  2.00
      P1  H  8011  8017       L1    18  0.25

> <Gold.PLP.Chemscore.Internal.Correction>
0.1176

> <Gold.Rescore>
     Score         DG    S(hbond)    S(metal)    S(lipo)     H(rot)  DE(clash)    DE(int)     intcor
     18.92     -21.45       2.24        0.00     107.57       1.60       2.22       0.32       ----

> <Gold.Chemscore.Fitness>
18.9157

> <Gold.Chemscore.DG>
-21.4509

> <Gold.Chemscore.ZeroCoef>
-5.4800

> <Gold.Chemscore.Hbond>
2.2401

> <Gold.Chemscore.Metal>
0.0000

> <Gold.Chemscore.Lipo>
107.5705

> <Gold.Chemscore.Internal_Hbond>
0.0000

> <Gold.Chemscore.DEClash>
2.2175

> <Gold.Chemscore.DEInternal>
0.3177

> <Gold.Chemscore.Rot>
1.6003

> <Gold.Chemscore.Internal.Correction>
   9.000000E+99

> <Gold.Chemscore.Hbonds>
donor molecule, donor type, donor heavy atom, donor atom, acceptor molecule, acceptor atom, score
      L1  H     7    26       P1  8028  0.74
      L1  H    11    45       P1  7948  0.98
      P1  H  8011  8017       L1    18  0.17

> <Gold.Chemscore.Hbond.Weighted>
-7.4820

> <Gold.Chemscore.Metal.Weighted>
-0.0000

> <Gold.Chemscore.Lipo.Weighted>
-12.5858

> <Gold.Chemscore.Internal_Hbond.Weighted>
0.0000

> <Gold.Chemscore.DEClash.Weighted>
2.2175

> <Gold.Chemscore.DEInternal.Weighted>
0.3177

> <Gold.Chemscore.Rot.Weighted>
4.0968

> <Gold.Chemscore.Internal.Correction.Weighted>
   9.000000E+99

> <Gold.Protein.RotatedTorsions>
[ 6907 6896 6895 6894 ] final   26.79 input  -60.11 | X-H torsion
[ 7974 7965 7964 7962 ] final   35.68 input  175.53 | X-H torsion
[ 8008 7997 7996 7995 ] final  141.13 input   59.86 | X-H torsion
[ 10167 10162 10161 10158 ] final -155.54 input  -65.29 | X-H torsion
[ 10718 10713 10712 10709 ] final  -20.99 input   66.30 | X-H torsion
[ 10763 10752 10751 10750 ] final  -85.20 input  -60.55 | X-H torsion
[ 11005 11000 10999 10996 ] final -118.96 input  -57.11 | X-H torsion

> <Gold.Protein.ActiveResidues>
 VAL166  LYS551  ARG553  GLY616  TRP617  ASP618  TYR619  PRO620  LYS621  CYS622 
 ASP623  PHE694  ASN695  SER759  ASP760  ASP761  ALA762  ILE779  LEU786  VAL792 
 PHE793  MET794  SER795  GLU796  ALA797  LYS798  CYS799  TRP800  GLU811  SER814 

> <Gold.Protein.RotatedAtoms>
  151.9927  134.9970  160.0561 H   0  0  0  0  0  0  0  0  0  0  0  0  # atno 6907 bound_to 6896
  152.1593  133.4567  159.4861 H   0  0  0  0  0  0  0  0  0  0  0  0  # atno 6908 bound_to 6896
  150.6885  134.2009  159.4365 H   0  0  0  0  0  0  0  0  0  0  0  0  # atno 6909 bound_to 6896
  146.1265  139.6112  142.9255 H   0  0  0  0  0  0  0  0  0  0  0  0  # atno 7974 bound_to 7965
  156.2970  140.2323  156.4515 H   0  0  0  0  0  0  0  0  0  0  0  0  # atno 8008 bound_to 7997
  154.8098  140.0443  157.1355 H   0  0  0  0  0  0  0  0  0  0  0  0  # atno 8009 bound_to 7997
  154.9437  140.3033  155.5112 H   0  0  0  0  0  0  0  0  0  0  0  0  # atno 8010 bound_to 7997
  139.6923  143.9400  152.2391 H   0  0  0  0  0  0  0  0  0  0  0  0  # atno 10167 bound_to 10162
  156.5243  130.4640  149.6580 H   0  0  0  0  0  0  0  0  0  0  0  0  # atno 10718 bound_to 10713
  154.6084  135.5493  153.7447 H   0  0  0  0  0  0  0  0  0  0  0  0  # atno 10763 bound_to 10752
  153.0184  135.6383  154.1614 H   0  0  0  0  0  0  0  0  0  0  0  0  # atno 10764 bound_to 10752
  154.1552  135.2900  155.3104 H   0  0  0  0  0  0  0  0  0  0  0  0  # atno 10765 bound_to 10752
  141.0249  134.0069  157.3229 H   0  0  0  0  0  0  0  0  0  0  0  0  # atno 11005 bound_to 11000
  145.5353  141.0424  143.2360 LP  0  0  0  0  0  0  0  0  0  0  0  0  # atno 17320 bound_to 7965
  144.7648  139.6871  143.7219 LP  0  0  0  0  0  0  0  0  0  0  0  0  # atno 17321 bound_to 7965
  139.9220  144.6794  150.8452 LP  0  0  0  0  0  0  0  0  0  0  0  0  # atno 17342 bound_to 10162
  140.7686  143.3368  151.2291 LP  0  0  0  0  0  0  0  0  0  0  0  0  # atno 17343 bound_to 10162
  156.3120  130.7234  151.2129 LP  0  0  0  0  0  0  0  0  0  0  0  0  # atno 17370 bound_to 10713
  157.7432  131.0478  150.4966 LP  0  0  0  0  0  0  0  0  0  0  0  0  # atno 17371 bound_to 10713
  139.9169  135.0197  156.7917 LP  0  0  0  0  0  0  0  0  0  0  0  0  # atno 17394 bound_to 11000
  140.6509  133.9732  155.7754 LP  0  0  0  0  0  0  0  0  0  0  0  0  # atno 17395 bound_to 11000

$$$$
