AV-unprocessed.smi:2308|AV-procd|sdf|9252|dock3
  -GOLD-   2272012473D 1   1.00000     0.00000
 Structure written by MMmdl.
 33 34  0  0  0  0  0  0  0  0  1 V2000
  151.0670  137.9674  154.2020 C   0  0  0  0  0  0  0  0  0  0  0  0
  150.0580  139.0859  154.3591 C   0  0  0  0  0  0  0  0  0  0  0  0
  148.7675  138.9816  153.8036 C   0  0  0  0  0  0  0  0  0  0  0  0
  147.8805  140.0583  153.9817 C   0  0  0  0  0  0  0  0  0  0  0  0
  148.3171  141.1870  154.7018 C   0  0  0  0  0  0  0  0  0  0  0  0
  149.6291  141.2123  155.2262 C   0  0  0  0  0  0  0  0  0  0  0  0
  149.9729  142.3953  155.9334 N   0  0  0  0  0  0  0  0  0  0  0  0
  150.9058  142.5507  156.8894 C   0  0  0  0  0  0  0  0  0  0  0  0
  151.6307  141.6571  157.3286 O   0  0  0  0  0  0  0  0  0  0  0  0
  150.9529  143.8228  157.3175 N   0  0  0  0  0  0  0  0  0  0  0  0
  151.8434  144.3606  158.3492 C   0  0  0  0  0  0  0  0  0  0  0  0
  153.1052  144.9413  157.7022 C   0  0  0  0  0  0  0  0  0  0  0  0
  151.0861  145.2107  159.3922 C   0  0  0  0  0  0  0  0  0  0  0  0
  151.8734  144.4784  160.4817 C   0  0  0  0  0  0  0  0  0  0  0  0
  152.0287  143.3306  159.4800 C   0  0  0  0  0  0  0  0  0  0  0  0
  150.4769  140.1684  155.0492 N   0  0  0  0  0  0  0  0  0  0  0  0
  150.5932  137.0576  153.8322 H   0  0  0  0  0  0  0  0  0  0  0  0
  151.5382  137.7387  155.1586 H   0  0  0  0  0  0  0  0  0  0  0  0
  151.8452  138.2590  153.4967 H   0  0  0  0  0  0  0  0  0  0  0  0
  148.4636  138.1022  153.2546 H   0  0  0  0  0  0  0  0  0  0  0  0
  146.8819  140.0205  153.5721 H   0  0  0  0  0  0  0  0  0  0  0  0
  147.6479  142.0228  154.8464 H   0  0  0  0  0  0  0  0  0  0  0  0
  149.4506  143.2202  155.6784 H   0  0  0  0  0  0  0  0  0  0  0  0
  150.3164  144.4812  156.8929 H   0  0  0  0  0  0  0  0  0  0  0  0
  153.8107  145.2998  158.4520 H   0  0  0  0  0  0  0  0  0  0  0  0
  152.8745  145.7851  157.0517 H   0  0  0  0  0  0  0  0  0  0  0  0
  153.6238  144.1936  157.1016 H   0  0  0  0  0  0  0  0  0  0  0  0
  151.2802  146.2824  159.3358 H   0  0  0  0  0  0  0  0  0  0  0  0
  150.0154  145.0015  159.4413 H   0  0  0  0  0  0  0  0  0  0  0  0
  152.8189  144.9647  160.7276 H   0  0  0  0  0  0  0  0  0  0  0  0
  151.2983  144.2316  161.3746 H   0  0  0  0  0  0  0  0  0  0  0  0
  151.2173  142.6033  159.5532 H   0  0  0  0  0  0  0  0  0  0  0  0
  153.0035  142.8423  159.5011 H   0  0  0  0  0  0  0  0  0  0  0  0
  1  2  1  0  0  0  0
  1 17  1  0  0  0  0
  1 18  1  0  0  0  0
  1 19  1  0  0  0  0
  2 16  1  0  0  0  0
  2  3  2  0  0  0  0
  3  4  1  0  0  0  0
  3 20  1  0  0  0  0
  4  5  2  0  0  0  0
  4 21  1  0  0  0  0
  5  6  1  0  0  0  0
  5 22  1  0  0  0  0
  6  7  1  0  0  0  0
  6 16  2  0  0  0  0
  7  8  1  0  0  0  0
  7 23  1  0  0  0  0
  8  9  2  0  0  0  0
  8 10  1  0  0  0  0
 10 11  1  0  0  0  0
 10 24  1  0  0  0  0
 11 15  1  0  0  0  0
 11 12  1  0  0  0  0
 11 13  1  0  0  0  0
 12 25  1  0  0  0  0
 12 26  1  0  0  0  0
 12 27  1  0  0  0  0
 13 14  1  0  0  0  0
 13 28  1  0  0  0  0
 13 29  1  0  0  0  0
 14 15  1  0  0  0  0
 14 30  1  0  0  0  0
 14 31  1  0  0  0  0
 15 32  1  0  0  0  0
 15 33  1  0  0  0  0
M  END
> <s_m_source_file>
AV-unprocessed.smi

> <i_m_source_file_index>
2308

> <i_lp_mmshare_version>
43012

> <i_f3d_flags>
0

> <s_epik_input>
W0NIM11jMVtjSF1bY0hdW2NIXWMobjEpW05IXUMoPU8pW05IXUMyKFtDSDNdKVtDSDJdW0NIMl1bQ0gyXTI=

> <s_epik_cmdline>
J2VwaWtfcHl0aG9uJywgJy1waCcsICc3LjAnLCAnLXRuJywgJzgnLCAnLW1hJywgJzIwMCcsICctbWV0YWxfYmluZGluZycsICctaW1hZScsICc8aW5maWxlLm1hZT4nLCAnLW9tYWUnLCAnPG91dGZpbGUubWFlPic=

> <r_lp_tautomer_probability>
1

> <r_epik_Ionization_Penalty>
9.50392e-05

> <r_epik_Ionization_Penalty_Charging>
0

> <r_epik_Ionization_Penalty_Neutral>
9.50392e-05

> <r_epik_State_Penalty>
-0

> <r_epik_Charging_Adjusted_Penalty>
0

> <i_epik_Tot_Q>
0

> <i_epik_Tot_abs_Q>
0

> <r_epik_Metal_State_Penalty>
-0

> <b_epik_Metal_Only>
0

> <s_lp_Force_Field>
OPLS_2005

> <r_lp_Energy>
16.4501

> <b_lp_Chiralities_Consistent>
1

> <s_lp_Variant>
AV-unprocessed.smi:2308-1

> <Gold.Version>
5.8.1

> <Gold.Id.Protein>
6NUR|6NUR_protein|mol2

> <Gold.PLP.Fitness>
44.8757

> <Gold.PLP.PLP>
-37.7806

> <Gold.PLP.part.hbond>
-3.0000

> <Gold.PLP.part.metal>
0.0000

> <Gold.PLP.part.buried>
-3.3048

> <Gold.PLP.part.nonpolar>
-32.3568

> <Gold.PLP.part.repulsive>
0.2303

> <Gold.PLP.ligand.clash>
0.0000

> <Gold.PLP.ligand.torsion>
0.5300

> <Gold.PLP.Chemscore.Hbond>
2.6198

> <Gold.PLP.Chemscore.CHOScore>
0.0000

> <Gold.PLP.Chemscore.Metal>
0.0000

> <Gold.Chemscore.Hbonds>
donor molecule, donor type, donor heavy atom, donor atom, acceptor molecule, acceptor atom, score
      L1  H     7    23       P1  8028  1.00
      L1  H    10    24       P1  8028  0.96
      P1  H  7989  7998       L1    16  0.66

> <Gold.PLP.Chemscore.Internal.Correction>
0.2960

> <Gold.Rescore>
     Score         DG    S(hbond)    S(metal)    S(lipo)     H(rot)  DE(clash)    DE(int)     intcor
     15.59     -21.42       1.90        0.00     103.91       1.00       2.69       3.14       ----

> <Gold.Chemscore.Fitness>
15.5899

> <Gold.Chemscore.DG>
-21.4183

> <Gold.Chemscore.ZeroCoef>
-5.4800

> <Gold.Chemscore.Hbond>
1.8985

> <Gold.Chemscore.Metal>
0.0000

> <Gold.Chemscore.Lipo>
103.9103

> <Gold.Chemscore.Internal_Hbond>
0.0000

> <Gold.Chemscore.DEClash>
2.6871

> <Gold.Chemscore.DEInternal>
3.1413

> <Gold.Chemscore.Rot>
1.0000

> <Gold.Chemscore.Internal.Correction>
   9.000000E+99

> <Gold.Chemscore.Hbonds>
donor molecule, donor type, donor heavy atom, donor atom, acceptor molecule, acceptor atom, score
      L1  H     7    23       P1  8028  0.98
      L1  H    10    24       P1  8028  0.79
      P1  H  7989  7998       L1    16  0.02

> <Gold.Chemscore.Hbond.Weighted>
-6.3408

> <Gold.Chemscore.Metal.Weighted>
-0.0000

> <Gold.Chemscore.Lipo.Weighted>
-12.1575

> <Gold.Chemscore.Internal_Hbond.Weighted>
0.0000

> <Gold.Chemscore.DEClash.Weighted>
2.6871

> <Gold.Chemscore.DEInternal.Weighted>
3.1413

> <Gold.Chemscore.Rot.Weighted>
2.5600

> <Gold.Chemscore.Internal.Correction.Weighted>
   9.000000E+99

> <Gold.Protein.RotatedTorsions>
[ 6907 6896 6895 6894 ] final   15.03 input  -60.11 | X-H torsion
[ 7974 7965 7964 7962 ] final  -60.86 input  175.53 | X-H torsion
[ 8008 7997 7996 7995 ] final   75.82 input   59.86 | X-H torsion
[ 10167 10162 10161 10158 ] final  -30.58 input  -65.29 | X-H torsion
[ 10718 10713 10712 10709 ] final -103.25 input   66.30 | X-H torsion
[ 10763 10752 10751 10750 ] final  -16.76 input  -60.55 | X-H torsion
[ 11005 11000 10999 10996 ] final -151.81 input  -57.11 | X-H torsion

> <Gold.Protein.ActiveResidues>
 VAL166  LYS551  ARG553  GLY616  TRP617  ASP618  TYR619  PRO620  LYS621  CYS622 
 ASP623  PHE694  ASN695  SER759  ASP760  ASP761  ALA762  ILE779  LEU786  VAL792 
 PHE793  MET794  SER795  GLU796  ALA797  LYS798  CYS799  TRP800  GLU811  SER814 

> <Gold.Protein.RotatedAtoms>
  151.8116  135.0679  160.0413 H   0  0  0  0  0  0  0  0  0  0  0  0  # atno 6907 bound_to 6896
  152.3016  133.5657  159.5631 H   0  0  0  0  0  0  0  0  0  0  0  0  # atno 6908 bound_to 6896
  150.7276  134.0198  159.3740 H   0  0  0  0  0  0  0  0  0  0  0  0  # atno 6909 bound_to 6896
  145.8105  140.8602  143.0184 H   0  0  0  0  0  0  0  0  0  0  0  0  # atno 7974 bound_to 7965
  155.8184  140.3470  155.5499 H   0  0  0  0  0  0  0  0  0  0  0  0  # atno 8008 bound_to 7997
  155.8368  140.0935  157.1779 H   0  0  0  0  0  0  0  0  0  0  0  0  # atno 8009 bound_to 7997
  154.4004  140.1402  156.3668 H   0  0  0  0  0  0  0  0  0  0  0  0  # atno 8010 bound_to 7997
  140.7247  143.3838  151.1553 H   0  0  0  0  0  0  0  0  0  0  0  0  # atno 10167 bound_to 10162
  156.0258  130.5458  150.7226 H   0  0  0  0  0  0  0  0  0  0  0  0  # atno 10718 bound_to 10713
  153.5635  135.7009  153.5537 H   0  0  0  0  0  0  0  0  0  0  0  0  # atno 10763 bound_to 10752
  153.3408  135.4021  155.1570 H   0  0  0  0  0  0  0  0  0  0  0  0  # atno 10764 bound_to 10752
  154.8644  135.3742  154.5153 H   0  0  0  0  0  0  0  0  0  0  0  0  # atno 10765 bound_to 10752
  140.7256  134.3678  157.5176 H   0  0  0  0  0  0  0  0  0  0  0  0  # atno 11005 bound_to 11000
  144.6758  140.0388  143.7481 LP  0  0  0  0  0  0  0  0  0  0  0  0  # atno 17320 bound_to 7965
  145.9782  139.2921  143.1057 LP  0  0  0  0  0  0  0  0  0  0  0  0  # atno 17321 bound_to 7965
  139.7431  143.8894  152.3056 LP  0  0  0  0  0  0  0  0  0  0  0  0  # atno 17342 bound_to 10162
  139.8721  144.7062  150.8975 LP  0  0  0  0  0  0  0  0  0  0  0  0  # atno 17343 bound_to 10162
  157.4838  131.0905  151.0506 LP  0  0  0  0  0  0  0  0  0  0  0  0  # atno 17370 bound_to 10713
  157.0932  130.5951  149.5444 LP  0  0  0  0  0  0  0  0  0  0  0  0  # atno 17371 bound_to 10713
  139.8838  134.8984  156.2745 LP  0  0  0  0  0  0  0  0  0  0  0  0  # atno 17394 bound_to 11000
  140.9965  133.7177  156.0894 LP  0  0  0  0  0  0  0  0  0  0  0  0  # atno 17395 bound_to 11000

$$$$
