AV-unprocessed.smi:113|AV-procd|sdf|1101|dock9
  -GOLD-   2262018213D 1   1.00000     0.00000
 Structure written by MMmdl.
 53 56  0  0  0  0  0  0  0  0  2 V2000
  155.2775  139.2205  163.3348 C   0  0  0  0  0  0  0  0  0  0  0  0
  154.5241  139.7020  162.1132 C   0  0  0  0  0  0  0  0  0  0  0  0
  154.3655  138.8996  160.9670 C   0  0  0  0  0  0  0  0  0  0  0  0
  153.6561  139.3982  159.8463 C   0  0  0  0  0  0  0  0  0  0  0  0
  153.4719  138.5481  158.5844 C   0  0  0  0  0  0  0  0  0  0  0  0
  152.1113  138.3999  158.0871 N   0  0  0  0  0  0  0  0  0  0  0  0
  151.2160  137.5933  158.8307 C   0  0  0  0  0  0  0  0  0  0  0  0
  151.5697  137.0195  159.8631 O   0  0  0  0  0  0  0  0  0  0  0  0
  149.8671  137.4844  158.2704 C   0  0  0  0  0  0  0  0  0  0  0  0
  148.8358  136.6723  159.0382 C   0  0  0  0  0  0  0  0  0  0  0  0
  149.5731  138.1004  157.1000 C   0  0  0  0  0  0  0  0  0  0  0  0
  150.4828  138.8401  156.3640 N   0  0  0  0  0  0  0  0  0  0  0  0
  150.0319  139.5012  155.0767 C   0  0  2  0  0  0  0  0  0  0  0  0
  149.7881  141.0090  155.2114 C   0  0  0  0  0  0  0  0  0  0  0  0
  148.6196  141.2007  154.2669 C   0  0  2  0  0  0  0  0  0  0  0  0
  147.8620  142.3379  154.6265 O   0  0  0  0  0  0  0  0  0  0  0  0
  147.8319  139.8973  154.4365 C   0  0  1  0  0  0  0  0  0  0  0  0
  146.9957  139.5263  153.2022 C   0  0  0  0  0  0  0  0  0  0  0  0
  147.8199  138.9498  152.2118 O   0  0  0  0  0  0  0  0  0  0  0  0
  148.8394  138.9083  154.6529 O   0  0  0  0  0  0  0  0  0  0  0  0
  151.7898  139.0319  156.8649 C   0  0  0  0  0  0  0  0  0  0  0  0
  152.6188  139.7095  156.2547 O   0  0  0  0  0  0  0  0  0  0  0  0
  153.1162  140.7116  159.9206 C   0  0  0  0  0  0  0  0  0  0  0  0
  152.3887  141.2900  158.8528 C   0  0  0  0  0  0  0  0  0  0  0  0
  151.8728  142.5960  158.9637 C   0  0  0  0  0  0  0  0  0  0  0  0
  152.0739  143.3415  160.1403 C   0  0  0  0  0  0  0  0  0  0  0  0
  152.7930  142.7812  161.2121 C   0  0  0  0  0  0  0  0  0  0  0  0
  153.3103  141.4752  161.1034 C   0  0  0  0  0  0  0  0  0  0  0  0
  153.9988  140.9437  162.1354 N   0  3  0  0  0  0  0  0  0  0  0  0
  155.2731  138.1314  163.3889 H   0  0  0  0  0  0  0  0  0  0  0  0
  154.8240  139.6061  164.2485 H   0  0  0  0  0  0  0  0  0  0  0  0
  156.3135  139.5573  163.2952 H   0  0  0  0  0  0  0  0  0  0  0  0
  154.7936  137.9084  160.9629 H   0  0  0  0  0  0  0  0  0  0  0  0
  154.0820  138.9460  157.7722 H   0  0  0  0  0  0  0  0  0  0  0  0
  153.8633  137.5420  158.7444 H   0  0  0  0  0  0  0  0  0  0  0  0
  147.8645  136.6777  158.5432 H   0  0  0  0  0  0  0  0  0  0  0  0
  148.6995  137.0774  160.0418 H   0  0  0  0  0  0  0  0  0  0  0  0
  149.1582  135.6343  159.1287 H   0  0  0  0  0  0  0  0  0  0  0  0
  148.5674  137.9990  156.7178 H   0  0  0  0  0  0  0  0  0  0  0  0
  150.7973  139.2815  154.3322 H   0  0  0  0  0  0  0  0  0  0  0  0
  149.5191  141.2784  156.2320 H   0  0  0  0  0  0  0  0  0  0  0  0
  150.6753  141.5753  154.9271 H   0  0  0  0  0  0  0  0  0  0  0  0
  148.9837  141.2995  153.2431 H   0  0  0  0  0  0  0  0  0  0  0  0
  148.4568  143.0300  154.8729 H   0  0  0  0  0  0  0  0  0  0  0  0
  147.2031  139.9652  155.3259 H   0  0  0  0  0  0  0  0  0  0  0  0
  146.2417  138.7852  153.4696 H   0  0  0  0  0  0  0  0  0  0  0  0
  146.4698  140.3940  152.8028 H   0  0  0  0  0  0  0  0  0  0  0  0
  148.4335  139.6035  151.9128 H   0  0  0  0  0  0  0  0  0  0  0  0
  152.2133  140.7489  157.9354 H   0  0  0  0  0  0  0  0  0  0  0  0
  151.3201  143.0275  158.1418 H   0  0  0  0  0  0  0  0  0  0  0  0
  151.6760  144.3426  160.2204 H   0  0  0  0  0  0  0  0  0  0  0  0
  152.9441  143.3578  162.1134 H   0  0  0  0  0  0  0  0  0  0  0  0
  154.1272  141.5090  162.9745 H   0  0  0  0  0  0  0  0  0  0  0  0
  1  2  1  0  0  0  0
  1 30  1  0  0  0  0
  1 31  1  0  0  0  0
  1 32  1  0  0  0  0
  2 29  1  0  0  0  0
  2  3  2  0  0  0  0
  3  4  1  0  0  0  0
  3 33  1  0  0  0  0
  4  5  1  0  0  0  0
  4 23  2  0  0  0  0
  5  6  1  0  0  0  0
  5 34  1  0  0  0  0
  5 35  1  0  0  0  0
  6 21  1  0  0  0  0
  6  7  1  0  0  0  0
  7  8  2  0  0  0  0
  7  9  1  0  0  0  0
  9 10  1  0  0  0  0
  9 11  2  0  0  0  0
 10 36  1  0  0  0  0
 10 37  1  0  0  0  0
 10 38  1  0  0  0  0
 11 12  1  0  0  0  0
 11 39  1  0  0  0  0
 12 13  1  0  0  0  0
 12 21  1  0  0  0  0
 13 20  1  0  0  0  0
 13 14  1  0  0  0  0
 13 40  1  0  0  0  0
 14 15  1  0  0  0  0
 14 41  1  0  0  0  0
 14 42  1  0  0  0  0
 15 16  1  0  0  0  0
 15 17  1  0  0  0  0
 15 43  1  0  0  0  0
 16 44  1  0  0  0  0
 17 18  1  0  0  0  0
 17 20  1  0  0  0  0
 17 45  1  0  0  0  0
 18 19  1  0  0  0  0
 18 46  1  0  0  0  0
 18 47  1  0  0  0  0
 19 48  1  0  0  0  0
 21 22  2  0  0  0  0
 23 28  1  0  0  0  0
 23 24  1  0  0  0  0
 24 25  2  0  0  0  0
 24 49  1  0  0  0  0
 25 26  1  0  0  0  0
 25 50  1  0  0  0  0
 26 27  2  0  0  0  0
 26 51  1  0  0  0  0
 27 28  1  0  0  0  0
 27 52  1  0  0  0  0
 28 29  2  0  0  0  0
 29 53  1  0  0  0  0
M  CHG  1  29   1
M  END
> <s_m_source_file>
AV-unprocessed.smi

> <i_m_source_file_index>
113

> <i_lp_mmshare_version>
43012

> <i_f3d_flags>
0

> <s_epik_input>
W2NIXTFbY0hdW2NIXVtjSF1jKGMxMiluYyhbQ0gzXSlbY0hdYzJbQ0gyXW4zYyg9TyljKFtDSDNdKVtjSF1uKGMzPU8pW0NAQEhdNFtDSDJdW0NAQEhdKFtPSF0pW0NASF0oTzQpW0NIMl1bT0hd

> <s_epik_cmdline>
J2VwaWtfcHl0aG9uJywgJy1waCcsICc3LjAnLCAnLXRuJywgJzgnLCAnLW1hJywgJzIwMCcsICctbWV0YWxfYmluZGluZycsICctaW1hZScsICc8aW5maWxlLm1hZT4nLCAnLW9tYWUnLCAnPG91dGZpbGUubWFlPic=

> <r_lp_tautomer_probability>
1

> <r_epik_Ionization_Penalty>
0.705471

> <r_epik_Ionization_Penalty_Charging>
0.70547

> <r_epik_Ionization_Penalty_Neutral>
1.19947e-07

> <r_epik_State_Penalty>
0.728574

> <r_epik_Charging_Adjusted_Penalty>
1.43404

> <i_epik_Tot_Q>
1

> <i_epik_Tot_abs_Q>
1

> <r_epik_Metal_State_Penalty>
4.61665

> <b_epik_Metal_Only>
0

> <s_epik_Chemistry_Notes>
This compound contains an acetal/aminal-like group ( X-CH(R)-Y where X, Y are N, S, or O) that may be acid/base labile, releasing an aldehyde.

> <s_lp_Force_Field>
OPLS_2005

> <r_lp_Energy>
36.4748

> <b_lp_Chiralities_Consistent>
1

> <s_lp_Variant>
AV-unprocessed.smi:113-11

> <Gold.Version>
5.8.1

> <Gold.Id.Protein>
6NUR|6NUR_protein|mol2

> <Gold.PLP.Fitness>
62.3530

> <Gold.PLP.PLP>
-51.9319

> <Gold.PLP.part.hbond>
-5.1736

> <Gold.PLP.part.metal>
0.0000

> <Gold.PLP.part.buried>
-7.2708

> <Gold.PLP.part.nonpolar>
-39.5198

> <Gold.PLP.part.repulsive>
0.1346

> <Gold.PLP.ligand.clash>
0.0000

> <Gold.PLP.ligand.torsion>
0.7552

> <Gold.PLP.Chemscore.Hbond>
3.9673

> <Gold.PLP.Chemscore.CHOScore>
0.0000

> <Gold.PLP.Chemscore.Metal>
0.0000

> <Gold.Chemscore.Hbonds>
donor molecule, donor type, donor heavy atom, donor atom, acceptor molecule, acceptor atom, score
      L1  H    16    44       P1  8028  1.00
      L1  H    19    48       P1  7957  0.78
      P1  H  6896  6907       L1     8  1.00
      P1  H  7997  8009       L1    22  1.00

> <Gold.PLP.Chemscore.Internal.Correction>
0.0297

> <Gold.Rescore>
     Score         DG    S(hbond)    S(metal)    S(lipo)     H(rot)  DE(clash)    DE(int)     intcor
     25.07     -25.76       3.93        0.00     126.93       3.01       0.01       0.68       ----

> <Gold.Chemscore.Fitness>
25.0705

> <Gold.Chemscore.DG>
-25.7613

> <Gold.Chemscore.ZeroCoef>
-5.4800

> <Gold.Chemscore.Hbond>
3.9344

> <Gold.Chemscore.Metal>
0.0000

> <Gold.Chemscore.Lipo>
126.9333

> <Gold.Chemscore.Internal_Hbond>
0.0000

> <Gold.Chemscore.DEClash>
0.0109

> <Gold.Chemscore.DEInternal>
0.6798

> <Gold.Chemscore.Rot>
3.0120

> <Gold.Chemscore.Internal.Correction>
   9.000000E+99

> <Gold.Chemscore.Hbonds>
donor molecule, donor type, donor heavy atom, donor atom, acceptor molecule, acceptor atom, score
      L1  H    16    44       P1  8028  0.97
      L1  H    19    48       P1  7957  0.74
      P1  H  6896  6907       L1     8  0.99
      P1  H  7997  8009       L1    22  1.00

> <Gold.Chemscore.Hbond.Weighted>
-13.1408

> <Gold.Chemscore.Metal.Weighted>
-0.0000

> <Gold.Chemscore.Lipo.Weighted>
-14.8512

> <Gold.Chemscore.Internal_Hbond.Weighted>
0.0000

> <Gold.Chemscore.DEClash.Weighted>
0.0109

> <Gold.Chemscore.DEInternal.Weighted>
0.6798

> <Gold.Chemscore.Rot.Weighted>
7.7108

> <Gold.Chemscore.Internal.Correction.Weighted>
   9.000000E+99

> <Gold.Protein.RotatedTorsions>
[ 6907 6896 6895 6894 ] final    1.36 input  -60.11 | X-H torsion
[ 7974 7965 7964 7962 ] final   90.38 input  175.53 | X-H torsion
[ 8008 7997 7996 7995 ] final -154.33 input   59.86 | X-H torsion
[ 10167 10162 10161 10158 ] final -164.51 input  -65.29 | X-H torsion
[ 10718 10713 10712 10709 ] final   18.44 input   66.30 | X-H torsion
[ 10763 10752 10751 10750 ] final   81.91 input  -60.55 | X-H torsion
[ 11005 11000 10999 10996 ] final   57.77 input  -57.11 | X-H torsion

> <Gold.Protein.ActiveResidues>
 VAL166  LYS551  ARG553  GLY616  TRP617  ASP618  TYR619  PRO620  LYS621  CYS622 
 ASP623  PHE694  ASN695  SER759  ASP760  ASP761  ALA762  ILE779  LEU786  VAL792 
 PHE793  MET794  SER795  GLU796  ALA797  LYS798  CYS799  TRP800  GLU811  SER814 

> <Gold.Protein.RotatedAtoms>
  151.5914  135.1053  160.0039 H   0  0  0  0  0  0  0  0  0  0  0  0  # atno 6907 bound_to 6896
  152.4304  133.7264  159.6573 H   0  0  0  0  0  0  0  0  0  0  0  0  # atno 6908 bound_to 6896
  150.8196  133.8204  159.3167 H   0  0  0  0  0  0  0  0  0  0  0  0  # atno 6909 bound_to 6896
  145.5198  139.2279  143.2678 H   0  0  0  0  0  0  0  0  0  0  0  0  # atno 7974 bound_to 7965
  155.6846  140.0748  157.2471 H   0  0  0  0  0  0  0  0  0  0  0  0  # atno 8008 bound_to 7997
  154.4099  140.1675  156.2072 H   0  0  0  0  0  0  0  0  0  0  0  0  # atno 8009 bound_to 7997
  155.9505  140.3377  155.6406 H   0  0  0  0  0  0  0  0  0  0  0  0  # atno 8010 bound_to 7997
  139.6245  144.0558  152.1963 H   0  0  0  0  0  0  0  0  0  0  0  0  # atno 10167 bound_to 10162
  157.0963  130.6449  149.5861 H   0  0  0  0  0  0  0  0  0  0  0  0  # atno 10718 bound_to 10713
  153.1157  135.4748  154.9111 H   0  0  0  0  0  0  0  0  0  0  0  0  # atno 10763 bound_to 10752
  154.7526  135.3110  154.8532 H   0  0  0  0  0  0  0  0  0  0  0  0  # atno 10764 bound_to 10752
  153.9109  135.6865  153.4804 H   0  0  0  0  0  0  0  0  0  0  0  0  # atno 10765 bound_to 10752
  140.0428  134.5849  155.9361 H   0  0  0  0  0  0  0  0  0  0  0  0  # atno 11005 bound_to 11000
  146.2113  140.6009  142.9058 LP  0  0  0  0  0  0  0  0  0  0  0  0  # atno 17320 bound_to 7965
  144.7682  140.5578  143.6688 LP  0  0  0  0  0  0  0  0  0  0  0  0  # atno 17321 bound_to 7965
  140.0209  144.6154  150.7568 LP  0  0  0  0  0  0  0  0  0  0  0  0  # atno 17342 bound_to 10162
  140.7403  143.2802  151.3621 LP  0  0  0  0  0  0  0  0  0  0  0  0  # atno 17343 bound_to 10162
  155.9885  130.4928  150.7172 LP  0  0  0  0  0  0  0  0  0  0  0  0  # atno 17370 bound_to 10713
  157.4678  131.0890  151.0675 LP  0  0  0  0  0  0  0  0  0  0  0  0  # atno 17371 bound_to 10713
  141.1891  133.6564  156.5355 LP  0  0  0  0  0  0  0  0  0  0  0  0  # atno 17394 bound_to 11000
  140.4042  134.7329  157.4798 LP  0  0  0  0  0  0  0  0  0  0  0  0  # atno 17395 bound_to 11000

$$$$
