#       Name:                AV-unprocessed.smi:220
#       Creating user name   scv26
#       Creation time:       Thu Mar 26 20:12:17 2020


#       File generated by GOLD software.
#

@<TRIPOS>MOLECULE
AV-unprocessed.smi:220
    61    65     1
SMALL
NO_CHARGES


@<TRIPOS>ATOM
      1 ****        -2.5518   1.3795  -4.2963 N.am           1 S1                 0.0000
      2 ****        -2.3719   0.3893  -3.4192 C.2            1 S1                 0.0000
      3 ****        -2.0849  -0.7536  -3.7721 O.2            1 S1                 0.0000
      4 ****        -2.5591   0.7377  -1.9326 C.3            1 S1                 0.0000
      5 ****        -3.9955   0.4249  -1.4551 C.3            1 S1                 0.0000
      6 ****        -4.9131   1.6546  -1.3613 C.3            1 S1                 0.0000
      7 ****        -4.8316   2.1008   0.0991 C.3            1 S1                 0.0000
      8 ****        -4.6913   0.7949   0.8814 C.3            1 S1                 0.0000
      9 ****        -3.8542  -0.1190  -0.0251 C.3            1 S1                 0.0000
     10 ****        -2.3499  -0.0927   0.2601 C.3            1 S1                 0.0000
     11 ****        -1.7074  -0.0552  -1.0434 N.3            1 S1                 0.0000
     12 ****        -0.3623   0.1416  -1.0106 C.ar           1 S1                 0.0000
     13 ****         0.1832   1.2544  -1.5715 N.ar           1 S1                 0.0000
     14 ****         1.5027   1.4574  -1.5271 C.ar           1 S1                 0.0000
     15 ****         2.4458   0.6910  -0.9776 N.ar           1 S1                 0.0000
     16 ****         1.9080  -0.4287  -0.4153 C.ar           1 S1                 0.0000
     17 ****         0.5283  -0.7791  -0.3899 C.ar           1 S1                 0.0000
     18 ****         0.3637  -1.9984   0.2564 N.2            1 S1                 0.0000
     19 ****         1.5735  -2.3431   0.6025 C.2            1 S1                 0.0000
     20 ****         2.5617  -1.4510   0.2516 N.pl3          1 S1                 0.0000
     21 ****         3.9865  -1.5781   0.5180 C.3            1 S1                 0.0000
     22 ****         4.3808  -1.2131   1.9636 C.3            1 S1                 0.0000
     23 ****         3.9785   0.2379   2.2814 C.3            1 S1                 0.0000
     24 ****         4.6690   1.1556   1.4580 O.3            1 S1                 0.0000
     25 ****         3.9847  -2.2301   3.0437 C.3            1 S1                 0.0000
     26 ****         5.3259  -2.2760   3.5740 O.3            1 S1                 0.0000
     27 ****         5.8033  -1.5996   2.3916 C.3            1 S1                 0.0000
     28 ****        -2.4356   1.2011  -5.2831 H              1 S1                 0.0000
     29 ****        -2.7985   2.3027  -3.9705 H              1 S1                 0.0000
     30 ****        -2.3464   1.7970  -1.7718 H              1 S1                 0.0000
     31 ****        -4.4591  -0.3355  -2.0869 H              1 S1                 0.0000
     32 ****        -4.6424   2.4477  -2.0591 H              1 S1                 0.0000
     33 ****        -5.9379   1.3583  -1.5892 H              1 S1                 0.0000
     34 ****        -3.9428   2.7156   0.2469 H              1 S1                 0.0000
     35 ****        -5.6977   2.6860   0.4093 H              1 S1                 0.0000
     36 ****        -4.2525   0.9398   1.8692 H              1 S1                 0.0000
     37 ****        -5.6790   0.3547   1.0246 H              1 S1                 0.0000
     38 ****        -4.2152  -1.1474   0.0239 H              1 S1                 0.0000
     39 ****        -2.0684   0.7972   0.8266 H              1 S1                 0.0000
     40 ****        -2.0553  -0.9661   0.8413 H              1 S1                 0.0000
     41 ****         1.8521   2.3651  -1.9967 H              1 S1                 0.0000
     42 ****         1.7763  -3.2636   1.1293 H              1 S1                 0.0000
     43 ****         4.2720  -2.6065   0.2933 H              1 S1                 0.0000
     44 ****         4.5313  -0.9637  -0.1995 H              1 S1                 0.0000
     45 ****         2.9057   0.3941   2.1689 H              1 S1                 0.0000
     46 ****         4.2107   0.4827   3.3183 H              1 S1                 0.0000
     47 ****         4.3782   2.0293   1.6705 H              1 S1                 0.0000
     48 ****         3.2585  -1.8534   3.7649 H              1 S1                 0.0000
     49 ****         3.6775  -3.2013   2.6538 H              1 S1                 0.0000
     50 ****         6.3019  -2.2865   1.7057 H              1 S1                 0.0000
     51 ****         6.4461  -0.7501   2.6254 H              1 S1                 0.0000
     52 ****        -1.9791  -0.9651  -4.7437 LP             1 S1                 0.0000
     53 ****        -1.9574  -1.4711  -3.0874 LP             1 S1                 0.0000
     54 ****        -1.6605  -0.9575  -1.4719 LP             1 S1                 0.0000
     55 ****        -0.4077   1.9250  -2.0201 LP             1 S1                 0.0000
     56 ****         3.4216   0.9094  -0.9779 LP             1 S1                 0.0000
     57 ****        -0.4875  -2.4975   0.4190 LP             1 S1                 0.0000
     58 ****         4.4730   0.9597   0.4972 LP             1 S1                 0.0000
     59 ****         5.6528   1.0793   1.6198 LP             1 S1                 0.0000
     60 ****         5.6886  -3.2003   3.6922 LP             1 S1                 0.0000
     61 ****         5.4499  -1.7585   4.4207 LP             1 S1                 0.0000
@<TRIPOS>BOND
    1    1    2 am    
    2    1   28 1     
    3    1   29 1     
    4    2    3 2     
    5    2    4 1     
    6    4   11 1     
    7    4    5 1     
    8    4   30 1     
    9    5    9 1     
   10    5    6 1     
   11    5   31 1     
   12    6    7 1     
   13    6   32 1     
   14    6   33 1     
   15    7    8 1     
   16    7   34 1     
   17    7   35 1     
   18    8    9 1     
   19    8   36 1     
   20    8   37 1     
   21    9   10 1     
   22    9   38 1     
   23   10   11 1     
   24   10   39 1     
   25   10   40 1     
   26   11   12 1     
   27   12   17 ar    
   28   12   13 ar    
   29   13   14 ar    
   30   14   15 ar    
   31   14   41 1     
   32   15   16 ar    
   33   16   20 1     
   34   16   17 ar    
   35   17   18 1     
   36   18   19 2     
   37   19   20 1     
   38   19   42 1     
   39   20   21 1     
   40   21   22 1     
   41   21   43 1     
   42   21   44 1     
   43   22   27 1     
   44   22   23 1     
   45   22   25 1     
   46   23   24 1     
   47   23   45 1     
   48   23   46 1     
   49   24   47 1     
   50   25   26 1     
   51   25   48 1     
   52   25   49 1     
   53   26   27 1     
   54   27   50 1     
   55   27   51 1     
   56    3   52 1     
   57    3   53 1     
   58   11   54 1     
   59   13   55 1     
   60   15   56 1     
   61   18   57 1     
   62   24   58 1     
   63   24   59 1     
   64   26   60 1     
   65   26   61 1     
@<TRIPOS>SUBSTRUCTURE
      1 S1             1
@<TRIPOS>SET
LONE_PAIRS      STATIC     ATOMS    <user>   **** ""
10 52 53 54 55 56 57 58 59 60 61
DONOR_HYDROGENS      STATIC     ATOMS    <user>   **** ""
3 28 29 47
ATOM$BLUE        STATIC     ATOMS    COLORGROUP SYSTEM
10 52 53 54 55 56 57 58 59 60 61
ATOM$RED        STATIC     ATOMS    COLORGROUP SYSTEM
3 28 29 47
