AV-unprocessed.smi:1046|AV-procd|sdf|4553|dock3
  -GOLD-   22720 2583D 1   1.00000     0.00000
 Structure written by MMmdl.
 54 56  0  0  0  0  0  0  0  0  3 V2000
  146.1396  130.4346  151.2830 C   0  0  0  0  0  0  0  0  0  0  0  0
  145.9153  131.8959  151.6337 C   0  0  0  0  0  0  0  0  0  0  0  0
  144.7813  132.5497  151.1008 C   0  0  0  0  0  0  0  0  0  0  0  0
  144.6042  133.8869  151.4361 C   0  0  0  0  0  0  0  0  0  0  0  0
  143.6089  134.7978  151.0756 N   0  3  0  0  0  0  0  0  0  0  0  0
  143.8661  136.0048  151.6521 C   0  0  0  0  0  0  0  0  0  0  0  0
  145.0056  135.8739  152.3855 N   0  0  0  0  0  0  0  0  0  0  0  0
  145.7283  136.8602  153.1991 C   0  0  0  0  0  0  0  0  0  0  0  0
  146.4794  137.9105  152.3553 C   0  0  1  0  0  0  0  0  0  0  0  0
  145.5119  138.6109  151.6003 O   0  0  0  0  0  0  0  0  0  0  0  0
  147.2792  138.9169  153.2119 C   0  0  0  0  0  0  0  0  0  0  0  0
  148.5487  138.3512  153.7351 N   0  3  0  0  0  0  0  0  0  0  0  0
  148.3758  137.5675  154.9883 C   0  0  0  0  0  0  0  0  0  0  0  0
  149.7270  136.9841  155.4489 C   0  0  0  0  0  0  0  0  0  0  0  0
  150.7632  138.0016  155.6423 N   0  0  0  0  0  0  0  0  0  0  0  0
  150.5511  138.8749  156.8015 C   0  0  0  0  0  0  0  0  0  0  0  0
  151.6411  139.9352  157.0253 C   0  0  0  0  0  0  0  0  0  0  0  0
  152.9092  139.3327  156.8878 O   0  0  0  0  0  0  0  0  0  0  0  0
  150.9154  138.7487  154.3943 C   0  0  0  0  0  0  0  0  0  0  0  0
  149.6002  139.3878  153.9035 C   0  0  0  0  0  0  0  0  0  0  0  0
  145.5065  134.5727  152.2719 C   0  0  0  0  0  0  0  0  0  0  0  0
  146.6303  133.9449  152.8033 C   0  0  0  0  0  0  0  0  0  0  0  0
  146.8296  132.5856  152.4719 C   0  0  0  0  0  0  0  0  0  0  0  0
  148.0494  131.8753  153.0341 C   0  0  0  0  0  0  0  0  0  0  0  0
  145.2952  130.0235  150.7290 H   0  0  0  0  0  0  0  0  0  0  0  0
  146.2668  129.8346  152.1843 H   0  0  0  0  0  0  0  0  0  0  0  0
  147.0311  130.3257  150.6647 H   0  0  0  0  0  0  0  0  0  0  0  0
  144.0848  132.0318  150.4573 H   0  0  0  0  0  0  0  0  0  0  0  0
  143.2718  136.9012  151.5479 H   0  0  0  0  0  0  0  0  0  0  0  0
  145.0116  137.3362  153.8703 H   0  0  0  0  0  0  0  0  0  0  0  0
  146.4273  136.3117  153.8326 H   0  0  0  0  0  0  0  0  0  0  0  0
  147.1359  137.3924  151.6576 H   0  0  0  0  0  0  0  0  0  0  0  0
  144.9127  139.0429  152.1895 H   0  0  0  0  0  0  0  0  0  0  0  0
  147.4901  139.7973  152.6024 H   0  0  0  0  0  0  0  0  0  0  0  0
  146.6866  139.2711  154.0559 H   0  0  0  0  0  0  0  0  0  0  0  0
  147.9402  138.1955  155.7664 H   0  0  0  0  0  0  0  0  0  0  0  0
  147.6768  136.7480  154.8258 H   0  0  0  0  0  0  0  0  0  0  0  0
  149.5903  136.3995  156.3579 H   0  0  0  0  0  0  0  0  0  0  0  0
  150.0717  136.2708  154.6987 H   0  0  0  0  0  0  0  0  0  0  0  0
  149.6046  139.4010  156.6685 H   0  0  0  0  0  0  0  0  0  0  0  0
  150.4342  138.2847  157.7099 H   0  0  0  0  0  0  0  0  0  0  0  0
  151.5685  140.7469  156.3021 H   0  0  0  0  0  0  0  0  0  0  0  0
  151.5584  140.3701  158.0217 H   0  0  0  0  0  0  0  0  0  0  0  0
  152.9453  138.5735  157.4500 H   0  0  0  0  0  0  0  0  0  0  0  0
  151.6795  139.5178  154.5131 H   0  0  0  0  0  0  0  0  0  0  0  0
  151.2912  138.0766  153.6214 H   0  0  0  0  0  0  0  0  0  0  0  0
  149.7790  139.8823  152.9480 H   0  0  0  0  0  0  0  0  0  0  0  0
  149.2578  140.1586  154.5953 H   0  0  0  0  0  0  0  0  0  0  0  0
  147.3277  134.4708  153.4386 H   0  0  0  0  0  0  0  0  0  0  0  0
  148.6932  132.5627  153.5839 H   0  0  0  0  0  0  0  0  0  0  0  0
  148.6432  131.4349  152.2327 H   0  0  0  0  0  0  0  0  0  0  0  0
  147.7464  131.0820  153.7178 H   0  0  0  0  0  0  0  0  0  0  0  0
  148.8974  137.7154  153.0324 H   0  0  0  0  0  0  0  0  0  0  0  0
  142.8151  134.6136  150.4750 H   0  0  0  0  0  0  0  0  0  0  0  0
  1  2  1  0  0  0  0
  1 25  1  0  0  0  0
  1 26  1  0  0  0  0
  1 27  1  0  0  0  0
  2 23  1  0  0  0  0
  2  3  2  0  0  0  0
  3  4  1  0  0  0  0
  3 28  1  0  0  0  0
  4 21  2  0  0  0  0
  4  5  1  0  0  0  0
  5  6  2  0  0  0  0
  5 54  1  0  0  0  0
  6  7  1  0  0  0  0
  6 29  1  0  0  0  0
  7  8  1  0  0  0  0
  7 21  1  0  0  0  0
  8  9  1  0  0  0  0
  8 30  1  0  0  0  0
  8 31  1  0  0  0  0
  9 10  1  0  0  0  0
  9 11  1  0  0  0  0
  9 32  1  0  0  0  0
 10 33  1  0  0  0  0
 11 12  1  0  0  0  0
 11 34  1  0  0  0  0
 11 35  1  0  0  0  0
 12 20  1  0  0  0  0
 12 13  1  0  0  0  0
 12 53  1  0  0  0  0
 13 14  1  0  0  0  0
 13 36  1  0  0  0  0
 13 37  1  0  0  0  0
 14 15  1  0  0  0  0
 14 38  1  0  0  0  0
 14 39  1  0  0  0  0
 15 16  1  0  0  0  0
 15 19  1  0  0  0  0
 16 17  1  0  0  0  0
 16 40  1  0  0  0  0
 16 41  1  0  0  0  0
 17 18  1  0  0  0  0
 17 42  1  0  0  0  0
 17 43  1  0  0  0  0
 18 44  1  0  0  0  0
 19 20  1  0  0  0  0
 19 45  1  0  0  0  0
 19 46  1  0  0  0  0
 20 47  1  0  0  0  0
 20 48  1  0  0  0  0
 21 22  1  0  0  0  0
 22 23  2  0  0  0  0
 22 49  1  0  0  0  0
 23 24  1  0  0  0  0
 24 50  1  0  0  0  0
 24 51  1  0  0  0  0
 24 52  1  0  0  0  0
M  CHG  1   5   1
M  CHG  1  12   1
M  END
> <s_m_source_file>
AV-unprocessed.smi

> <i_m_source_file_index>
1046

> <i_lp_mmshare_version>
43012

> <i_f3d_flags>
0

> <s_epik_input>
W0NIM11jKFtjSF0xKWMoW0NIM10pW2NIXWMoYzEyKW4oW2NIXW4yKVtDSDJdW0NASF0oW09IXSlbQ0gyXU4zW0NIMl1bQ0gyXU4oW0NIMl1bQ0gyXTMpW0NIMl1bQ0gyXVtPSF0=

> <s_epik_cmdline>
J2VwaWtfcHl0aG9uJywgJy1waCcsICc3LjAnLCAnLXRuJywgJzgnLCAnLW1hJywgJzIwMCcsICctbWV0YWxfYmluZGluZycsICctaW1hZScsICc8aW5maWxlLm1hZT4nLCAnLW9tYWUnLCAnPG91dGZpbGUubWFlPic=

> <r_epik_Ionization_Penalty>
1.22056

> <r_epik_Ionization_Penalty_Charging>
1.17959

> <r_epik_Ionization_Penalty_Neutral>
0.0409743

> <r_epik_State_Penalty>
1.27074

> <r_epik_Charging_Adjusted_Penalty>
2.45032

> <i_epik_Tot_Q>
2

> <i_epik_Tot_abs_Q>
2

> <r_epik_Metal_State_Penalty>
5.26922

> <b_epik_Metal_Only>
0

> <s_lp_Force_Field>
OPLS_2005

> <r_lp_Energy>
42.2252

> <b_lp_Chiralities_Consistent>
1

> <s_lp_Variant>
AV-unprocessed.smi:1046-6

> <Gold.Version>
5.8.1

> <Gold.Id.Protein>
6NUR|6NUR_protein|mol2

> <Gold.PLP.Fitness>
54.3198

> <Gold.PLP.PLP>
-35.0675

> <Gold.PLP.part.hbond>
-4.8245

> <Gold.PLP.part.metal>
0.0000

> <Gold.PLP.part.buried>
-1.1455

> <Gold.PLP.part.nonpolar>
-29.2444

> <Gold.PLP.part.repulsive>
0.0619

> <Gold.PLP.ligand.clash>
0.0000

> <Gold.PLP.ligand.torsion>
0.6666

> <Gold.PLP.Chemscore.Hbond>
5.9920

> <Gold.PLP.Chemscore.CHOScore>
0.8452

> <Gold.PLP.Chemscore.Metal>
0.0000

> <Gold.Chemscore.Hbonds>
donor molecule, donor type, donor heavy atom, donor atom, acceptor molecule, acceptor atom, score
      L1  H     5    54       P1 10186  2.00
      L1  H    10    33       P1 10175  0.93
      L1  H    12    53       P1  7948  2.00
      P1  H  7997  8008       L1    18  1.00
      L1  C     6    29       P1 10171  0.81

> <Gold.PLP.Chemscore.Internal.Correction>
0.0738

> <Gold.Rescore>
     Score         DG    S(hbond)    S(metal)    S(lipo)     H(rot)  DE(clash)    DE(int)     intcor
     17.35     -20.37       3.53        0.00      98.46       3.29       2.25       0.77       ----

> <Gold.Chemscore.Fitness>
17.3535

> <Gold.Chemscore.DG>
-20.3715

> <Gold.Chemscore.ZeroCoef>
-5.4800

> <Gold.Chemscore.Hbond>
3.5310

> <Gold.Chemscore.Metal>
0.0000

> <Gold.Chemscore.Lipo>
98.4579

> <Gold.Chemscore.Internal_Hbond>
0.0000

> <Gold.Chemscore.DEClash>
2.2455

> <Gold.Chemscore.DEInternal>
0.7726

> <Gold.Chemscore.Rot>
3.2896

> <Gold.Chemscore.Internal.Correction>
   9.000000E+99

> <Gold.Chemscore.Hbonds>
donor molecule, donor type, donor heavy atom, donor atom, acceptor molecule, acceptor atom, score
      L1  H     5    54       P1 10186  0.37
      L1  H    10    33       P1 10175  0.91
      L1  H    12    53       P1  7948  1.00
      P1  H  7997  8008       L1    18  0.85

> <Gold.Chemscore.Hbond.Weighted>
-11.7935

> <Gold.Chemscore.Metal.Weighted>
-0.0000

> <Gold.Chemscore.Lipo.Weighted>
-11.5196

> <Gold.Chemscore.Internal_Hbond.Weighted>
0.0000

> <Gold.Chemscore.DEClash.Weighted>
2.2455

> <Gold.Chemscore.DEInternal.Weighted>
0.7726

> <Gold.Chemscore.Rot.Weighted>
8.4215

> <Gold.Chemscore.Internal.Correction.Weighted>
   9.000000E+99

> <Gold.Protein.RotatedTorsions>
[ 6907 6896 6895 6894 ] final -153.92 input  -60.11 | X-H torsion
[ 7974 7965 7964 7962 ] final   22.22 input  175.53 | X-H torsion
[ 8008 7997 7996 7995 ] final  -64.38 input   59.86 | X-H torsion
[ 10167 10162 10161 10158 ] final -143.46 input  -65.29 | X-H torsion
[ 10718 10713 10712 10709 ] final   34.14 input   66.30 | X-H torsion
[ 10763 10752 10751 10750 ] final   -2.84 input  -60.55 | X-H torsion
[ 11005 11000 10999 10996 ] final   51.41 input  -57.11 | X-H torsion

> <Gold.Protein.ActiveResidues>
 VAL166  LYS551  ARG553  GLY616  TRP617  ASP618  TYR619  PRO620  LYS621  CYS622 
 ASP623  PHE694  ASN695  SER759  ASP760  ASP761  ALA762  ILE779  LEU786  VAL792 
 PHE793  MET794  SER795  GLU796  ALA797  LYS798  CYS799  TRP800  GLU811  SER814 

> <Gold.Protein.RotatedAtoms>
  151.2498  133.4356  159.2610 H   0  0  0  0  0  0  0  0  0  0  0  0  # atno 6907 bound_to 6896
  151.0628  134.9748  159.8279 H   0  0  0  0  0  0  0  0  0  0  0  0  # atno 6908 bound_to 6896
  152.5401  134.2447  159.8928 H   0  0  0  0  0  0  0  0  0  0  0  0  # atno 6909 bound_to 6896
  146.2038  139.7916  142.8741 H   0  0  0  0  0  0  0  0  0  0  0  0  # atno 7974 bound_to 7965
  154.4608  140.0955  156.6888 H   0  0  0  0  0  0  0  0  0  0  0  0  # atno 8008 bound_to 7997
  155.5000  140.3473  155.4351 H   0  0  0  0  0  0  0  0  0  0  0  0  # atno 8009 bound_to 7997
  156.0867  140.1386  156.9633 H   0  0  0  0  0  0  0  0  0  0  0  0  # atno 8010 bound_to 7997
  139.7991  143.7858  152.2656 H   0  0  0  0  0  0  0  0  0  0  0  0  # atno 10167 bound_to 10162
  157.3066  130.7378  149.6699 H   0  0  0  0  0  0  0  0  0  0  0  0  # atno 10718 bound_to 10713
  153.3634  135.6991  153.6694 H   0  0  0  0  0  0  0  0  0  0  0  0  # atno 10763 bound_to 10752
  153.5373  135.3580  155.2703 H   0  0  0  0  0  0  0  0  0  0  0  0  # atno 10764 bound_to 10752
  154.8671  135.4195  154.2896 H   0  0  0  0  0  0  0  0  0  0  0  0  # atno 10765 bound_to 10752
  140.0935  134.5177  155.8829 H   0  0  0  0  0  0  0  0  0  0  0  0  # atno 11005 bound_to 11000
  145.3391  141.0284  143.3403 LP  0  0  0  0  0  0  0  0  0  0  0  0  # atno 17320 bound_to 7965
  144.8745  139.4991  143.6752 LP  0  0  0  0  0  0  0  0  0  0  0  0  # atno 17321 bound_to 7965
  139.7973  144.7387  150.9873 LP  0  0  0  0  0  0  0  0  0  0  0  0  # atno 17342 bound_to 10162
  140.7820  143.4381  151.0593 LP  0  0  0  0  0  0  0  0  0  0  0  0  # atno 17343 bound_to 10162
  155.9675  130.4264  150.4697 LP  0  0  0  0  0  0  0  0  0  0  0  0  # atno 17370 bound_to 10713
  157.2687  131.0582  151.2273 LP  0  0  0  0  0  0  0  0  0  0  0  0  # atno 17371 bound_to 10713
  141.2085  133.6674  156.6376 LP  0  0  0  0  0  0  0  0  0  0  0  0  # atno 17394 bound_to 11000
  140.3318  134.7922  157.4332 LP  0  0  0  0  0  0  0  0  0  0  0  0  # atno 17395 bound_to 11000

$$$$
