#       Name:                AV-unprocessed.smi:3238
#       Creating user name   scv26
#       Creation time:       Fri Mar 27 18:23:55 2020


#       File generated by GOLD software.
#

@<TRIPOS>MOLECULE
AV-unprocessed.smi:3238
    43    45     1
SMALL
NO_CHARGES


@<TRIPOS>ATOM
      1 ****        -5.7591   3.7642   1.4425 C.3            1 S1                 0.0000
      2 ****        -5.1438   2.4658   1.2131 N.am           1 S1                 0.0000
      3 ****        -3.9062   2.1360   1.6104 C.2            1 S1                 0.0000
      4 ****        -3.1660   2.9161   2.2120 O.2            1 S1                 0.0000
      5 ****        -3.4566   0.7060   1.2835 C.3            1 S1                 0.0000
      6 ****        -1.9660   0.5608   1.2832 C.2            1 S1                 0.0000
      7 ****        -1.3139   0.1349   2.3592 N.2            1 S1                 0.0000
      8 ****         0.0250   0.1250   1.9438 O.3            1 S1                 0.0000
      9 ****         0.0175   0.5556   0.6594 C.2            1 S1                 0.0000
     10 ****         1.3054   0.6081  -0.0948 C.3            1 S1                 0.0000
     11 ****         1.6367  -0.7166  -0.8100 C.3            1 S1                 0.0000
     12 ****         2.0003  -1.8760   0.1476 C.3            1 S1                 0.0000
     13 ****         3.3752  -2.3369  -0.3687 C.3            1 S1                 0.0000
     14 ****         3.2099  -3.0181  -1.7398 C.3            1 S1                 0.0000
     15 ****         2.9033  -1.8310  -2.6727 C.3            1 S1                 0.0000
     16 ****         2.8949  -0.6321  -1.7046 C.3            1 S1                 0.0000
     17 ****         4.0212  -1.0105  -0.7475 C.3            1 S1                 0.0000
     18 ****        -1.1980   0.8241   0.1892 N.2            1 S1                 0.0000
     19 ****        -6.7750   3.7689   1.0476 H              1 S1                 0.0000
     20 ****        -5.1955   4.5547   0.9453 H              1 S1                 0.0000
     21 ****        -5.8072   3.9888   2.5089 H              1 S1                 0.0000
     22 ****        -5.6941   1.7731   0.7261 H              1 S1                 0.0000
     23 ****        -3.8919   0.0225   2.0136 H              1 S1                 0.0000
     24 ****        -3.8424   0.4133   0.3059 H              1 S1                 0.0000
     25 ****         1.2327   1.4122  -0.8277 H              1 S1                 0.0000
     26 ****         2.1044   0.8903   0.5914 H              1 S1                 0.0000
     27 ****         0.7773  -0.9910  -1.4239 H              1 S1                 0.0000
     28 ****         2.0870  -1.5311   1.1787 H              1 S1                 0.0000
     29 ****         1.2595  -2.6761   0.1295 H              1 S1                 0.0000
     30 ****         3.9348  -2.9334   0.3522 H              1 S1                 0.0000
     31 ****         4.1320  -3.5161  -2.0425 H              1 S1                 0.0000
     32 ****         2.4123  -3.7621  -1.7362 H              1 S1                 0.0000
     33 ****         3.6906  -1.7186  -3.4195 H              1 S1                 0.0000
     34 ****         1.9576  -1.9489  -3.2030 H              1 S1                 0.0000
     35 ****         3.0196   0.3275  -2.2075 H              1 S1                 0.0000
     36 ****         4.1301  -0.3253   0.0946 H              1 S1                 0.0000
     37 ****         4.9882  -1.1254  -1.2406 H              1 S1                 0.0000
     38 ****        -3.4810   3.8412   2.4242 LP             1 S1                 0.0000
     39 ****        -2.2503   2.6241   2.4881 LP             1 S1                 0.0000
     40 ****        -1.6882  -0.1179   3.2514 LP             1 S1                 0.0000
     41 ****         0.3994  -0.8006   1.9984 LP             1 S1                 0.0000
     42 ****         0.5707   0.7394   2.5137 LP             1 S1                 0.0000
     43 ****        -1.4731   1.1349  -0.7205 LP             1 S1                 0.0000
@<TRIPOS>BOND
    1    1    2 1     
    2    1   19 1     
    3    1   20 1     
    4    1   21 1     
    5    2    3 am    
    6    2   22 1     
    7    3    4 2     
    8    3    5 1     
    9    5    6 1     
   10    5   23 1     
   11    5   24 1     
   12    6   18 1     
   13    6    7 2     
   14    7    8 1     
   15    8    9 1     
   16    9   10 1     
   17    9   18 2     
   18   10   11 1     
   19   10   25 1     
   20   10   26 1     
   21   11   16 1     
   22   11   12 1     
   23   11   27 1     
   24   12   13 1     
   25   12   28 1     
   26   12   29 1     
   27   13   17 1     
   28   13   14 1     
   29   13   30 1     
   30   14   15 1     
   31   14   31 1     
   32   14   32 1     
   33   15   16 1     
   34   15   33 1     
   35   15   34 1     
   36   16   17 1     
   37   16   35 1     
   38   17   36 1     
   39   17   37 1     
   40    4   38 1     
   41    4   39 1     
   42    7   40 1     
   43    8   41 1     
   44    8   42 1     
   45   18   43 1     
@<TRIPOS>SUBSTRUCTURE
      1 S1             1
@<TRIPOS>SET
LONE_PAIRS      STATIC     ATOMS    <user>   **** ""
6 38 39 40 41 42 43
DONOR_HYDROGENS      STATIC     ATOMS    <user>   **** ""
1 22
ATOM$BLUE        STATIC     ATOMS    COLORGROUP SYSTEM
6 38 39 40 41 42 43
ATOM$RED        STATIC     ATOMS    COLORGROUP SYSTEM
1 22
