AV-unprocessed.smi:1952|AV-procd|sdf|7890|dock9
  -GOLD-   2272010 43D 1   1.00000     0.00000
 Structure written by MMmdl.
 39 40  0  0  0  0  0  0  0  0  3 V2000
  150.5070  140.5887  156.7980 C   0  0  0  0  0  0  0  0  0  0  0  0
  150.9978  139.4052  156.0369 C   0  0  0  0  0  0  0  0  0  0  0  0
  150.3695  138.3143  155.5069 C   0  0  0  0  0  0  0  0  0  0  0  0
  151.4352  137.5792  154.9206 C   0  0  0  0  0  0  0  0  0  0  0  0
  151.3222  136.4163  154.2606 N   0  5  0  0  0  0  0  0  0  0  0  0
  150.4458  135.4788  154.6842 C   0  0  0  0  0  0  0  0  0  0  0  0
  149.9848  135.3729  155.8227 O   0  0  0  0  0  0  0  0  0  0  0  0
  150.1101  134.5890  153.7376 N   0  0  0  0  0  0  0  0  0  0  0  0
  149.2722  133.4007  153.9099 C   0  0  1  0  0  0  0  0  0  0  0  0
  149.6829  132.6737  155.1975 C   0  0  0  0  0  0  0  0  0  0  0  0
  147.7752  133.7859  153.9305 C   0  0  0  0  0  0  0  0  0  0  0  0
  147.2560  134.1337  152.5839 N   0  3  0  0  0  0  0  0  0  0  0  0
  147.2560  132.9961  151.6342 C   0  0  0  0  0  0  0  0  0  0  0  0
  146.8158  133.4769  150.2421 C   0  0  0  0  0  0  0  0  0  0  0  0
  145.5264  134.0722  150.3320 O   0  0  0  0  0  0  0  0  0  0  0  0
  145.5216  135.2087  151.1882 C   0  0  0  0  0  0  0  0  0  0  0  0
  145.9282  134.7878  152.6109 C   0  0  0  0  0  0  0  0  0  0  0  0
  152.6054  138.1777  155.0696 N   0  0  0  0  0  0  0  0  0  0  0  0
  152.3341  139.3465  155.7906 O   0  0  0  0  0  0  0  0  0  0  0  0
  150.8943  141.5129  156.3692 H   0  0  0  0  0  0  0  0  0  0  0  0
  150.8266  140.5372  157.8388 H   0  0  0  0  0  0  0  0  0  0  0  0
  149.4182  140.6385  156.7800 H   0  0  0  0  0  0  0  0  0  0  0  0
  149.3165  138.0777  155.5361 H   0  0  0  0  0  0  0  0  0  0  0  0
  150.5082  134.7299  152.8202 H   0  0  0  0  0  0  0  0  0  0  0  0
  149.4499  132.7081  153.0861 H   0  0  0  0  0  0  0  0  0  0  0  0
  149.0934  131.7676  155.3409 H   0  0  0  0  0  0  0  0  0  0  0  0
  149.5407  133.3058  156.0747 H   0  0  0  0  0  0  0  0  0  0  0  0
  150.7329  132.3809  155.1647 H   0  0  0  0  0  0  0  0  0  0  0  0
  147.1724  132.9888  154.3682 H   0  0  0  0  0  0  0  0  0  0  0  0
  147.6596  134.6493  154.5875 H   0  0  0  0  0  0  0  0  0  0  0  0
  148.2502  132.5546  151.5705 H   0  0  0  0  0  0  0  0  0  0  0  0
  146.5825  132.2163  151.9926 H   0  0  0  0  0  0  0  0  0  0  0  0
  147.5334  134.1891  149.8311 H   0  0  0  0  0  0  0  0  0  0  0  0
  146.7699  132.6352  149.5510 H   0  0  0  0  0  0  0  0  0  0  0  0
  146.1974  135.9730  150.8007 H   0  0  0  0  0  0  0  0  0  0  0  0
  144.5214  135.6419  151.1954 H   0  0  0  0  0  0  0  0  0  0  0  0
  145.1887  134.1044  153.0308 H   0  0  0  0  0  0  0  0  0  0  0  0
  145.9604  135.6669  153.2555 H   0  0  0  0  0  0  0  0  0  0  0  0
  147.8966  134.8225  152.2129 H   0  0  0  0  0  0  0  0  0  0  0  0
  1  2  1  0  0  0  0
  1 20  1  0  0  0  0
  1 21  1  0  0  0  0
  1 22  1  0  0  0  0
  2 19  1  0  0  0  0
  2  3  2  0  0  0  0
  3  4  1  0  0  0  0
  3 23  1  0  0  0  0
  4  5  1  0  0  0  0
  4 18  2  0  0  0  0
  5  6  1  0  0  0  0
  6  7  2  0  0  0  0
  6  8  1  0  0  0  0
  8  9  1  0  0  0  0
  8 24  1  0  0  0  0
  9 10  1  0  0  0  0
  9 11  1  0  0  0  0
  9 25  1  0  0  0  0
 10 26  1  0  0  0  0
 10 27  1  0  0  0  0
 10 28  1  0  0  0  0
 11 12  1  0  0  0  0
 11 29  1  0  0  0  0
 11 30  1  0  0  0  0
 12 17  1  0  0  0  0
 12 13  1  0  0  0  0
 12 39  1  0  0  0  0
 13 14  1  0  0  0  0
 13 31  1  0  0  0  0
 13 32  1  0  0  0  0
 14 15  1  0  0  0  0
 14 33  1  0  0  0  0
 14 34  1  0  0  0  0
 15 16  1  0  0  0  0
 16 17  1  0  0  0  0
 16 35  1  0  0  0  0
 16 36  1  0  0  0  0
 17 37  1  0  0  0  0
 17 38  1  0  0  0  0
 18 19  1  0  0  0  0
M  CHG  1   5  -1
M  CHG  1  12   1
M  END
> <s_m_source_file>
AV-unprocessed.smi

> <i_m_source_file_index>
1952

> <i_lp_mmshare_version>
43012

> <i_f3d_flags>
0

> <s_epik_input>
W0NIM11jMVtjSF1jKG5vMSlbTkhdQyg9TylbTkhdW0NASF0oW0NIM10pW0NIMl1OMltDSDJdW0NIMl1PW0NIMl1bQ0gyXTI=

> <s_epik_cmdline>
J2VwaWtfcHl0aG9uJywgJy1waCcsICc3LjAnLCAnLXRuJywgJzgnLCAnLW1hJywgJzIwMCcsICctbWV0YWxfYmluZGluZycsICctaW1hZScsICc8aW5maWxlLm1hZT4nLCAnLW9tYWUnLCAnPG91dGZpbGUubWFlPic=

> <r_epik_Ionization_Penalty>
6.62152

> <r_epik_Ionization_Penalty_Charging>
6.62142

> <r_epik_Ionization_Penalty_Neutral>
9.8734e-05

> <r_epik_State_Penalty>
6.82189

> <r_epik_Charging_Adjusted_Penalty>
13.4433

> <i_epik_Tot_Q>
0

> <i_epik_Tot_abs_Q>
2

> <r_epik_Metal_State_Penalty>
2.76365

> <b_epik_Metal_Only>
1

> <s_lp_Force_Field>
OPLS_2005

> <r_lp_Energy>
7.85101

> <b_lp_Chiralities_Consistent>
1

> <s_lp_Variant>
AV-unprocessed.smi:1952-8

> <Gold.Version>
5.8.1

> <Gold.Id.Protein>
6NUR|6NUR_protein|mol2

> <Gold.PLP.Fitness>
43.9596

> <Gold.PLP.PLP>
-30.3988

> <Gold.PLP.part.hbond>
-5.1601

> <Gold.PLP.part.metal>
0.0000

> <Gold.PLP.part.buried>
-4.7671

> <Gold.PLP.part.nonpolar>
-22.7092

> <Gold.PLP.part.repulsive>
2.1226

> <Gold.PLP.ligand.clash>
0.0000

> <Gold.PLP.ligand.torsion>
0.7694

> <Gold.PLP.Chemscore.Hbond>
5.0000

> <Gold.PLP.Chemscore.CHOScore>
0.0000

> <Gold.PLP.Chemscore.Metal>
0.0000

> <Gold.Chemscore.Hbonds>
donor molecule, donor type, donor heavy atom, donor atom, acceptor molecule, acceptor atom, score
      L1  H    12    39       P1  7948  2.00
      P1  H  7997  8008       L1    19  0.55
      P1  H 10752 10764       L1     5  2.00

> <Gold.PLP.Chemscore.Internal.Correction>
0.0997

> <Gold.Rescore>
     Score         DG    S(hbond)    S(metal)    S(lipo)     H(rot)  DE(clash)    DE(int)     intcor
     14.12     -16.33       2.61        0.00      52.74       1.58       0.01       2.20       ----

> <Gold.Chemscore.Fitness>
14.1224

> <Gold.Chemscore.DG>
-16.3345

> <Gold.Chemscore.ZeroCoef>
-5.4800

> <Gold.Chemscore.Hbond>
2.6131

> <Gold.Chemscore.Metal>
0.0000

> <Gold.Chemscore.Lipo>
52.7420

> <Gold.Chemscore.Internal_Hbond>
0.0000

> <Gold.Chemscore.DEClash>
0.0073

> <Gold.Chemscore.DEInternal>
2.2047

> <Gold.Chemscore.Rot>
1.5798

> <Gold.Chemscore.Internal.Correction>
   9.000000E+99

> <Gold.Chemscore.Hbonds>
donor molecule, donor type, donor heavy atom, donor atom, acceptor molecule, acceptor atom, score
      L1  H    12    39       P1  7948  0.65
      P1  H  7997  8008       L1    19  0.20
      P1  H 10752 10764       L1     5  0.36

> <Gold.Chemscore.Hbond.Weighted>
-8.7278

> <Gold.Chemscore.Metal.Weighted>
-0.0000

> <Gold.Chemscore.Lipo.Weighted>
-6.1708

> <Gold.Chemscore.Internal_Hbond.Weighted>
0.0000

> <Gold.Chemscore.DEClash.Weighted>
0.0073

> <Gold.Chemscore.DEInternal.Weighted>
2.2047

> <Gold.Chemscore.Rot.Weighted>
4.0442

> <Gold.Chemscore.Internal.Correction.Weighted>
   9.000000E+99

> <Gold.Protein.RotatedTorsions>
[ 6907 6896 6895 6894 ] final  149.67 input  -60.11 | X-H torsion
[ 7974 7965 7964 7962 ] final    4.42 input  175.53 | X-H torsion
[ 8008 7997 7996 7995 ] final  -30.61 input   59.86 | X-H torsion
[ 10167 10162 10161 10158 ] final   90.81 input  -65.29 | X-H torsion
[ 10718 10713 10712 10709 ] final   38.62 input   66.30 | X-H torsion
[ 10763 10752 10751 10750 ] final  -78.44 input  -60.55 | X-H torsion
[ 11005 11000 10999 10996 ] final  110.60 input  -57.11 | X-H torsion

> <Gold.Protein.ActiveResidues>
 VAL166  LYS551  ARG553  GLY616  TRP617  ASP618  TYR619  PRO620  LYS621  CYS622 
 ASP623  PHE694  ASN695  SER759  ASP760  ASP761  ALA762  ILE779  LEU786  VAL792 
 PHE793  MET794  SER795  GLU796  ALA797  LYS798  CYS799  TRP800  GLU811  SER814 

> <Gold.Protein.RotatedAtoms>
  152.1248  133.4374  159.4692 H   0  0  0  0  0  0  0  0  0  0  0  0  # atno 6907 bound_to 6896
  150.6874  134.2491  159.4512 H   0  0  0  0  0  0  0  0  0  0  0  0  # atno 6908 bound_to 6896
  152.0370  134.9733  160.0624 H   0  0  0  0  0  0  0  0  0  0  0  0  # atno 6909 bound_to 6896
  146.2444  140.0538  142.8373 H   0  0  0  0  0  0  0  0  0  0  0  0  # atno 7974 bound_to 7965
  154.4244  140.1786  156.1434 H   0  0  0  0  0  0  0  0  0  0  0  0  # atno 8008 bound_to 7997
  155.9973  140.3363  155.6786 H   0  0  0  0  0  0  0  0  0  0  0  0  # atno 8009 bound_to 7997
  155.6291  140.0668  157.2645 H   0  0  0  0  0  0  0  0  0  0  0  0  # atno 8010 bound_to 7997
  139.8437  144.6628  150.9253 H   0  0  0  0  0  0  0  0  0  0  0  0  # atno 10167 bound_to 10162
  157.3610  130.7649  149.7047 H   0  0  0  0  0  0  0  0  0  0  0  0  # atno 10718 bound_to 10713
  154.5259  135.5730  153.6719 H   0  0  0  0  0  0  0  0  0  0  0  0  # atno 10763 bound_to 10752
  152.9928  135.6193  154.2693 H   0  0  0  0  0  0  0  0  0  0  0  0  # atno 10764 bound_to 10752
  154.2617  135.2856  155.2755 H   0  0  0  0  0  0  0  0  0  0  0  0  # atno 10765 bound_to 10752
  139.8885  134.9488  156.6303 H   0  0  0  0  0  0  0  0  0  0  0  0  # atno 11005 bound_to 11000
  145.0961  140.9316  143.4740 LP  0  0  0  0  0  0  0  0  0  0  0  0  # atno 17320 bound_to 7965
  145.0721  139.3024  143.5827 LP  0  0  0  0  0  0  0  0  0  0  0  0  # atno 17321 bound_to 7965
  140.7795  143.3890  151.1344 LP  0  0  0  0  0  0  0  0  0  0  0  0  # atno 17342 bound_to 10162
  139.7534  143.8744  152.3082 LP  0  0  0  0  0  0  0  0  0  0  0  0  # atno 17343 bound_to 10162
  155.9737  130.4114  150.3978 LP  0  0  0  0  0  0  0  0  0  0  0  0  # atno 17370 bound_to 10713
  157.2055  131.0448  151.2627 LP  0  0  0  0  0  0  0  0  0  0  0  0  # atno 17371 bound_to 10713
  140.7671  133.8769  155.8463 LP  0  0  0  0  0  0  0  0  0  0  0  0  # atno 17394 bound_to 11000
  140.9873  134.1326  157.4440 LP  0  0  0  0  0  0  0  0  0  0  0  0  # atno 17395 bound_to 11000

$$$$
