AV-unprocessed.smi:469|AV-procd|sdf|2653|dock7
  -GOLD-   2262023 63D 1   1.00000     0.00000
 Structure written by MMmdl.
 37 38  0  0  0  0  0  0  0  0  1 V2000
  146.2838  134.6767  161.7376 C   0  0  0  0  0  0  0  0  0  0  0  0
  147.1630  134.8996  160.6001 N   0  0  0  0  0  0  0  0  0  0  0  0
  147.5084  136.1098  160.1386 C   0  0  0  0  0  0  0  0  0  0  0  0
  147.1110  137.1601  160.6451 O   0  0  0  0  0  0  0  0  0  0  0  0
  148.4559  136.1194  158.9299 C   0  0  0  0  0  0  0  0  0  0  0  0
  148.7689  137.4702  158.4348 N   0  0  0  0  0  0  0  0  0  0  0  0
  150.1018  137.9042  158.5695 C   0  0  0  0  0  0  0  0  0  0  0  0
  150.5051  139.1029  158.1180 C   0  0  0  0  0  0  0  0  0  0  0  0
  152.1900  139.6840  158.4430 S   0  0  0  0  0  0  0  0  0  0  0  0
  152.8483  138.6898  159.3047 O   0  0  0  0  0  0  0  0  0  0  0  0
  152.7975  140.0503  157.1536 O   0  0  0  0  0  0  0  0  0  0  0  0
  152.0163  141.1363  159.3658 N   0  0  0  0  0  0  0  0  0  0  0  0
  153.1923  141.6399  160.0879 C   0  0  0  0  0  0  0  0  0  0  0  0
  153.3638  143.0899  159.6372 C   0  0  0  0  0  0  0  0  0  0  0  0
  151.9377  143.5276  159.3392 C   0  0  0  0  0  0  0  0  0  0  0  0
  151.3038  142.2668  158.7522 C   0  0  0  0  0  0  0  0  0  0  0  0
  149.5161  139.9903  157.5508 C   0  0  0  0  0  0  0  0  0  0  0  0
  148.2319  139.5943  157.4453 C   0  0  0  0  0  0  0  0  0  0  0  0
  147.7957  138.2661  157.8932 C   0  0  0  0  0  0  0  0  0  0  0  0
  146.6269  137.8929  157.7896 O   0  0  0  0  0  0  0  0  0  0  0  0
  146.1927  133.6082  161.9337 H   0  0  0  0  0  0  0  0  0  0  0  0
  145.2873  135.0745  161.5409 H   0  0  0  0  0  0  0  0  0  0  0  0
  146.6793  135.1551  162.6350 H   0  0  0  0  0  0  0  0  0  0  0  0
  147.5327  134.0834  160.1343 H   0  0  0  0  0  0  0  0  0  0  0  0
  149.3742  135.6014  159.2109 H   0  0  0  0  0  0  0  0  0  0  0  0
  148.0215  135.5139  158.1321 H   0  0  0  0  0  0  0  0  0  0  0  0
  150.7604  137.2092  159.0704 H   0  0  0  0  0  0  0  0  0  0  0  0
  152.9941  141.5878  161.1588 H   0  0  0  0  0  0  0  0  0  0  0  0
  154.0792  141.0411  159.8777 H   0  0  0  0  0  0  0  0  0  0  0  0
  153.8512  143.7123  160.3880 H   0  0  0  0  0  0  0  0  0  0  0  0
  153.9621  143.1278  158.7256 H   0  0  0  0  0  0  0  0  0  0  0  0
  151.4321  143.8013  160.2662 H   0  0  0  0  0  0  0  0  0  0  0  0
  151.8883  144.3805  158.6617 H   0  0  0  0  0  0  0  0  0  0  0  0
  151.4503  142.2470  157.6714 H   0  0  0  0  0  0  0  0  0  0  0  0
  150.2335  142.2046  158.9505 H   0  0  0  0  0  0  0  0  0  0  0  0
  149.8028  140.9740  157.2097 H   0  0  0  0  0  0  0  0  0  0  0  0
  147.5046  140.2697  157.0191 H   0  0  0  0  0  0  0  0  0  0  0  0
  1  2  1  0  0  0  0
  1 21  1  0  0  0  0
  1 22  1  0  0  0  0
  1 23  1  0  0  0  0
  2  3  1  0  0  0  0
  2 24  1  0  0  0  0
  3  4  2  0  0  0  0
  3  5  1  0  0  0  0
  5  6  1  0  0  0  0
  5 25  1  0  0  0  0
  5 26  1  0  0  0  0
  6 19  1  0  0  0  0
  6  7  1  0  0  0  0
  7  8  2  0  0  0  0
  7 27  1  0  0  0  0
  8  9  1  0  0  0  0
  8 17  1  0  0  0  0
  9 10  2  0  0  0  0
  9 11  2  0  0  0  0
  9 12  1  0  0  0  0
 12 16  1  0  0  0  0
 12 13  1  0  0  0  0
 13 14  1  0  0  0  0
 13 28  1  0  0  0  0
 13 29  1  0  0  0  0
 14 15  1  0  0  0  0
 14 30  1  0  0  0  0
 14 31  1  0  0  0  0
 15 16  1  0  0  0  0
 15 32  1  0  0  0  0
 15 33  1  0  0  0  0
 16 34  1  0  0  0  0
 16 35  1  0  0  0  0
 17 18  2  0  0  0  0
 17 36  1  0  0  0  0
 18 19  1  0  0  0  0
 18 37  1  0  0  0  0
 19 20  2  0  0  0  0
M  END
> <s_m_source_file>
AV-unprocessed.smi

> <i_m_source_file_index>
469

> <i_lp_mmshare_version>
43012

> <i_f3d_flags>
0

> <s_epik_input>
W0NIM11bTkhdQyg9TylbQ0gyXW4xW2NIXWMoW2NIXVtjSF1jMT1PKVMoPU8pKD1PKU4yW0NIMl1bQ0gyXVtDSDJdW0NIMl0y

> <s_epik_cmdline>
J2VwaWtfcHl0aG9uJywgJy1waCcsICc3LjAnLCAnLXRuJywgJzgnLCAnLW1hJywgJzIwMCcsICctbWV0YWxfYmluZGluZycsICctaW1hZScsICc8aW5maWxlLm1hZT4nLCAnLW9tYWUnLCAnPG91dGZpbGUubWFlPic=

> <r_lp_tautomer_probability>
1

> <r_epik_Ionization_Penalty>
2.91909e-08

> <r_epik_Ionization_Penalty_Charging>
9.91299e-09

> <r_epik_Ionization_Penalty_Neutral>
1.92779e-08

> <r_epik_State_Penalty>
-0

> <r_epik_Charging_Adjusted_Penalty>
9.91299e-09

> <i_epik_Tot_Q>
0

> <i_epik_Tot_abs_Q>
0

> <r_epik_Metal_State_Penalty>
-0

> <b_epik_Metal_Only>
0

> <s_lp_Force_Field>
OPLS_2005

> <r_lp_Energy>
18.9882

> <b_lp_Chiralities_Consistent>
1

> <s_lp_Variant>
AV-unprocessed.smi:469-1

> <Gold.Version>
5.8.1

> <Gold.Id.Protein>
6NUR|6NUR_protein|mol2

> <Gold.PLP.Fitness>
41.7501

> <Gold.PLP.PLP>
-33.6281

> <Gold.PLP.part.hbond>
-3.0000

> <Gold.PLP.part.metal>
0.0000

> <Gold.PLP.part.buried>
-4.3227

> <Gold.PLP.part.nonpolar>
-26.1572

> <Gold.PLP.part.repulsive>
0.0688

> <Gold.PLP.ligand.clash>
0.0000

> <Gold.PLP.ligand.torsion>
1.4680

> <Gold.PLP.Chemscore.Hbond>
2.8720

> <Gold.PLP.Chemscore.CHOScore>
0.0000

> <Gold.PLP.Chemscore.Metal>
0.0000

> <Gold.Chemscore.Hbonds>
donor molecule, donor type, donor heavy atom, donor atom, acceptor molecule, acceptor atom, score
      P1  H  6934  6947       L1     4  1.00
      P1  H  7997  8009       L1    11  1.00

> <Gold.PLP.Chemscore.Internal.Correction>
2.4419

> <Gold.Rescore>
     Score         DG    S(hbond)    S(metal)    S(lipo)     H(rot)  DE(clash)    DE(int)     intcor
     16.65     -18.54       2.71        0.00      69.88       1.62       0.01       1.88       ----

> <Gold.Chemscore.Fitness>
16.6548

> <Gold.Chemscore.DG>
-18.5434

> <Gold.Chemscore.ZeroCoef>
-5.4800

> <Gold.Chemscore.Hbond>
2.7068

> <Gold.Chemscore.Metal>
0.0000

> <Gold.Chemscore.Lipo>
69.8836

> <Gold.Chemscore.Internal_Hbond>
0.0000

> <Gold.Chemscore.DEClash>
0.0063

> <Gold.Chemscore.DEInternal>
1.8822

> <Gold.Chemscore.Rot>
1.6226

> <Gold.Chemscore.Internal.Correction>
   9.000000E+99

> <Gold.Chemscore.Hbonds>
donor molecule, donor type, donor heavy atom, donor atom, acceptor molecule, acceptor atom, score
      P1  H  6934  6947       L1     4  1.00
      P1  H  7997  8009       L1    11  0.95

> <Gold.Chemscore.Hbond.Weighted>
-9.0409

> <Gold.Chemscore.Metal.Weighted>
-0.0000

> <Gold.Chemscore.Lipo.Weighted>
-8.1764

> <Gold.Chemscore.Internal_Hbond.Weighted>
0.0000

> <Gold.Chemscore.DEClash.Weighted>
0.0063

> <Gold.Chemscore.DEInternal.Weighted>
1.8822

> <Gold.Chemscore.Rot.Weighted>
4.1539

> <Gold.Chemscore.Internal.Correction.Weighted>
   9.000000E+99

> <Gold.Protein.RotatedTorsions>
[ 6907 6896 6895 6894 ] final -169.26 input  -60.11 | X-H torsion
[ 7974 7965 7964 7962 ] final   -2.35 input  175.53 | X-H torsion
[ 8008 7997 7996 7995 ] final  167.20 input   59.86 | X-H torsion
[ 10167 10162 10161 10158 ] final   35.64 input  -65.29 | X-H torsion
[ 10718 10713 10712 10709 ] final  -32.99 input   66.30 | X-H torsion
[ 10763 10752 10751 10750 ] final  -70.89 input  -60.55 | X-H torsion
[ 11005 11000 10999 10996 ] final   22.38 input  -57.11 | X-H torsion

> <Gold.Protein.ActiveResidues>
 VAL166  LYS551  ARG553  GLY616  TRP617  ASP618  TYR619  PRO620  LYS621  CYS622 
 ASP623  PHE694  ASN695  SER759  ASP760  ASP761  ALA762  ILE779  LEU786  VAL792 
 PHE793  MET794  SER795  GLU796  ALA797  LYS798  CYS799  TRP800  GLU811  SER814 

> <Gold.Protein.RotatedAtoms>
  151.4888  133.3529  159.2849 H   0  0  0  0  0  0  0  0  0  0  0  0  # atno 6907 bound_to 6896
  150.8848  134.8246  159.7262 H   0  0  0  0  0  0  0  0  0  0  0  0  # atno 6908 bound_to 6896
  152.4786  134.4791  159.9711 H   0  0  0  0  0  0  0  0  0  0  0  0  # atno 6909 bound_to 6896
  146.2405  140.1557  142.8333 H   0  0  0  0  0  0  0  0  0  0  0  0  # atno 7974 bound_to 7965
  156.1654  140.1623  156.8541 H   0  0  0  0  0  0  0  0  0  0  0  0  # atno 8008 bound_to 7997
  154.5202  140.0780  156.8192 H   0  0  0  0  0  0  0  0  0  0  0  0  # atno 8009 bound_to 7997
  155.3623  140.3396  155.4243 H   0  0  0  0  0  0  0  0  0  0  0  0  # atno 8010 bound_to 7997
  140.4203  144.1470  150.6147 H   0  0  0  0  0  0  0  0  0  0  0  0  # atno 10167 bound_to 10162
  156.3682  130.4335  149.7567 H   0  0  0  0  0  0  0  0  0  0  0  0  # atno 10718 bound_to 10713
  154.4240  135.5980  153.6027 H   0  0  0  0  0  0  0  0  0  0  0  0  # atno 10763 bound_to 10752
  152.9795  135.5959  154.3920 H   0  0  0  0  0  0  0  0  0  0  0  0  # atno 10764 bound_to 10752
  154.3749  135.2841  155.2223 H   0  0  0  0  0  0  0  0  0  0  0  0  # atno 10765 bound_to 10752
  140.3812  134.1919  155.7663 H   0  0  0  0  0  0  0  0  0  0  0  0  # atno 11005 bound_to 11000
  145.0131  140.8731  143.5212 LP  0  0  0  0  0  0  0  0  0  0  0  0  # atno 17320 bound_to 7965
  145.1594  139.2467  143.5399 LP  0  0  0  0  0  0  0  0  0  0  0  0  # atno 17321 bound_to 7965
  140.4541  143.2474  151.9308 LP  0  0  0  0  0  0  0  0  0  0  0  0  # atno 17342 bound_to 10162
  139.4782  144.5533  151.8353 LP  0  0  0  0  0  0  0  0  0  0  0  0  # atno 17343 bound_to 10162
  156.4705  130.7994  151.3012 LP  0  0  0  0  0  0  0  0  0  0  0  0  # atno 17370 bound_to 10713
  157.7481  131.0037  150.3049 LP  0  0  0  0  0  0  0  0  0  0  0  0  # atno 17371 bound_to 10713
  141.1923  133.8177  157.0846 LP  0  0  0  0  0  0  0  0  0  0  0  0  # atno 17394 bound_to 11000
  140.0477  134.9822  157.1079 LP  0  0  0  0  0  0  0  0  0  0  0  0  # atno 17395 bound_to 11000

$$$$
