AV-unprocessed.smi:2454|AV-procd|sdf|9696|dock7
  -GOLD-   2272013333D 1   1.00000     0.00000
 Structure written by MMmdl.
 42 43  0  0  0  0  0  0  0  0  1 V2000
  147.2855  133.2811  152.3409 C   0  0  0  0  0  0  0  0  0  0  0  0
  147.9173  133.7486  153.5195 O   0  0  0  0  0  0  0  0  0  0  0  0
  149.3012  133.4429  153.5524 C   0  0  0  0  0  0  0  0  0  0  0  0
  149.9241  133.8489  154.8720 C   0  0  0  0  0  0  0  0  0  0  0  0
  150.0881  135.2071  155.2169 C   0  0  0  0  0  0  0  0  0  0  0  0
  150.6876  135.4932  156.4643 C   0  0  0  0  0  0  0  0  0  0  0  0
  150.8265  136.8802  156.7650 N   0  0  0  0  0  0  0  0  0  0  0  0
  151.2548  137.5164  157.8765 C   0  0  0  0  0  0  0  0  0  0  0  0
  151.6121  136.8826  158.8682 O   0  0  0  0  0  0  0  0  0  0  0  0
  151.2613  138.8587  157.8257 N   0  0  0  0  0  0  0  0  0  0  0  0
  151.6719  139.7649  158.8938 C   0  0  1  0  0  0  0  0  0  0  0  0
  153.1650  139.5573  159.2030 C   0  0  0  0  0  0  0  0  0  0  0  0
  153.6591  140.5568  160.2590 C   0  0  0  0  0  0  0  0  0  0  0  0
  153.3792  142.0057  159.8299 C   0  0  0  0  0  0  0  0  0  0  0  0
  151.8820  142.2318  159.5301 C   0  0  1  0  0  0  0  0  0  0  0  0
  151.5883  143.6882  159.1146 C   0  0  0  0  0  0  0  0  0  0  0  0
  152.1614  143.9730  157.9449 F   0  0  0  0  0  0  0  0  0  0  0  0
  150.2730  143.8766  159.0075 F   0  0  0  0  0  0  0  0  0  0  0  0
  152.0540  144.5292  160.0382 F   0  0  0  0  0  0  0  0  0  0  0  0
  151.3942  141.2198  158.4712 C   0  0  0  0  0  0  0  0  0  0  0  0
  151.0769  134.4731  157.2714 N   0  0  0  0  0  0  0  0  0  0  0  0
  150.8769  133.2229  156.8475 C   0  0  0  0  0  0  0  0  0  0  0  0
  150.3221  132.8540  155.6928 N   0  0  0  0  0  0  0  0  0  0  0  0
  146.2288  133.5474  152.3611 H   0  0  0  0  0  0  0  0  0  0  0  0
  147.3571  132.1959  152.2589 H   0  0  0  0  0  0  0  0  0  0  0  0
  147.7284  133.7299  151.4508 H   0  0  0  0  0  0  0  0  0  0  0  0
  149.4496  132.3720  153.4041 H   0  0  0  0  0  0  0  0  0  0  0  0
  149.8170  133.9530  152.7366 H   0  0  0  0  0  0  0  0  0  0  0  0
  149.7691  135.9936  154.5482 H   0  0  0  0  0  0  0  0  0  0  0  0
  150.5527  137.4966  156.0138 H   0  0  0  0  0  0  0  0  0  0  0  0
  150.9507  139.2891  156.9658 H   0  0  0  0  0  0  0  0  0  0  0  0
  151.1044  139.5622  159.8040 H   0  0  0  0  0  0  0  0  0  0  0  0
  153.3375  138.5381  159.5514 H   0  0  0  0  0  0  0  0  0  0  0  0
  153.7525  139.6758  158.2911 H   0  0  0  0  0  0  0  0  0  0  0  0
  153.1668  140.3557  161.2113 H   0  0  0  0  0  0  0  0  0  0  0  0
  154.7274  140.4191  160.4284 H   0  0  0  0  0  0  0  0  0  0  0  0
  153.7119  142.6848  160.6153 H   0  0  0  0  0  0  0  0  0  0  0  0
  153.9731  142.2427  158.9465 H   0  0  0  0  0  0  0  0  0  0  0  0
  151.3279  142.0390  160.4501 H   0  0  0  0  0  0  0  0  0  0  0  0
  151.8841  141.4245  157.5179 H   0  0  0  0  0  0  0  0  0  0  0  0
  150.3248  141.3493  158.3002 H   0  0  0  0  0  0  0  0  0  0  0  0
  151.1962  132.4304  157.5079 H   0  0  0  0  0  0  0  0  0  0  0  0
  1  2  1  0  0  0  0
  1 24  1  0  0  0  0
  1 25  1  0  0  0  0
  1 26  1  0  0  0  0
  2  3  1  0  0  0  0
  3  4  1  0  0  0  0
  3 27  1  0  0  0  0
  3 28  1  0  0  0  0
  4 23  1  0  0  0  0
  4  5  2  0  0  0  0
  5  6  1  0  0  0  0
  5 29  1  0  0  0  0
  6  7  1  0  0  0  0
  6 21  2  0  0  0  0
  7  8  1  0  0  0  0
  7 30  1  0  0  0  0
  8  9  2  0  0  0  0
  8 10  1  0  0  0  0
 10 11  1  0  0  0  0
 10 31  1  0  0  0  0
 11 20  1  0  0  0  0
 11 12  1  0  0  0  0
 11 32  1  0  0  0  0
 12 13  1  0  0  0  0
 12 33  1  0  0  0  0
 12 34  1  0  0  0  0
 13 14  1  0  0  0  0
 13 35  1  0  0  0  0
 13 36  1  0  0  0  0
 14 15  1  0  0  0  0
 14 37  1  0  0  0  0
 14 38  1  0  0  0  0
 15 16  1  0  0  0  0
 15 20  1  0  0  0  0
 15 39  1  0  0  0  0
 16 17  1  0  0  0  0
 16 18  1  0  0  0  0
 16 19  1  0  0  0  0
 20 40  1  0  0  0  0
 20 41  1  0  0  0  0
 21 22  1  0  0  0  0
 22 23  2  0  0  0  0
 22 42  1  0  0  0  0
M  END
> <s_m_source_file>
AV-unprocessed.smi

> <i_m_source_file_index>
2454

> <i_lp_mmshare_version>
43012

> <i_f3d_flags>
0

> <s_epik_input>
W0NIM11PW0NIMl1jMVtjSF1jKG5bY0hdbjEpW05IXUMoPU8pW05IXVtDQEBIXTJbQ0gyXVtDSDJdW0NIMl1bQ0BASF0oQyhGKShGKUYpW0NIMl0y

> <s_epik_cmdline>
J2VwaWtfcHl0aG9uJywgJy1waCcsICc3LjAnLCAnLXRuJywgJzgnLCAnLW1hJywgJzIwMCcsICctbWV0YWxfYmluZGluZycsICctaW1hZScsICc8aW5maWxlLm1hZT4nLCAnLW9tYWUnLCAnPG91dGZpbGUubWFlPic=

> <r_lp_tautomer_probability>
1

> <r_epik_Ionization_Penalty>
3.01554e-05

> <r_epik_Ionization_Penalty_Charging>
0

> <r_epik_Ionization_Penalty_Neutral>
3.01554e-05

> <r_epik_State_Penalty>
-0

> <r_epik_Charging_Adjusted_Penalty>
0

> <i_epik_Tot_Q>
0

> <i_epik_Tot_abs_Q>
0

> <r_epik_Metal_State_Penalty>
-0

> <b_epik_Metal_Only>
0

> <s_lp_Force_Field>
OPLS_2005

> <r_lp_Energy>
13.6068

> <b_lp_Chiralities_Consistent>
1

> <s_lp_Variant>
AV-unprocessed.smi:2454-2

> <Gold.Version>
5.8.1

> <Gold.Id.Protein>
6NUR|6NUR_protein|mol2

> <Gold.PLP.Fitness>
45.3007

> <Gold.PLP.PLP>
-42.3389

> <Gold.PLP.part.hbond>
-2.0000

> <Gold.PLP.part.metal>
0.0000

> <Gold.PLP.part.buried>
-5.9867

> <Gold.PLP.part.nonpolar>
-35.5385

> <Gold.PLP.part.repulsive>
0.4364

> <Gold.PLP.ligand.clash>
0.0000

> <Gold.PLP.ligand.torsion>
0.1480

> <Gold.PLP.Chemscore.Hbond>
1.0721

> <Gold.PLP.Chemscore.CHOScore>
0.0000

> <Gold.PLP.Chemscore.Metal>
0.0000

> <Gold.Chemscore.Hbonds>
donor molecule, donor type, donor heavy atom, donor atom, acceptor molecule, acceptor atom, score
      P1  H  6896  6908       L1    21  0.12
      P1  H  6896  6909       L1     9  0.90

> <Gold.PLP.Chemscore.Internal.Correction>
0.0413

> <Gold.Rescore>
     Score         DG    S(hbond)    S(metal)    S(lipo)     H(rot)  DE(clash)    DE(int)     intcor
     12.39     -13.86       0.94        0.00      79.82       1.60       0.10       1.37       ----

> <Gold.Chemscore.Fitness>
12.3898

> <Gold.Chemscore.DG>
-13.8568

> <Gold.Chemscore.ZeroCoef>
-5.4800

> <Gold.Chemscore.Hbond>
0.9412

> <Gold.Chemscore.Metal>
0.0000

> <Gold.Chemscore.Lipo>
79.8152

> <Gold.Chemscore.Internal_Hbond>
0.0000

> <Gold.Chemscore.DEClash>
0.0998

> <Gold.Chemscore.DEInternal>
1.3671

> <Gold.Chemscore.Rot>
1.6035

> <Gold.Chemscore.Internal.Correction>
   9.000000E+99

> <Gold.Chemscore.Hbonds>
donor molecule, donor type, donor heavy atom, donor atom, acceptor molecule, acceptor atom, score
      P1  H  6896  6909       L1     9  0.83

> <Gold.Chemscore.Hbond.Weighted>
-3.1435

> <Gold.Chemscore.Metal.Weighted>
-0.0000

> <Gold.Chemscore.Lipo.Weighted>
-9.3384

> <Gold.Chemscore.Internal_Hbond.Weighted>
0.0000

> <Gold.Chemscore.DEClash.Weighted>
0.0998

> <Gold.Chemscore.DEInternal.Weighted>
1.3671

> <Gold.Chemscore.Rot.Weighted>
4.1050

> <Gold.Chemscore.Internal.Correction.Weighted>
   9.000000E+99

> <Gold.Protein.RotatedTorsions>
[ 6907 6896 6895 6894 ] final  117.18 input  -60.11 | X-H torsion
[ 7974 7965 7964 7962 ] final  -61.53 input  175.53 | X-H torsion
[ 8008 7997 7996 7995 ] final  170.00 input   59.86 | X-H torsion
[ 10167 10162 10161 10158 ] final  175.85 input  -65.29 | X-H torsion
[ 10718 10713 10712 10709 ] final -112.41 input   66.30 | X-H torsion
[ 10763 10752 10751 10750 ] final  -80.86 input  -60.55 | X-H torsion
[ 11005 11000 10999 10996 ] final -118.61 input  -57.11 | X-H torsion

> <Gold.Protein.ActiveResidues>
 VAL166  LYS551  ARG553  GLY616  TRP617  ASP618  TYR619  PRO620  LYS621  CYS622 
 ASP623  PHE694  ASN695  SER759  ASP760  ASP761  ALA762  ILE779  LEU786  VAL792 
 PHE793  MET794  SER795  GLU796  ALA797  LYS798  CYS799  TRP800  GLU811  SER814 

> <Gold.Protein.RotatedAtoms>
  152.4629  133.7861  159.6876 H   0  0  0  0  0  0  0  0  0  0  0  0  # atno 6907 bound_to 6896
  150.8581  133.7675  159.3008 H   0  0  0  0  0  0  0  0  0  0  0  0  # atno 6908 bound_to 6896
  151.5249  135.1071  159.9940 H   0  0  0  0  0  0  0  0  0  0  0  0  # atno 6909 bound_to 6896
  145.8023  140.8648  143.0225 H   0  0  0  0  0  0  0  0  0  0  0  0  # atno 7974 bound_to 7965
  156.1406  140.1549  156.8927 H   0  0  0  0  0  0  0  0  0  0  0  0  # atno 8008 bound_to 7997
  154.4984  140.0832  156.7784 H   0  0  0  0  0  0  0  0  0  0  0  0  # atno 8009 bound_to 7997
  155.4086  140.3418  155.4264 H   0  0  0  0  0  0  0  0  0  0  0  0  # atno 8010 bound_to 7997
  139.5192  144.2984  152.0401 H   0  0  0  0  0  0  0  0  0  0  0  0  # atno 10167 bound_to 10162
  156.0704  130.5918  150.8504 H   0  0  0  0  0  0  0  0  0  0  0  0  # atno 10718 bound_to 10713
  154.5564  135.5646  153.6968 H   0  0  0  0  0  0  0  0  0  0  0  0  # atno 10763 bound_to 10752
  153.0005  135.6263  154.2304 H   0  0  0  0  0  0  0  0  0  0  0  0  # atno 10764 bound_to 10752
  154.2240  135.2868  155.2894 H   0  0  0  0  0  0  0  0  0  0  0  0  # atno 10765 bound_to 10752
  141.0273  134.0034  157.3195 H   0  0  0  0  0  0  0  0  0  0  0  0  # atno 11005 bound_to 11000
  144.6767  140.0276  143.7483 LP  0  0  0  0  0  0  0  0  0  0  0  0  # atno 17320 bound_to 7965
  145.9865  139.2981  143.1010 LP  0  0  0  0  0  0  0  0  0  0  0  0  # atno 17321 bound_to 7965
  140.2433  144.4247  150.6251 LP  0  0  0  0  0  0  0  0  0  0  0  0  # atno 17342 bound_to 10162
  140.6276  143.2183  151.6564 LP  0  0  0  0  0  0  0  0  0  0  0  0  # atno 17343 bound_to 10162
  157.5771  131.0946  150.9329 LP  0  0  0  0  0  0  0  0  0  0  0  0  # atno 17370 bound_to 10713
  156.9532  130.5427  149.5283 LP  0  0  0  0  0  0  0  0  0  0  0  0  # atno 17371 bound_to 10713
  139.9184  135.0199  156.7972 LP  0  0  0  0  0  0  0  0  0  0  0  0  # atno 17394 bound_to 11000
  140.6468  133.9768  155.7735 LP  0  0  0  0  0  0  0  0  0  0  0  0  # atno 17395 bound_to 11000

$$$$
