AV-unprocessed.smi:3252|AV-procd|sdf|12439|dock9
  -GOLD-   2272018333D 1   1.00000     0.00000
 Structure written by MMmdl.
 37 38  0  0  0  0  0  0  0  0  2 V2000
  143.3393  136.3222  152.7559 C   0  0  0  0  0  0  0  0  0  0  0  0
  142.8973  134.9758  153.3466 C   0  0  0  0  0  0  0  0  0  0  0  0
  143.8015  133.8610  152.9683 N   0  3  1  0  0  0  0  0  0  0  0  0
  143.4443  133.2676  151.6581 C   0  0  0  0  0  0  0  0  0  0  0  0
  144.3768  132.0912  151.3268 C   0  0  0  0  0  0  0  0  0  0  0  0
  145.7273  132.5354  151.3511 O   0  0  0  0  0  0  0  0  0  0  0  0
  146.1154  133.0107  152.6361 C   0  0  1  0  0  0  0  0  0  0  0  0
  147.6066  133.3854  152.5821 C   0  0  0  0  0  0  0  0  0  0  0  0
  148.4808  132.2437  152.8233 N   0  0  0  0  0  0  0  0  0  0  0  0
  149.3138  132.1744  153.9497 C   0  0  0  0  0  0  0  0  0  0  0  0
  149.8459  130.9205  154.3172 C   0  0  0  0  0  0  0  0  0  0  0  0
  150.6828  130.8408  155.4476 C   0  0  0  0  0  0  0  0  0  0  0  0
  150.9573  132.0176  156.1719 C   0  0  0  0  0  0  0  0  0  0  0  0
  151.8119  131.9877  157.3464 C   0  0  0  0  0  0  0  0  0  0  0  0
  152.4925  131.9638  158.2817 N   0  0  0  0  0  0  0  0  0  0  0  0
  150.3808  133.2249  155.7282 C   0  0  0  0  0  0  0  0  0  0  0  0
  149.5782  133.3069  154.6447 N   0  0  0  0  0  0  0  0  0  0  0  0
  145.2395  134.2273  152.9928 C   0  0  0  0  0  0  0  0  0  0  0  0
  142.7105  137.1289  153.1325 H   0  0  0  0  0  0  0  0  0  0  0  0
  143.2640  136.3377  151.6690 H   0  0  0  0  0  0  0  0  0  0  0  0
  144.3697  136.5533  153.0268 H   0  0  0  0  0  0  0  0  0  0  0  0
  142.8913  135.0738  154.4330 H   0  0  0  0  0  0  0  0  0  0  0  0
  141.8729  134.7447  153.0514 H   0  0  0  0  0  0  0  0  0  0  0  0
  142.4102  132.9217  151.6755 H   0  0  0  0  0  0  0  0  0  0  0  0
  143.5153  134.0299  150.8803 H   0  0  0  0  0  0  0  0  0  0  0  0
  144.2365  131.2693  152.0309 H   0  0  0  0  0  0  0  0  0  0  0  0
  144.1515  131.7015  150.3339 H   0  0  0  0  0  0  0  0  0  0  0  0
  145.9581  132.2273  153.3797 H   0  0  0  0  0  0  0  0  0  0  0  0
  147.8482  133.8044  151.6049 H   0  0  0  0  0  0  0  0  0  0  0  0
  147.8275  134.1670  153.3100 H   0  0  0  0  0  0  0  0  0  0  0  0
  148.4667  131.4766  152.1664 H   0  0  0  0  0  0  0  0  0  0  0  0
  149.6199  130.0319  153.7458 H   0  0  0  0  0  0  0  0  0  0  0  0
  151.1019  129.8913  155.7485 H   0  0  0  0  0  0  0  0  0  0  0  0
  150.5624  134.1517  156.2530 H   0  0  0  0  0  0  0  0  0  0  0  0
  145.4210  135.0415  152.2891 H   0  0  0  0  0  0  0  0  0  0  0  0
  145.5191  134.5908  153.9812 H   0  0  0  0  0  0  0  0  0  0  0  0
  143.6693  133.1330  153.6561 H   0  0  0  0  0  0  0  0  0  0  0  0
  1  2  1  0  0  0  0
  1 19  1  0  0  0  0
  1 20  1  0  0  0  0
  1 21  1  0  0  0  0
  2  3  1  0  0  0  0
  2 22  1  0  0  0  0
  2 23  1  0  0  0  0
  3 18  1  0  0  0  0
  3  4  1  0  0  0  0
  3 37  1  0  0  0  0
  4  5  1  0  0  0  0
  4 24  1  0  0  0  0
  4 25  1  0  0  0  0
  5  6  1  0  0  0  0
  5 26  1  0  0  0  0
  5 27  1  0  0  0  0
  6  7  1  0  0  0  0
  7  8  1  0  0  0  0
  7 18  1  0  0  0  0
  7 28  1  0  0  0  0
  8  9  1  0  0  0  0
  8 29  1  0  0  0  0
  8 30  1  0  0  0  0
  9 10  1  0  0  0  0
  9 31  1  0  0  0  0
 10 17  1  0  0  0  0
 10 11  2  0  0  0  0
 11 12  1  0  0  0  0
 11 32  1  0  0  0  0
 12 13  2  0  0  0  0
 12 33  1  0  0  0  0
 13 14  1  0  0  0  0
 13 16  1  0  0  0  0
 14 15  3  0  0  0  0
 16 17  2  0  0  0  0
 16 34  1  0  0  0  0
 18 35  1  0  0  0  0
 18 36  1  0  0  0  0
M  CHG  1   3   1
M  END
> <s_m_source_file>
AV-unprocessed.smi

> <i_m_source_file_index>
3252

> <i_lp_mmshare_version>
43012

> <i_f3d_flags>
0

> <s_epik_input>
W0NIM11bQ0gyXU4xW0NIMl1bQ0gyXU9bQ0BIXShbQ0gyXTEpW0NIMl1bTkhdYzJbY0hdW2NIXWMoQyNOKVtjSF1uMg==

> <s_epik_cmdline>
J2VwaWtfcHl0aG9uJywgJy1waCcsICc3LjAnLCAnLXRuJywgJzgnLCAnLW1hJywgJzIwMCcsICctbWV0YWxfYmluZGluZycsICctaW1hZScsICc8aW5maWxlLm1hZT4nLCAnLW9tYWUnLCAnPG91dGZpbGUubWFlPic=

> <r_epik_Ionization_Penalty>
0.178512

> <r_epik_Ionization_Penalty_Charging>
0.178504

> <r_epik_Ionization_Penalty_Neutral>
8.15545e-06

> <r_epik_State_Penalty>
0.167974

> <r_epik_Charging_Adjusted_Penalty>
0.346478

> <i_epik_Tot_Q>
1

> <i_epik_Tot_abs_Q>
1

> <r_epik_Metal_State_Penalty>
0.167974

> <b_epik_Metal_Only>
0

> <s_lp_Force_Field>
OPLS_2005

> <r_lp_Energy>
17.3379

> <b_lp_Chiralities_Consistent>
1

> <s_lp_Variant>
AV-unprocessed.smi:3252-1

> <Gold.Version>
5.8.1

> <Gold.Id.Protein>
6NUR|6NUR_protein|mol2

> <Gold.PLP.Fitness>
41.8600

> <Gold.PLP.PLP>
-31.3366

> <Gold.PLP.part.hbond>
-3.0000

> <Gold.PLP.part.metal>
0.0000

> <Gold.PLP.part.buried>
-5.4114

> <Gold.PLP.part.nonpolar>
-23.0380

> <Gold.PLP.part.repulsive>
0.2102

> <Gold.PLP.ligand.clash>
0.0000

> <Gold.PLP.ligand.torsion>
0.5910

> <Gold.PLP.Chemscore.Hbond>
3.8960

> <Gold.PLP.Chemscore.CHOScore>
0.0000

> <Gold.PLP.Chemscore.Metal>
0.0000

> <Gold.Chemscore.Hbonds>
donor molecule, donor type, donor heavy atom, donor atom, acceptor molecule, acceptor atom, score
      L1  H     3    37       P1 10957  1.98
      L1  H     9    31       P1 10747  0.89
      P1  H  6896  6908       L1    15  1.00

> <Gold.PLP.Chemscore.Internal.Correction>
0.0174

> <Gold.Rescore>
     Score         DG    S(hbond)    S(metal)    S(lipo)     H(rot)  DE(clash)    DE(int)     intcor
     17.63     -18.28       2.87        0.00      59.61       1.47       0.01       0.65       ----

> <Gold.Chemscore.Fitness>
17.6256

> <Gold.Chemscore.DG>
-18.2840

> <Gold.Chemscore.ZeroCoef>
-5.4800

> <Gold.Chemscore.Hbond>
2.8706

> <Gold.Chemscore.Metal>
0.0000

> <Gold.Chemscore.Lipo>
59.6132

> <Gold.Chemscore.Internal_Hbond>
0.0000

> <Gold.Chemscore.DEClash>
0.0089

> <Gold.Chemscore.DEInternal>
0.6496

> <Gold.Chemscore.Rot>
1.4681

> <Gold.Chemscore.Internal.Correction>
   9.000000E+99

> <Gold.Chemscore.Hbonds>
donor molecule, donor type, donor heavy atom, donor atom, acceptor molecule, acceptor atom, score
      L1  H     3    37       P1 10957  0.89
      L1  H     9    31       P1 10747  0.81
      P1  H  6896  6908       L1    15  0.70

> <Gold.Chemscore.Hbond.Weighted>
-9.5877

> <Gold.Chemscore.Metal.Weighted>
-0.0000

> <Gold.Chemscore.Lipo.Weighted>
-6.9747

> <Gold.Chemscore.Internal_Hbond.Weighted>
0.0000

> <Gold.Chemscore.DEClash.Weighted>
0.0089

> <Gold.Chemscore.DEInternal.Weighted>
0.6496

> <Gold.Chemscore.Rot.Weighted>
3.7584

> <Gold.Chemscore.Internal.Correction.Weighted>
   9.000000E+99

> <Gold.Protein.RotatedTorsions>
[ 6907 6896 6895 6894 ] final   35.82 input  -60.11 | X-H torsion
[ 7974 7965 7964 7962 ] final   62.14 input  175.53 | X-H torsion
[ 8008 7997 7996 7995 ] final  -14.58 input   59.86 | X-H torsion
[ 10167 10162 10161 10158 ] final    3.04 input  -65.29 | X-H torsion
[ 10718 10713 10712 10709 ] final   48.92 input   66.30 | X-H torsion
[ 10763 10752 10751 10750 ] final   79.07 input  -60.55 | X-H torsion
[ 11005 11000 10999 10996 ] final   95.99 input  -57.11 | X-H torsion

> <Gold.Protein.ActiveResidues>
 VAL166  LYS551  ARG553  GLY616  TRP617  ASP618  TYR619  PRO620  LYS621  CYS622 
 ASP623  PHE694  ASN695  SER759  ASP760  ASP761  ALA762  ILE779  LEU786  VAL792 
 PHE793  MET794  SER795  GLU796  ALA797  LYS798  CYS799  TRP800  GLU811  SER814 

> <Gold.Protein.RotatedAtoms>
  152.1214  134.9203  160.0562 H   0  0  0  0  0  0  0  0  0  0  0  0  # atno 6907 bound_to 6896
  152.0342  133.3945  159.4318 H   0  0  0  0  0  0  0  0  0  0  0  0  # atno 6908 bound_to 6896
  150.6849  134.3408  159.4910 H   0  0  0  0  0  0  0  0  0  0  0  0  # atno 6909 bound_to 6896
  145.8768  139.3415  143.0730 H   0  0  0  0  0  0  0  0  0  0  0  0  # atno 7974 bound_to 7965
  154.5199  140.2219  155.8996 H   0  0  0  0  0  0  0  0  0  0  0  0  # atno 8008 bound_to 7997
  156.1650  140.3134  155.8838 H   0  0  0  0  0  0  0  0  0  0  0  0  # atno 8009 bound_to 7997
  155.3675  140.0464  157.3036 H   0  0  0  0  0  0  0  0  0  0  0  0  # atno 8010 bound_to 7997
  140.6605  143.7315  150.7731 H   0  0  0  0  0  0  0  0  0  0  0  0  # atno 10167 bound_to 10162
  157.4735  130.8270  149.8014 H   0  0  0  0  0  0  0  0  0  0  0  0  # atno 10718 bound_to 10713
  153.0923  135.4853  154.8714 H   0  0  0  0  0  0  0  0  0  0  0  0  # atno 10763 bound_to 10752
  154.7284  135.3054  154.8935 H   0  0  0  0  0  0  0  0  0  0  0  0  # atno 10764 bound_to 10752
  153.9578  135.6816  153.4798 H   0  0  0  0  0  0  0  0  0  0  0  0  # atno 10765 bound_to 10752
  139.8785  134.8928  156.4093 H   0  0  0  0  0  0  0  0  0  0  0  0  # atno 11005 bound_to 11000
  145.9072  140.9204  143.0473 LP  0  0  0  0  0  0  0  0  0  0  0  0  # atno 17320 bound_to 7965
  144.6726  140.1111  143.7455 LP  0  0  0  0  0  0  0  0  0  0  0  0  # atno 17321 bound_to 7965
  140.0983  143.4812  152.2440 LP  0  0  0  0  0  0  0  0  0  0  0  0  # atno 17342 bound_to 10162
  139.5838  144.7522  151.3571 LP  0  0  0  0  0  0  0  0  0  0  0  0  # atno 17343 bound_to 10162
  156.0085  130.3844  150.2346 LP  0  0  0  0  0  0  0  0  0  0  0  0  # atno 17370 bound_to 10713
  157.0530  131.0068  151.3247 LP  0  0  0  0  0  0  0  0  0  0  0  0  # atno 17371 bound_to 10713
  140.9212  133.7644  155.9908 LP  0  0  0  0  0  0  0  0  0  0  0  0  # atno 17394 bound_to 11000
  140.8438  134.3035  157.5303 LP  0  0  0  0  0  0  0  0  0  0  0  0  # atno 17395 bound_to 11000

$$$$
