#       Name:                AV-unprocessed.smi:1240
#       Creating user name   scv26
#       Creation time:       Fri Mar 27 04:29:56 2020


#       File generated by GOLD software.
#

@<TRIPOS>MOLECULE
AV-unprocessed.smi:1240
    55    57     1
SMALL
NO_CHARGES


@<TRIPOS>ATOM
      1 ****        -0.8452   0.7961  -1.9013 O.2            1 S1                 0.0000
      2 ****        -1.3725   1.1854  -0.8596 C.2            1 S1                 0.0000
      3 ****        -1.5371   0.4060   0.2186 N.am           1 S1                 0.0000
      4 ****        -1.1254  -0.9901   0.3131 C.3            1 S1                 0.0000
      5 ****         0.4114  -1.1905   0.4552 C.3            1 S1                 0.0000
      6 ****         1.0129  -0.5835   1.7552 C.3            1 S1                 0.0000
      7 ****         1.0204   0.9362   1.8421 C.3            1 S1                 0.0000
      8 ****         2.1170   1.2323   2.8651 C.3            1 S1                 0.0000
      9 ****         2.9414   0.0736   2.9132 O.3            1 S1                 0.0000
     10 ****         2.5093  -0.8569   1.9326 C.3            1 S1                 0.0000
     11 ****         0.7924  -2.6311   0.3434 N.4            1 S1                 1.0000
     12 ****         0.0868  -3.5667   1.2557 C.3            1 S1                 0.0000
     13 ****         0.7148  -4.9666   1.1561 C.3            1 S1                 0.0000
     14 ****         0.6572  -5.4176  -0.1922 O.3            1 S1                 0.0000
     15 ****         1.3891  -4.5723  -1.0723 C.3            1 S1                 0.0000
     16 ****         0.7941  -3.1539  -1.0447 C.3            1 S1                 0.0000
     17 ****        -1.8644   2.4185  -0.6492 N.am           1 S1                 0.0000
     18 ****        -1.8602   3.5344  -1.5297 C.ar           1 S1                 0.0000
     19 ****        -2.8166   4.5494  -1.3044 C.ar           1 S1                 0.0000
     20 ****        -2.8376   5.6834  -2.1416 C.ar           1 S1                 0.0000
     21 ****        -1.9398   5.7959  -3.1436 N.pl3          1 S1                 1.0000
     22 ****        -0.9984   4.8594  -3.3893 C.ar           1 S1                 0.0000
     23 ****        -0.9282   3.7034  -2.5854 C.ar           1 S1                 0.0000
     24 ****        -1.9853   0.8031   1.0319 H              1 S1                 0.0000
     25 ****        -1.6416  -1.4124   1.1751 H              1 S1                 0.0000
     26 ****        -1.5098  -1.5181  -0.5602 H              1 S1                 0.0000
     27 ****         0.8991  -0.6836  -0.3784 H              1 S1                 0.0000
     28 ****         0.4847  -0.9712   2.6272 H              1 S1                 0.0000
     29 ****         1.2919   1.3701   0.8786 H              1 S1                 0.0000
     30 ****         0.0618   1.3568   2.1457 H              1 S1                 0.0000
     31 ****         2.6974   2.1136   2.5907 H              1 S1                 0.0000
     32 ****         1.6934   1.4014   3.8555 H              1 S1                 0.0000
     33 ****         2.7195  -1.8792   2.2483 H              1 S1                 0.0000
     34 ****         3.0520  -0.6687   1.0047 H              1 S1                 0.0000
     35 ****         0.1444  -3.2152   2.2855 H              1 S1                 0.0000
     36 ****        -0.9698  -3.6286   0.9930 H              1 S1                 0.0000
     37 ****         1.7480  -4.9570   1.5074 H              1 S1                 0.0000
     38 ****         0.1699  -5.6687   1.7872 H              1 S1                 0.0000
     39 ****         2.4427  -4.5580  -0.7883 H              1 S1                 0.0000
     40 ****         1.3371  -4.9820  -2.0811 H              1 S1                 0.0000
     41 ****        -0.2207  -3.1736  -1.4426 H              1 S1                 0.0000
     42 ****         1.3806  -2.5006  -1.6915 H              1 S1                 0.0000
     43 ****        -2.3481   2.5596   0.2257 H              1 S1                 0.0000
     44 ****        -3.5342   4.4611  -0.5014 H              1 S1                 0.0000
     45 ****        -3.5390   6.4987  -2.0391 H              1 S1                 0.0000
     46 ****        -0.3293   5.0640  -4.2123 H              1 S1                 0.0000
     47 ****        -0.1549   2.9777  -2.7864 H              1 S1                 0.0000
     48 ****         1.7616  -2.6598   0.6265 H              1 S1                 0.0000
     49 ****        -1.9709   6.6254  -3.7370 H              1 S1                 0.0000
     50 ****        -0.5143  -0.1448  -1.9729 LP             1 S1                 0.0000
     51 ****        -0.7478   1.4207  -2.6762 LP             1 S1                 0.0000
     52 ****         2.8769  -0.3437   3.8197 LP             1 S1                 0.0000
     53 ****         3.8902   0.3321   2.7319 LP             1 S1                 0.0000
     54 ****        -0.2988  -5.4371  -0.4850 LP             1 S1                 0.0000
     55 ****         1.0392  -6.3405  -0.2399 LP             1 S1                 0.0000
@<TRIPOS>BOND
    1    1    2 2     
    2    2    3 am    
    3    2   17 am    
    4    3    4 1     
    5    3   24 1     
    6    4    5 1     
    7    4   25 1     
    8    4   26 1     
    9    5    6 1     
   10    5   11 1     
   11    5   27 1     
   12    6   10 1     
   13    6    7 1     
   14    6   28 1     
   15    7    8 1     
   16    7   29 1     
   17    7   30 1     
   18    8    9 1     
   19    8   31 1     
   20    8   32 1     
   21    9   10 1     
   22   10   33 1     
   23   10   34 1     
   24   11   16 1     
   25   11   12 1     
   26   11   48 1     
   27   12   13 1     
   28   12   35 1     
   29   12   36 1     
   30   13   14 1     
   31   13   37 1     
   32   13   38 1     
   33   14   15 1     
   34   15   16 1     
   35   15   39 1     
   36   15   40 1     
   37   16   41 1     
   38   16   42 1     
   39   17   18 1     
   40   17   43 1     
   41   18   23 ar    
   42   18   19 ar    
   43   19   20 ar    
   44   19   44 1     
   45   20   21 ar    
   46   20   45 1     
   47   21   22 ar    
   48   21   49 1     
   49   22   23 ar    
   50   22   46 1     
   51   23   47 1     
   52    1   50 1     
   53    1   51 1     
   54    9   52 1     
   55    9   53 1     
   56   14   54 1     
   57   14   55 1     
@<TRIPOS>SUBSTRUCTURE
      1 S1             1
@<TRIPOS>SET
LONE_PAIRS      STATIC     ATOMS    <user>   **** ""
6 50 51 52 53 54 55
DONOR_HYDROGENS      STATIC     ATOMS    <user>   **** ""
4 24 48 43 49
ATOM$BLUE        STATIC     ATOMS    COLORGROUP SYSTEM
6 50 51 52 53 54 55
ATOM$RED        STATIC     ATOMS    COLORGROUP SYSTEM
4 24 48 43 49
