AV-unprocessed.smi:521|AV-procd|sdf|2799|dock7
  -GOLD-   2262023273D 1   1.00000     0.00000
 Structure written by MMmdl.
 40 42  0  0  0  0  0  0  0  0  1 V2000
  153.6391  141.9387  161.9877 C   0  0  0  0  0  0  0  0  0  0  0  0
  153.1197  141.7325  160.6830 O   0  0  0  0  0  0  0  0  0  0  0  0
  152.4929  142.7870  160.0511 C   0  0  0  0  0  0  0  0  0  0  0  0
  152.4310  144.0997  160.5832 C   0  0  0  0  0  0  0  0  0  0  0  0
  151.7736  145.1248  159.8786 C   0  0  0  0  0  0  0  0  0  0  0  0
  151.1734  144.8517  158.6376 C   0  0  0  0  0  0  0  0  0  0  0  0
  151.2288  143.5529  158.1004 C   0  0  0  0  0  0  0  0  0  0  0  0
  151.8872  142.5131  158.8034 C   0  0  0  0  0  0  0  0  0  0  0  0
  151.9801  141.2178  158.3433 O   0  0  0  0  0  0  0  0  0  0  0  0
  150.9426  140.7032  157.5210 C   0  0  0  0  0  0  0  0  0  0  0  0
  151.3228  140.9245  156.0501 C   0  0  0  0  0  0  0  0  0  0  0  0
  150.4160  140.2361  155.1415 N   0  0  0  0  0  0  0  0  0  0  0  0
  150.6161  139.0665  154.4838 C   0  0  0  0  0  0  0  0  0  0  0  0
  151.8866  138.2841  154.6148 C   0  0  0  0  0  0  0  0  0  0  0  0
  151.8292  137.0383  153.9542 O   0  0  0  0  0  0  0  0  0  0  0  0
  149.6098  138.6548  153.7116 N   0  0  0  0  0  0  0  0  0  0  0  0
  148.6654  139.6471  153.8888 C   0  0  0  0  0  0  0  0  0  0  0  0
  147.3696  139.7896  153.3429 C   0  0  0  0  0  0  0  0  0  0  0  0
  146.5711  140.9021  153.6800 C   0  0  0  0  0  0  0  0  0  0  0  0
  147.0563  141.8872  154.5642 C   0  0  0  0  0  0  0  0  0  0  0  0
  148.3466  141.7674  155.1146 C   0  0  0  0  0  0  0  0  0  0  0  0
  149.1389  140.6534  154.7777 C   0  0  0  0  0  0  0  0  0  0  0  0
  154.1105  141.0191  162.3341 H   0  0  0  0  0  0  0  0  0  0  0  0
  152.8492  142.1924  162.6959 H   0  0  0  0  0  0  0  0  0  0  0  0
  154.3984  142.7217  161.9957 H   0  0  0  0  0  0  0  0  0  0  0  0
  152.8806  144.3463  161.5328 H   0  0  0  0  0  0  0  0  0  0  0  0
  151.7299  146.1219  160.2915 H   0  0  0  0  0  0  0  0  0  0  0  0
  150.6689  145.6386  158.0966 H   0  0  0  0  0  0  0  0  0  0  0  0
  150.7561  143.3785  157.1460 H   0  0  0  0  0  0  0  0  0  0  0  0
  150.8084  139.6367  157.7067 H   0  0  0  0  0  0  0  0  0  0  0  0
  149.9998  141.2072  157.7388 H   0  0  0  0  0  0  0  0  0  0  0  0
  151.3023  141.9895  155.8168 H   0  0  0  0  0  0  0  0  0  0  0  0
  152.3449  140.5934  155.8676 H   0  0  0  0  0  0  0  0  0  0  0  0
  152.7214  138.8654  154.2232 H   0  0  0  0  0  0  0  0  0  0  0  0
  152.0947  138.1090  155.6709 H   0  0  0  0  0  0  0  0  0  0  0  0
  151.7573  137.1942  153.0253 H   0  0  0  0  0  0  0  0  0  0  0  0
  146.9883  139.0398  152.6654 H   0  0  0  0  0  0  0  0  0  0  0  0
  145.5810  140.9995  153.2593 H   0  0  0  0  0  0  0  0  0  0  0  0
  146.4375  142.7347  154.8204 H   0  0  0  0  0  0  0  0  0  0  0  0
  148.7194  142.5183  155.7954 H   0  0  0  0  0  0  0  0  0  0  0  0
  1  2  1  0  0  0  0
  1 23  1  0  0  0  0
  1 24  1  0  0  0  0
  1 25  1  0  0  0  0
  2  3  1  0  0  0  0
  3  8  1  0  0  0  0
  3  4  2  0  0  0  0
  4  5  1  0  0  0  0
  4 26  1  0  0  0  0
  5  6  2  0  0  0  0
  5 27  1  0  0  0  0
  6  7  1  0  0  0  0
  6 28  1  0  0  0  0
  7  8  2  0  0  0  0
  7 29  1  0  0  0  0
  8  9  1  0  0  0  0
  9 10  1  0  0  0  0
 10 11  1  0  0  0  0
 10 30  1  0  0  0  0
 10 31  1  0  0  0  0
 11 12  1  0  0  0  0
 11 32  1  0  0  0  0
 11 33  1  0  0  0  0
 12 22  1  0  0  0  0
 12 13  1  0  0  0  0
 13 14  1  0  0  0  0
 13 16  2  0  0  0  0
 14 15  1  0  0  0  0
 14 34  1  0  0  0  0
 14 35  1  0  0  0  0
 15 36  1  0  0  0  0
 16 17  1  0  0  0  0
 17 22  2  0  0  0  0
 17 18  1  0  0  0  0
 18 19  2  0  0  0  0
 18 37  1  0  0  0  0
 19 20  1  0  0  0  0
 19 38  1  0  0  0  0
 20 21  2  0  0  0  0
 20 39  1  0  0  0  0
 21 22  1  0  0  0  0
 21 40  1  0  0  0  0
M  END
> <s_m_source_file>
AV-unprocessed.smi

> <i_m_source_file_index>
521

> <i_lp_mmshare_version>
43012

> <i_f3d_flags>
0

> <s_epik_input>
W0NIM11PYzFbY0hdW2NIXVtjSF1bY0hdYzFPW0NIMl1bQ0gyXW4oYyhuMilbQ0gyXVtPSF0pYyhjMjMpW2NIXVtjSF1bY0hdW2NIXTM=

> <s_epik_cmdline>
J2VwaWtfcHl0aG9uJywgJy1waCcsICc3LjAnLCAnLXRuJywgJzgnLCAnLW1hJywgJzIwMCcsICctbWV0YWxfYmluZGluZycsICctaW1hZScsICc8aW5maWxlLm1hZT4nLCAnLW9tYWUnLCAnPG91dGZpbGUubWFlPic=

> <r_lp_tautomer_probability>
1

> <r_epik_Ionization_Penalty>
0.048627

> <r_epik_Ionization_Penalty_Charging>
0

> <r_epik_Ionization_Penalty_Neutral>
0.048627

> <r_epik_State_Penalty>
0.0414172

> <r_epik_Charging_Adjusted_Penalty>
0.0414172

> <i_epik_Tot_Q>
0

> <i_epik_Tot_abs_Q>
0

> <r_epik_Metal_State_Penalty>
4.28976e-05

> <b_epik_Metal_Only>
0

> <s_lp_Force_Field>
OPLS_2005

> <r_lp_Energy>
18.4761

> <b_lp_Chiralities_Consistent>
1

> <s_lp_Variant>
AV-unprocessed.smi:521-1

> <Gold.Version>
5.8.1

> <Gold.Id.Protein>
6NUR|6NUR_protein|mol2

> <Gold.PLP.Fitness>
55.3436

> <Gold.PLP.PLP>
-51.6139

> <Gold.PLP.part.hbond>
-2.0000

> <Gold.PLP.part.metal>
0.0000

> <Gold.PLP.part.buried>
-2.2711

> <Gold.PLP.part.nonpolar>
-49.1427

> <Gold.PLP.part.repulsive>
1.7563

> <Gold.PLP.ligand.clash>
0.0000

> <Gold.PLP.ligand.torsion>
0.9286

> <Gold.PLP.Chemscore.Hbond>
1.8320

> <Gold.PLP.Chemscore.CHOScore>
0.0000

> <Gold.PLP.Chemscore.Metal>
0.0000

> <Gold.Chemscore.Hbonds>
donor molecule, donor type, donor heavy atom, donor atom, acceptor molecule, acceptor atom, score
      L1  H    15    36       P1  7949  0.63
      P1  H 10752 10765       L1    15  1.00

> <Gold.PLP.Chemscore.Internal.Correction>
0.0907

> <Gold.Rescore>
     Score         DG    S(hbond)    S(metal)    S(lipo)     H(rot)  DE(clash)    DE(int)     intcor
     17.90     -19.92       1.43        0.00     136.27       2.46       1.27       0.75       ----

> <Gold.Chemscore.Fitness>
17.8973

> <Gold.Chemscore.DG>
-19.9240

> <Gold.Chemscore.ZeroCoef>
-5.4800

> <Gold.Chemscore.Hbond>
1.4336

> <Gold.Chemscore.Metal>
0.0000

> <Gold.Chemscore.Lipo>
136.2703

> <Gold.Chemscore.Internal_Hbond>
0.0000

> <Gold.Chemscore.DEClash>
1.2746

> <Gold.Chemscore.DEInternal>
0.7521

> <Gold.Chemscore.Rot>
2.4562

> <Gold.Chemscore.Internal.Correction>
   9.000000E+99

> <Gold.Chemscore.Hbonds>
donor molecule, donor type, donor heavy atom, donor atom, acceptor molecule, acceptor atom, score
      L1  H    15    36       P1  7949  0.58
      P1  H 10752 10765       L1    15  0.69

> <Gold.Chemscore.Hbond.Weighted>
-4.7884

> <Gold.Chemscore.Metal.Weighted>
-0.0000

> <Gold.Chemscore.Lipo.Weighted>
-15.9436

> <Gold.Chemscore.Internal_Hbond.Weighted>
0.0000

> <Gold.Chemscore.DEClash.Weighted>
1.2746

> <Gold.Chemscore.DEInternal.Weighted>
0.7521

> <Gold.Chemscore.Rot.Weighted>
6.2880

> <Gold.Chemscore.Internal.Correction.Weighted>
   9.000000E+99

> <Gold.Protein.RotatedTorsions>
[ 6907 6896 6895 6894 ] final   67.92 input  -60.11 | X-H torsion
[ 7974 7965 7964 7962 ] final   12.90 input  175.53 | X-H torsion
[ 8008 7997 7996 7995 ] final    9.12 input   59.86 | X-H torsion
[ 10167 10162 10161 10158 ] final -167.79 input  -65.29 | X-H torsion
[ 10718 10713 10712 10709 ] final  -24.14 input   66.30 | X-H torsion
[ 10763 10752 10751 10750 ] final  158.52 input  -60.55 | X-H torsion
[ 11005 11000 10999 10996 ] final  149.71 input  -57.11 | X-H torsion

> <Gold.Protein.ActiveResidues>
 VAL166  LYS551  ARG553  GLY616  TRP617  ASP618  TYR619  PRO620  LYS621  CYS622 
 ASP623  PHE694  ASN695  SER759  ASP760  ASP761  ALA762  ILE779  LEU786  VAL792 
 PHE793  MET794  SER795  GLU796  ALA797  LYS798  CYS799  TRP800  GLU811  SER814 

> <Gold.Protein.RotatedAtoms>
  152.4585  134.5238  159.9790 H   0  0  0  0  0  0  0  0  0  0  0  0  # atno 6907 bound_to 6896
  151.5292  133.3446  159.2923 H   0  0  0  0  0  0  0  0  0  0  0  0  # atno 6908 bound_to 6896
  150.8538  134.7901  159.7092 H   0  0  0  0  0  0  0  0  0  0  0  0  # atno 6909 bound_to 6896
  146.2341  139.9268  142.8502 H   0  0  0  0  0  0  0  0  0  0  0  0  # atno 7974 bound_to 7965
  154.7759  140.2810  155.6101 H   0  0  0  0  0  0  0  0  0  0  0  0  # atno 8008 bound_to 7997
  156.2942  140.2632  156.2501 H   0  0  0  0  0  0  0  0  0  0  0  0  # atno 8009 bound_to 7997
  154.9843  140.0374  157.2281 H   0  0  0  0  0  0  0  0  0  0  0  0  # atno 8010 bound_to 7997
  139.6026  144.0979  152.1759 H   0  0  0  0  0  0  0  0  0  0  0  0  # atno 10167 bound_to 10162
  156.4816  130.4546  149.6808 H   0  0  0  0  0  0  0  0  0  0  0  0  # atno 10718 bound_to 10713
  154.2173  135.2783  155.2937 H   0  0  0  0  0  0  0  0  0  0  0  0  # atno 10763 bound_to 10752
  154.5730  135.5612  153.7116 H   0  0  0  0  0  0  0  0  0  0  0  0  # atno 10764 bound_to 10752
  153.0050  135.6326  154.2313 H   0  0  0  0  0  0  0  0  0  0  0  0  # atno 10765 bound_to 10752
  140.1068  134.8949  157.1878 H   0  0  0  0  0  0  0  0  0  0  0  0  # atno 11005 bound_to 11000
  145.2083  140.9884  143.4115 LP  0  0  0  0  0  0  0  0  0  0  0  0  # atno 17320 bound_to 7965
  144.9713  139.3877  143.6307 LP  0  0  0  0  0  0  0  0  0  0  0  0  # atno 17321 bound_to 7965
  140.0578  144.5881  150.7286 LP  0  0  0  0  0  0  0  0  0  0  0  0  # atno 17342 bound_to 10162
  140.7261  143.2638  151.4115 LP  0  0  0  0  0  0  0  0  0  0  0  0  # atno 17343 bound_to 10162
  156.3516  130.7435  151.2395 LP  0  0  0  0  0  0  0  0  0  0  0  0  # atno 17370 bound_to 10713
  157.7483  131.0375  150.4461 LP  0  0  0  0  0  0  0  0  0  0  0  0  # atno 17371 bound_to 10713
  140.3144  134.2987  155.7259 LP  0  0  0  0  0  0  0  0  0  0  0  0  # atno 17394 bound_to 11000
  141.2120  133.7671  156.9823 LP  0  0  0  0  0  0  0  0  0  0  0  0  # atno 17395 bound_to 11000

$$$$
