#       Name:                AV-unprocessed.smi:2760
#       Creating user name   scv26
#       Creation time:       Fri Mar 27 15:07:49 2020


#       File generated by GOLD software.
#

@<TRIPOS>MOLECULE
AV-unprocessed.smi:2760
    37    38     1
SMALL
NO_CHARGES


@<TRIPOS>ATOM
      1 ****        -4.7645   2.7499  -2.1837 O.2            1 S1                 0.0000
      2 ****        -3.8449   2.1522  -1.6287 C.2            1 S1                 0.0000
      3 ****        -4.0275   1.5511  -0.3016 C.2            1 S1                 0.0000
      4 ****        -3.0033   0.8993   0.2844 C.2            1 S1                 0.0000
      5 ****        -3.0945   0.2573   1.6287 C.3            1 S1                 0.0000
      6 ****        -1.9315   0.2446   2.5973 C.3            1 S1                 0.0000
      7 ****        -2.3882  -1.0420   1.9507 C.3            1 S1                 0.0000
      8 ****        -1.7841   0.7986  -0.3641 N.pl3          1 S1                 0.0000
      9 ****        -1.6308   1.3765  -1.6200 C.2            1 S1                 0.0000
     10 ****         0.0479   1.1358  -2.3016 S.3            1 S1                 0.0000
     11 ****         0.9218   0.1888  -1.0168 C.3            1 S1                 0.0000
     12 ****         2.3684  -0.1010  -1.4255 C.3            1 S1                 0.0000
     13 ****         2.9946  -0.8394  -0.3903 O.3            1 S1                 0.0000
     14 ****         4.3461  -1.1576  -0.6825 C.3            1 S1                 0.0000
     15 ****         4.9479  -1.9570   0.4798 C.3            1 S1                 0.0000
     16 ****         6.2177  -2.2489   0.2014 F              1 S1                 0.0000
     17 ****         4.9102  -1.2388   1.6019 F              1 S1                 0.0000
     18 ****         4.2753  -3.0945   0.6527 F              1 S1                 0.0000
     19 ****        -2.5843   2.0166  -2.2332 N.2            1 S1                 0.0000
     20 ****        -1.0413   0.3025   0.1062 H              1 S1                 0.0000
     21 ****        -4.9818   1.6342   0.1980 H              1 S1                 0.0000
     22 ****        -4.0795   0.3847   2.0745 H              1 S1                 0.0000
     23 ****        -0.9804   0.6598   2.2695 H              1 S1                 0.0000
     24 ****        -2.1577   0.3830   3.6525 H              1 S1                 0.0000
     25 ****        -2.9186  -1.7573   2.5759 H              1 S1                 0.0000
     26 ****        -1.7390  -1.4800   1.1951 H              1 S1                 0.0000
     27 ****         0.3964  -0.7508  -0.8414 H              1 S1                 0.0000
     28 ****         0.9124   0.7526  -0.0833 H              1 S1                 0.0000
     29 ****         2.3882  -0.6699  -2.3564 H              1 S1                 0.0000
     30 ****         2.9045   0.8339  -1.5960 H              1 S1                 0.0000
     31 ****         4.4017  -1.7420  -1.6024 H              1 S1                 0.0000
     32 ****         4.9197  -0.2429  -0.8406 H              1 S1                 0.0000
     33 ****        -4.6247   3.1540  -3.0877 LP             1 S1                 0.0000
     34 ****        -5.6525   2.8321  -1.7313 LP             1 S1                 0.0000
     35 ****         2.4881  -1.6908  -0.2537 LP             1 S1                 0.0000
     36 ****         2.9683  -0.2975   0.4497 LP             1 S1                 0.0000
     37 ****        -2.4189   2.4126  -3.1365 LP             1 S1                 0.0000
@<TRIPOS>BOND
    1    1    2 2     
    2    2   19 1     
    3    2    3 1     
    4    3   21 1     
    5    3    4 2     
    6    4    5 1     
    7    4    8 1     
    8    5    7 1     
    9    5    6 1     
   10    5   22 1     
   11    6    7 1     
   12    6   23 1     
   13    6   24 1     
   14    7   25 1     
   15    7   26 1     
   16    8    9 1     
   17    8   20 1     
   18    9   10 1     
   19    9   19 2     
   20   10   11 1     
   21   11   12 1     
   22   11   27 1     
   23   11   28 1     
   24   12   13 1     
   25   12   29 1     
   26   12   30 1     
   27   13   14 1     
   28   14   15 1     
   29   14   31 1     
   30   14   32 1     
   31   15   16 1     
   32   15   17 1     
   33   15   18 1     
   34    1   33 1     
   35    1   34 1     
   36   13   35 1     
   37   13   36 1     
   38   19   37 1     
@<TRIPOS>SUBSTRUCTURE
      1 S1             1
@<TRIPOS>SET
LONE_PAIRS      STATIC     ATOMS    <user>   **** ""
5 33 34 35 36 37
DONOR_HYDROGENS      STATIC     ATOMS    <user>   **** ""
1 20
ATOM$BLUE        STATIC     ATOMS    COLORGROUP SYSTEM
5 33 34 35 36 37
ATOM$RED        STATIC     ATOMS    COLORGROUP SYSTEM
1 20
