AV-unprocessed.smi:1880|AV-procd|sdf|7635|dock1
  -GOLD-   22720 9363D 1   1.00000     0.00000
 Structure written by MMmdl.
 36 38  0  0  0  0  0  0  0  0  1 V2000
  150.8813  139.2156  154.1616 O   0  0  0  0  0  0  0  0  0  0  0  0
  149.8026  139.7295  154.9184 C   0  0  2  0  0  0  0  0  0  0  0  0
  148.5874  139.8762  153.9902 C   0  0  0  0  0  0  0  0  0  0  0  0
  147.6471  140.7390  154.6073 O   0  0  0  0  0  0  0  0  0  0  0  0
  147.7499  142.0783  154.1569 C   0  0  0  0  0  0  0  0  0  0  0  0
  146.5032  142.7670  154.5959 C   0  0  0  0  0  0  0  0  0  0  0  0
  145.5993  143.5722  153.9596 C   0  0  0  0  0  0  0  0  0  0  0  0
  144.6117  143.9079  154.9265 C   0  0  0  0  0  0  0  0  0  0  0  0
  144.9880  143.2832  156.0814 C   0  0  0  0  0  0  0  0  0  0  0  0
  146.1404  142.5832  155.8969 O   0  0  0  0  0  0  0  0  0  0  0  0
  150.2226  141.0750  155.5409 C   0  0  0  0  0  0  0  0  0  0  0  0
  151.1475  140.9063  156.6480 N   0  0  0  0  0  0  0  0  0  0  0  0
  152.0221  139.8973  156.8231 C   0  0  0  0  0  0  0  0  0  0  0  0
  152.7880  139.9359  157.9096 N   0  0  0  0  0  0  0  0  0  0  0  0
  152.3622  141.1083  158.5098 C   0  0  0  0  0  0  0  0  0  0  0  0
  152.7834  141.7304  159.7066 C   0  0  0  0  0  0  0  0  0  0  0  0
  152.1978  142.9429  160.1265 C   0  0  0  0  0  0  0  0  0  0  0  0
  152.6142  143.5263  161.2754 F   0  0  0  0  0  0  0  0  0  0  0  0
  151.1831  143.5504  159.3574 C   0  0  0  0  0  0  0  0  0  0  0  0
  150.6267  144.7147  159.7677 F   0  0  0  0  0  0  0  0  0  0  0  0
  150.7469  142.9490  158.1611 C   0  0  0  0  0  0  0  0  0  0  0  0
  151.3342  141.7394  157.7461 C   0  0  0  0  0  0  0  0  0  0  0  0
  150.7826  138.2772  154.1017 H   0  0  0  0  0  0  0  0  0  0  0  0
  149.5659  139.0276  155.7195 H   0  0  0  0  0  0  0  0  0  0  0  0
  148.8960  140.3269  153.0455 H   0  0  0  0  0  0  0  0  0  0  0  0
  148.1476  138.9044  153.7576 H   0  0  0  0  0  0  0  0  0  0  0  0
  148.6261  142.5664  154.5864 H   0  0  0  0  0  0  0  0  0  0  0  0
  147.8406  142.1131  153.0702 H   0  0  0  0  0  0  0  0  0  0  0  0
  145.6426  143.8783  152.9248 H   0  0  0  0  0  0  0  0  0  0  0  0
  143.7367  144.5268  154.7935 H   0  0  0  0  0  0  0  0  0  0  0  0
  144.5719  143.2320  157.0769 H   0  0  0  0  0  0  0  0  0  0  0  0
  150.6844  141.7191  154.7915 H   0  0  0  0  0  0  0  0  0  0  0  0
  149.3460  141.6080  155.9109 H   0  0  0  0  0  0  0  0  0  0  0  0
  152.1028  139.0897  156.1100 H   0  0  0  0  0  0  0  0  0  0  0  0
  153.5598  141.2750  160.3032 H   0  0  0  0  0  0  0  0  0  0  0  0
  149.9737  143.4138  157.5678 H   0  0  0  0  0  0  0  0  0  0  0  0
  1  2  1  0  0  0  0
  1 23  1  0  0  0  0
  2  3  1  0  0  0  0
  2 11  1  0  0  0  0
  2 24  1  0  0  0  0
  3  4  1  0  0  0  0
  3 25  1  0  0  0  0
  3 26  1  0  0  0  0
  4  5  1  0  0  0  0
  5  6  1  0  0  0  0
  5 27  1  0  0  0  0
  5 28  1  0  0  0  0
  6 10  1  0  0  0  0
  6  7  2  0  0  0  0
  7  8  1  0  0  0  0
  7 29  1  0  0  0  0
  8  9  2  0  0  0  0
  8 30  1  0  0  0  0
  9 10  1  0  0  0  0
  9 31  1  0  0  0  0
 11 12  1  0  0  0  0
 11 32  1  0  0  0  0
 11 33  1  0  0  0  0
 12 22  1  0  0  0  0
 12 13  1  0  0  0  0
 13 14  2  0  0  0  0
 13 34  1  0  0  0  0
 14 15  1  0  0  0  0
 15 22  2  0  0  0  0
 15 16  1  0  0  0  0
 16 17  2  0  0  0  0
 16 35  1  0  0  0  0
 17 18  1  0  0  0  0
 17 19  1  0  0  0  0
 19 20  1  0  0  0  0
 19 21  2  0  0  0  0
 21 22  1  0  0  0  0
 21 36  1  0  0  0  0
M  END
> <s_m_source_file>
AV-unprocessed.smi

> <i_m_source_file_index>
1880

> <i_lp_mmshare_version>
43012

> <i_f3d_flags>
0

> <s_epik_input>
W2NIXTFjKEYpYyhGKVtjSF1jKGMxMiluKFtjSF1uMilbQ0gyXVtDQEhdKFtPSF0pW0NIMl1PW0NIMl1jM1tjSF1bY0hdW2NIXW8z

> <s_epik_cmdline>
J2VwaWtfcHl0aG9uJywgJy1waCcsICc3LjAnLCAnLXRuJywgJzgnLCAnLW1hJywgJzIwMCcsICctbWV0YWxfYmluZGluZycsICctaW1hZScsICc8aW5maWxlLm1hZT4nLCAnLW9tYWUnLCAnPG91dGZpbGUubWFlPic=

> <r_epik_Ionization_Penalty>
0.0152348

> <r_epik_Ionization_Penalty_Charging>
0

> <r_epik_Ionization_Penalty_Neutral>
0.0152348

> <r_epik_State_Penalty>
0.0119607

> <r_epik_Charging_Adjusted_Penalty>
0.0119607

> <i_epik_Tot_Q>
0

> <i_epik_Tot_abs_Q>
0

> <r_epik_Metal_State_Penalty>
1.20821e-05

> <b_epik_Metal_Only>
0

> <s_lp_Force_Field>
OPLS_2005

> <r_lp_Energy>
7.92035

> <b_lp_Chiralities_Consistent>
1

> <s_lp_Variant>
AV-unprocessed.smi:1880-1

> <Gold.Version>
5.8.1

> <Gold.Id.Protein>
6NUR|6NUR_protein|mol2

> <Gold.PLP.Fitness>
50.5324

> <Gold.PLP.PLP>
-47.8110

> <Gold.PLP.part.hbond>
-2.0000

> <Gold.PLP.part.metal>
0.0000

> <Gold.PLP.part.buried>
-3.9501

> <Gold.PLP.part.nonpolar>
-42.0057

> <Gold.PLP.part.repulsive>
0.2675

> <Gold.PLP.ligand.clash>
0.8382

> <Gold.PLP.ligand.torsion>
1.0397

> <Gold.PLP.Chemscore.Hbond>
1.8307

> <Gold.PLP.Chemscore.CHOScore>
0.0000

> <Gold.PLP.Chemscore.Metal>
0.0000

> <Gold.Chemscore.Hbonds>
donor molecule, donor type, donor heavy atom, donor atom, acceptor molecule, acceptor atom, score
      P1  H  7989  7998       L1     1  1.00
      P1  H  7997  8009       L1    14  1.00

> <Gold.PLP.Chemscore.Internal.Correction>
0.1470

> <Gold.Rescore>
     Score         DG    S(hbond)    S(metal)    S(lipo)     H(rot)  DE(clash)    DE(int)     intcor
     12.13     -14.37       1.47        0.00      96.46       2.85       0.05       2.19       ----

> <Gold.Chemscore.Fitness>
12.1328

> <Gold.Chemscore.DG>
-14.3688

> <Gold.Chemscore.ZeroCoef>
-5.4800

> <Gold.Chemscore.Hbond>
1.4680

> <Gold.Chemscore.Metal>
0.0000

> <Gold.Chemscore.Lipo>
96.4641

> <Gold.Chemscore.Internal_Hbond>
0.0000

> <Gold.Chemscore.DEClash>
0.0458

> <Gold.Chemscore.DEInternal>
2.1902

> <Gold.Chemscore.Rot>
2.8518

> <Gold.Chemscore.Internal.Correction>
   9.000000E+99

> <Gold.Chemscore.Hbonds>
donor molecule, donor type, donor heavy atom, donor atom, acceptor molecule, acceptor atom, score
      P1  H  7989  7998       L1     1  0.30
      P1  H  7997  8009       L1    14  0.20

> <Gold.Chemscore.Hbond.Weighted>
-4.9031

> <Gold.Chemscore.Metal.Weighted>
-0.0000

> <Gold.Chemscore.Lipo.Weighted>
-11.2863

> <Gold.Chemscore.Internal_Hbond.Weighted>
0.0000

> <Gold.Chemscore.DEClash.Weighted>
0.0458

> <Gold.Chemscore.DEInternal.Weighted>
2.1902

> <Gold.Chemscore.Rot.Weighted>
7.3005

> <Gold.Chemscore.Internal.Correction.Weighted>
   9.000000E+99

> <Gold.Protein.RotatedTorsions>
[ 6907 6896 6895 6894 ] final  102.60 input  -60.11 | X-H torsion
[ 7974 7965 7964 7962 ] final  177.92 input  175.53 | X-H torsion
[ 8008 7997 7996 7995 ] final  152.24 input   59.86 | X-H torsion
[ 10167 10162 10161 10158 ] final   71.84 input  -65.29 | X-H torsion
[ 10718 10713 10712 10709 ] final -163.27 input   66.30 | X-H torsion
[ 10763 10752 10751 10750 ] final  -72.32 input  -60.55 | X-H torsion
[ 11005 11000 10999 10996 ] final   68.88 input  -57.11 | X-H torsion

> <Gold.Protein.ActiveResidues>
 VAL166  LYS551  ARG553  GLY616  TRP617  ASP618  TYR619  PRO620  LYS621  CYS622 
 ASP623  PHE694  ASN695  SER759  ASP760  ASP761  ALA762  ILE779  LEU786  VAL792 
 PHE793  MET794  SER795  GLU796  ALA797  LYS798  CYS799  TRP800  GLU811  SER814 

> <Gold.Protein.RotatedAtoms>
  152.5319  133.9951  159.7868 H   0  0  0  0  0  0  0  0  0  0  0  0  # atno 6907 bound_to 6896
  151.0179  133.5895  159.2682 H   0  0  0  0  0  0  0  0  0  0  0  0  # atno 6908 bound_to 6896
  151.2946  135.0758  159.9270 H   0  0  0  0  0  0  0  0  0  0  0  0  # atno 6909 bound_to 6896
  144.7162  140.0320  143.6439 H   0  0  0  0  0  0  0  0  0  0  0  0  # atno 7974 bound_to 7965
  156.2638  140.2026  156.6302 H   0  0  0  0  0  0  0  0  0  0  0  0  # atno 8008 bound_to 7997
  154.6689  140.0552  157.0168 H   0  0  0  0  0  0  0  0  0  0  0  0  # atno 8009 bound_to 7997
  155.1166  140.3220  155.4510 H   0  0  0  0  0  0  0  0  0  0  0  0  # atno 8010 bound_to 7997
  140.0418  144.5383  150.7429 H   0  0  0  0  0  0  0  0  0  0  0  0  # atno 10167 bound_to 10162
  156.6223  130.8895  151.2960 H   0  0  0  0  0  0  0  0  0  0  0  0  # atno 10718 bound_to 10713
  154.4441  135.5933  153.6148 H   0  0  0  0  0  0  0  0  0  0  0  0  # atno 10763 bound_to 10752
  152.9808  135.6005  154.3686 H   0  0  0  0  0  0  0  0  0  0  0  0  # atno 10764 bound_to 10752
  154.3540  135.2841  155.2335 H   0  0  0  0  0  0  0  0  0  0  0  0  # atno 10765 bound_to 10752
  139.9685  134.6939  156.0495 H   0  0  0  0  0  0  0  0  0  0  0  0  # atno 11005 bound_to 11000
  146.0094  139.3157  143.0879 LP  0  0  0  0  0  0  0  0  0  0  0  0  # atno 17320 bound_to 7965
  145.8699  140.9426  143.0656 LP  0  0  0  0  0  0  0  0  0  0  0  0  # atno 17321 bound_to 7965
  140.7257  143.2633  151.4129 LP  0  0  0  0  0  0  0  0  0  0  0  0  # atno 17342 bound_to 10162
  139.6009  144.1297  152.2197 LP  0  0  0  0  0  0  0  0  0  0  0  0  # atno 17343 bound_to 10162
  157.7224  130.9576  150.1492 LP  0  0  0  0  0  0  0  0  0  0  0  0  # atno 17370 bound_to 10713
  156.2301  130.3681  149.8455 LP  0  0  0  0  0  0  0  0  0  0  0  0  # atno 17371 bound_to 10713
  141.1365  133.6574  156.3609 LP  0  0  0  0  0  0  0  0  0  0  0  0  # atno 17394 bound_to 11000
  140.5343  134.6182  157.5360 LP  0  0  0  0  0  0  0  0  0  0  0  0  # atno 17395 bound_to 11000

$$$$
