AV-unprocessed.smi:420|AV-procd|sdf|2532|dock1
  -GOLD-   2262022493D 1   1.00000     0.00000
 Structure written by MMmdl.
 36 38  0  0  0  0  0  0  0  0  1 V2000
  153.4469  140.5822  160.1674 C   0  0  0  0  0  0  0  0  0  0  0  0
  152.6906  141.4138  159.2392 N   0  0  0  0  0  0  0  0  0  0  0  0
  152.2696  141.0763  157.9974 C   0  0  0  0  0  0  0  0  0  0  0  0
  152.4549  139.9954  157.4384 O   0  0  0  0  0  0  0  0  0  0  0  0
  151.6076  142.1369  157.4777 N   0  0  0  0  0  0  0  0  0  0  0  0
  150.9746  142.2086  156.1624 C   0  0  0  0  0  0  0  0  0  0  0  0
  149.9908  141.0443  155.9330 C   0  0  2  0  0  0  0  0  0  0  0  0
  150.3326  140.3914  154.7263 O   0  0  0  0  0  0  0  0  0  0  0  0
  148.5555  141.5471  155.9049 C   0  0  0  0  0  0  0  0  0  0  0  0
  147.9274  141.9502  157.1031 C   0  0  0  0  0  0  0  0  0  0  0  0
  146.6027  142.4287  157.0842 C   0  0  0  0  0  0  0  0  0  0  0  0
  145.8990  142.5090  155.8672 C   0  0  0  0  0  0  0  0  0  0  0  0
  144.6257  142.9688  155.8502 F   0  0  0  0  0  0  0  0  0  0  0  0
  146.5216  142.1130  154.6681 C   0  0  0  0  0  0  0  0  0  0  0  0
  147.8463  141.6348  154.6862 C   0  0  0  0  0  0  0  0  0  0  0  0
  151.5982  143.1783  158.4167 C   0  0  0  0  0  0  0  0  0  0  0  0
  151.0389  144.4670  158.3651 C   0  0  0  0  0  0  0  0  0  0  0  0
  151.2076  145.2901  159.5033 C   0  0  0  0  0  0  0  0  0  0  0  0
  151.9149  144.8217  160.6414 C   0  0  0  0  0  0  0  0  0  0  0  0
  152.4665  143.5191  160.6666 C   0  0  0  0  0  0  0  0  0  0  0  0
  152.2823  142.7228  159.5235 C   0  0  0  0  0  0  0  0  0  0  0  0
  153.6151  139.5782  159.7757 H   0  0  0  0  0  0  0  0  0  0  0  0
  152.9105  140.4881  161.1119 H   0  0  0  0  0  0  0  0  0  0  0  0
  154.4191  141.0329  160.3689 H   0  0  0  0  0  0  0  0  0  0  0  0
  150.4335  143.1548  156.1211 H   0  0  0  0  0  0  0  0  0  0  0  0
  151.7175  142.2594  155.3644 H   0  0  0  0  0  0  0  0  0  0  0  0
  150.0830  140.3154  156.7397 H   0  0  0  0  0  0  0  0  0  0  0  0
  149.5642  140.3533  154.1775 H   0  0  0  0  0  0  0  0  0  0  0  0
  148.4601  141.8970  158.0414 H   0  0  0  0  0  0  0  0  0  0  0  0
  146.1265  142.7358  158.0035 H   0  0  0  0  0  0  0  0  0  0  0  0
  145.9839  142.1775  153.7334 H   0  0  0  0  0  0  0  0  0  0  0  0
  148.3176  141.3387  153.7604 H   0  0  0  0  0  0  0  0  0  0  0  0
  150.5010  144.8168  157.4963 H   0  0  0  0  0  0  0  0  0  0  0  0
  150.7933  146.2875  159.5061 H   0  0  0  0  0  0  0  0  0  0  0  0
  152.0326  145.4670  161.4994 H   0  0  0  0  0  0  0  0  0  0  0  0
  153.0048  143.1543  161.5290 H   0  0  0  0  0  0  0  0  0  0  0  0
  1  2  1  0  0  0  0
  1 22  1  0  0  0  0
  1 23  1  0  0  0  0
  1 24  1  0  0  0  0
  2 21  1  0  0  0  0
  2  3  1  0  0  0  0
  3  4  2  0  0  0  0
  3  5  1  0  0  0  0
  5  6  1  0  0  0  0
  5 16  1  0  0  0  0
  6  7  1  0  0  0  0
  6 25  1  0  0  0  0
  6 26  1  0  0  0  0
  7  8  1  0  0  0  0
  7  9  1  0  0  0  0
  7 27  1  0  0  0  0
  8 28  1  0  0  0  0
  9 15  1  0  0  0  0
  9 10  2  0  0  0  0
 10 11  1  0  0  0  0
 10 29  1  0  0  0  0
 11 12  2  0  0  0  0
 11 30  1  0  0  0  0
 12 13  1  0  0  0  0
 12 14  1  0  0  0  0
 14 15  2  0  0  0  0
 14 31  1  0  0  0  0
 15 32  1  0  0  0  0
 16 21  2  0  0  0  0
 16 17  1  0  0  0  0
 17 18  2  0  0  0  0
 17 33  1  0  0  0  0
 18 19  1  0  0  0  0
 18 34  1  0  0  0  0
 19 20  2  0  0  0  0
 19 35  1  0  0  0  0
 20 21  1  0  0  0  0
 20 36  1  0  0  0  0
M  END
> <s_m_source_file>
AV-unprocessed.smi

> <i_m_source_file_index>
420

> <i_lp_mmshare_version>
43012

> <i_f3d_flags>
0

> <s_epik_input>
W2NIXTFbY0hdW2NIXVtjSF1jKGMxMiluKFtDSDNdKWMoPU8pbjJbQ0gyXVtDQEhdKFtPSF0pYzNbY0hdW2NIXWMoRilbY0hdW2NIXTM=

> <s_epik_cmdline>
J2VwaWtfcHl0aG9uJywgJy1waCcsICc3LjAnLCAnLXRuJywgJzgnLCAnLW1hJywgJzIwMCcsICctbWV0YWxfYmluZGluZycsICctaW1hZScsICc8aW5maWxlLm1hZT4nLCAnLW9tYWUnLCAnPG91dGZpbGUubWFlPic=

> <r_lp_tautomer_probability>
1

> <r_epik_Ionization_Penalty>
1.79795e-06

> <r_epik_Ionization_Penalty_Charging>
2.57375e-09

> <r_epik_Ionization_Penalty_Neutral>
1.79538e-06

> <r_epik_State_Penalty>
-0

> <r_epik_Charging_Adjusted_Penalty>
2.57375e-09

> <i_epik_Tot_Q>
0

> <i_epik_Tot_abs_Q>
0

> <r_epik_Metal_State_Penalty>
-0

> <b_epik_Metal_Only>
0

> <s_lp_Force_Field>
OPLS_2005

> <r_lp_Energy>
42.8676

> <b_lp_Chiralities_Consistent>
1

> <s_lp_Variant>
AV-unprocessed.smi:420-1

> <Gold.Version>
5.8.1

> <Gold.Id.Protein>
6NUR|6NUR_protein|mol2

> <Gold.PLP.Fitness>
50.1197

> <Gold.PLP.PLP>
-46.4411

> <Gold.PLP.part.hbond>
-2.0000

> <Gold.PLP.part.metal>
0.0000

> <Gold.PLP.part.buried>
-7.2488

> <Gold.PLP.part.nonpolar>
-36.7414

> <Gold.PLP.part.repulsive>
0.0000

> <Gold.PLP.ligand.clash>
0.0000

> <Gold.PLP.ligand.torsion>
1.1025

> <Gold.PLP.Chemscore.Hbond>
1.9588

> <Gold.PLP.Chemscore.CHOScore>
0.0000

> <Gold.PLP.Chemscore.Metal>
0.0000

> <Gold.Chemscore.Hbonds>
donor molecule, donor type, donor heavy atom, donor atom, acceptor molecule, acceptor atom, score
      P1  H  7989  7998       L1     8  1.00
      P1  H  7997  8008       L1     4  0.89

> <Gold.PLP.Chemscore.Internal.Correction>
0.0074

> <Gold.Rescore>
     Score         DG    S(hbond)    S(metal)    S(lipo)     H(rot)  DE(clash)    DE(int)     intcor
     16.38     -17.36       0.90        0.00     116.31       1.85       0.13       0.85       ----

> <Gold.Chemscore.Fitness>
16.3829

> <Gold.Chemscore.DG>
-17.3625

> <Gold.Chemscore.ZeroCoef>
-5.4800

> <Gold.Chemscore.Hbond>
0.8986

> <Gold.Chemscore.Metal>
0.0000

> <Gold.Chemscore.Lipo>
116.3101

> <Gold.Chemscore.Internal_Hbond>
0.0000

> <Gold.Chemscore.DEClash>
0.1332

> <Gold.Chemscore.DEInternal>
0.8464

> <Gold.Chemscore.Rot>
1.8465

> <Gold.Chemscore.Internal.Correction>
   9.000000E+99

> <Gold.Chemscore.Hbonds>
donor molecule, donor type, donor heavy atom, donor atom, acceptor molecule, acceptor atom, score
      P1  H  7989  7998       L1     8  0.29
      P1  H  7997  8008       L1     4  0.42

> <Gold.Chemscore.Hbond.Weighted>
-3.0012

> <Gold.Chemscore.Metal.Weighted>
-0.0000

> <Gold.Chemscore.Lipo.Weighted>
-13.6083

> <Gold.Chemscore.Internal_Hbond.Weighted>
0.0000

> <Gold.Chemscore.DEClash.Weighted>
0.1332

> <Gold.Chemscore.DEInternal.Weighted>
0.8464

> <Gold.Chemscore.Rot.Weighted>
4.7270

> <Gold.Chemscore.Internal.Correction.Weighted>
   9.000000E+99

> <Gold.Protein.RotatedTorsions>
[ 6907 6896 6895 6894 ] final   -6.93 input  -60.11 | X-H torsion
[ 7974 7965 7964 7962 ] final   64.31 input  175.53 | X-H torsion
[ 8008 7997 7996 7995 ] final  -62.97 input   59.86 | X-H torsion
[ 10167 10162 10161 10158 ] final  125.62 input  -65.29 | X-H torsion
[ 10718 10713 10712 10709 ] final  -28.87 input   66.30 | X-H torsion
[ 10763 10752 10751 10750 ] final  -89.93 input  -60.55 | X-H torsion
[ 11005 11000 10999 10996 ] final   80.46 input  -57.11 | X-H torsion

> <Gold.Protein.ActiveResidues>
 VAL166  LYS551  ARG553  GLY616  TRP617  ASP618  TYR619  PRO620  LYS621  CYS622 
 ASP623  PHE694  ASN695  SER759  ASP760  ASP761  ALA762  ILE779  LEU786  VAL792 
 PHE793  MET794  SER795  GLU796  ALA797  LYS798  CYS799  TRP800  GLU811  SER814 

> <Gold.Protein.RotatedAtoms>
  151.4577  135.1035  159.9715 H   0  0  0  0  0  0  0  0  0  0  0  0  # atno 6907 bound_to 6896
  152.4864  133.8381  159.7149 H   0  0  0  0  0  0  0  0  0  0  0  0  # atno 6908 bound_to 6896
  150.8978  133.7098  159.2914 H   0  0  0  0  0  0  0  0  0  0  0  0  # atno 6909 bound_to 6896
  145.8517  139.3258  143.0871 H   0  0  0  0  0  0  0  0  0  0  0  0  # atno 7974 bound_to 7965
  154.4528  140.0985  156.6670 H   0  0  0  0  0  0  0  0  0  0  0  0  # atno 8008 bound_to 7997
  155.5230  140.3479  155.4392 H   0  0  0  0  0  0  0  0  0  0  0  0  # atno 8009 bound_to 7997
  156.0717  140.1351  156.9809 H   0  0  0  0  0  0  0  0  0  0  0  0  # atno 8010 bound_to 7997
  139.5676  144.6920  151.3868 H   0  0  0  0  0  0  0  0  0  0  0  0  # atno 10167 bound_to 10162
  156.4196  130.4424  149.7193 H   0  0  0  0  0  0  0  0  0  0  0  0  # atno 10718 bound_to 10713
  154.6604  135.5323  153.8011 H   0  0  0  0  0  0  0  0  0  0  0  0  # atno 10763 bound_to 10752
  153.0439  135.6504  154.0880 H   0  0  0  0  0  0  0  0  0  0  0  0  # atno 10764 bound_to 10752
  154.0789  135.2948  155.3274 H   0  0  0  0  0  0  0  0  0  0  0  0  # atno 10765 bound_to 10752
  139.9133  134.7922  156.1913 H   0  0  0  0  0  0  0  0  0  0  0  0  # atno 11005 bound_to 11000
  145.9350  140.9021  143.0337 LP  0  0  0  0  0  0  0  0  0  0  0  0  # atno 17320 bound_to 7965
  144.6729  140.1470  143.7433 LP  0  0  0  0  0  0  0  0  0  0  0  0  # atno 17321 bound_to 7965
  140.6960  143.7749  150.7327 LP  0  0  0  0  0  0  0  0  0  0  0  0  # atno 17342 bound_to 10162
  140.1245  143.4582  152.2292 LP  0  0  0  0  0  0  0  0  0  0  0  0  # atno 17343 bound_to 10162
  156.4139  130.7735  151.2750 LP  0  0  0  0  0  0  0  0  0  0  0  0  # atno 17370 bound_to 10713
  157.7508  131.0203  150.3703 LP  0  0  0  0  0  0  0  0  0  0  0  0  # atno 17371 bound_to 10713
  141.0582  133.6854  156.1901 LP  0  0  0  0  0  0  0  0  0  0  0  0  # atno 17394 bound_to 11000
  140.6703  134.4875  157.5587 LP  0  0  0  0  0  0  0  0  0  0  0  0  # atno 17395 bound_to 11000

$$$$
