AV-unprocessed.smi:1014|AV-procd|sdf|4431|dock9
  -GOLD-   22720 2393D 1   1.00000     0.00000
 Structure written by MMmdl.
 34 34  0  0  0  0  0  0  0  0  2 V2000
  148.2933  141.3922  153.8844 C   0  0  0  0  0  0  0  0  0  0  0  0
  147.9543  140.1411  154.7102 C   0  0  0  0  0  0  0  0  0  0  0  0
  148.5536  138.8252  154.1667 C   0  0  1  0  0  0  0  0  0  0  0  0
  148.0817  138.6135  152.7784 N   0  3  0  0  0  0  0  0  0  0  0  0
  146.6261  138.7739  152.5734 C   0  0  0  0  0  0  0  0  0  0  0  0
  146.1881  138.1394  151.2453 C   0  0  0  0  0  0  0  0  0  0  0  0
  145.4464  136.9100  151.4494 N   0  0  0  0  0  0  0  0  0  0  0  0
  145.5943  135.6998  150.8054 C   0  0  0  0  0  0  0  0  0  0  0  0
  144.6854  134.8338  151.3441 C   0  0  0  0  0  0  0  0  0  0  0  0
  144.4400  133.3944  150.9939 C   0  0  0  0  0  0  0  0  0  0  0  0
  144.0216  135.6203  152.3282 C   0  0  0  0  0  0  0  0  0  0  0  0
  144.4801  136.8598  152.3905 N   0  0  0  0  0  0  0  0  0  0  0  0
  150.0901  138.8414  154.2293 C   0  0  0  0  0  0  0  0  0  0  0  0
  150.7334  137.7668  153.7657 N   0  0  0  0  0  0  0  0  0  0  0  0
  150.6870  139.8086  154.6987 O   0  0  0  0  0  0  0  0  0  0  0  0
  147.9018  142.2881  154.3666 H   0  0  0  0  0  0  0  0  0  0  0  0
  147.8607  141.3478  152.8848 H   0  0  0  0  0  0  0  0  0  0  0  0
  149.3714  141.5173  153.7806 H   0  0  0  0  0  0  0  0  0  0  0  0
  148.3201  140.3010  155.7254 H   0  0  0  0  0  0  0  0  0  0  0  0
  146.8702  140.0508  154.7961 H   0  0  0  0  0  0  0  0  0  0  0  0
  148.1772  138.0022  154.7771 H   0  0  0  0  0  0  0  0  0  0  0  0
  148.5481  139.2855  152.1865 H   0  0  0  0  0  0  0  0  0  0  0  0
  146.0886  138.3112  153.4020 H   0  0  0  0  0  0  0  0  0  0  0  0
  146.3750  139.8354  152.5781 H   0  0  0  0  0  0  0  0  0  0  0  0
  145.5620  138.8329  150.6822 H   0  0  0  0  0  0  0  0  0  0  0  0
  147.0559  137.9172  150.6223 H   0  0  0  0  0  0  0  0  0  0  0  0
  146.3272  135.5547  150.0253 H   0  0  0  0  0  0  0  0  0  0  0  0
  143.5626  132.9966  151.5042 H   0  0  0  0  0  0  0  0  0  0  0  0
  145.2853  132.7640  151.2707 H   0  0  0  0  0  0  0  0  0  0  0  0
  144.2761  133.2624  149.9243 H   0  0  0  0  0  0  0  0  0  0  0  0
  143.2254  135.3278  152.9969 H   0  0  0  0  0  0  0  0  0  0  0  0
  151.7426  137.7326  153.7782 H   0  0  0  0  0  0  0  0  0  0  0  0
  150.2053  136.9896  153.3947 H   0  0  0  0  0  0  0  0  0  0  0  0
  148.3548  137.6848  152.4892 H   0  0  0  0  0  0  0  0  0  0  0  0
  1  2  1  0  0  0  0
  1 16  1  0  0  0  0
  1 17  1  0  0  0  0
  1 18  1  0  0  0  0
  2  3  1  0  0  0  0
  2 19  1  0  0  0  0
  2 20  1  0  0  0  0
  3  4  1  0  0  0  0
  3 13  1  0  0  0  0
  3 21  1  0  0  0  0
  4  5  1  0  0  0  0
  4 22  1  0  0  0  0
  4 34  1  0  0  0  0
  5  6  1  0  0  0  0
  5 23  1  0  0  0  0
  5 24  1  0  0  0  0
  6  7  1  0  0  0  0
  6 25  1  0  0  0  0
  6 26  1  0  0  0  0
  7 12  1  0  0  0  0
  7  8  1  0  0  0  0
  8  9  2  0  0  0  0
  8 27  1  0  0  0  0
  9 10  1  0  0  0  0
  9 11  1  0  0  0  0
 10 28  1  0  0  0  0
 10 29  1  0  0  0  0
 10 30  1  0  0  0  0
 11 12  2  0  0  0  0
 11 31  1  0  0  0  0
 13 14  1  0  0  0  0
 13 15  2  0  0  0  0
 14 32  1  0  0  0  0
 14 33  1  0  0  0  0
M  CHG  1   4   1
M  END
> <s_m_source_file>
AV-unprocessed.smi

> <i_m_source_file_index>
1014

> <i_lp_mmshare_version>
43012

> <i_f3d_flags>
0

> <s_epik_input>
W0NIM11bQ0gyXVtDQEBIXShDKD1PKVtOSDJdKVtOSF1bQ0gyXVtDSDJdbjFbY0hdYyhbQ0gzXSlbY0hdbjE=

> <s_epik_cmdline>
J2VwaWtfcHl0aG9uJywgJy1waCcsICc3LjAnLCAnLXRuJywgJzgnLCAnLW1hJywgJzIwMCcsICctbWV0YWxfYmluZGluZycsICctaW1hZScsICc8aW5maWxlLm1hZT4nLCAnLW9tYWUnLCAnPG91dGZpbGUubWFlPic=

> <r_lp_tautomer_probability>
1

> <r_epik_Ionization_Penalty>
0.19042

> <r_epik_Ionization_Penalty_Charging>
0.190412

> <r_epik_Ionization_Penalty_Neutral>
7.5834e-06

> <r_epik_State_Penalty>
0.180404

> <r_epik_Charging_Adjusted_Penalty>
0.370816

> <i_epik_Tot_Q>
1

> <i_epik_Tot_abs_Q>
1

> <r_epik_Metal_State_Penalty>
0.180563

> <b_epik_Metal_Only>
0

> <s_lp_Force_Field>
OPLS_2005

> <r_lp_Energy>
2.60817

> <b_lp_Chiralities_Consistent>
1

> <s_lp_Variant>
AV-unprocessed.smi:1014-2

> <Gold.Version>
5.8.1

> <Gold.Id.Protein>
6NUR|6NUR_protein|mol2

> <Gold.PLP.Fitness>
45.5849

> <Gold.PLP.PLP>
-29.8470

> <Gold.PLP.part.hbond>
-5.0000

> <Gold.PLP.part.metal>
0.0000

> <Gold.PLP.part.buried>
0.2318

> <Gold.PLP.part.nonpolar>
-26.6487

> <Gold.PLP.part.repulsive>
0.4247

> <Gold.PLP.ligand.clash>
0.0000

> <Gold.PLP.ligand.torsion>
0.6512

> <Gold.PLP.Chemscore.Hbond>
4.6552

> <Gold.PLP.Chemscore.CHOScore>
1.0000

> <Gold.PLP.Chemscore.Metal>
0.0000

> <Gold.Chemscore.Hbonds>
donor molecule, donor type, donor heavy atom, donor atom, acceptor molecule, acceptor atom, score
      L1  H     4    22       P1  7957  1.00
      L1  H     4    34       P1  7948  2.00
      L1  H    14    33       P1  7948  0.66
      P1  H  7989  7998       L1    15  1.00
      L1  C     8    27       P1  7921  1.00

> <Gold.PLP.Chemscore.Internal.Correction>
0.0746

> <Gold.Rescore>
     Score         DG    S(hbond)    S(metal)    S(lipo)     H(rot)  DE(clash)    DE(int)     intcor
     14.09     -15.93       3.15        0.00      56.12       2.59       1.23       0.61       ----

> <Gold.Chemscore.Fitness>
14.0934

> <Gold.Chemscore.DG>
-15.9302

> <Gold.Chemscore.ZeroCoef>
-5.4800

> <Gold.Chemscore.Hbond>
3.1464

> <Gold.Chemscore.Metal>
0.0000

> <Gold.Chemscore.Lipo>
56.1201

> <Gold.Chemscore.Internal_Hbond>
0.0000

> <Gold.Chemscore.DEClash>
1.2294

> <Gold.Chemscore.DEInternal>
0.6074

> <Gold.Chemscore.Rot>
2.5878

> <Gold.Chemscore.Internal.Correction>
   9.000000E+99

> <Gold.Chemscore.Hbonds>
donor molecule, donor type, donor heavy atom, donor atom, acceptor molecule, acceptor atom, score
      L1  H     4    22       P1  7957  1.00
      L1  H     4    34       P1  7948  1.00
      L1  H    14    33       P1  7948  0.08
      P1  H  7989  7998       L1    15  0.93

> <Gold.Chemscore.Hbond.Weighted>
-10.5089

> <Gold.Chemscore.Metal.Weighted>
-0.0000

> <Gold.Chemscore.Lipo.Weighted>
-6.5660

> <Gold.Chemscore.Internal_Hbond.Weighted>
0.0000

> <Gold.Chemscore.DEClash.Weighted>
1.2294

> <Gold.Chemscore.DEInternal.Weighted>
0.6074

> <Gold.Chemscore.Rot.Weighted>
6.6247

> <Gold.Chemscore.Internal.Correction.Weighted>
   9.000000E+99

> <Gold.Protein.RotatedTorsions>
[ 6907 6896 6895 6894 ] final -173.06 input  -60.11 | X-H torsion
[ 7974 7965 7964 7962 ] final  138.79 input  175.53 | X-H torsion
[ 8008 7997 7996 7995 ] final  -30.12 input   59.86 | X-H torsion
[ 10167 10162 10161 10158 ] final   28.34 input  -65.29 | X-H torsion
[ 10718 10713 10712 10709 ] final  178.85 input   66.30 | X-H torsion
[ 10763 10752 10751 10750 ] final  -35.53 input  -60.55 | X-H torsion
[ 11005 11000 10999 10996 ] final  171.16 input  -57.11 | X-H torsion

> <Gold.Protein.ActiveResidues>
 VAL166  LYS551  ARG553  GLY616  TRP617  ASP618  TYR619  PRO620  LYS621  CYS622 
 ASP623  PHE694  ASN695  SER759  ASP760  ASP761  ALA762  ILE779  LEU786  VAL792 
 PHE793  MET794  SER795  GLU796  ALA797  LYS798  CYS799  TRP800  GLU811  SER814 

> <Gold.Protein.RotatedAtoms>
  151.5501  133.3419  159.2951 H   0  0  0  0  0  0  0  0  0  0  0  0  # atno 6907 bound_to 6896
  150.8484  134.7803  159.7000 H   0  0  0  0  0  0  0  0  0  0  0  0  # atno 6908 bound_to 6896
  152.4536  134.5348  159.9873 H   0  0  0  0  0  0  0  0  0  0  0  0  # atno 6909 bound_to 6896
  144.9339  139.5013  143.5604 H   0  0  0  0  0  0  0  0  0  0  0  0  # atno 7974 bound_to 7965
  154.4263  140.1800  156.1356 H   0  0  0  0  0  0  0  0  0  0  0  0  # atno 8008 bound_to 7997
  156.0033  140.3358  155.6842 H   0  0  0  0  0  0  0  0  0  0  0  0  # atno 8009 bound_to 7997
  155.6213  140.0660  157.2668 H   0  0  0  0  0  0  0  0  0  0  0  0  # atno 8010 bound_to 7997
  140.4861  144.0540  150.6281 H   0  0  0  0  0  0  0  0  0  0  0  0  # atno 10167 bound_to 10162
  156.8845  130.9827  151.3057 H   0  0  0  0  0  0  0  0  0  0  0  0  # atno 10718 bound_to 10713
  153.8648  135.6836  153.4779 H   0  0  0  0  0  0  0  0  0  0  0  0  # atno 10763 bound_to 10752
  153.1321  135.4693  154.9363 H   0  0  0  0  0  0  0  0  0  0  0  0  # atno 10764 bound_to 10752
  154.7742  135.3248  154.8077 H   0  0  0  0  0  0  0  0  0  0  0  0  # atno 10765 bound_to 10752
  140.3161  134.7477  157.4028 H   0  0  0  0  0  0  0  0  0  0  0  0  # atno 11005 bound_to 11000
  146.3258  139.8309  142.8908 LP  0  0  0  0  0  0  0  0  0  0  0  0  # atno 17320 bound_to 7965
  145.3098  141.0217  143.3561 LP  0  0  0  0  0  0  0  0  0  0  0  0  # atno 17321 bound_to 7965
  140.3796  143.2810  152.0185 LP  0  0  0  0  0  0  0  0  0  0  0  0  # atno 17342 bound_to 10162
  139.4842  144.6165  151.7336 LP  0  0  0  0  0  0  0  0  0  0  0  0  # atno 17343 bound_to 10162
  157.6121  130.8590  149.8968 LP  0  0  0  0  0  0  0  0  0  0  0  0  # atno 17370 bound_to 10713
  156.0660  130.3692  150.0877 LP  0  0  0  0  0  0  0  0  0  0  0  0  # atno 17371 bound_to 10713
  140.0983  134.5508  155.8377 LP  0  0  0  0  0  0  0  0  0  0  0  0  # atno 17394 bound_to 11000
  141.2097  133.6687  156.6460 LP  0  0  0  0  0  0  0  0  0  0  0  0  # atno 17395 bound_to 11000

$$$$
