#       Name:                AV-unprocessed.smi:112
#       Creating user name   scv26
#       Creation time:       Thu Mar 26 18:18:34 2020


#       File generated by GOLD software.
#

@<TRIPOS>MOLECULE
AV-unprocessed.smi:112
    68    71     1
SMALL
NO_CHARGES


@<TRIPOS>ATOM
      1 ****        -1.3073   4.3672  -0.5091 C.3            1 S1                 0.0000
      2 ****        -0.5485   3.0666  -0.7193 C.2            1 S1                 0.0000
      3 ****         0.8030   3.0147  -0.7217 C.2            1 S1                 0.0000
      4 ****         1.5224   1.8493  -0.9053 N.am           1 S1                 0.0000
      5 ****         3.0310   1.8759  -0.8970 C.3            1 S1                 0.0000
      6 ****         3.5759   2.0422   0.5143 C.3            1 S1                 0.0000
      7 ****         4.9080   2.7130   0.2384 C.3            1 S1                 0.0000
      8 ****         5.9221   1.7398   0.0763 O.3            1 S1                 0.0000
      9 ****         4.6856   3.4779  -1.0838 C.3            1 S1                 0.0000
     10 ****         4.5198   4.9917  -0.8700 C.3            1 S1                 0.0000
     11 ****         4.6615   5.6710  -2.0991 O.3            1 S1                 0.0000
     12 ****         3.4586   2.9820  -1.6226 O.3            1 S1                 0.0000
     13 ****         0.8433   0.6285  -1.0904 C.2            1 S1                 0.0000
     14 ****         1.4625  -0.4297  -1.2208 O.2            1 S1                 0.0000
     15 ****        -0.5700   0.6497  -1.1057 N.am           1 S1                 0.0000
     16 ****        -1.2964  -0.6283  -1.2849 C.3            1 S1                 0.0000
     17 ****        -1.6069  -1.3575   0.0411 C.2            1 S1                 0.0000
     18 ****        -1.2366  -0.8490   1.1000 O.2            1 S1                 0.0000
     19 ****        -2.2770  -2.5351  -0.0244 N.am           1 S1                 0.0000
     20 ****        -2.7104  -3.1544  -1.2889 C.3            1 S1                 0.0000
     21 ****        -3.4184  -4.4726  -0.9063 C.3            1 S1                 0.0000
     22 ****        -3.3295  -4.4833   0.5910 C.ar           1 S1                 0.0000
     23 ****        -3.8305  -5.4725   1.4543 C.ar           1 S1                 0.0000
     24 ****        -3.6553  -5.3143   2.8515 C.ar           1 S1                 0.0000
     25 ****        -4.1688  -6.3326   3.7891 N.pl3          1 S1                 1.0000
     26 ****        -3.9934  -6.1582   4.9907 O.2            1 S1                 0.0000
     27 ****        -4.7488  -7.3090   3.3254 O.2            1 S1                -1.0000
     28 ****        -2.9799  -4.1628   3.3364 C.ar           1 S1                 0.0000
     29 ****        -2.4827  -3.1785   2.4544 C.ar           1 S1                 0.0000
     30 ****        -2.6681  -3.3568   1.0662 C.ar           1 S1                 0.0000
     31 ****        -1.3203   1.8375  -0.9192 C.2            1 S1                 0.0000
     32 ****        -2.5526   1.8082  -0.9194 O.2            1 S1                 0.0000
     33 ****        -0.6325   5.2143  -0.3818 H              1 S1                 0.0000
     34 ****        -1.9340   4.3035   0.3812 H              1 S1                 0.0000
     35 ****        -1.9483   4.5779  -1.3658 H              1 S1                 0.0000
     36 ****         1.3508   3.9331  -0.5651 H              1 S1                 0.0000
     37 ****         3.3982   0.9786  -1.3965 H              1 S1                 0.0000
     38 ****         2.9301   2.7143   1.0808 H              1 S1                 0.0000
     39 ****         3.6411   1.0863   1.0357 H              1 S1                 0.0000
     40 ****         5.1997   3.3674   1.0607 H              1 S1                 0.0000
     41 ****         5.6876   1.1748  -0.6441 H              1 S1                 0.0000
     42 ****         5.5048   3.2858  -1.7797 H              1 S1                 0.0000
     43 ****         3.5582   5.2281  -0.4134 H              1 S1                 0.0000
     44 ****         5.2963   5.3677  -0.2033 H              1 S1                 0.0000
     45 ****         3.9902   5.3628  -2.6889 H              1 S1                 0.0000
     46 ****        -2.2294  -0.4606  -1.8247 H              1 S1                 0.0000
     47 ****        -0.7304  -1.2984  -1.9335 H              1 S1                 0.0000
     48 ****        -3.3969  -2.4979  -1.8252 H              1 S1                 0.0000
     49 ****        -1.8551  -3.3581  -1.9346 H              1 S1                 0.0000
     50 ****        -4.4603  -4.4829  -1.2277 H              1 S1                 0.0000
     51 ****        -2.9107  -5.3422  -1.3244 H              1 S1                 0.0000
     52 ****        -4.3388  -6.3331   1.0448 H              1 S1                 0.0000
     53 ****        -2.8357  -4.0214   4.3974 H              1 S1                 0.0000
     54 ****        -1.9773  -2.3188   2.8647 H              1 S1                 0.0000
     55 ****         6.0071   1.1997   0.9137 LP             1 S1                 0.0000
     56 ****         6.7930   2.1906  -0.1193 LP             1 S1                 0.0000
     57 ****         5.5640   5.4833  -2.4867 LP             1 S1                 0.0000
     58 ****         4.5588   6.6552  -1.9549 LP             1 S1                 0.0000
     59 ****         2.7626   3.6984  -1.5744 LP             1 S1                 0.0000
     60 ****         3.5992   2.7175  -2.5767 LP             1 S1                 0.0000
     61 ****         2.4622  -0.4304  -1.1960 LP             1 S1                 0.0000
     62 ****         0.9650  -1.2873  -1.3513 LP             1 S1                 0.0000
     63 ****        -0.7440   0.0212   1.0915 LP             1 S1                 0.0000
     64 ****        -1.4285  -1.3064   1.9684 LP             1 S1                 0.0000
     65 ****        -3.5131  -5.3424   5.3127 LP             1 S1                 0.0000
     66 ****        -4.3307  -6.8319   5.6482 LP             1 S1                 0.0000
     67 ****        -3.0728   2.6505  -0.7784 LP             1 S1                 0.0000
     68 ****        -3.0321   0.9421  -1.0605 LP             1 S1                 0.0000
@<TRIPOS>BOND
    1    1    2 1     
    2    1   33 1     
    3    1   34 1     
    4    1   35 1     
    5    2   31 1     
    6    2    3 2     
    7    3    4 1     
    8    3   36 1     
    9    4    5 1     
   10    4   13 am    
   11    5   12 1     
   12    5    6 1     
   13    5   37 1     
   14    6    7 1     
   15    6   38 1     
   16    6   39 1     
   17    7    8 1     
   18    7    9 1     
   19    7   40 1     
   20    8   41 1     
   21    9   10 1     
   22    9   12 1     
   23    9   42 1     
   24   10   11 1     
   25   10   43 1     
   26   10   44 1     
   27   11   45 1     
   28   13   14 2     
   29   13   15 am    
   30   15   16 1     
   31   15   31 am    
   32   16   17 1     
   33   16   46 1     
   34   16   47 1     
   35   17   18 2     
   36   17   19 am    
   37   19   30 1     
   38   19   20 1     
   39   20   21 1     
   40   20   48 1     
   41   20   49 1     
   42   21   22 1     
   43   21   50 1     
   44   21   51 1     
   45   22   30 ar    
   46   22   23 ar    
   47   23   24 ar    
   48   23   52 1     
   49   24   25 1     
   50   24   28 ar    
   51   25   26 2     
   52   25   27 1     
   53   28   29 ar    
   54   28   53 1     
   55   29   30 ar    
   56   29   54 1     
   57   31   32 2     
   58    8   55 1     
   59    8   56 1     
   60   11   57 1     
   61   11   58 1     
   62   12   59 1     
   63   12   60 1     
   64   14   61 1     
   65   14   62 1     
   66   18   63 1     
   67   18   64 1     
   68   26   65 1     
   69   26   66 1     
   70   32   67 1     
   71   32   68 1     
@<TRIPOS>SUBSTRUCTURE
      1 S1             1
@<TRIPOS>SET
LONE_PAIRS      STATIC     ATOMS    <user>   **** ""
15 55 56 57 58 59 60 61 62 63 64 65 66 27 67 68
DONOR_HYDROGENS      STATIC     ATOMS    <user>   **** ""
2 41 45
ATOM$BLUE        STATIC     ATOMS    COLORGROUP SYSTEM
15 55 56 57 58 59 60 61 62 63 64 65 66 27 67 68
ATOM$RED        STATIC     ATOMS    COLORGROUP SYSTEM
2 41 45
