AV-unprocessed.smi:3335|AV-procd|sdf|12837|dock7
  -GOLD-   2272019223D 1   1.00000     0.00000
 Structure written by MMmdl.
 47 48  0  0  0  0  0  0  0  0  2 V2000
  146.0925  132.7339  150.2661 C   0  0  0  0  0  0  0  0  0  0  0  0
  145.6735  134.0160  150.9256 C   0  0  0  0  0  0  0  0  0  0  0  0
  144.4668  134.7455  150.7319 C   0  0  0  0  0  0  0  0  0  0  0  0
  144.4121  135.8482  151.4602 N   0  0  0  0  0  0  0  0  0  0  0  0
  145.5702  135.8557  152.1589 N   0  0  0  0  0  0  0  0  0  0  0  0
  145.8982  136.9651  153.0485 C   0  0  2  0  0  0  0  0  0  0  0  0
  144.7501  137.2782  154.0318 C   0  0  0  0  0  0  0  0  0  0  0  0
  146.3968  138.1891  152.2399 C   0  0  2  0  0  0  0  0  0  0  0  0
  146.2363  138.0011  150.7207 C   0  0  0  0  0  0  0  0  0  0  0  0
  147.8000  138.5247  152.5892 N   0  3  0  0  0  0  0  0  0  0  0  0
  147.9893  139.3355  153.8151 C   0  0  2  0  0  0  0  0  0  0  0  0
  147.5715  140.7879  153.5382 C   0  0  0  0  0  0  0  0  0  0  0  0
  149.4554  139.2961  154.2929 C   0  0  0  0  0  0  0  0  0  0  0  0
  150.1515  140.3032  154.1560 O   0  0  0  0  0  0  0  0  0  0  0  0
  149.9379  138.1695  154.8593 N   0  0  0  0  0  0  0  0  0  0  0  0
  151.2952  137.9658  155.3652 C   0  0  0  0  0  0  0  0  0  0  0  0
  151.4001  136.4752  155.6873 C   0  0  0  0  0  0  0  0  0  0  0  0
  149.9633  136.0499  155.9533 C   0  0  0  0  0  0  0  0  0  0  0  0
  149.1324  136.9651  155.0546 C   0  0  0  0  0  0  0  0  0  0  0  0
  146.3539  134.7654  151.8426 C   0  0  0  0  0  0  0  0  0  0  0  0
  145.2555  132.2391  149.7732 H   0  0  0  0  0  0  0  0  0  0  0  0
  146.5044  132.0265  150.9858 H   0  0  0  0  0  0  0  0  0  0  0  0
  146.8568  132.9044  149.5077 H   0  0  0  0  0  0  0  0  0  0  0  0
  143.6376  134.5120  150.0803 H   0  0  0  0  0  0  0  0  0  0  0  0
  146.7361  136.6197  153.6561 H   0  0  0  0  0  0  0  0  0  0  0  0
  145.0573  138.0018  154.7864 H   0  0  0  0  0  0  0  0  0  0  0  0
  144.4391  136.3776  154.5624 H   0  0  0  0  0  0  0  0  0  0  0  0
  143.8729  137.6810  153.5246 H   0  0  0  0  0  0  0  0  0  0  0  0
  145.7613  139.0280  152.5279 H   0  0  0  0  0  0  0  0  0  0  0  0
  145.2165  137.7093  150.4683 H   0  0  0  0  0  0  0  0  0  0  0  0
  146.9072  137.2336  150.3350 H   0  0  0  0  0  0  0  0  0  0  0  0
  146.4490  138.9225  150.1790 H   0  0  0  0  0  0  0  0  0  0  0  0
  148.3025  137.6581  152.7267 H   0  0  0  0  0  0  0  0  0  0  0  0
  147.3239  138.9349  154.5782 H   0  0  0  0  0  0  0  0  0  0  0  0
  147.6782  141.4108  154.4271 H   0  0  0  0  0  0  0  0  0  0  0  0
  146.5277  140.8415  153.2279 H   0  0  0  0  0  0  0  0  0  0  0  0
  148.1746  141.2350  152.7466 H   0  0  0  0  0  0  0  0  0  0  0  0
  152.0577  138.2632  154.6443 H   0  0  0  0  0  0  0  0  0  0  0  0
  151.4297  138.5580  156.2716 H   0  0  0  0  0  0  0  0  0  0  0  0
  151.7837  135.9384  154.8186 H   0  0  0  0  0  0  0  0  0  0  0  0
  152.0648  136.2696  156.5268 H   0  0  0  0  0  0  0  0  0  0  0  0
  149.7905  134.9918  155.7545 H   0  0  0  0  0  0  0  0  0  0  0  0
  149.7141  136.2391  156.9983 H   0  0  0  0  0  0  0  0  0  0  0  0
  148.1624  137.1855  155.5032 H   0  0  0  0  0  0  0  0  0  0  0  0
  148.9587  136.4943  154.0857 H   0  0  0  0  0  0  0  0  0  0  0  0
  147.3258  134.6154  152.2895 H   0  0  0  0  0  0  0  0  0  0  0  0
  148.2105  139.0088  151.8040 H   0  0  0  0  0  0  0  0  0  0  0  0
  1  2  1  0  0  0  0
  1 21  1  0  0  0  0
  1 22  1  0  0  0  0
  1 23  1  0  0  0  0
  2 20  2  0  0  0  0
  2  3  1  0  0  0  0
  3  4  2  0  0  0  0
  3 24  1  0  0  0  0
  4  5  1  0  0  0  0
  5  6  1  0  0  0  0
  5 20  1  0  0  0  0
  6  7  1  0  0  0  0
  6  8  1  0  0  0  0
  6 25  1  0  0  0  0
  7 26  1  0  0  0  0
  7 27  1  0  0  0  0
  7 28  1  0  0  0  0
  8  9  1  0  0  0  0
  8 10  1  0  0  0  0
  8 29  1  0  0  0  0
  9 30  1  0  0  0  0
  9 31  1  0  0  0  0
  9 32  1  0  0  0  0
 10 11  1  0  0  0  0
 10 33  1  0  0  0  0
 10 47  1  0  0  0  0
 11 12  1  0  0  0  0
 11 13  1  0  0  0  0
 11 34  1  0  0  0  0
 12 35  1  0  0  0  0
 12 36  1  0  0  0  0
 12 37  1  0  0  0  0
 13 14  2  0  0  0  0
 13 15  1  0  0  0  0
 15 19  1  0  0  0  0
 15 16  1  0  0  0  0
 16 17  1  0  0  0  0
 16 38  1  0  0  0  0
 16 39  1  0  0  0  0
 17 18  1  0  0  0  0
 17 40  1  0  0  0  0
 17 41  1  0  0  0  0
 18 19  1  0  0  0  0
 18 42  1  0  0  0  0
 18 43  1  0  0  0  0
 19 44  1  0  0  0  0
 19 45  1  0  0  0  0
 20 46  1  0  0  0  0
M  CHG  1  10   1
M  END
> <s_m_source_file>
AV-unprocessed.smi

> <i_m_source_file_index>
3335

> <i_lp_mmshare_version>
43012

> <i_f3d_flags>
0

> <s_epik_input>
W0NIM11jMVtjSF1ubihbY0hdMSlbQ0BIXShbQ0gzXSlbQ0BIXShbQ0gzXSlbTkhdW0NASF0oW0NIM10pQyg9TylOMltDSDJdW0NIMl1bQ0gyXVtDSDJdMg==

> <s_epik_cmdline>
J2VwaWtfcHl0aG9uJywgJy1waCcsICc3LjAnLCAnLXRuJywgJzgnLCAnLW1hJywgJzIwMCcsICctbWV0YWxfYmluZGluZycsICctaW1hZScsICc8aW5maWxlLm1hZT4nLCAnLW9tYWUnLCAnPG91dGZpbGUubWFlPic=

> <r_lp_tautomer_probability>
1

> <r_epik_Ionization_Penalty>
0.14175

> <r_epik_Ionization_Penalty_Charging>
0.141731

> <r_epik_Ionization_Penalty_Neutral>
1.91261e-05

> <r_epik_State_Penalty>
0.131043

> <r_epik_Charging_Adjusted_Penalty>
0.272773

> <i_epik_Tot_Q>
1

> <i_epik_Tot_abs_Q>
1

> <r_epik_Metal_State_Penalty>
0.131408

> <b_epik_Metal_Only>
0

> <s_lp_Force_Field>
OPLS_2005

> <r_lp_Energy>
36.483

> <b_lp_Chiralities_Consistent>
1

> <s_lp_Variant>
AV-unprocessed.smi:3335-1

> <Gold.Version>
5.8.1

> <Gold.Id.Protein>
6NUR|6NUR_protein|mol2

> <Gold.PLP.Fitness>
41.6124

> <Gold.PLP.PLP>
-30.1182

> <Gold.PLP.part.hbond>
-3.0000

> <Gold.PLP.part.metal>
0.0000

> <Gold.PLP.part.buried>
4.2423

> <Gold.PLP.part.nonpolar>
-31.8428

> <Gold.PLP.part.repulsive>
1.3266

> <Gold.PLP.ligand.clash>
0.0000

> <Gold.PLP.ligand.torsion>
2.5484

> <Gold.PLP.Chemscore.Hbond>
3.6880

> <Gold.PLP.Chemscore.CHOScore>
1.7727

> <Gold.PLP.Chemscore.Metal>
0.0000

> <Gold.Chemscore.Hbonds>
donor molecule, donor type, donor heavy atom, donor atom, acceptor molecule, acceptor atom, score
      L1  H    10    33       P1  7948  1.70
      L1  H    10    47       P1  7957  0.99
      P1  H  7989  7998       L1    14  0.91
      L1  C     3    24       P1 10186  0.63
      L1  C    20    46       P1  7948  0.74

> <Gold.PLP.Chemscore.Internal.Correction>
0.2089

> <Gold.Rescore>
     Score         DG    S(hbond)    S(metal)    S(lipo)     H(rot)  DE(clash)    DE(int)     intcor
     13.83     -18.74       2.68        0.00      73.59       1.68       1.51       3.41       ----

> <Gold.Chemscore.Fitness>
13.8274

> <Gold.Chemscore.DG>
-18.7431

> <Gold.Chemscore.ZeroCoef>
-5.4800

> <Gold.Chemscore.Hbond>
2.6790

> <Gold.Chemscore.Metal>
0.0000

> <Gold.Chemscore.Lipo>
73.5945

> <Gold.Chemscore.Internal_Hbond>
0.0000

> <Gold.Chemscore.DEClash>
1.5094

> <Gold.Chemscore.DEInternal>
3.4063

> <Gold.Chemscore.Rot>
1.6778

> <Gold.Chemscore.Internal.Correction>
   9.000000E+99

> <Gold.Chemscore.Hbonds>
donor molecule, donor type, donor heavy atom, donor atom, acceptor molecule, acceptor atom, score
      L1  H    10    33       P1  7948  0.83
      L1  H    10    47       P1  7957  0.88
      P1  H  7989  7998       L1    14  0.88

> <Gold.Chemscore.Hbond.Weighted>
-8.9477

> <Gold.Chemscore.Metal.Weighted>
-0.0000

> <Gold.Chemscore.Lipo.Weighted>
-8.6106

> <Gold.Chemscore.Internal_Hbond.Weighted>
0.0000

> <Gold.Chemscore.DEClash.Weighted>
1.5094

> <Gold.Chemscore.DEInternal.Weighted>
3.4063

> <Gold.Chemscore.Rot.Weighted>
4.2952

> <Gold.Chemscore.Internal.Correction.Weighted>
   9.000000E+99

> <Gold.Protein.RotatedTorsions>
[ 6907 6896 6895 6894 ] final  140.81 input  -60.11 | X-H torsion
[ 7974 7965 7964 7962 ] final  161.23 input  175.53 | X-H torsion
[ 8008 7997 7996 7995 ] final -168.32 input   59.86 | X-H torsion
[ 10167 10162 10161 10158 ] final   40.12 input  -65.29 | X-H torsion
[ 10718 10713 10712 10709 ] final  -64.60 input   66.30 | X-H torsion
[ 10763 10752 10751 10750 ] final -136.92 input  -60.55 | X-H torsion
[ 11005 11000 10999 10996 ] final -114.32 input  -57.11 | X-H torsion

> <Gold.Protein.ActiveResidues>
 VAL166  LYS551  ARG553  GLY616  TRP617  ASP618  TYR619  PRO620  LYS621  CYS622 
 ASP623  PHE694  ASN695  SER759  ASP760  ASP761  ALA762  ILE779  LEU786  VAL792 
 PHE793  MET794  SER795  GLU796  ALA797  LYS798  CYS799  TRP800  GLU811  SER814 

> <Gold.Protein.RotatedAtoms>
  152.2385  133.5116  159.5256 H   0  0  0  0  0  0  0  0  0  0  0  0  # atno 6907 bound_to 6896
  150.7057  134.1121  159.4013 H   0  0  0  0  0  0  0  0  0  0  0  0  # atno 6908 bound_to 6896
  151.9042  135.0366  160.0559 H   0  0  0  0  0  0  0  0  0  0  0  0  # atno 6909 bound_to 6896
  144.7696  139.7869  143.6302 H   0  0  0  0  0  0  0  0  0  0  0  0  # atno 7974 bound_to 7965
  155.8898  140.1023  157.1426 H   0  0  0  0  0  0  0  0  0  0  0  0  # atno 8008 bound_to 7997
  154.4014  140.1313  156.4365 H   0  0  0  0  0  0  0  0  0  0  0  0  # atno 8009 bound_to 7997
  155.7547  140.3464  155.5170 H   0  0  0  0  0  0  0  0  0  0  0  0  # atno 8010 bound_to 7997
  140.3773  144.2026  150.6131 H   0  0  0  0  0  0  0  0  0  0  0  0  # atno 10167 bound_to 10162
  156.0719  130.4236  150.1444 H   0  0  0  0  0  0  0  0  0  0  0  0  # atno 10718 bound_to 10713
  154.8673  135.3658  154.5139 H   0  0  0  0  0  0  0  0  0  0  0  0  # atno 10763 bound_to 10752
  153.5773  135.7019  153.5483 H   0  0  0  0  0  0  0  0  0  0  0  0  # atno 10764 bound_to 10752
  153.3489  135.4077  155.1593 H   0  0  0  0  0  0  0  0  0  0  0  0  # atno 10765 bound_to 10752
  141.0559  133.9613  157.2754 H   0  0  0  0  0  0  0  0  0  0  0  0  # atno 11005 bound_to 11000
  146.1832  139.5035  142.9853 LP  0  0  0  0  0  0  0  0  0  0  0  0  # atno 17320 bound_to 7965
  145.6364  141.0293  143.1835 LP  0  0  0  0  0  0  0  0  0  0  0  0  # atno 17321 bound_to 7965
  140.4973  143.2328  151.8730 LP  0  0  0  0  0  0  0  0  0  0  0  0  # atno 17342 bound_to 10162
  139.4798  144.5099  151.8947 LP  0  0  0  0  0  0  0  0  0  0  0  0  # atno 17343 bound_to 10162
  156.9493  130.9769  151.3501 LP  0  0  0  0  0  0  0  0  0  0  0  0  # atno 17370 bound_to 10713
  157.5794  130.8366  149.8502 LP  0  0  0  0  0  0  0  0  0  0  0  0  # atno 17371 bound_to 10713
  139.9390  135.0193  156.8647 LP  0  0  0  0  0  0  0  0  0  0  0  0  # atno 17394 bound_to 11000
  140.5964  134.0213  155.7520 LP  0  0  0  0  0  0  0  0  0  0  0  0  # atno 17395 bound_to 11000

$$$$
