AV-unprocessed.smi:897|AV-procd|sdf|4080|dock8
  -GOLD-   22720 1563D 1   1.00000     0.00000
 Structure written by MMmdl.
 35 37  0  0  0  0  0  0  0  0  1 V2000
  152.1207  144.7171  158.7431 C   0  0  0  0  0  0  0  0  0  0  0  0
  152.4169  143.2621  159.0400 C   0  0  0  0  0  0  0  0  0  0  0  0
  153.2379  142.8960  160.1226 C   0  0  0  0  0  0  0  0  0  0  0  0
  153.4804  141.5271  160.3550 C   0  0  0  0  0  0  0  0  0  0  0  0
  154.3692  141.1201  161.5208 C   0  0  0  0  0  0  0  0  0  0  0  0
  152.8847  140.5727  159.4895 C   0  0  0  0  0  0  0  0  0  0  0  0
  153.1051  139.1429  159.6987 C   0  0  0  0  0  0  0  0  0  0  0  0
  153.2788  138.0110  159.8642 N   0  0  0  0  0  0  0  0  0  0  0  0
  152.0685  141.0437  158.4239 C   0  0  0  0  0  0  0  0  0  0  0  0
  151.4592  140.1370  157.5367 N   0  0  0  0  0  0  0  0  0  0  0  0
  151.4722  140.3620  156.0942 C   0  0  1  0  0  0  0  0  0  0  0  0
  152.1320  139.2198  155.3181 C   0  0  0  0  0  0  0  0  0  0  0  0
  151.0432  138.8610  154.2970 C   0  0  1  0  0  0  0  0  0  0  0  0
  149.8896  138.0894  154.9506 C   0  0  0  0  0  0  0  0  0  0  0  0
  149.1987  139.1880  155.7560 C   0  0  0  0  0  0  0  0  0  0  0  0
  150.0758  140.4124  155.4417 C   0  0  2  0  0  0  0  0  0  0  0  0
  150.4296  140.1239  154.0995 O   0  0  0  0  0  0  0  0  0  0  0  0
  151.8484  142.3631  158.2122 N   0  0  0  0  0  0  0  0  0  0  0  0
  152.7241  145.3784  159.3657 H   0  0  0  0  0  0  0  0  0  0  0  0
  151.0694  144.9347  158.9326 H   0  0  0  0  0  0  0  0  0  0  0  0
  152.3369  144.9445  157.6988 H   0  0  0  0  0  0  0  0  0  0  0  0
  153.6728  143.6511  160.7612 H   0  0  0  0  0  0  0  0  0  0  0  0
  153.8189  140.4906  162.2209 H   0  0  0  0  0  0  0  0  0  0  0  0
  154.7306  141.9912  162.0681 H   0  0  0  0  0  0  0  0  0  0  0  0
  155.2375  140.5656  161.1639 H   0  0  0  0  0  0  0  0  0  0  0  0
  150.7720  139.4948  157.9044 H   0  0  0  0  0  0  0  0  0  0  0  0
  152.0119  141.2847  155.8758 H   0  0  0  0  0  0  0  0  0  0  0  0
  153.0331  139.5760  154.8177 H   0  0  0  0  0  0  0  0  0  0  0  0
  152.4063  138.3652  155.9385 H   0  0  0  0  0  0  0  0  0  0  0  0
  151.4248  138.3976  153.3868 H   0  0  0  0  0  0  0  0  0  0  0  0
  149.2135  137.6869  154.1953 H   0  0  0  0  0  0  0  0  0  0  0  0
  150.2398  137.2641  155.5715 H   0  0  0  0  0  0  0  0  0  0  0  0
  148.1829  139.3423  155.3908 H   0  0  0  0  0  0  0  0  0  0  0  0
  149.1405  138.9636  156.8212 H   0  0  0  0  0  0  0  0  0  0  0  0
  149.5613  141.3653  155.5685 H   0  0  0  0  0  0  0  0  0  0  0  0
  1  2  1  0  0  0  0
  1 19  1  0  0  0  0
  1 20  1  0  0  0  0
  1 21  1  0  0  0  0
  2 18  1  0  0  0  0
  2  3  2  0  0  0  0
  3  4  1  0  0  0  0
  3 22  1  0  0  0  0
  4  5  1  0  0  0  0
  4  6  2  0  0  0  0
  5 23  1  0  0  0  0
  5 24  1  0  0  0  0
  5 25  1  0  0  0  0
  6  7  1  0  0  0  0
  6  9  1  0  0  0  0
  7  8  3  0  0  0  0
  9 10  1  0  0  0  0
  9 18  2  0  0  0  0
 10 11  1  0  0  0  0
 10 26  1  0  0  0  0
 11 16  1  0  0  0  0
 11 12  1  0  0  0  0
 11 27  1  0  0  0  0
 12 13  1  0  0  0  0
 12 28  1  0  0  0  0
 12 29  1  0  0  0  0
 13 17  1  0  0  0  0
 13 14  1  0  0  0  0
 13 30  1  0  0  0  0
 14 15  1  0  0  0  0
 14 31  1  0  0  0  0
 14 32  1  0  0  0  0
 15 16  1  0  0  0  0
 15 33  1  0  0  0  0
 15 34  1  0  0  0  0
 16 17  1  0  0  0  0
 16 35  1  0  0  0  0
M  END
> <s_m_source_file>
AV-unprocessed.smi

> <i_m_source_file_index>
897

> <i_lp_mmshare_version>
43012

> <i_f3d_flags>
0

> <s_epik_input>
W0NIM11jMVtjSF1jKFtDSDNdKWMoQyNOKWMobjEpW05IXVtDQEhdKFtDSDJdW0NAQEhdMjMpW0NAQEhdKE8zKVtDSDJdW0NIMl0y

> <s_epik_cmdline>
J2VwaWtfcHl0aG9uJywgJy1waCcsICc3LjAnLCAnLXRuJywgJzgnLCAnLW1hJywgJzIwMCcsICctbWV0YWxfYmluZGluZycsICctaW1hZScsICc8aW5maWxlLm1hZT4nLCAnLW9tYWUnLCAnPG91dGZpbGUubWFlPic=

> <r_lp_tautomer_probability>
1

> <r_epik_Ionization_Penalty>
0.000502654

> <r_epik_Ionization_Penalty_Charging>
0

> <r_epik_Ionization_Penalty_Neutral>
0.000502654

> <r_epik_State_Penalty>
-0

> <r_epik_Charging_Adjusted_Penalty>
0

> <i_epik_Tot_Q>
0

> <i_epik_Tot_abs_Q>
0

> <r_epik_Metal_State_Penalty>
-0

> <b_epik_Metal_Only>
0

> <s_lp_Force_Field>
OPLS_2005

> <r_lp_Energy>
43.9226

> <b_lp_Chiralities_Consistent>
1

> <s_lp_Variant>
AV-unprocessed.smi:897-2

> <Gold.Version>
5.8.1

> <Gold.Id.Protein>
6NUR|6NUR_protein|mol2

> <Gold.PLP.Fitness>
42.1788

> <Gold.PLP.PLP>
-39.9208

> <Gold.PLP.part.hbond>
-0.8310

> <Gold.PLP.part.metal>
0.0000

> <Gold.PLP.part.buried>
-4.6310

> <Gold.PLP.part.nonpolar>
-34.9988

> <Gold.PLP.part.repulsive>
0.7797

> <Gold.PLP.ligand.clash>
0.0000

> <Gold.PLP.ligand.torsion>
0.3760

> <Gold.PLP.Chemscore.Hbond>
1.0000

> <Gold.PLP.Chemscore.CHOScore>
0.0000

> <Gold.PLP.Chemscore.Metal>
0.0000

> <Gold.Chemscore.Hbonds>
donor molecule, donor type, donor heavy atom, donor atom, acceptor molecule, acceptor atom, score
      P1  H  7989  7998       L1    17  0.94

> <Gold.PLP.Chemscore.Internal.Correction>
0.0101

> <Gold.Rescore>
     Score         DG    S(hbond)    S(metal)    S(lipo)     H(rot)  DE(clash)    DE(int)     intcor
     17.12     -17.46       0.79        0.00     101.57       1.00       0.01       0.33       ----

> <Gold.Chemscore.Fitness>
17.1239

> <Gold.Chemscore.DG>
-17.4585

> <Gold.Chemscore.ZeroCoef>
-5.4800

> <Gold.Chemscore.Hbond>
0.7949

> <Gold.Chemscore.Metal>
0.0000

> <Gold.Chemscore.Lipo>
101.5681

> <Gold.Chemscore.Internal_Hbond>
0.0000

> <Gold.Chemscore.DEClash>
0.0060

> <Gold.Chemscore.DEInternal>
0.3285

> <Gold.Chemscore.Rot>
1.0000

> <Gold.Chemscore.Internal.Correction>
   9.000000E+99

> <Gold.Chemscore.Hbonds>
donor molecule, donor type, donor heavy atom, donor atom, acceptor molecule, acceptor atom, score
      P1  H  7989  7998       L1    17  0.19

> <Gold.Chemscore.Hbond.Weighted>
-2.6550

> <Gold.Chemscore.Metal.Weighted>
-0.0000

> <Gold.Chemscore.Lipo.Weighted>
-11.8835

> <Gold.Chemscore.Internal_Hbond.Weighted>
0.0000

> <Gold.Chemscore.DEClash.Weighted>
0.0060

> <Gold.Chemscore.DEInternal.Weighted>
0.3285

> <Gold.Chemscore.Rot.Weighted>
2.5600

> <Gold.Chemscore.Internal.Correction.Weighted>
   9.000000E+99

> <Gold.Protein.RotatedTorsions>
[ 6907 6896 6895 6894 ] final -133.49 input  -60.11 | X-H torsion
[ 7974 7965 7964 7962 ] final -145.45 input  175.53 | X-H torsion
[ 8008 7997 7996 7995 ] final -145.24 input   59.86 | X-H torsion
[ 10167 10162 10161 10158 ] final  112.02 input  -65.29 | X-H torsion
[ 10718 10713 10712 10709 ] final -160.73 input   66.30 | X-H torsion
[ 10763 10752 10751 10750 ] final -153.42 input  -60.55 | X-H torsion
[ 11005 11000 10999 10996 ] final   -1.38 input  -57.11 | X-H torsion

> <Gold.Protein.ActiveResidues>
 VAL166  LYS551  ARG553  GLY616  TRP617  ASP618  TYR619  PRO620  LYS621  CYS622 
 ASP623  PHE694  ASN695  SER759  ASP760  ASP761  ALA762  ILE779  LEU786  VAL792 
 PHE793  MET794  SER795  GLU796  ALA797  LYS798  CYS799  TRP800  GLU811  SER814 

> <Gold.Protein.RotatedAtoms>
  150.9746  133.6308  159.2732 H   0  0  0  0  0  0  0  0  0  0  0  0  # atno 6907 bound_to 6896
  151.3585  135.0898  159.9436 H   0  0  0  0  0  0  0  0  0  0  0  0  # atno 6908 bound_to 6896
  152.5195  133.9324  159.7642 H   0  0  0  0  0  0  0  0  0  0  0  0  # atno 6909 bound_to 6896
  144.8226  140.5582  143.5568 H   0  0  0  0  0  0  0  0  0  0  0  0  # atno 7974 bound_to 7965
  155.5399  140.0607  157.2872 H   0  0  0  0  0  0  0  0  0  0  0  0  # atno 8008 bound_to 7997
  154.4455  140.1921  156.0624 H   0  0  0  0  0  0  0  0  0  0  0  0  # atno 8009 bound_to 7997
  156.0592  140.3274  155.7445 H   0  0  0  0  0  0  0  0  0  0  0  0  # atno 8010 bound_to 7997
  139.6567  144.7129  151.1943 H   0  0  0  0  0  0  0  0  0  0  0  0  # atno 10167 bound_to 10162
  156.5862  130.8750  151.2878 H   0  0  0  0  0  0  0  0  0  0  0  0  # atno 10718 bound_to 10713
  154.7929  135.3213  154.7736 H   0  0  0  0  0  0  0  0  0  0  0  0  # atno 10763 bound_to 10752
  153.8420  135.6870  153.4806 H   0  0  0  0  0  0  0  0  0  0  0  0  # atno 10764 bound_to 10752
  153.1607  135.4662  154.9708 H   0  0  0  0  0  0  0  0  0  0  0  0  # atno 10765 bound_to 10752
  140.6467  133.9441  155.8356 H   0  0  0  0  0  0  0  0  0  0  0  0  # atno 11005 bound_to 11000
  145.5070  139.1481  143.3625 LP  0  0  0  0  0  0  0  0  0  0  0  0  # atno 17320 bound_to 7965
  146.2532  140.5211  142.8885 LP  0  0  0  0  0  0  0  0  0  0  0  0  # atno 17321 bound_to 7965
  140.7562  143.6060  150.8652 LP  0  0  0  0  0  0  0  0  0  0  0  0  # atno 17342 bound_to 10162
  139.9714  143.6053  152.2972 LP  0  0  0  0  0  0  0  0  0  0  0  0  # atno 17343 bound_to 10162
  157.7315  130.9700  150.1881 LP  0  0  0  0  0  0  0  0  0  0  0  0  # atno 17370 bound_to 10713
  156.2589  130.3708  149.8152 LP  0  0  0  0  0  0  0  0  0  0  0  0  # atno 17371 bound_to 10713
  141.0567  134.0406  157.3713 LP  0  0  0  0  0  0  0  0  0  0  0  0  # atno 17394 bound_to 11000
  139.9060  135.0179  156.7489 LP  0  0  0  0  0  0  0  0  0  0  0  0  # atno 17395 bound_to 11000

$$$$
