AV-unprocessed.smi:2188|AV-procd|sdf|8883|dock4
  -GOLD-   2272012 83D 1   1.00000     0.00000
 Structure written by MMmdl.
 39 41  0  0  0  0  0  0  0  0  3 V2000
  151.5960  138.5384  157.1025 O   0  0  0  0  0  0  0  0  0  0  0  0
  151.4267  139.7149  156.7552 C   0  0  0  0  0  0  0  0  0  0  0  0
  151.0537  140.1147  155.4996 N   0  5  0  0  0  0  0  0  0  0  0  0
  150.5503  139.2401  154.4416 C   0  0  0  0  0  0  0  0  0  0  0  0
  149.0738  138.8948  154.7187 C   0  0  0  0  0  0  0  0  0  0  0  0
  148.1103  140.0276  154.3925 C   0  0  0  0  0  0  0  0  0  0  0  0
  148.4277  141.3647  154.7283 C   0  0  0  0  0  0  0  0  0  0  0  0
  147.5128  142.3931  154.4215 C   0  0  0  0  0  0  0  0  0  0  0  0
  146.2965  142.0634  153.7898 C   0  0  0  0  0  0  0  0  0  0  0  0
  146.0224  140.7751  153.4891 N   0  3  0  0  0  0  0  0  0  0  0  0
  146.8718  139.7614  153.7657 C   0  0  0  0  0  0  0  0  0  0  0  0
  151.6634  140.7931  157.7375 C   0  0  0  0  0  0  0  0  0  0  0  0
  150.8069  141.8490  157.7622 C   0  0  0  0  0  0  0  0  0  0  0  0
  150.9587  142.9332  158.6999 C   0  0  0  0  0  0  0  0  0  0  0  0
  151.9981  142.8958  159.5397 C   0  0  0  0  0  0  0  0  0  0  0  0
  152.9345  141.8637  159.5499 N   0  0  0  0  0  0  0  0  0  0  0  0
  154.0702  142.0128  160.4534 C   0  0  0  0  0  0  0  0  0  0  0  0
  154.3931  140.6884  161.1202 C   0  0  0  0  0  0  0  0  0  0  0  0
  154.8955  139.5624  159.7705 S   0  0  0  0  0  0  0  0  0  0  0  0
  156.0703  140.1457  159.1037 O   0  0  0  0  0  0  0  0  0  0  0  0
  154.9804  138.2007  160.3199 O   0  0  0  0  0  0  0  0  0  0  0  0
  153.5663  139.6890  158.7594 N   0  0  0  0  0  0  0  0  0  0  0  0
  152.7899  140.7342  158.6949 C   0  0  0  0  0  0  0  0  0  0  0  0
  150.6174  139.7000  153.4546 H   0  0  0  0  0  0  0  0  0  0  0  0
  151.1266  138.3165  154.3804 H   0  0  0  0  0  0  0  0  0  0  0  0
  148.7846  138.0141  154.1431 H   0  0  0  0  0  0  0  0  0  0  0  0
  148.9465  138.6254  155.7685 H   0  0  0  0  0  0  0  0  0  0  0  0
  149.3652  141.5995  155.2114 H   0  0  0  0  0  0  0  0  0  0  0  0
  147.7426  143.4196  154.6672 H   0  0  0  0  0  0  0  0  0  0  0  0
  145.5403  142.7855  153.5188 H   0  0  0  0  0  0  0  0  0  0  0  0
  146.5406  138.7746  153.4762 H   0  0  0  0  0  0  0  0  0  0  0  0
  149.9826  141.9150  157.0663 H   0  0  0  0  0  0  0  0  0  0  0  0
  150.2533  143.7505  158.7227 H   0  0  0  0  0  0  0  0  0  0  0  0
  152.1659  143.6796  160.2640 H   0  0  0  0  0  0  0  0  0  0  0  0
  154.9281  142.3880  159.8946 H   0  0  0  0  0  0  0  0  0  0  0  0
  153.8547  142.7511  161.2262 H   0  0  0  0  0  0  0  0  0  0  0  0
  155.2180  140.7794  161.8264 H   0  0  0  0  0  0  0  0  0  0  0  0
  153.5318  140.2690  161.6414 H   0  0  0  0  0  0  0  0  0  0  0  0
  145.1362  140.5577  153.0329 H   0  0  0  0  0  0  0  0  0  0  0  0
  1  2  2  0  0  0  0
  2  3  1  0  0  0  0
  2 12  1  0  0  0  0
  3  4  1  0  0  0  0
  4  5  1  0  0  0  0
  4 24  1  0  0  0  0
  4 25  1  0  0  0  0
  5  6  1  0  0  0  0
  5 26  1  0  0  0  0
  5 27  1  0  0  0  0
  6 11  1  0  0  0  0
  6  7  2  0  0  0  0
  7  8  1  0  0  0  0
  7 28  1  0  0  0  0
  8  9  2  0  0  0  0
  8 29  1  0  0  0  0
  9 10  1  0  0  0  0
  9 30  1  0  0  0  0
 10 11  2  0  0  0  0
 10 39  1  0  0  0  0
 11 31  1  0  0  0  0
 12 23  1  0  0  0  0
 12 13  2  0  0  0  0
 13 14  1  0  0  0  0
 13 32  1  0  0  0  0
 14 15  2  0  0  0  0
 14 33  1  0  0  0  0
 15 16  1  0  0  0  0
 15 34  1  0  0  0  0
 16 23  1  0  0  0  0
 16 17  1  0  0  0  0
 17 18  1  0  0  0  0
 17 35  1  0  0  0  0
 17 36  1  0  0  0  0
 18 19  1  0  0  0  0
 18 37  1  0  0  0  0
 18 38  1  0  0  0  0
 19 20  2  0  0  0  0
 19 21  2  0  0  0  0
 19 22  1  0  0  0  0
 22 23  2  0  0  0  0
M  CHG  1   3  -1
M  CHG  1  10   1
M  END
> <s_m_source_file>
AV-unprocessed.smi

> <i_m_source_file_index>
2188

> <i_lp_mmshare_version>
43012

> <i_f3d_flags>
0

> <s_epik_input>
W0NIMl0xW0NIMl1TKD1PKSg9TylOPUMoTjEyKUMoPVtDSF1bQ0hdPVtDSF0yKUMoPU8pW05IXVtDSDJdW0NIMl1jM1tjSF1bY0hdW2NIXW5bY0hdMw==

> <s_epik_cmdline>
J2VwaWtfcHl0aG9uJywgJy1waCcsICc3LjAnLCAnLXRuJywgJzgnLCAnLW1hJywgJzIwMCcsICctbWV0YWxfYmluZGluZycsICctaW1hZScsICc8aW5maWxlLm1hZT4nLCAnLW9tYWUnLCAnPG91dGZpbGUubWFlPic=

> <r_epik_Ionization_Penalty>
7.27179

> <r_epik_Ionization_Penalty_Charging>
7.27179

> <r_epik_Ionization_Penalty_Neutral>
0

> <r_epik_State_Penalty>
7.89047

> <r_epik_Charging_Adjusted_Penalty>
15.1623

> <i_epik_Tot_Q>
0

> <i_epik_Tot_abs_Q>
2

> <r_epik_Metal_State_Penalty>
3.9241

> <b_epik_Metal_Only>
1

> <s_lp_Force_Field>
OPLS_2005

> <r_lp_Energy>
37.465

> <b_lp_Chiralities_Consistent>
1

> <s_lp_Variant>
AV-unprocessed.smi:2188-4

> <Gold.Version>
5.8.1

> <Gold.Id.Protein>
6NUR|6NUR_protein|mol2

> <Gold.PLP.Fitness>
49.2020

> <Gold.PLP.PLP>
-42.0939

> <Gold.PLP.part.hbond>
-3.7190

> <Gold.PLP.part.metal>
0.0000

> <Gold.PLP.part.buried>
-4.1826

> <Gold.PLP.part.nonpolar>
-34.9142

> <Gold.PLP.part.repulsive>
0.0434

> <Gold.PLP.ligand.clash>
0.0000

> <Gold.PLP.ligand.torsion>
1.0999

> <Gold.PLP.Chemscore.Hbond>
3.0000

> <Gold.PLP.Chemscore.CHOScore>
0.0000

> <Gold.PLP.Chemscore.Metal>
0.0000

> <Gold.Chemscore.Hbonds>
donor molecule, donor type, donor heavy atom, donor atom, acceptor molecule, acceptor atom, score
      L1  H    10    39       P1 10175  2.00
      P1  H  7997  8009       L1    20  1.00

> <Gold.PLP.Chemscore.Internal.Correction>
0.3079

> <Gold.Rescore>
     Score         DG    S(hbond)    S(metal)    S(lipo)     H(rot)  DE(clash)    DE(int)     intcor
     15.25     -18.52       1.68        0.00      96.61       1.51       0.03       3.24       ----

> <Gold.Chemscore.Fitness>
15.2539

> <Gold.Chemscore.DG>
-18.5201

> <Gold.Chemscore.ZeroCoef>
-5.4800

> <Gold.Chemscore.Hbond>
1.6780

> <Gold.Chemscore.Metal>
0.0000

> <Gold.Chemscore.Lipo>
96.6130

> <Gold.Chemscore.Internal_Hbond>
0.0000

> <Gold.Chemscore.DEClash>
0.0269

> <Gold.Chemscore.DEInternal>
3.2392

> <Gold.Chemscore.Rot>
1.5109

> <Gold.Chemscore.Internal.Correction>
   9.000000E+99

> <Gold.Chemscore.Hbonds>
donor molecule, donor type, donor heavy atom, donor atom, acceptor molecule, acceptor atom, score
      L1  H    10    39       P1 10175  0.84
      P1  H  7997  8009       L1    20  0.33

> <Gold.Chemscore.Hbond.Weighted>
-5.6044

> <Gold.Chemscore.Metal.Weighted>
-0.0000

> <Gold.Chemscore.Lipo.Weighted>
-11.3037

> <Gold.Chemscore.Internal_Hbond.Weighted>
0.0000

> <Gold.Chemscore.DEClash.Weighted>
0.0269

> <Gold.Chemscore.DEInternal.Weighted>
3.2392

> <Gold.Chemscore.Rot.Weighted>
3.8680

> <Gold.Chemscore.Internal.Correction.Weighted>
   9.000000E+99

> <Gold.Protein.RotatedTorsions>
[ 6907 6896 6895 6894 ] final  -33.04 input  -60.11 | X-H torsion
[ 7974 7965 7964 7962 ] final   39.82 input  175.53 | X-H torsion
[ 8008 7997 7996 7995 ] final   93.68 input   59.86 | X-H torsion
[ 10167 10162 10161 10158 ] final  142.91 input  -65.29 | X-H torsion
[ 10718 10713 10712 10709 ] final   30.15 input   66.30 | X-H torsion
[ 10763 10752 10751 10750 ] final  -11.48 input  -60.55 | X-H torsion
[ 11005 11000 10999 10996 ] final  -64.57 input  -57.11 | X-H torsion

> <Gold.Protein.ActiveResidues>
 VAL166  LYS551  ARG553  GLY616  TRP617  ASP618  TYR619  PRO620  LYS621  CYS622 
 ASP623  PHE694  ASN695  SER759  ASP760  ASP761  ALA762  ILE779  LEU786  VAL792 
 PHE793  MET794  SER795  GLU796  ALA797  LYS798  CYS799  TRP800  GLU811  SER814 

> <Gold.Protein.RotatedAtoms>
  151.0708  134.9797  159.8307 H   0  0  0  0  0  0  0  0  0  0  0  0  # atno 6907 bound_to 6896
  152.5408  134.2301  159.8831 H   0  0  0  0  0  0  0  0  0  0  0  0  # atno 6908 bound_to 6896
  151.2326  133.4399  159.2638 H   0  0  0  0  0  0  0  0  0  0  0  0  # atno 6909 bound_to 6896
  146.0954  139.5606  142.9449 H   0  0  0  0  0  0  0  0  0  0  0  0  # atno 7974 bound_to 7965
  156.0494  140.3310  155.7334 H   0  0  0  0  0  0  0  0  0  0  0  0  # atno 8008 bound_to 7997
  155.5623  140.0620  157.2843 H   0  0  0  0  0  0  0  0  0  0  0  0  # atno 8009 bound_to 7997
  154.4429  140.1875  156.0784 H   0  0  0  0  0  0  0  0  0  0  0  0  # atno 8010 bound_to 7997
  139.4982  144.6076  151.6344 H   0  0  0  0  0  0  0  0  0  0  0  0  # atno 10167 bound_to 10162
  157.2558  130.7137  149.6428 H   0  0  0  0  0  0  0  0  0  0  0  0  # atno 10718 bound_to 10713
  153.4844  135.7017  153.5920 H   0  0  0  0  0  0  0  0  0  0  0  0  # atno 10763 bound_to 10752
  153.4119  135.3846  155.2056 H   0  0  0  0  0  0  0  0  0  0  0  0  # atno 10764 bound_to 10752
  154.8720  135.3906  154.4297 H   0  0  0  0  0  0  0  0  0  0  0  0  # atno 10765 bound_to 10752
  141.1429  133.6668  156.5853 H   0  0  0  0  0  0  0  0  0  0  0  0  # atno 11005 bound_to 11000
  145.5959  141.0363  143.2045 LP  0  0  0  0  0  0  0  0  0  0  0  0  # atno 17320 bound_to 7965
  144.7391  139.7499  143.7318 LP  0  0  0  0  0  0  0  0  0  0  0  0  # atno 17321 bound_to 7965
  140.5742  144.0058  150.6232 LP  0  0  0  0  0  0  0  0  0  0  0  0  # atno 17342 bound_to 10162
  140.3185  143.3152  152.0808 LP  0  0  0  0  0  0  0  0  0  0  0  0  # atno 17343 bound_to 10162
  155.9665  130.4413  150.5335 LP  0  0  0  0  0  0  0  0  0  0  0  0  # atno 17370 bound_to 10713
  157.3229  131.0685  151.1919 LP  0  0  0  0  0  0  0  0  0  0  0  0  # atno 17371 bound_to 10713
  140.3805  134.7527  157.4658 LP  0  0  0  0  0  0  0  0  0  0  0  0  # atno 17394 bound_to 11000
  140.0641  134.5954  155.8715 LP  0  0  0  0  0  0  0  0  0  0  0  0  # atno 17395 bound_to 11000

$$$$
