#       Name:                AV-unprocessed.smi:109
#       Creating user name   scv26
#       Creation time:       Thu Mar 26 18:04:59 2020


#       File generated by GOLD software.
#

@<TRIPOS>MOLECULE
AV-unprocessed.smi:109
    71    74     1
SMALL
NO_CHARGES


@<TRIPOS>ATOM
      1 ****        -1.7439   3.0294  -3.7763 O.3            1 S1                 0.0000
      2 ****        -1.3735   2.5113  -2.5168 C.3            1 S1                 0.0000
      3 ****        -2.6321   2.2211  -1.6817 C.3            1 S1                 0.0000
      4 ****        -2.3449   1.7175  -0.2453 C.3            1 S1                 0.0000
      5 ****        -1.6181   0.4475  -0.3076 N.pl3          1 S1                 0.0000
      6 ****        -0.2866   0.3653  -0.0872 C.ar           1 S1                 0.0000
      7 ****         0.4826   1.4766   0.0432 N.ar           1 S1                 0.0000
      8 ****         1.7958   1.3591   0.2566 C.ar           1 S1                 0.0000
      9 ****         2.5255   0.2476   0.3692 N.ar           1 S1                 0.0000
     10 ****         1.7613  -0.8766   0.2355 C.ar           1 S1                 0.0000
     11 ****         0.3553  -0.8961   0.0132 C.ar           1 S1                 0.0000
     12 ****        -0.0945  -2.2069  -0.0470 N.2            1 S1                 0.0000
     13 ****         0.9837  -2.9179   0.1407 C.2            1 S1                 0.0000
     14 ****         2.1555  -2.2029   0.2824 N.pl3          1 S1                 0.0000
     15 ****         3.5367  -2.7450   0.5422 C.3            1 S1                 0.0000
     16 ****         4.4755  -1.7631   0.2280 O.3            1 S1                 0.0000
     17 ****         4.8557  -1.9028  -1.1341 C.3            1 S1                 0.0000
     18 ****         6.1100  -1.0724  -1.4535 C.3            1 S1                 0.0000
     19 ****         5.7417   0.2641  -1.7191 O.3            1 S1                 0.0000
     20 ****         5.0102  -3.4243  -1.2437 C.3            1 S1                 0.0000
     21 ****         6.2749  -3.8389  -0.7508 O.3            1 S1                 0.0000
     22 ****         3.8438  -3.9362  -0.3934 C.3            1 S1                 0.0000
     23 ****         4.1487  -5.1272   0.3072 O.3            1 S1                 0.0000
     24 ****        -3.6298   1.5307   0.6135 C.3            1 S1                 0.0000
     25 ****        -4.4913   2.8148   0.7187 C.3            1 S1                 0.0000
     26 ****        -5.7384   2.6150   1.5962 C.3            1 S1                 0.0000
     27 ****        -5.3670   2.1188   2.9985 C.3            1 S1                 0.0000
     28 ****        -4.5338   0.8348   2.9131 C.3            1 S1                 0.0000
     29 ****        -3.2838   1.0408   2.0436 C.3            1 S1                 0.0000
     30 ****         3.5400  -2.9822   1.6069 H              1 S1                 0.0000
     31 ****         4.0278  -1.5902  -1.7747 H              1 S1                 0.0000
     32 ****         4.9272  -3.7586  -2.2784 H              1 S1                 0.0000
     33 ****         2.9955  -4.1294  -1.0499 H              1 S1                 0.0000
     34 ****        -2.2582   2.3787  -4.2291 H              1 S1                 0.0000
     35 ****        -0.7847   1.6077  -2.6743 H              1 S1                 0.0000
     36 ****        -0.7355   3.2363  -2.0108 H              1 S1                 0.0000
     37 ****        -3.1978   3.1502  -1.6420 H              1 S1                 0.0000
     38 ****        -3.2620   1.4997  -2.2040 H              1 S1                 0.0000
     39 ****        -1.7444   2.4749   0.2587 H              1 S1                 0.0000
     40 ****        -2.1962  -0.3728  -0.4200 H              1 S1                 0.0000
     41 ****         2.3397   2.2875   0.3484 H              1 S1                 0.0000
     42 ****         0.9503  -3.9973   0.1778 H              1 S1                 0.0000
     43 ****         6.8337  -1.1102  -0.6388 H              1 S1                 0.0000
     44 ****         6.6009  -1.4604  -2.3465 H              1 S1                 0.0000
     45 ****         5.3047   0.6103  -0.9556 H              1 S1                 0.0000
     46 ****         6.3244  -4.7810  -0.8115 H              1 S1                 0.0000
     47 ****         4.8957  -4.9611   0.8621 H              1 S1                 0.0000
     48 ****        -4.2418   0.7632   0.1364 H              1 S1                 0.0000
     49 ****        -3.8888   3.6313   1.1192 H              1 S1                 0.0000
     50 ****        -4.8361   3.1348  -0.2629 H              1 S1                 0.0000
     51 ****        -6.2938   3.5504   1.6697 H              1 S1                 0.0000
     52 ****        -6.4067   1.8962   1.1201 H              1 S1                 0.0000
     53 ****        -4.8028   2.8900   3.5243 H              1 S1                 0.0000
     54 ****        -6.2699   1.9399   3.5830 H              1 S1                 0.0000
     55 ****        -4.2413   0.5160   3.9140 H              1 S1                 0.0000
     56 ****        -5.1404   0.0298   2.4960 H              1 S1                 0.0000
     57 ****        -2.7353   0.0994   2.0099 H              1 S1                 0.0000
     58 ****        -2.6218   1.7608   2.5267 H              1 S1                 0.0000
     59 ****        -0.9240   3.2413  -4.3082 LP             1 S1                 0.0000
     60 ****        -2.2853   3.8611  -3.6529 LP             1 S1                 0.0000
     61 ****         0.0657   2.3834  -0.0206 LP             1 S1                 0.0000
     62 ****         3.5121   0.2388   0.5318 LP             1 S1                 0.0000
     63 ****        -1.0281  -2.5316  -0.1989 LP             1 S1                 0.0000
     64 ****         5.2797  -1.8692   0.8128 LP             1 S1                 0.0000
     65 ****         4.0751  -0.8582   0.3729 LP             1 S1                 0.0000
     66 ****         5.1238   0.2945  -2.5048 LP             1 S1                 0.0000
     67 ****         6.5582   0.8068  -1.9161 LP             1 S1                 0.0000
     68 ****         6.3748  -3.5561   0.2032 LP             1 S1                 0.0000
     69 ****         7.0027  -3.4264  -1.2987 LP             1 S1                 0.0000
     70 ****         4.3651  -5.8559  -0.3425 LP             1 S1                 0.0000
     71 ****         3.3660  -5.4007   0.8663 LP             1 S1                 0.0000
@<TRIPOS>BOND
    1    1    2 1     
    2    1   34 1     
    3    2    3 1     
    4    2   35 1     
    5    2   36 1     
    6    3    4 1     
    7    3   37 1     
    8    3   38 1     
    9    4    5 1     
   10    4   24 1     
   11    4   39 1     
   12    5    6 1     
   13    5   40 1     
   14    6   11 ar    
   15    6    7 ar    
   16    7    8 ar    
   17    8    9 ar    
   18    8   41 1     
   19    9   10 ar    
   20   10   14 1     
   21   10   11 ar    
   22   11   12 1     
   23   12   13 2     
   24   13   14 1     
   25   13   42 1     
   26   14   15 1     
   27   15   30 1     
   28   15   22 1     
   29   15   16 1     
   30   16   17 1     
   31   17   31 1     
   32   17   18 1     
   33   17   20 1     
   34   18   19 1     
   35   18   43 1     
   36   18   44 1     
   37   19   45 1     
   38   20   32 1     
   39   20   21 1     
   40   20   22 1     
   41   21   46 1     
   42   22   33 1     
   43   22   23 1     
   44   23   47 1     
   45   24   29 1     
   46   24   25 1     
   47   24   48 1     
   48   25   26 1     
   49   25   49 1     
   50   25   50 1     
   51   26   27 1     
   52   26   51 1     
   53   26   52 1     
   54   27   28 1     
   55   27   53 1     
   56   27   54 1     
   57   28   29 1     
   58   28   55 1     
   59   28   56 1     
   60   29   57 1     
   61   29   58 1     
   62    1   59 1     
   63    1   60 1     
   64    7   61 1     
   65    9   62 1     
   66   12   63 1     
   67   16   64 1     
   68   16   65 1     
   69   19   66 1     
   70   19   67 1     
   71   21   68 1     
   72   21   69 1     
   73   23   70 1     
   74   23   71 1     
@<TRIPOS>SUBSTRUCTURE
      1 S1             1
@<TRIPOS>SET
LONE_PAIRS      STATIC     ATOMS    <user>   **** ""
13 59 60 61 62 63 64 65 66 67 68 69 70 71
DONOR_HYDROGENS      STATIC     ATOMS    <user>   **** ""
5 34 40 45 46 47
ATOM$BLUE        STATIC     ATOMS    COLORGROUP SYSTEM
13 59 60 61 62 63 64 65 66 67 68 69 70 71
ATOM$RED        STATIC     ATOMS    COLORGROUP SYSTEM
5 34 40 45 46 47
