#       Name:                AV-unprocessed.smi:655
#       Creating user name   scv26
#       Creation time:       Fri Mar 27 00:15:32 2020


#       File generated by GOLD software.
#

@<TRIPOS>MOLECULE
AV-unprocessed.smi:655
    41    42     1
SMALL
NO_CHARGES


@<TRIPOS>ATOM
      1 ****        -3.8816  -1.6330   0.6627 C.3            1 S1                 0.0000
      2 ****        -2.3645  -1.4056   0.6026 C.3            1 S1                 0.0000
      3 ****        -1.8131  -0.9085   1.9501 C.3            1 S1                 0.0000
      4 ****        -0.2904  -0.6887   1.8931 C.3            1 S1                 0.0000
      5 ****         0.1506   0.2605   0.7529 C.3            1 S1                 0.0000
      6 ****        -0.3477   1.5460   1.0758 O.3            1 S1                 0.0000
      7 ****         1.7035   0.3517   0.7345 C.3            1 S1                 0.0000
      8 ****         2.2710   0.9666  -0.4790 N.am           1 S1                 0.0000
      9 ****         2.6247   0.1149  -1.5411 C.2            1 S1                 0.0000
     10 ****         3.1447   0.5822  -2.6923 C.2            1 S1                 0.0000
     11 ****         3.5585  -0.4895  -3.9827 Cl             1 S1                 0.0000
     12 ****         3.3470   2.0238  -2.8172 C.2            1 S1                 0.0000
     13 ****         3.8125   2.4853  -3.8582 O.2            1 S1                 0.0000
     14 ****         3.0058   2.8063  -1.7521 N.pl3          1 S1                -1.0000
     15 ****         2.4824   2.3123  -0.5878 C.2            1 S1                 0.0000
     16 ****         2.1999   3.0399   0.3642 O.2            1 S1                 0.0000
     17 ****        -0.4667  -0.1974  -0.5927 C.3            1 S1                 0.0000
     18 ****        -1.9874  -0.4208  -0.5172 C.3            1 S1                 0.0000
     19 ****        -4.4134  -0.7070   0.8839 H              1 S1                 0.0000
     20 ****        -4.1396  -2.3583   1.4346 H              1 S1                 0.0000
     21 ****        -4.2582  -2.0146  -0.2867 H              1 S1                 0.0000
     22 ****        -1.8970  -2.3658   0.3793 H              1 S1                 0.0000
     23 ****        -2.3095   0.0203   2.2343 H              1 S1                 0.0000
     24 ****        -2.0447  -1.6298   2.7347 H              1 S1                 0.0000
     25 ****         0.0611  -0.3124   2.8550 H              1 S1                 0.0000
     26 ****         0.1893  -1.6590   1.7584 H              1 S1                 0.0000
     27 ****         0.1294   1.8742   1.8226 H              1 S1                 0.0000
     28 ****         2.0653   0.8574   1.6317 H              1 S1                 0.0000
     29 ****         2.1153  -0.6552   0.8177 H              1 S1                 0.0000
     30 ****         2.4400  -0.9349  -1.3664 H              1 S1                 0.0000
     31 ****        -0.2563   0.5298  -1.3777 H              1 S1                 0.0000
     32 ****         0.0050  -1.1299  -0.9046 H              1 S1                 0.0000
     33 ****        -2.3447  -0.7952  -1.4771 H              1 S1                 0.0000
     34 ****        -2.4906   0.5336  -0.3561 H              1 S1                 0.0000
     35 ****        -1.3208   1.4845   1.2979 LP             1 S1                 0.0000
     36 ****        -0.2216   2.1617   0.2980 LP             1 S1                 0.0000
     37 ****         4.0503   1.8746  -4.6134 LP             1 S1                 0.0000
     38 ****         3.9530   3.4712  -3.9491 LP             1 S1                 0.0000
     39 ****         3.1457   3.7937  -1.8264 LP             1 S1                 0.0000
     40 ****         1.8218   2.6441   1.2011 LP             1 S1                 0.0000
     41 ****         2.3485   4.0268   0.3007 LP             1 S1                 0.0000
@<TRIPOS>BOND
    1    1    2 1     
    2    1   19 1     
    3    1   20 1     
    4    1   21 1     
    5    2   18 1     
    6    2    3 1     
    7    2   22 1     
    8    3    4 1     
    9    3   23 1     
   10    3   24 1     
   11    4    5 1     
   12    4   25 1     
   13    4   26 1     
   14    5    6 1     
   15    5    7 1     
   16    5   17 1     
   17    6   27 1     
   18    7    8 1     
   19    7   28 1     
   20    7   29 1     
   21    8   15 am    
   22    8    9 1     
   23    9   10 2     
   24    9   30 1     
   25   10   11 1     
   26   10   12 1     
   27   12   13 2     
   28   12   14 1     
   29   14   15 1     
   30   15   16 2     
   31   17   18 1     
   32   17   31 1     
   33   17   32 1     
   34   18   33 1     
   35   18   34 1     
   36    6   35 1     
   37    6   36 1     
   38   13   37 1     
   39   13   38 1     
   40   14   39 1     
   41   16   40 1     
   42   16   41 1     
@<TRIPOS>SUBSTRUCTURE
      1 S1             1
@<TRIPOS>SET
LONE_PAIRS      STATIC     ATOMS    <user>   **** ""
7 35 36 37 38 39 40 41
DONOR_HYDROGENS      STATIC     ATOMS    <user>   **** ""
1 27
ATOM$BLUE        STATIC     ATOMS    COLORGROUP SYSTEM
7 35 36 37 38 39 40 41
ATOM$RED        STATIC     ATOMS    COLORGROUP SYSTEM
1 27
