#       Name:                AV-unprocessed.smi:373
#       Creating user name   scv26
#       Creation time:       Thu Mar 26 22:38:50 2020


#       File generated by GOLD software.
#

@<TRIPOS>MOLECULE
AV-unprocessed.smi:373
    46    47     1
SMALL
NO_CHARGES


@<TRIPOS>ATOM
      1 ****        -5.7278   3.0215  -0.3787 C.3            1 S1                 0.0000
      2 ****        -4.2986   2.8449   0.1456 C.3            1 S1                 0.0000
      3 ****        -3.7185   1.4640  -0.1789 C.3            1 S1                 0.0000
      4 ****        -2.3919   1.3985   0.3227 O.3            1 S1                 0.0000
      5 ****        -1.7389   0.1568   0.0952 C.3            1 S1                 0.0000
      6 ****        -2.1506  -0.8852   1.1556 C.3            1 S1                 0.0000
      7 ****        -1.3174  -2.1670   0.9960 C.3            1 S1                 0.0000
      8 ****         0.1878  -1.8549   1.0246 C.3            1 S1                 0.0000
      9 ****         0.5250  -0.8369   0.0324 N.3            1 S1                 0.0000
     10 ****         1.9097  -0.7173  -0.1878 C.ar           1 S1                 0.0000
     11 ****         2.5592   0.3041   0.4214 N.ar           1 S1                 0.0000
     12 ****         3.8911   0.4278   0.2425 C.ar           1 S1                 0.0000
     13 ****         4.6575  -0.4607  -0.5416 C.ar           1 S1                 0.0000
     14 ****         6.1339  -0.2494  -0.7135 C.2            1 S1                 0.0000
     15 ****         6.8712  -1.3501  -0.8906 N.am           1 S1                 0.0000
     16 ****         6.6315   0.8723  -0.6392 O.2            1 S1                 0.0000
     17 ****         3.9772  -1.5160  -1.1885 C.ar           1 S1                 0.0000
     18 ****         2.5867  -1.6527  -1.0094 C.ar           1 S1                 0.0000
     19 ****         1.7507  -2.9340  -1.8170 Cl             1 S1                 0.0000
     20 ****        -0.2231   0.4131   0.1636 C.3            1 S1                 0.0000
     21 ****        -6.1149   4.0088  -0.1257 H              1 S1                 0.0000
     22 ****        -6.4003   2.2796   0.0525 H              1 S1                 0.0000
     23 ****        -5.7641   2.9177  -1.4634 H              1 S1                 0.0000
     24 ****        -3.6593   3.6180  -0.2822 H              1 S1                 0.0000
     25 ****        -4.2882   2.9981   1.2251 H              1 S1                 0.0000
     26 ****        -4.3402   0.6878   0.2678 H              1 S1                 0.0000
     27 ****        -3.7158   1.3052  -1.2583 H              1 S1                 0.0000
     28 ****        -1.9775  -0.2156  -0.9031 H              1 S1                 0.0000
     29 ****        -1.9981  -0.4729   2.1538 H              1 S1                 0.0000
     30 ****        -3.2101  -1.1268   1.0758 H              1 S1                 0.0000
     31 ****        -1.5656  -2.8767   1.7855 H              1 S1                 0.0000
     32 ****        -1.5706  -2.6513   0.0520 H              1 S1                 0.0000
     33 ****         0.4740  -1.4925   2.0130 H              1 S1                 0.0000
     34 ****         0.7563  -2.7685   0.8486 H              1 S1                 0.0000
     35 ****         4.3544   1.2616   0.7499 H              1 S1                 0.0000
     36 ****         7.8697  -1.2761  -1.0183 H              1 S1                 0.0000
     37 ****         6.4228  -2.2550  -0.9020 H              1 S1                 0.0000
     38 ****         4.5050  -2.2139  -1.8223 H              1 S1                 0.0000
     39 ****         0.0710   1.1026  -0.6290 H              1 S1                 0.0000
     40 ****         0.0280   0.8884   1.1132 H              1 S1                 0.0000
     41 ****        -2.4222   1.5598   1.3092 LP             1 S1                 0.0000
     42 ****        -1.8555   2.1190  -0.1166 LP             1 S1                 0.0000
     43 ****         0.1805  -1.1830  -0.8402 LP             1 S1                 0.0000
     44 ****         2.0602   0.9549   0.9936 LP             1 S1                 0.0000
     45 ****         6.0503   1.6663  -0.4611 LP             1 S1                 0.0000
     46 ****         7.6175   0.9906  -0.7568 LP             1 S1                 0.0000
@<TRIPOS>BOND
    1    1    2 1     
    2    1   21 1     
    3    1   22 1     
    4    1   23 1     
    5    2    3 1     
    6    2   24 1     
    7    2   25 1     
    8    3    4 1     
    9    3   26 1     
   10    3   27 1     
   11    4    5 1     
   12    5   20 1     
   13    5    6 1     
   14    5   28 1     
   15    6    7 1     
   16    6   29 1     
   17    6   30 1     
   18    7    8 1     
   19    7   31 1     
   20    7   32 1     
   21    8    9 1     
   22    8   33 1     
   23    8   34 1     
   24    9   10 1     
   25    9   20 1     
   26   10   18 ar    
   27   10   11 ar    
   28   11   12 ar    
   29   12   13 ar    
   30   12   35 1     
   31   13   14 1     
   32   13   17 ar    
   33   14   15 am    
   34   14   16 2     
   35   15   36 1     
   36   15   37 1     
   37   17   18 ar    
   38   17   38 1     
   39   18   19 1     
   40   20   39 1     
   41   20   40 1     
   42    4   41 1     
   43    4   42 1     
   44    9   43 1     
   45   11   44 1     
   46   16   45 1     
   47   16   46 1     
@<TRIPOS>SUBSTRUCTURE
      1 S1             1
@<TRIPOS>SET
LONE_PAIRS      STATIC     ATOMS    <user>   **** ""
6 41 42 43 44 45 46
DONOR_HYDROGENS      STATIC     ATOMS    <user>   **** ""
2 36 37
ATOM$BLUE        STATIC     ATOMS    COLORGROUP SYSTEM
6 41 42 43 44 45 46
ATOM$RED        STATIC     ATOMS    COLORGROUP SYSTEM
2 36 37
