AV-unprocessed.smi:2816|AV-procd|sdf|10843|dock7
  -GOLD-   2272015283D 1   1.00000     0.00000
 Structure written by MMmdl.
 43 45  0  0  0  0  0  0  0  0  1 V2000
  152.8857  130.2731  156.7741 C   0  0  0  0  0  0  0  0  0  0  0  0
  151.3563  130.2159  156.9317 C   0  0  0  0  0  0  0  0  0  0  0  0
  150.7561  129.3394  155.8173 C   0  0  0  0  0  0  0  0  0  0  0  0
  151.0059  129.6395  158.3160 C   0  0  0  0  0  0  0  0  0  0  0  0
  150.7052  131.9533  156.7778 S   0  0  0  0  0  0  0  0  0  0  0  0
  149.9158  132.2621  157.9808 O   0  0  0  0  0  0  0  0  0  0  0  0
  151.8344  132.8257  156.4180 O   0  0  0  0  0  0  0  0  0  0  0  0
  149.5754  131.9335  155.3840 C   0  0  0  0  0  0  0  0  0  0  0  0
  149.9137  132.6067  154.1929 C   0  0  0  0  0  0  0  0  0  0  0  0
  149.0195  132.5281  153.1091 C   0  0  0  0  0  0  0  0  0  0  0  0
  147.8307  131.7735  153.2524 C   0  0  0  0  0  0  0  0  0  0  0  0
  146.8804  131.6269  152.2314 N   0  0  0  0  0  0  0  0  0  0  0  0
  146.8189  132.5553  151.1081 C   0  0  1  0  0  0  0  0  0  0  0  0
  145.7447  132.2149  150.0684 C   0  0  0  0  0  0  0  0  0  0  0  0
  144.9682  133.5357  149.9744 C   0  0  1  0  0  0  0  0  0  0  0  0
  144.0644  133.7435  151.1958 C   0  0  0  0  0  0  0  0  0  0  0  0
  145.0857  134.0650  152.2847 C   0  0  0  0  0  0  0  0  0  0  0  0
  146.4144  133.9847  151.5121 C   0  0  2  0  0  0  0  0  0  0  0  0
  145.9944  134.4751  150.2498 O   0  0  0  0  0  0  0  0  0  0  0  0
  147.6011  131.1367  154.4914 C   0  0  0  0  0  0  0  0  0  0  0  0
  148.4507  131.2026  155.5376 N   0  0  0  0  0  0  0  0  0  0  0  0
  153.3322  129.2817  156.8573 H   0  0  0  0  0  0  0  0  0  0  0  0
  153.3387  130.9040  157.5394 H   0  0  0  0  0  0  0  0  0  0  0  0
  153.1695  130.6807  155.8033 H   0  0  0  0  0  0  0  0  0  0  0  0
  150.9709  129.7477  154.8294 H   0  0  0  0  0  0  0  0  0  0  0  0
  149.6736  129.2550  155.9117 H   0  0  0  0  0  0  0  0  0  0  0  0
  151.1631  128.3283  155.8496 H   0  0  0  0  0  0  0  0  0  0  0  0
  151.4501  128.6533  158.4537 H   0  0  0  0  0  0  0  0  0  0  0  0
  149.9305  129.5263  158.4470 H   0  0  0  0  0  0  0  0  0  0  0  0
  151.3739  130.2784  159.1193 H   0  0  0  0  0  0  0  0  0  0  0  0
  150.8334  133.1658  154.1064 H   0  0  0  0  0  0  0  0  0  0  0  0
  149.2601  133.0410  152.1904 H   0  0  0  0  0  0  0  0  0  0  0  0
  146.3616  130.7628  152.1638 H   0  0  0  0  0  0  0  0  0  0  0  0
  147.7958  132.6028  150.6253 H   0  0  0  0  0  0  0  0  0  0  0  0
  146.2092  131.9666  149.1135 H   0  0  0  0  0  0  0  0  0  0  0  0
  145.0994  131.3835  150.3567 H   0  0  0  0  0  0  0  0  0  0  0  0
  144.4628  133.6854  149.0202 H   0  0  0  0  0  0  0  0  0  0  0  0
  143.3906  134.5872  151.0423 H   0  0  0  0  0  0  0  0  0  0  0  0
  143.4636  132.8625  151.4241 H   0  0  0  0  0  0  0  0  0  0  0  0
  144.9256  135.0747  152.6646 H   0  0  0  0  0  0  0  0  0  0  0  0
  145.0369  133.3783  153.1298 H   0  0  0  0  0  0  0  0  0  0  0  0
  147.2228  134.5582  151.9665 H   0  0  0  0  0  0  0  0  0  0  0  0
  146.7090  130.5475  154.6471 H   0  0  0  0  0  0  0  0  0  0  0  0
  1  2  1  0  0  0  0
  1 22  1  0  0  0  0
  1 23  1  0  0  0  0
  1 24  1  0  0  0  0
  2  3  1  0  0  0  0
  2  4  1  0  0  0  0
  2  5  1  0  0  0  0
  3 25  1  0  0  0  0
  3 26  1  0  0  0  0
  3 27  1  0  0  0  0
  4 28  1  0  0  0  0
  4 29  1  0  0  0  0
  4 30  1  0  0  0  0
  5  6  2  0  0  0  0
  5  7  2  0  0  0  0
  5  8  1  0  0  0  0
  8 21  1  0  0  0  0
  8  9  2  0  0  0  0
  9 10  1  0  0  0  0
  9 31  1  0  0  0  0
 10 11  2  0  0  0  0
 10 32  1  0  0  0  0
 11 12  1  0  0  0  0
 11 20  1  0  0  0  0
 12 13  1  0  0  0  0
 12 33  1  0  0  0  0
 13 18  1  0  0  0  0
 13 14  1  0  0  0  0
 13 34  1  0  0  0  0
 14 15  1  0  0  0  0
 14 35  1  0  0  0  0
 14 36  1  0  0  0  0
 15 19  1  0  0  0  0
 15 16  1  0  0  0  0
 15 37  1  0  0  0  0
 16 17  1  0  0  0  0
 16 38  1  0  0  0  0
 16 39  1  0  0  0  0
 17 18  1  0  0  0  0
 17 40  1  0  0  0  0
 17 41  1  0  0  0  0
 18 19  1  0  0  0  0
 18 42  1  0  0  0  0
 20 21  2  0  0  0  0
 20 43  1  0  0  0  0
M  END
> <s_m_source_file>
AV-unprocessed.smi

> <i_m_source_file_index>
2816

> <i_lp_mmshare_version>
43012

> <i_f3d_flags>
0

> <s_epik_input>
W0NIM11DKFtDSDNdKShbQ0gzXSlTKD1PKSg9TyljMVtjSF1bY0hdYyhbY0hdbjEpW05IXVtDQEhdKFtDSDJdW0NAQEhdMjMpW0NAQEhdKE8zKVtDSDJdW0NIMl0y

> <s_epik_cmdline>
J2VwaWtfcHl0aG9uJywgJy1waCcsICc3LjAnLCAnLXRuJywgJzgnLCAnLW1hJywgJzIwMCcsICctbWV0YWxfYmluZGluZycsICctaW1hZScsICc8aW5maWxlLm1hZT4nLCAnLW9tYWUnLCAnPG91dGZpbGUubWFlPic=

> <r_lp_tautomer_probability>
1

> <r_epik_Ionization_Penalty>
1.94439e-07

> <r_epik_Ionization_Penalty_Charging>
0

> <r_epik_Ionization_Penalty_Neutral>
1.94439e-07

> <r_epik_State_Penalty>
-0

> <r_epik_Charging_Adjusted_Penalty>
0

> <i_epik_Tot_Q>
0

> <i_epik_Tot_abs_Q>
0

> <r_epik_Metal_State_Penalty>
-0

> <b_epik_Metal_Only>
0

> <s_lp_Force_Field>
OPLS_2005

> <r_lp_Energy>
43.8741

> <b_lp_Chiralities_Consistent>
1

> <s_lp_Variant>
AV-unprocessed.smi:2816-2

> <Gold.Version>
5.8.1

> <Gold.Id.Protein>
6NUR|6NUR_protein|mol2

> <Gold.PLP.Fitness>
36.7296

> <Gold.PLP.PLP>
-33.9908

> <Gold.PLP.part.hbond>
-2.0000

> <Gold.PLP.part.metal>
0.0000

> <Gold.PLP.part.buried>
-3.4130

> <Gold.PLP.part.nonpolar>
-27.0966

> <Gold.PLP.part.repulsive>
0.4385

> <Gold.PLP.ligand.clash>
0.0000

> <Gold.PLP.ligand.torsion>
1.2431

> <Gold.PLP.Chemscore.Hbond>
1.0000

> <Gold.PLP.Chemscore.CHOScore>
0.0000

> <Gold.PLP.Chemscore.Metal>
0.0000

> <Gold.Chemscore.Hbonds>
donor molecule, donor type, donor heavy atom, donor atom, acceptor molecule, acceptor atom, score
      P1  H  6896  6908       L1     6  0.83

> <Gold.PLP.Chemscore.Internal.Correction>
2.2251

> <Gold.Rescore>
     Score         DG    S(hbond)    S(metal)    S(lipo)     H(rot)  DE(clash)    DE(int)     intcor
     12.95     -14.96       0.88        0.00      80.96       1.15       0.83       1.18       ----

> <Gold.Chemscore.Fitness>
12.9517

> <Gold.Chemscore.DG>
-14.9569

> <Gold.Chemscore.ZeroCoef>
-5.4800

> <Gold.Chemscore.Hbond>
0.8807

> <Gold.Chemscore.Metal>
0.0000

> <Gold.Chemscore.Lipo>
80.9572

> <Gold.Chemscore.Internal_Hbond>
0.0000

> <Gold.Chemscore.DEClash>
0.8286

> <Gold.Chemscore.DEInternal>
1.1766

> <Gold.Chemscore.Rot>
1.1471

> <Gold.Chemscore.Internal.Correction>
   9.000000E+99

> <Gold.Chemscore.Hbonds>
donor molecule, donor type, donor heavy atom, donor atom, acceptor molecule, acceptor atom, score
      P1  H  6896  6908       L1     6  0.50

> <Gold.Chemscore.Hbond.Weighted>
-2.9415

> <Gold.Chemscore.Metal.Weighted>
-0.0000

> <Gold.Chemscore.Lipo.Weighted>
-9.4720

> <Gold.Chemscore.Internal_Hbond.Weighted>
0.0000

> <Gold.Chemscore.DEClash.Weighted>
0.8286

> <Gold.Chemscore.DEInternal.Weighted>
1.1766

> <Gold.Chemscore.Rot.Weighted>
2.9366

> <Gold.Chemscore.Internal.Correction.Weighted>
   9.000000E+99

> <Gold.Protein.RotatedTorsions>
[ 6907 6896 6895 6894 ] final   91.01 input  -60.11 | X-H torsion
[ 7974 7965 7964 7962 ] final   69.35 input  175.53 | X-H torsion
[ 8008 7997 7996 7995 ] final -120.65 input   59.86 | X-H torsion
[ 10167 10162 10161 10158 ] final -120.29 input  -65.29 | X-H torsion
[ 10718 10713 10712 10709 ] final -166.10 input   66.30 | X-H torsion
[ 10763 10752 10751 10750 ] final   25.07 input  -60.55 | X-H torsion
[ 11005 11000 10999 10996 ] final   50.94 input  -57.11 | X-H torsion

> <Gold.Protein.ActiveResidues>
 VAL166  LYS551  ARG553  GLY616  TRP617  ASP618  TYR619  PRO620  LYS621  CYS622 
 ASP623  PHE694  ASN695  SER759  ASP760  ASP761  ALA762  ILE779  LEU786  VAL792 
 PHE793  MET794  SER795  GLU796  ALA797  LYS798  CYS799  TRP800  GLU811  SER814 

> <Gold.Protein.RotatedAtoms>
  152.5448  134.1723  159.8601 H   0  0  0  0  0  0  0  0  0  0  0  0  # atno 6907 bound_to 6896
  151.1732  133.4764  159.2601 H   0  0  0  0  0  0  0  0  0  0  0  0  # atno 6908 bound_to 6896
  151.1253  135.0113  159.8613 H   0  0  0  0  0  0  0  0  0  0  0  0  # atno 6909 bound_to 6896
  145.7915  139.2936  143.1207 H   0  0  0  0  0  0  0  0  0  0  0  0  # atno 7974 bound_to 7965
  155.1352  140.0401  157.2785 H   0  0  0  0  0  0  0  0  0  0  0  0  # atno 8008 bound_to 7997
  154.6513  140.2570  155.7184 H   0  0  0  0  0  0  0  0  0  0  0  0  # atno 8009 bound_to 7997
  156.2578  140.2835  156.0948 H   0  0  0  0  0  0  0  0  0  0  0  0  # atno 8010 bound_to 7997
  140.0375  143.5187  152.2146 H   0  0  0  0  0  0  0  0  0  0  0  0  # atno 10167 bound_to 10162
  156.6630  130.9053  151.3032 H   0  0  0  0  0  0  0  0  0  0  0  0  # atno 10718 bound_to 10713
  153.0718  135.6591  154.0231 H   0  0  0  0  0  0  0  0  0  0  0  0  # atno 10763 bound_to 10752
  153.9875  135.2949  155.3416 H   0  0  0  0  0  0  0  0  0  0  0  0  # atno 10764 bound_to 10752
  154.7095  135.5211  153.8714 H   0  0  0  0  0  0  0  0  0  0  0  0  # atno 10765 bound_to 10752
  140.0975  134.5126  155.8793 H   0  0  0  0  0  0  0  0  0  0  0  0  # atno 11005 bound_to 11000
  145.9972  140.8552  143.0037 LP  0  0  0  0  0  0  0  0  0  0  0  0  # atno 17320 bound_to 7965
  144.6781  140.2299  143.7356 LP  0  0  0  0  0  0  0  0  0  0  0  0  # atno 17321 bound_to 7965
  139.6036  144.7590  151.3115 LP  0  0  0  0  0  0  0  0  0  0  0  0  # atno 17342 bound_to 10162
  140.7275  143.6961  150.7882 LP  0  0  0  0  0  0  0  0  0  0  0  0  # atno 17343 bound_to 10162
  157.7103  130.9432  150.1067 LP  0  0  0  0  0  0  0  0  0  0  0  0  # atno 17370 bound_to 10713
  156.1996  130.3659  149.8805 LP  0  0  0  0  0  0  0  0  0  0  0  0  # atno 17371 bound_to 10713
  141.2096  133.6686  156.6451 LP  0  0  0  0  0  0  0  0  0  0  0  0  # atno 17394 bound_to 11000
  140.3266  134.7963  157.4294 LP  0  0  0  0  0  0  0  0  0  0  0  0  # atno 17395 bound_to 11000

$$$$
