AV-unprocessed.smi:160|AV-procd|sdf|1369|dock4
  -GOLD-   2262019 83D 1   1.00000     0.00000
 Structure written by MMmdl.
 28 29  0  0  0  0  0  0  0  0  2 V2000
  153.3011  139.0380  157.3671 N   0  5  0  0  0  0  0  0  0  0  0  0
  153.0746  138.1091  156.4130 C   0  0  0  0  0  0  0  0  0  0  0  0
  153.7624  137.1134  156.1892 O   0  0  0  0  0  0  0  0  0  0  0  0
  151.8464  138.3617  155.5709 C   0  0  0  0  0  0  0  0  0  0  0  0
  151.8058  137.9669  154.2619 N   0  0  0  0  0  0  0  0  0  0  0  0
  150.5841  138.3802  153.9533 C   0  0  0  0  0  0  0  0  0  0  0  0
  149.9307  138.9641  154.9616 N   0  0  0  0  0  0  0  0  0  0  0  0
  148.5507  139.5523  154.9931 C   0  0  2  0  0  0  0  0  0  0  0  0
  147.6528  138.6019  154.5030 O   0  0  0  0  0  0  0  0  0  0  0  0
  147.2934  138.9253  153.1641 C   0  0  1  0  0  0  0  0  0  0  0  0
  145.9816  138.2319  152.7553 C   0  0  0  0  0  0  0  0  0  0  0  0
  145.6835  138.5095  151.4039 O   0  0  0  0  0  0  0  0  0  0  0  0
  147.2505  140.4601  153.1921 C   0  0  1  0  0  0  0  0  0  0  0  0
  146.0197  140.9253  153.7176 O   0  0  0  0  0  0  0  0  0  0  0  0
  148.3972  140.8283  154.1284 C   0  0  2  0  0  0  0  0  0  0  0  0
  149.5480  141.1767  153.3788 O   0  0  0  0  0  0  0  0  0  0  0  0
  150.7523  138.9689  156.0412 N   0  0  0  0  0  0  0  0  0  0  0  0
  148.3575  139.7271  156.0521 H   0  0  0  0  0  0  0  0  0  0  0  0
  148.0978  138.6204  152.4924 H   0  0  0  0  0  0  0  0  0  0  0  0
  147.3694  140.8845  152.1939 H   0  0  0  0  0  0  0  0  0  0  0  0
  148.1453  141.6721  154.7722 H   0  0  0  0  0  0  0  0  0  0  0  0
  153.0055  138.8323  158.3290 H   0  0  0  0  0  0  0  0  0  0  0  0
  150.1544  138.2511  152.9709 H   0  0  0  0  0  0  0  0  0  0  0  0
  146.0333  137.1546  152.9159 H   0  0  0  0  0  0  0  0  0  0  0  0
  145.1538  138.6122  153.3545 H   0  0  0  0  0  0  0  0  0  0  0  0
  144.8910  138.0518  151.1692 H   0  0  0  0  0  0  0  0  0  0  0  0
  145.3161  140.5170  153.2369 H   0  0  0  0  0  0  0  0  0  0  0  0
  149.7895  140.4415  152.8368 H   0  0  0  0  0  0  0  0  0  0  0  0
  1  2  1  0  0  0  0
  1 22  1  0  0  0  0
  2  3  2  0  0  0  0
  2  4  1  0  0  0  0
  4 17  2  0  0  0  0
  4  5  1  0  0  0  0
  5  6  2  0  0  0  0
  6  7  1  0  0  0  0
  6 23  1  0  0  0  0
  7  8  1  0  0  0  0
  7 17  1  0  0  0  0
  8 18  1  0  0  0  0
  8 15  1  0  0  0  0
  8  9  1  0  0  0  0
  9 10  1  0  0  0  0
 10 19  1  0  0  0  0
 10 11  1  0  0  0  0
 10 13  1  0  0  0  0
 11 12  1  0  0  0  0
 11 24  1  0  0  0  0
 11 25  1  0  0  0  0
 12 26  1  0  0  0  0
 13 20  1  0  0  0  0
 13 14  1  0  0  0  0
 13 15  1  0  0  0  0
 14 27  1  0  0  0  0
 15 21  1  0  0  0  0
 15 16  1  0  0  0  0
 16 28  1  0  0  0  0
M  CHG  1   1  -1
M  END
> <s_m_source_file>
AV-unprocessed.smi

> <i_m_source_file_index>
160

> <i_lp_mmshare_version>
43012

> <i_f3d_flags>
0

> <s_epik_input>
W05IMl1DKD1PKWMxbltjSF1uKG4xKVtDQEBIXTJPW0NASF0oW0NIMl1bT0hdKVtDQEBIXShbT0hdKVtDQEhdMltPSF0=

> <s_epik_cmdline>
J2VwaWtfcHl0aG9uJywgJy1waCcsICc3LjAnLCAnLXRuJywgJzgnLCAnLW1hJywgJzIwMCcsICctbWV0YWxfYmluZGluZycsICctaW1hZScsICc8aW5maWxlLm1hZT4nLCAnLW9tYWUnLCAnPG91dGZpbGUubWFlPic=

> <r_lp_tautomer_probability>
1

> <r_epik_Ionization_Penalty>
6.6993

> <r_epik_Ionization_Penalty_Charging>
6.6993

> <r_epik_Ionization_Penalty_Neutral>
6.01698e-06

> <r_epik_State_Penalty>
6.69929

> <r_epik_Charging_Adjusted_Penalty>
13.3986

> <i_epik_Tot_Q>
-1

> <i_epik_Tot_abs_Q>
1

> <r_epik_Metal_State_Penalty>
2.62798

> <b_epik_Metal_Only>
1

> <s_epik_Chemistry_Notes>
This compound contains an acetal/aminal-like group ( X-CH(R)-Y where X, Y are N, S, or O) that may be acid/base labile, releasing an aldehyde.

> <s_lp_Force_Field>
OPLS_2005

> <r_lp_Energy>
46.3304

> <b_lp_Chiralities_Consistent>
1

> <s_lp_Variant>
AV-unprocessed.smi:160-27

> <Gold.Version>
5.8.1

> <Gold.Id.Protein>
6NUR|6NUR_protein|mol2

> <Gold.PLP.Fitness>
46.5980

> <Gold.PLP.PLP>
-24.9058

> <Gold.PLP.part.hbond>
-7.3177

> <Gold.PLP.part.metal>
0.0000

> <Gold.PLP.part.buried>
-1.1997

> <Gold.PLP.part.nonpolar>
-16.6221

> <Gold.PLP.part.repulsive>
0.2894

> <Gold.PLP.ligand.clash>
0.0000

> <Gold.PLP.ligand.torsion>
0.5500

> <Gold.PLP.Chemscore.Hbond>
5.6000

> <Gold.PLP.Chemscore.CHOScore>
1.9953

> <Gold.PLP.Chemscore.Metal>
0.0000

> <Gold.Chemscore.Hbonds>
donor molecule, donor type, donor heavy atom, donor atom, acceptor molecule, acceptor atom, score
      L1  H    12    26       P1 10171  0.42
      L1  H    14    27       P1 10175  1.00
      L1  H    16    28       P1  7957  0.70
      P1  H  7997  8009       L1     1  2.00
      P1  H  8011  8017       L1    16  1.00
      P1  H 10752 10763       L1     3  0.48
      L1  C     6    23       P1  7948  0.96
      L1  C     6    23       P1  7949  0.02
      L1  C     6    23       P1  7957  0.88

> <Gold.PLP.Chemscore.Internal.Correction>
0.0065

> <Gold.Rescore>
     Score         DG    S(hbond)    S(metal)    S(lipo)     H(rot)  DE(clash)    DE(int)     intcor
     10.11     -11.83       4.01        0.00      28.28       4.04       0.09       1.63       ----

> <Gold.Chemscore.Fitness>
10.1141

> <Gold.Chemscore.DG>
-11.8304

> <Gold.Chemscore.ZeroCoef>
-5.4800

> <Gold.Chemscore.Hbond>
4.0075

> <Gold.Chemscore.Metal>
0.0000

> <Gold.Chemscore.Lipo>
28.2763

> <Gold.Chemscore.Internal_Hbond>
0.0000

> <Gold.Chemscore.DEClash>
0.0900

> <Gold.Chemscore.DEInternal>
1.6263

> <Gold.Chemscore.Rot>
4.0403

> <Gold.Chemscore.Internal.Correction>
   9.000000E+99

> <Gold.Chemscore.Hbonds>
donor molecule, donor type, donor heavy atom, donor atom, acceptor molecule, acceptor atom, score
      L1  H    12    26       P1 10171  0.42
      L1  H    14    27       P1 10175  0.91
      L1  H    16    28       P1  7957  0.70
      P1  H  7997  8009       L1     1  0.44
      P1  H  8011  8017       L1    16  0.25
      P1  H 10752 10763       L1     3  0.48

> <Gold.Chemscore.Hbond.Weighted>
-13.3851

> <Gold.Chemscore.Metal.Weighted>
-0.0000

> <Gold.Chemscore.Lipo.Weighted>
-3.3083

> <Gold.Chemscore.Internal_Hbond.Weighted>
0.0000

> <Gold.Chemscore.DEClash.Weighted>
0.0900

> <Gold.Chemscore.DEInternal.Weighted>
1.6263

> <Gold.Chemscore.Rot.Weighted>
10.3431

> <Gold.Chemscore.Internal.Correction.Weighted>
   9.000000E+99

> <Gold.Protein.RotatedTorsions>
[ 6907 6896 6895 6894 ] final -121.45 input  -60.11 | X-H torsion
[ 7974 7965 7964 7962 ] final -105.99 input  175.53 | X-H torsion
[ 8008 7997 7996 7995 ] final  179.18 input   59.86 | X-H torsion
[ 10167 10162 10161 10158 ] final  -60.45 input  -65.29 | X-H torsion
[ 10718 10713 10712 10709 ] final  -90.56 input   66.30 | X-H torsion
[ 10763 10752 10751 10750 ] final  125.64 input  -60.55 | X-H torsion
[ 11005 11000 10999 10996 ] final  -54.13 input  -57.11 | X-H torsion

> <Gold.Protein.ActiveResidues>
 VAL166  LYS551  ARG553  GLY616  TRP617  ASP618  TYR619  PRO620  LYS621  CYS622 
 ASP623  PHE694  ASN695  SER759  ASP760  ASP761  ALA762  ILE779  LEU786  VAL792 
 PHE793  MET794  SER795  GLU796  ALA797  LYS798  CYS799  TRP800  GLU811  SER814 

> <Gold.Protein.RotatedAtoms>
  150.8484  133.7825  159.3034 H   0  0  0  0  0  0  0  0  0  0  0  0  # atno 6907 bound_to 6896
  151.5505  135.1066  159.9958 H   0  0  0  0  0  0  0  0  0  0  0  0  # atno 6908 bound_to 6896
  152.4532  133.7628  159.6812 H   0  0  0  0  0  0  0  0  0  0  0  0  # atno 6909 bound_to 6896
  145.2235  140.9143  143.3246 H   0  0  0  0  0  0  0  0  0  0  0  0  # atno 7974 bound_to 7965
  156.0463  140.1315  157.0100 H   0  0  0  0  0  0  0  0  0  0  0  0  # atno 8008 bound_to 7997
  154.4414  140.1020  156.6382 H   0  0  0  0  0  0  0  0  0  0  0  0  # atno 8009 bound_to 7997
  155.5590  140.3464  155.4489 H   0  0  0  0  0  0  0  0  0  0  0  0  # atno 8010 bound_to 7997
  140.6071  143.2376  151.5797 H   0  0  0  0  0  0  0  0  0  0  0  0  # atno 10167 bound_to 10162
  155.9988  130.4914  150.5341 H   0  0  0  0  0  0  0  0  0  0  0  0  # atno 10718 bound_to 10713
  153.6806  135.3315  155.3177 H   0  0  0  0  0  0  0  0  0  0  0  0  # atno 10763 bound_to 10752
  154.8467  135.4408  154.1610 H   0  0  0  0  0  0  0  0  0  0  0  0  # atno 10764 bound_to 10752
  153.2626  135.6992  153.7640 H   0  0  0  0  0  0  0  0  0  0  0  0  # atno 10765 bound_to 10752
  141.1011  133.6618  156.4275 H   0  0  0  0  0  0  0  0  0  0  0  0  # atno 11005 bound_to 11000
  144.9743  139.3848  143.6293 LP  0  0  0  0  0  0  0  0  0  0  0  0  # atno 17320 bound_to 7965
  146.3370  139.8855  142.8817 LP  0  0  0  0  0  0  0  0  0  0  0  0  # atno 17321 bound_to 7965
  139.5333  144.2854  152.1195 LP  0  0  0  0  0  0  0  0  0  0  0  0  # atno 17342 bound_to 10162
  140.2046  144.4624  150.6415 LP  0  0  0  0  0  0  0  0  0  0  0  0  # atno 17343 bound_to 10162
  157.3287  131.0695  151.1877 LP  0  0  0  0  0  0  0  0  0  0  0  0  # atno 17370 bound_to 10713
  157.2766  130.6730  149.6045 LP  0  0  0  0  0  0  0  0  0  0  0  0  # atno 17371 bound_to 10713
  140.5020  134.6476  157.5252 LP  0  0  0  0  0  0  0  0  0  0  0  0  # atno 17394 bound_to 11000
  139.9862  134.7057  155.9769 LP  0  0  0  0  0  0  0  0  0  0  0  0  # atno 17395 bound_to 11000

$$$$
