#       Name:                AV-unprocessed.smi:1430
#       Creating user name   scv26
#       Creation time:       Fri Mar 27 05:48:48 2020


#       File generated by GOLD software.
#

@<TRIPOS>MOLECULE
AV-unprocessed.smi:1430
    54    55     1
SMALL
NO_CHARGES


@<TRIPOS>ATOM
      1 ****        -7.7039   3.4630   0.1236 C.3            1 S1                 0.0000
      2 ****        -7.5715   2.2993  -0.6854 O.3            1 S1                 0.0000
      3 ****        -6.3079   1.7854  -0.8919 C.ar           1 S1                 0.0000
      4 ****        -6.1695   0.6391  -1.6985 C.ar           1 S1                 0.0000
      5 ****        -4.8818   0.1138  -1.9141 C.ar           1 S1                 0.0000
      6 ****        -3.7691   0.7462  -1.3229 C.ar           1 S1                 0.0000
      7 ****        -2.4870   0.1769  -1.5594 N.am           1 S1                 0.0000
      8 ****        -1.2696   0.6689  -1.2701 C.2            1 S1                 0.0000
      9 ****        -1.0409   1.7519  -0.7331 O.2            1 S1                 0.0000
     10 ****        -0.3028  -0.1782  -1.6507 N.am           1 S1                 0.0000
     11 ****         1.1267   0.0579  -1.4820 C.3            1 S1                 0.0000
     12 ****         1.5832  -0.2574  -0.0446 C.3            1 S1                 0.0000
     13 ****         3.0273   0.0271   0.1679 N.4            1 S1                 1.0000
     14 ****         3.3864   0.2354   1.5921 C.3            1 S1                 0.0000
     15 ****         3.4764  -1.1053   2.3499 C.3            1 S1                 0.0000
     16 ****         3.9326  -0.9180   3.8010 C.3            1 S1                 0.0000
     17 ****         4.4222  -1.9428   1.6938 O.3            1 S1                 0.0000
     18 ****         4.0527  -2.2529   0.3544 C.3            1 S1                 0.0000
     19 ****         5.1027  -3.2123  -0.2164 C.3            1 S1                 0.0000
     20 ****         3.9573  -0.9454  -0.4615 C.3            1 S1                 0.0000
     21 ****        -4.0145   1.8883  -0.5204 C.ar           1 S1                 0.0000
     22 ****        -5.2471   2.3976  -0.3108 N.ar           1 S1                 0.0000
     23 ****        -8.7560   3.7402   0.1867 H              1 S1                 0.0000
     24 ****        -7.1640   4.3094  -0.3035 H              1 S1                 0.0000
     25 ****        -7.3472   3.2863   1.1393 H              1 S1                 0.0000
     26 ****        -7.0355   0.1714  -2.1433 H              1 S1                 0.0000
     27 ****        -4.7533  -0.7655  -2.5288 H              1 S1                 0.0000
     28 ****        -2.4983  -0.7112  -2.0392 H              1 S1                 0.0000
     29 ****        -0.5748  -1.0451  -2.0916 H              1 S1                 0.0000
     30 ****         1.6440  -0.5745  -2.2021 H              1 S1                 0.0000
     31 ****         1.3694   1.0894  -1.7432 H              1 S1                 0.0000
     32 ****         1.0035   0.3632   0.6402 H              1 S1                 0.0000
     33 ****         1.3497  -1.2907   0.2118 H              1 S1                 0.0000
     34 ****         4.3535   0.7393   1.6280 H              1 S1                 0.0000
     35 ****         2.6754   0.9088   2.0720 H              1 S1                 0.0000
     36 ****         2.5031  -1.5986   2.3583 H              1 S1                 0.0000
     37 ****         3.2316  -0.2939   4.3558 H              1 S1                 0.0000
     38 ****         4.9137  -0.4447   3.8493 H              1 S1                 0.0000
     39 ****         4.0006  -1.8773   4.3148 H              1 S1                 0.0000
     40 ****         3.0911  -2.7677   0.3582 H              1 S1                 0.0000
     41 ****         4.8638  -3.4909  -1.2430 H              1 S1                 0.0000
     42 ****         5.1543  -4.1285   0.3724 H              1 S1                 0.0000
     43 ****         6.0949  -2.7601  -0.2140 H              1 S1                 0.0000
     44 ****         3.6732  -1.1532  -1.4922 H              1 S1                 0.0000
     45 ****         4.9427  -0.4799  -0.5104 H              1 S1                 0.0000
     46 ****        -3.2268   2.4189  -0.0110 H              1 S1                 0.0000
     47 ****         3.1872   0.9151  -0.2864 H              1 S1                 0.0000
     48 ****        -7.9521   2.5186  -1.5837 LP             1 S1                 0.0000
     49 ****        -8.1179   1.5786  -0.2587 LP             1 S1                 0.0000
     50 ****        -1.7982   2.3505  -0.4723 LP             1 S1                 0.0000
     51 ****        -0.0976   2.0336  -0.5574 LP             1 S1                 0.0000
     52 ****         4.5033  -2.7965   2.2082 LP             1 S1                 0.0000
     53 ****         5.3066  -1.4762   1.6809 LP             1 S1                 0.0000
     54 ****        -5.3747   3.2084   0.2604 LP             1 S1                 0.0000
@<TRIPOS>BOND
    1    1    2 1     
    2    1   23 1     
    3    1   24 1     
    4    1   25 1     
    5    2    3 1     
    6    3   22 ar    
    7    3    4 ar    
    8    4    5 ar    
    9    4   26 1     
   10    5    6 ar    
   11    5   27 1     
   12    6    7 1     
   13    6   21 ar    
   14    7    8 am    
   15    7   28 1     
   16    8    9 2     
   17    8   10 am    
   18   10   11 1     
   19   10   29 1     
   20   11   12 1     
   21   11   30 1     
   22   11   31 1     
   23   12   13 1     
   24   12   32 1     
   25   12   33 1     
   26   13   20 1     
   27   13   14 1     
   28   13   47 1     
   29   14   15 1     
   30   14   34 1     
   31   14   35 1     
   32   15   16 1     
   33   15   17 1     
   34   15   36 1     
   35   16   37 1     
   36   16   38 1     
   37   16   39 1     
   38   17   18 1     
   39   18   19 1     
   40   18   20 1     
   41   18   40 1     
   42   19   41 1     
   43   19   42 1     
   44   19   43 1     
   45   20   44 1     
   46   20   45 1     
   47   21   22 ar    
   48   21   46 1     
   49    2   48 1     
   50    2   49 1     
   51    9   50 1     
   52    9   51 1     
   53   17   52 1     
   54   17   53 1     
   55   22   54 1     
@<TRIPOS>SUBSTRUCTURE
      1 S1             1
@<TRIPOS>SET
LONE_PAIRS      STATIC     ATOMS    <user>   **** ""
7 48 49 50 51 52 53 54
DONOR_HYDROGENS      STATIC     ATOMS    <user>   **** ""
3 28 29 47
ATOM$BLUE        STATIC     ATOMS    COLORGROUP SYSTEM
7 48 49 50 51 52 53 54
ATOM$RED        STATIC     ATOMS    COLORGROUP SYSTEM
3 28 29 47
