#       Name:                AV-unprocessed.smi:835
#       Creating user name   scv26
#       Creation time:       Fri Mar 27 01:34:38 2020


#       File generated by GOLD software.
#

@<TRIPOS>MOLECULE
AV-unprocessed.smi:835
    44    46     1
SMALL
NO_CHARGES


@<TRIPOS>ATOM
      1 ****        -6.7476  -0.4786   1.4801 C.3            1 S1                 0.0000
      2 ****        -5.4662   0.2063   1.1063 C.2            1 S1                 0.0000
      3 ****        -4.1911  -0.3858   0.8713 C.2            1 S1                 0.0000
      4 ****        -3.4077   0.6953   0.5723 C.2            1 S1                 0.0000
      5 ****        -2.0849   0.7330   0.2595 N.am           1 S1                 0.0000
      6 ****        -1.2151  -0.2878   0.1648 C.2            1 S1                 0.0000
      7 ****        -1.4798  -1.4745   0.3576 O.2            1 S1                 0.0000
      8 ****         0.0081   0.1454  -0.1717 N.am           1 S1                 0.0000
      9 ****         1.1703  -0.7179  -0.3536 C.3            1 S1                 0.0000
     10 ****         1.7892  -1.2293   0.9502 C.3            1 S1                 0.0000
     11 ****         3.2820  -1.4091   0.6247 C.3            1 S1                 0.0000
     12 ****         3.5008  -0.8280  -0.7205 N.4            1 S1                 1.0000
     13 ****         4.8016  -0.1461  -0.8863 C.3            1 S1                 0.0000
     14 ****         5.3254  -0.1818  -2.3021 C.3            1 S1                 0.0000
     15 ****         5.9314  -1.0810  -1.2462 C.3            1 S1                 0.0000
     16 ****         2.3327   0.0229  -1.0065 C.3            1 S1                 0.0000
     17 ****        -4.1801   1.8341   0.6305 N.pl3          1 S1                 0.0000
     18 ****        -3.8046   3.2148   0.3964 C.3            1 S1                 0.0000
     19 ****        -5.4525   1.5267   0.9628 N.2            1 S1                 0.0000
     20 ****        -6.6480  -1.5624   1.4162 H              1 S1                 0.0000
     21 ****        -7.5614  -0.1819   0.8179 H              1 S1                 0.0000
     22 ****        -7.0400  -0.2318   2.5009 H              1 S1                 0.0000
     23 ****        -3.9208  -1.4297   0.9200 H              1 S1                 0.0000
     24 ****        -1.7150   1.6534   0.0732 H              1 S1                 0.0000
     25 ****         0.1427   1.1362  -0.3124 H              1 S1                 0.0000
     26 ****         0.9015  -1.5683  -0.9840 H              1 S1                 0.0000
     27 ****         1.6763  -0.4879   1.7427 H              1 S1                 0.0000
     28 ****         1.3225  -2.1533   1.2933 H              1 S1                 0.0000
     29 ****         3.8927  -0.9078   1.3771 H              1 S1                 0.0000
     30 ****         3.5674  -2.4614   0.6137 H              1 S1                 0.0000
     31 ****         4.9820   0.7196  -0.2509 H              1 S1                 0.0000
     32 ****         4.7099  -0.6502  -3.0683 H              1 S1                 0.0000
     33 ****         5.9221   0.6638  -2.6382 H              1 S1                 0.0000
     34 ****         6.9271  -0.8269  -0.8878 H              1 S1                 0.0000
     35 ****         5.7184  -2.1466  -1.3098 H              1 S1                 0.0000
     36 ****         2.1921   0.1641  -2.0786 H              1 S1                 0.0000
     37 ****         2.4696   1.0038  -0.5469 H              1 S1                 0.0000
     38 ****        -3.1189   3.5442   1.1770 H              1 S1                 0.0000
     39 ****        -4.6850   3.8587   0.4024 H              1 S1                 0.0000
     40 ****        -3.3118   3.3022  -0.5720 H              1 S1                 0.0000
     41 ****         3.4658  -1.5956  -1.3761 H              1 S1                 0.0000
     42 ****        -2.4094  -1.7452   0.6079 LP             1 S1                 0.0000
     43 ****        -0.7653  -2.1678   0.2639 LP             1 S1                 0.0000
     44 ****        -6.2198   2.1578   1.0765 LP             1 S1                 0.0000
@<TRIPOS>BOND
    1    1    2 1     
    2    1   20 1     
    3    1   21 1     
    4    1   22 1     
    5    2   19 2     
    6    2    3 1     
    7    3    4 2     
    8    3   23 1     
    9    4    5 1     
   10    4   17 1     
   11    5    6 am    
   12    5   24 1     
   13    6    7 2     
   14    6    8 am    
   15    8    9 1     
   16    8   25 1     
   17    9   16 1     
   18    9   10 1     
   19    9   26 1     
   20   10   11 1     
   21   10   27 1     
   22   10   28 1     
   23   11   12 1     
   24   11   29 1     
   25   11   30 1     
   26   12   13 1     
   27   12   16 1     
   28   12   41 1     
   29   13   15 1     
   30   13   14 1     
   31   13   31 1     
   32   14   15 1     
   33   14   32 1     
   34   14   33 1     
   35   15   34 1     
   36   15   35 1     
   37   16   36 1     
   38   16   37 1     
   39   17   18 1     
   40   17   19 1     
   41   18   38 1     
   42   18   39 1     
   43   18   40 1     
   44    7   42 1     
   45    7   43 1     
   46   19   44 1     
@<TRIPOS>SUBSTRUCTURE
      1 S1             1
@<TRIPOS>SET
LONE_PAIRS      STATIC     ATOMS    <user>   **** ""
3 42 43 44
DONOR_HYDROGENS      STATIC     ATOMS    <user>   **** ""
3 24 25 41
ATOM$BLUE        STATIC     ATOMS    COLORGROUP SYSTEM
3 42 43 44
ATOM$RED        STATIC     ATOMS    COLORGROUP SYSTEM
3 24 25 41
