AV-unprocessed.smi:1118|AV-procd|sdf|4815|dock7
  -GOLD-   22720 3373D 1   1.00000     0.00000
 Structure written by MMmdl.
 45 46  0  0  0  0  0  0  0  0  2 V2000
  148.4099  133.0607  152.9091 C   0  0  0  0  0  0  0  0  0  0  0  0
  149.0407  132.9954  154.1764 O   0  0  0  0  0  0  0  0  0  0  0  0
  149.8445  134.1331  154.4427 C   0  0  0  0  0  0  0  0  0  0  0  0
  148.9417  135.2814  154.9193 C   0  0  0  0  0  0  0  0  0  0  0  0
  149.4571  136.6163  154.5215 N   0  3  2  0  0  0  0  0  0  0  0  0
  150.9114  136.7548  154.7891 C   0  0  0  0  0  0  0  0  0  0  0  0
  151.4498  138.0854  154.2386 C   0  0  0  0  0  0  0  0  0  0  0  0
  150.6982  139.2976  154.8276 C   0  0  2  0  0  0  0  0  0  0  0  0
  151.0133  139.5891  156.3141 C   0  0  0  0  0  0  0  0  0  0  0  0
  150.4299  140.8525  156.7519 N   0  0  0  0  0  0  0  0  0  0  0  0
  149.4584  140.9862  157.6687 C   0  0  0  0  0  0  0  0  0  0  0  0
  148.8749  140.0360  158.1902 O   0  0  0  0  0  0  0  0  0  0  0  0
  149.1234  142.4148  158.0948 C   0  0  0  0  0  0  0  0  0  0  0  0
  150.3197  143.1015  158.5480 N   0  0  0  0  0  0  0  0  0  0  0  0
  151.0129  144.1171  157.9225 C   0  0  0  0  0  0  0  0  0  0  0  0
  152.0561  144.4578  158.7351 C   0  0  0  0  0  0  0  0  0  0  0  0
  151.9153  143.5853  159.8503 C   0  0  0  0  0  0  0  0  0  0  0  0
  150.8749  142.7754  159.7364 N   0  0  0  0  0  0  0  0  0  0  0  0
  149.1904  139.1047  154.5808 C   0  0  0  0  0  0  0  0  0  0  0  0
  148.6805  137.7461  155.0994 C   0  0  0  0  0  0  0  0  0  0  0  0
  147.8109  132.1637  152.7509 H   0  0  0  0  0  0  0  0  0  0  0  0
  149.1445  133.1211  152.1048 H   0  0  0  0  0  0  0  0  0  0  0  0
  147.7464  133.9241  152.8427 H   0  0  0  0  0  0  0  0  0  0  0  0
  150.6168  133.8969  155.1748 H   0  0  0  0  0  0  0  0  0  0  0  0
  150.3570  134.4358  153.5282 H   0  0  0  0  0  0  0  0  0  0  0  0
  147.9271  135.1526  154.5397 H   0  0  0  0  0  0  0  0  0  0  0  0
  148.8707  135.2226  156.0062 H   0  0  0  0  0  0  0  0  0  0  0  0
  151.0988  136.6766  155.8608 H   0  0  0  0  0  0  0  0  0  0  0  0
  151.4513  135.9342  154.3155 H   0  0  0  0  0  0  0  0  0  0  0  0
  152.5226  138.1601  154.4153 H   0  0  0  0  0  0  0  0  0  0  0  0
  151.3339  138.0891  153.1540 H   0  0  0  0  0  0  0  0  0  0  0  0
  151.0116  140.1784  154.2650 H   0  0  0  0  0  0  0  0  0  0  0  0
  150.5915  138.7996  156.9366 H   0  0  0  0  0  0  0  0  0  0  0  0
  152.0876  139.5706  156.4991 H   0  0  0  0  0  0  0  0  0  0  0  0
  150.8458  141.6961  156.3835 H   0  0  0  0  0  0  0  0  0  0  0  0
  148.6757  142.9693  157.2683 H   0  0  0  0  0  0  0  0  0  0  0  0
  148.3945  142.3997  158.9061 H   0  0  0  0  0  0  0  0  0  0  0  0
  150.7075  144.5096  156.9634 H   0  0  0  0  0  0  0  0  0  0  0  0
  152.8051  145.2159  158.5600 H   0  0  0  0  0  0  0  0  0  0  0  0
  152.5332  143.5177  160.7334 H   0  0  0  0  0  0  0  0  0  0  0  0
  148.6251  139.9164  155.0399 H   0  0  0  0  0  0  0  0  0  0  0  0
  148.9928  139.1694  153.5099 H   0  0  0  0  0  0  0  0  0  0  0  0
  147.6274  137.6508  154.8382 H   0  0  0  0  0  0  0  0  0  0  0  0
  148.7334  137.7077  156.1879 H   0  0  0  0  0  0  0  0  0  0  0  0
  149.3537  136.6710  153.5178 H   0  0  0  0  0  0  0  0  0  0  0  0
  1  2  1  0  0  0  0
  1 21  1  0  0  0  0
  1 22  1  0  0  0  0
  1 23  1  0  0  0  0
  2  3  1  0  0  0  0
  3  4  1  0  0  0  0
  3 24  1  0  0  0  0
  3 25  1  0  0  0  0
  4  5  1  0  0  0  0
  4 26  1  0  0  0  0
  4 27  1  0  0  0  0
  5 20  1  0  0  0  0
  5  6  1  0  0  0  0
  5 45  1  0  0  0  0
  6  7  1  0  0  0  0
  6 28  1  0  0  0  0
  6 29  1  0  0  0  0
  7  8  1  0  0  0  0
  7 30  1  0  0  0  0
  7 31  1  0  0  0  0
  8  9  1  0  0  0  0
  8 19  1  0  0  0  0
  8 32  1  0  0  0  0
  9 10  1  0  0  0  0
  9 33  1  0  0  0  0
  9 34  1  0  0  0  0
 10 11  1  0  0  0  0
 10 35  1  0  0  0  0
 11 12  2  0  0  0  0
 11 13  1  0  0  0  0
 13 14  1  0  0  0  0
 13 36  1  0  0  0  0
 13 37  1  0  0  0  0
 14 18  1  0  0  0  0
 14 15  1  0  0  0  0
 15 16  2  0  0  0  0
 15 38  1  0  0  0  0
 16 17  1  0  0  0  0
 16 39  1  0  0  0  0
 17 18  2  0  0  0  0
 17 40  1  0  0  0  0
 19 20  1  0  0  0  0
 19 41  1  0  0  0  0
 19 42  1  0  0  0  0
 20 43  1  0  0  0  0
 20 44  1  0  0  0  0
M  CHG  1   5   1
M  END
> <s_m_source_file>
AV-unprocessed.smi

> <i_m_source_file_index>
1118

> <i_lp_mmshare_version>
43012

> <i_f3d_flags>
0

> <s_epik_input>
W0NIM11PW0NIMl1bQ0gyXU4xW0NIMl1bQ0gyXVtDSF0oW0NIMl1bQ0gyXTEpW0NIMl1bTkhdQyg9TylbQ0gyXW4yW2NIXVtjSF1bY0hdbjI=

> <s_epik_cmdline>
J2VwaWtfcHl0aG9uJywgJy1waCcsICc3LjAnLCAnLXRuJywgJzgnLCAnLW1hJywgJzIwMCcsICctbWV0YWxfYmluZGluZycsICctaW1hZScsICc8aW5maWxlLm1hZT4nLCAnLW9tYWUnLCAnPG91dGZpbGUubWFlPic=

> <r_lp_tautomer_probability>
1

> <r_epik_Ionization_Penalty>
0.00991549

> <r_epik_Ionization_Penalty_Charging>
0.00990284

> <r_epik_Ionization_Penalty_Neutral>
1.26554e-05

> <r_epik_State_Penalty>
0.00754525

> <r_epik_Charging_Adjusted_Penalty>
0.0174481

> <i_epik_Tot_Q>
1

> <i_epik_Tot_abs_Q>
1

> <r_epik_Metal_State_Penalty>
0.00754527

> <b_epik_Metal_Only>
0

> <s_lp_Force_Field>
OPLS_2005

> <r_lp_Energy>
20.3216

> <b_lp_Chiralities_Consistent>
1

> <s_lp_Variant>
AV-unprocessed.smi:1118-2

> <Gold.Version>
5.8.1

> <Gold.Id.Protein>
6NUR|6NUR_protein|mol2

> <Gold.PLP.Fitness>
47.2475

> <Gold.PLP.PLP>
-39.1938

> <Gold.PLP.part.hbond>
-1.0000

> <Gold.PLP.part.metal>
0.0000

> <Gold.PLP.part.buried>
-3.8162

> <Gold.PLP.part.nonpolar>
-34.5537

> <Gold.PLP.part.repulsive>
0.1906

> <Gold.PLP.ligand.clash>
0.0000

> <Gold.PLP.ligand.torsion>
0.5511

> <Gold.PLP.Chemscore.Hbond>
2.0000

> <Gold.PLP.Chemscore.CHOScore>
1.0000

> <Gold.PLP.Chemscore.Metal>
0.0000

> <Gold.Chemscore.Hbonds>
donor molecule, donor type, donor heavy atom, donor atom, acceptor molecule, acceptor atom, score
      L1  H     5    45       P1  7948  2.00
      L1  C    15    38       P1  8028  1.00

> <Gold.PLP.Chemscore.Internal.Correction>
0.1561

> <Gold.Rescore>
     Score         DG    S(hbond)    S(metal)    S(lipo)     H(rot)  DE(clash)    DE(int)     intcor
     13.79     -14.38       0.98        0.00      96.68       2.22       0.00       0.59       ----

> <Gold.Chemscore.Fitness>
13.7871

> <Gold.Chemscore.DG>
-14.3813

> <Gold.Chemscore.ZeroCoef>
-5.4800

> <Gold.Chemscore.Hbond>
0.9773

> <Gold.Chemscore.Metal>
0.0000

> <Gold.Chemscore.Lipo>
96.6812

> <Gold.Chemscore.Internal_Hbond>
0.0000

> <Gold.Chemscore.DEClash>
0.0000

> <Gold.Chemscore.DEInternal>
0.5941

> <Gold.Chemscore.Rot>
2.2166

> <Gold.Chemscore.Internal.Correction>
   9.000000E+99

> <Gold.Chemscore.Hbonds>
donor molecule, donor type, donor heavy atom, donor atom, acceptor molecule, acceptor atom, score
      L1  H     5    45       P1  7948  0.90

> <Gold.Chemscore.Hbond.Weighted>
-3.2641

> <Gold.Chemscore.Metal.Weighted>
-0.0000

> <Gold.Chemscore.Lipo.Weighted>
-11.3117

> <Gold.Chemscore.Internal_Hbond.Weighted>
0.0000

> <Gold.Chemscore.DEClash.Weighted>
0.0000

> <Gold.Chemscore.DEInternal.Weighted>
0.5941

> <Gold.Chemscore.Rot.Weighted>
5.6745

> <Gold.Chemscore.Internal.Correction.Weighted>
   9.000000E+99

> <Gold.Protein.RotatedTorsions>
[ 6907 6896 6895 6894 ] final  -36.35 input  -60.11 | X-H torsion
[ 7974 7965 7964 7962 ] final  122.66 input  175.53 | X-H torsion
[ 8008 7997 7996 7995 ] final -175.03 input   59.86 | X-H torsion
[ 10167 10162 10161 10158 ] final  -30.91 input  -65.29 | X-H torsion
[ 10718 10713 10712 10709 ] final   82.78 input   66.30 | X-H torsion
[ 10763 10752 10751 10750 ] final  -19.52 input  -60.55 | X-H torsion
[ 11005 11000 10999 10996 ] final  127.58 input  -57.11 | X-H torsion

> <Gold.Protein.ActiveResidues>
 VAL166  LYS551  ARG553  GLY616  TRP617  ASP618  TYR619  PRO620  LYS621  CYS622 
 ASP623  PHE694  ASN695  SER759  ASP760  ASP761  ALA762  ILE779  LEU786  VAL792 
 PHE793  MET794  SER795  GLU796  ALA797  LYS798  CYS799  TRP800  GLU811  SER814 

> <Gold.Protein.RotatedAtoms>
  151.0283  134.9520  159.8096 H   0  0  0  0  0  0  0  0  0  0  0  0  # atno 6907 bound_to 6896
  152.5340  134.2813  159.9018 H   0  0  0  0  0  0  0  0  0  0  0  0  # atno 6908 bound_to 6896
  151.2822  133.4162  159.2661 H   0  0  0  0  0  0  0  0  0  0  0  0  # atno 6909 bound_to 6896
  145.1049  139.3492  143.4793 H   0  0  0  0  0  0  0  0  0  0  0  0  # atno 7974 bound_to 7965
  155.9774  140.1175  157.0757 H   0  0  0  0  0  0  0  0  0  0  0  0  # atno 8008 bound_to 7997
  154.4173  140.1151  156.5457 H   0  0  0  0  0  0  0  0  0  0  0  0  # atno 8009 bound_to 7997
  155.6516  140.3473  155.4752 H   0  0  0  0  0  0  0  0  0  0  0  0  # atno 8010 bound_to 7997
  140.7243  143.3812  151.1598 H   0  0  0  0  0  0  0  0  0  0  0  0  # atno 10167 bound_to 10162
  157.6865  131.0062  150.2425 H   0  0  0  0  0  0  0  0  0  0  0  0  # atno 10718 bound_to 10713
  153.6060  135.6998  153.5365 H   0  0  0  0  0  0  0  0  0  0  0  0  # atno 10763 bound_to 10752
  153.3056  135.4116  155.1291 H   0  0  0  0  0  0  0  0  0  0  0  0  # atno 10764 bound_to 10752
  154.8573  135.3659  154.5597 H   0  0  0  0  0  0  0  0  0  0  0  0  # atno 10765 bound_to 10752
  139.9515  134.9621  156.8876 H   0  0  0  0  0  0  0  0  0  0  0  0  # atno 11005 bound_to 11000
  146.3528  140.0943  142.8611 LP  0  0  0  0  0  0  0  0  0  0  0  0  # atno 17320 bound_to 7965
  145.0913  140.9286  143.4767 LP  0  0  0  0  0  0  0  0  0  0  0  0  # atno 17321 bound_to 7965
  139.7401  143.8938  152.3047 LP  0  0  0  0  0  0  0  0  0  0  0  0  # atno 17342 bound_to 10162
  139.8756  144.7045  150.8937 LP  0  0  0  0  0  0  0  0  0  0  0  0  # atno 17343 bound_to 10162
  156.3037  130.3762  149.7726 LP  0  0  0  0  0  0  0  0  0  0  0  0  # atno 17370 bound_to 10713
  156.5348  130.8274  151.3249 LP  0  0  0  0  0  0  0  0  0  0  0  0  # atno 17371 bound_to 10713
  140.5708  134.0445  155.7430 LP  0  0  0  0  0  0  0  0  0  0  0  0  # atno 17394 bound_to 11000
  141.1179  133.9510  157.2787 LP  0  0  0  0  0  0  0  0  0  0  0  0  # atno 17395 bound_to 11000

$$$$
