AV-unprocessed.smi:213|AV-procd|sdf|1634|dock7
  -GOLD-   2262019593D 1   1.00000     0.00000
 Structure written by MMmdl.
 59 62  0  0  0  0  0  0  0  0  2 V2000
  149.4771  132.3779  153.9994 C   0  0  0  0  0  0  0  0  0  0  0  0
  149.2075  133.8906  154.1043 C   0  0  1  0  0  0  0  0  0  0  0  0
  147.6953  134.2155  154.1195 C   0  0  0  0  0  0  0  0  0  0  0  0
  147.1052  134.2470  152.7579 N   0  3  0  0  0  0  0  0  0  0  0  0
  147.0361  132.9032  152.1365 C   0  0  0  0  0  0  0  0  0  0  0  0
  146.4659  132.9981  150.7110 C   0  0  0  0  0  0  0  0  0  0  0  0
  145.1845  133.6135  150.7498 O   0  0  0  0  0  0  0  0  0  0  0  0
  145.2459  134.9382  151.2633 C   0  0  0  0  0  0  0  0  0  0  0  0
  145.7781  134.9100  152.7061 C   0  0  0  0  0  0  0  0  0  0  0  0
  149.8923  134.4668  155.2698 N   0  0  0  0  0  0  0  0  0  0  0  0
  150.5403  133.5896  156.2427 C   0  0  0  0  0  0  0  0  0  0  0  0
  149.5725  135.7230  155.6930 C   0  0  0  0  0  0  0  0  0  0  0  0
  148.4687  135.9053  156.4683 N   0  0  0  0  0  0  0  0  0  0  0  0
  148.1348  137.1219  156.9068 C   0  0  0  0  0  0  0  0  0  0  0  0
  148.7525  138.2832  156.6920 N   0  0  0  0  0  0  0  0  0  0  0  0
  149.8578  138.1161  155.9115 C   0  0  0  0  0  0  0  0  0  0  0  0
  150.3351  136.8865  155.3729 C   0  0  0  0  0  0  0  0  0  0  0  0
  151.4800  137.1234  154.6186 N   0  0  0  0  0  0  0  0  0  0  0  0
  151.6789  138.4083  154.7249 C   0  0  0  0  0  0  0  0  0  0  0  0
  150.7558  139.0815  155.4907 N   0  0  0  0  0  0  0  0  0  0  0  0
  150.7378  140.5051  155.7843 C   0  0  0  0  0  0  0  0  0  0  0  0
  150.6464  140.8374  157.2910 C   0  0  2  0  0  0  0  0  0  0  0  0
  149.2985  140.8732  157.7194 O   0  0  0  0  0  0  0  0  0  0  0  0
  151.3886  142.1205  157.7311 C   0  0  2  0  0  0  0  0  0  0  0  0
  151.5392  142.3217  159.2394 C   0  0  0  0  0  0  0  0  0  0  0  0
  151.8414  143.8022  159.3082 C   0  0  0  0  0  0  0  0  0  0  0  0
  150.9465  144.3647  158.2054 C   0  0  0  0  0  0  0  0  0  0  0  0
  150.7760  143.3160  157.2562 O   0  0  0  0  0  0  0  0  0  0  0  0
  149.0756  131.9701  153.0717 H   0  0  0  0  0  0  0  0  0  0  0  0
  149.0263  131.8226  154.8218 H   0  0  0  0  0  0  0  0  0  0  0  0
  150.5479  132.1719  154.0061 H   0  0  0  0  0  0  0  0  0  0  0  0
  149.6561  134.3239  153.2114 H   0  0  0  0  0  0  0  0  0  0  0  0
  147.1813  133.4624  154.7183 H   0  0  0  0  0  0  0  0  0  0  0  0
  147.5043  135.1703  154.6114 H   0  0  0  0  0  0  0  0  0  0  0  0
  148.0312  132.4585  152.1019 H   0  0  0  0  0  0  0  0  0  0  0  0
  146.4121  132.2488  152.7474 H   0  0  0  0  0  0  0  0  0  0  0  0
  147.1349  133.5632  150.0599 H   0  0  0  0  0  0  0  0  0  0  0  0
  146.3670  132.0024  150.2787 H   0  0  0  0  0  0  0  0  0  0  0  0
  145.8773  135.5599  150.6264 H   0  0  0  0  0  0  0  0  0  0  0  0
  144.2459  135.3714  151.2402 H   0  0  0  0  0  0  0  0  0  0  0  0
  145.0764  134.3759  153.3489 H   0  0  0  0  0  0  0  0  0  0  0  0
  145.8436  135.9290  153.0856 H   0  0  0  0  0  0  0  0  0  0  0  0
  150.2180  133.8165  157.2599 H   0  0  0  0  0  0  0  0  0  0  0  0
  151.6231  133.7045  156.1892 H   0  0  0  0  0  0  0  0  0  0  0  0
  150.3091  132.5413  156.0584 H   0  0  0  0  0  0  0  0  0  0  0  0
  147.2461  137.1722  157.5185 H   0  0  0  0  0  0  0  0  0  0  0  0
  152.5132  138.9027  154.2489 H   0  0  0  0  0  0  0  0  0  0  0  0
  151.6359  140.9520  155.3561 H   0  0  0  0  0  0  0  0  0  0  0  0
  149.8961  140.9554  155.2575 H   0  0  0  0  0  0  0  0  0  0  0  0
  151.1032  140.0046  157.8266 H   0  0  0  0  0  0  0  0  0  0  0  0
  148.7930  140.2945  157.1696 H   0  0  0  0  0  0  0  0  0  0  0  0
  152.3898  142.0997  157.2973 H   0  0  0  0  0  0  0  0  0  0  0  0
  150.6068  142.1110  159.7642 H   0  0  0  0  0  0  0  0  0  0  0  0
  152.3251  141.7044  159.6749 H   0  0  0  0  0  0  0  0  0  0  0  0
  151.6383  144.2385  160.2863 H   0  0  0  0  0  0  0  0  0  0  0  0
  152.8902  143.9794  159.0662 H   0  0  0  0  0  0  0  0  0  0  0  0
  149.9671  144.6297  158.6047 H   0  0  0  0  0  0  0  0  0  0  0  0
  151.3739  145.2525  157.7395 H   0  0  0  0  0  0  0  0  0  0  0  0
  147.7333  134.7911  152.1839 H   0  0  0  0  0  0  0  0  0  0  0  0
  1  2  1  0  0  0  0
  1 29  1  0  0  0  0
  1 30  1  0  0  0  0
  1 31  1  0  0  0  0
  2  3  1  0  0  0  0
  2 10  1  0  0  0  0
  2 32  1  0  0  0  0
  3  4  1  0  0  0  0
  3 33  1  0  0  0  0
  3 34  1  0  0  0  0
  4  9  1  0  0  0  0
  4  5  1  0  0  0  0
  4 59  1  0  0  0  0
  5  6  1  0  0  0  0
  5 35  1  0  0  0  0
  5 36  1  0  0  0  0
  6  7  1  0  0  0  0
  6 37  1  0  0  0  0
  6 38  1  0  0  0  0
  7  8  1  0  0  0  0
  8  9  1  0  0  0  0
  8 39  1  0  0  0  0
  8 40  1  0  0  0  0
  9 41  1  0  0  0  0
  9 42  1  0  0  0  0
 10 11  1  0  0  0  0
 10 12  1  0  0  0  0
 11 43  1  0  0  0  0
 11 44  1  0  0  0  0
 11 45  1  0  0  0  0
 12 17  1  0  0  0  0
 12 13  2  0  0  0  0
 13 14  1  0  0  0  0
 14 15  2  0  0  0  0
 14 46  1  0  0  0  0
 15 16  1  0  0  0  0
 16 20  1  0  0  0  0
 16 17  2  0  0  0  0
 17 18  1  0  0  0  0
 18 19  2  0  0  0  0
 19 20  1  0  0  0  0
 19 47  1  0  0  0  0
 20 21  1  0  0  0  0
 21 22  1  0  0  0  0
 21 48  1  0  0  0  0
 21 49  1  0  0  0  0
 22 23  1  0  0  0  0
 22 24  1  0  0  0  0
 22 50  1  0  0  0  0
 23 51  1  0  0  0  0
 24 28  1  0  0  0  0
 24 25  1  0  0  0  0
 24 52  1  0  0  0  0
 25 26  1  0  0  0  0
 25 53  1  0  0  0  0
 25 54  1  0  0  0  0
 26 27  1  0  0  0  0
 26 55  1  0  0  0  0
 26 56  1  0  0  0  0
 27 28  1  0  0  0  0
 27 57  1  0  0  0  0
 27 58  1  0  0  0  0
M  CHG  1   4   1
M  END
> <s_m_source_file>
AV-unprocessed.smi

> <i_m_source_file_index>
213

> <i_lp_mmshare_version>
43012

> <i_f3d_flags>
0

> <s_epik_input>
W0NIMl0xW0NIMl1PW0NIMl1bQ0gyXU4xW0NIMl1bQ0BASF0oW0NIM10pTihbQ0gzXSljKG5bY0hdbjIpYyhjMjMpbltjSF1uM1tDSDJdW0NASF0oW09IXSlbQ0BASF00W0NIMl1bQ0gyXVtDSDJdTzQ=

> <s_epik_cmdline>
J2VwaWtfcHl0aG9uJywgJy1waCcsICc3LjAnLCAnLXRuJywgJzgnLCAnLW1hJywgJzIwMCcsICctbWV0YWxfYmluZGluZycsICctaW1hZScsICc8aW5maWxlLm1hZT4nLCAnLW9tYWUnLCAnPG91dGZpbGUubWFlPic=

> <r_lp_tautomer_probability>
1

> <r_epik_Ionization_Penalty>
0.399679

> <r_epik_Ionization_Penalty_Charging>
0.399433

> <r_epik_Ionization_Penalty_Neutral>
0.000246213

> <r_epik_State_Penalty>
0.286032

> <r_epik_Charging_Adjusted_Penalty>
0.685465

> <i_epik_Tot_Q>
1

> <i_epik_Tot_abs_Q>
1

> <r_epik_Metal_State_Penalty>
0.286072

> <b_epik_Metal_Only>
0

> <s_lp_Force_Field>
OPLS_2005

> <r_lp_Energy>
46.153

> <b_lp_Chiralities_Consistent>
1

> <s_lp_Variant>
AV-unprocessed.smi:213-2

> <Gold.Version>
5.8.1

> <Gold.Id.Protein>
6NUR|6NUR_protein|mol2

> <Gold.PLP.Fitness>
51.6817

> <Gold.PLP.PLP>
-46.8734

> <Gold.PLP.part.hbond>
-2.0000

> <Gold.PLP.part.metal>
0.0000

> <Gold.PLP.part.buried>
-5.3830

> <Gold.PLP.part.nonpolar>
-39.4594

> <Gold.PLP.part.repulsive>
0.4452

> <Gold.PLP.ligand.clash>
0.0000

> <Gold.PLP.ligand.torsion>
2.5436

> <Gold.PLP.Chemscore.Hbond>
3.0000

> <Gold.PLP.Chemscore.CHOScore>
0.0000

> <Gold.PLP.Chemscore.Metal>
0.0000

> <Gold.Chemscore.Hbonds>
donor molecule, donor type, donor heavy atom, donor atom, acceptor molecule, acceptor atom, score
      L1  H     4    59       P1  7948  2.00
      P1  H 10752 10765       L1    18  0.86

> <Gold.PLP.Chemscore.Internal.Correction>
0.8955

> <Gold.Rescore>
     Score         DG    S(hbond)    S(metal)    S(lipo)     H(rot)  DE(clash)    DE(int)     intcor
     12.99     -16.41       1.95        0.00      99.47       2.83       0.04       3.38       ----

> <Gold.Chemscore.Fitness>
12.9904

> <Gold.Chemscore.DG>
-16.4053

> <Gold.Chemscore.ZeroCoef>
-5.4800

> <Gold.Chemscore.Hbond>
1.9520

> <Gold.Chemscore.Metal>
0.0000

> <Gold.Chemscore.Lipo>
99.4740

> <Gold.Chemscore.Internal_Hbond>
0.0000

> <Gold.Chemscore.DEClash>
0.0373

> <Gold.Chemscore.DEInternal>
3.3777

> <Gold.Chemscore.Rot>
2.8254

> <Gold.Chemscore.Internal.Correction>
   9.000000E+99

> <Gold.Chemscore.Hbonds>
donor molecule, donor type, donor heavy atom, donor atom, acceptor molecule, acceptor atom, score
      L1  H     4    59       P1  7948  0.73
      P1  H 10752 10765       L1    18  0.83

> <Gold.Chemscore.Hbond.Weighted>
-6.5198

> <Gold.Chemscore.Metal.Weighted>
-0.0000

> <Gold.Chemscore.Lipo.Weighted>
-11.6385

> <Gold.Chemscore.Internal_Hbond.Weighted>
0.0000

> <Gold.Chemscore.DEClash.Weighted>
0.0373

> <Gold.Chemscore.DEInternal.Weighted>
3.3777

> <Gold.Chemscore.Rot.Weighted>
7.2330

> <Gold.Chemscore.Internal.Correction.Weighted>
   9.000000E+99

> <Gold.Protein.RotatedTorsions>
[ 6907 6896 6895 6894 ] final -164.95 input  -60.11 | X-H torsion
[ 7974 7965 7964 7962 ] final  129.04 input  175.53 | X-H torsion
[ 8008 7997 7996 7995 ] final -112.04 input   59.86 | X-H torsion
[ 10167 10162 10161 10158 ] final  128.40 input  -65.29 | X-H torsion
[ 10718 10713 10712 10709 ] final    2.08 input   66.30 | X-H torsion
[ 10763 10752 10751 10750 ] final  162.93 input  -60.55 | X-H torsion
[ 11005 11000 10999 10996 ] final  -79.61 input  -57.11 | X-H torsion

> <Gold.Protein.ActiveResidues>
 VAL166  LYS551  ARG553  GLY616  TRP617  ASP618  TYR619  PRO620  LYS621  CYS622 
 ASP623  PHE694  ASN695  SER759  ASP760  ASP761  ALA762  ILE779  LEU786  VAL792 
 PHE793  MET794  SER795  GLU796  ALA797  LYS798  CYS799  TRP800  GLU811  SER814 

> <Gold.Protein.RotatedAtoms>
  151.4199  133.3701  159.2754 H   0  0  0  0  0  0  0  0  0  0  0  0  # atno 6907 bound_to 6896
  150.9301  134.8718  159.7556 H   0  0  0  0  0  0  0  0  0  0  0  0  # atno 6908 bound_to 6896
  152.5024  134.4143  159.9511 H   0  0  0  0  0  0  0  0  0  0  0  0  # atno 6909 bound_to 6896
  145.0330  139.4029  143.5140 H   0  0  0  0  0  0  0  0  0  0  0  0  # atno 7974 bound_to 7965
  154.9991  140.0394  157.2352 H   0  0  0  0  0  0  0  0  0  0  0  0  # atno 8008 bound_to 7997
  154.7560  140.2775  155.6230 H   0  0  0  0  0  0  0  0  0  0  0  0  # atno 8009 bound_to 7997
  156.2894  140.2638  156.2326 H   0  0  0  0  0  0  0  0  0  0  0  0  # atno 8010 bound_to 7997
  139.5529  144.6827  151.4270 H   0  0  0  0  0  0  0  0  0  0  0  0  # atno 10167 bound_to 10162
  156.8577  130.5576  149.5665 H   0  0  0  0  0  0  0  0  0  0  0  0  # atno 10718 bound_to 10713
  154.2859  135.2762  155.2676 H   0  0  0  0  0  0  0  0  0  0  0  0  # atno 10763 bound_to 10752
  154.5177  135.5765  153.6659 H   0  0  0  0  0  0  0  0  0  0  0  0  # atno 10764 bound_to 10752
  152.9922  135.6196  154.3021 H   0  0  0  0  0  0  0  0  0  0  0  0  # atno 10765 bound_to 10752
  141.1667  133.7113  156.8148 H   0  0  0  0  0  0  0  0  0  0  0  0  # atno 11005 bound_to 11000
  146.3501  139.9890  142.8687 LP  0  0  0  0  0  0  0  0  0  0  0  0  # atno 17320 bound_to 7965
  145.1746  140.9737  143.4302 LP  0  0  0  0  0  0  0  0  0  0  0  0  # atno 17321 bound_to 7965
  140.6795  143.8113  150.7103 LP  0  0  0  0  0  0  0  0  0  0  0  0  # atno 17342 bound_to 10162
  140.1562  143.4314  152.2098 LP  0  0  0  0  0  0  0  0  0  0  0  0  # atno 17343 bound_to 10162
  156.0793  130.5808  150.9534 LP  0  0  0  0  0  0  0  0  0  0  0  0  # atno 17370 bound_to 10713
  157.6268  131.0925  150.8519 LP  0  0  0  0  0  0  0  0  0  0  0  0  # atno 17371 bound_to 10713
  140.2161  134.8791  157.3327 LP  0  0  0  0  0  0  0  0  0  0  0  0  # atno 17394 bound_to 11000
  140.2036  134.4225  155.7649 LP  0  0  0  0  0  0  0  0  0  0  0  0  # atno 17395 bound_to 11000

$$$$
