#       Name:                AV-unprocessed.smi:100
#       Creating user name   scv26
#       Creation time:       Thu Mar 26 17:40:44 2020


#       File generated by GOLD software.
#

@<TRIPOS>MOLECULE
AV-unprocessed.smi:100
    40    42     1
SMALL
NO_CHARGES


@<TRIPOS>ATOM
      1 ****        -5.0467   0.7564   0.1373 N.pl3          1 S1                 0.0000
      2 ****        -3.7152   0.8611   0.2466 C.ar           1 S1                 0.0000
      3 ****        -3.1912   2.0591   0.5957 N.ar           1 S1                 0.0000
      4 ****        -1.8658   2.1884   0.7106 C.ar           1 S1                 0.0000
      5 ****        -0.9179   1.2661   0.5255 N.ar           1 S1                 0.0000
      6 ****        -1.4460   0.0574   0.1734 C.ar           1 S1                 0.0000
      7 ****        -2.8319  -0.2229   0.0124 C.ar           1 S1                 0.0000
      8 ****        -3.0081  -1.5497  -0.3539 N.2            1 S1                 0.0000
      9 ****        -1.7927  -2.0238  -0.4054 C.2            1 S1                 0.0000
     10 ****        -0.7901  -1.1277  -0.1028 N.pl3          1 S1                 0.0000
     11 ****         0.6858  -1.4003  -0.0854 C.3            1 S1                 0.0000
     12 ****         1.2937  -0.6626   0.9354 O.3            1 S1                 0.0000
     13 ****         2.2352   0.2527   0.3809 C.3            1 S1                 0.0000
     14 ****         3.3563   0.5604   1.3853 C.3            1 S1                 0.0000
     15 ****         4.2154   1.5566   0.8725 O.3            1 S1                 0.0000
     16 ****         2.6763  -0.4137  -0.9244 C.3            1 S1                 0.0000
     17 ****         3.5726  -1.3752  -0.6904 F              1 S1                 0.0000
     18 ****         1.3850  -1.0427  -1.4138 C.3            1 S1                 0.0000
     19 ****         0.6616  -0.1443  -2.2369 O.3            1 S1                 0.0000
     20 ****        -5.4616  -0.1268  -0.1230 H              1 S1                 0.0000
     21 ****        -5.6318   1.5595   0.3160 H              1 S1                 0.0000
     22 ****        -1.5135   3.1702   0.9901 H              1 S1                 0.0000
     23 ****        -1.5915  -3.0518  -0.6699 H              1 S1                 0.0000
     24 ****         0.7665  -2.4601   0.1604 H              1 S1                 0.0000
     25 ****         1.7066   1.1757   0.1412 H              1 S1                 0.0000
     26 ****         2.9281   0.9250   2.3193 H              1 S1                 0.0000
     27 ****         3.9320  -0.3340   1.6251 H              1 S1                 0.0000
     28 ****         4.8844   1.7365   1.5152 H              1 S1                 0.0000
     29 ****         3.1252   0.2814  -1.6352 H              1 S1                 0.0000
     30 ****         1.5666  -1.9521  -1.9878 H              1 S1                 0.0000
     31 ****        -0.1887  -0.5179  -2.4126 H              1 S1                 0.0000
     32 ****        -3.7906   2.8411   0.7662 LP             1 S1                 0.0000
     33 ****         0.0611   1.4399   0.6320 LP             1 S1                 0.0000
     34 ****        -3.8658  -2.0305  -0.5360 LP             1 S1                 0.0000
     35 ****         1.7656  -1.2862   1.5587 LP             1 S1                 0.0000
     36 ****         0.5945  -0.1545   1.4383 LP             1 S1                 0.0000
     37 ****         3.6934   2.3891   0.6871 LP             1 S1                 0.0000
     38 ****         4.6391   1.2334   0.0262 LP             1 S1                 0.0000
     39 ****         1.1529  -0.0041  -3.0966 LP             1 S1                 0.0000
     40 ****         0.5547   0.7321  -1.7674 LP             1 S1                 0.0000
@<TRIPOS>BOND
    1    1    2 1     
    2    1   20 1     
    3    1   21 1     
    4    2    7 ar    
    5    2    3 ar    
    6    3    4 ar    
    7    4    5 ar    
    8    4   22 1     
    9    5    6 ar    
   10    6   10 1     
   11    6    7 ar    
   12    7    8 1     
   13    8    9 2     
   14    9   10 1     
   15    9   23 1     
   16   10   11 1     
   17   11   18 1     
   18   11   12 1     
   19   11   24 1     
   20   12   13 1     
   21   13   14 1     
   22   13   16 1     
   23   13   25 1     
   24   14   15 1     
   25   14   26 1     
   26   14   27 1     
   27   15   28 1     
   28   16   17 1     
   29   16   18 1     
   30   16   29 1     
   31   18   19 1     
   32   18   30 1     
   33   19   31 1     
   34    3   32 1     
   35    5   33 1     
   36    8   34 1     
   37   12   35 1     
   38   12   36 1     
   39   15   37 1     
   40   15   38 1     
   41   19   39 1     
   42   19   40 1     
@<TRIPOS>SUBSTRUCTURE
      1 S1             1
@<TRIPOS>SET
LONE_PAIRS      STATIC     ATOMS    <user>   **** ""
9 32 33 34 35 36 37 38 39 40
DONOR_HYDROGENS      STATIC     ATOMS    <user>   **** ""
4 20 21 28 31
ATOM$BLUE        STATIC     ATOMS    COLORGROUP SYSTEM
9 32 33 34 35 36 37 38 39 40
ATOM$RED        STATIC     ATOMS    COLORGROUP SYSTEM
4 20 21 28 31
