AV-unprocessed.smi:72|AV-procd|sdf|696|dock8
  -GOLD-   2262017 13D 1   1.00000     0.00000
 Structure written by MMmdl.
 30 31  0  0  0  0  0  0  0  0  2 V2000
  146.5036  138.2142  151.2886 N   0  0  0  0  0  0  0  0  0  0  0  0
  146.8842  138.7310  152.5095 C   0  0  0  0  0  0  0  0  0  0  0  0
  148.1384  138.3953  152.9875 N   0  3  0  0  0  0  0  0  0  0  0  0
  148.6551  138.8091  154.1526 C   0  0  0  0  0  0  0  0  0  0  0  0
  147.9371  139.5967  154.9271 N   0  0  0  0  0  0  0  0  0  0  0  0
  148.4688  140.1102  156.2427 C   0  0  1  0  0  0  0  0  0  0  0  0
  149.7123  139.5184  156.4771 O   0  0  0  0  0  0  0  0  0  0  0  0
  150.7537  140.4830  156.3439 C   0  0  2  0  0  0  0  0  0  0  0  0
  151.9693  140.0510  157.1776 C   0  0  0  0  0  0  0  0  0  0  0  0
  152.7279  139.1003  156.4612 O   0  0  0  0  0  0  0  0  0  0  0  0
  150.0714  141.7498  156.8577 C   0  0  1  0  0  0  0  0  0  0  0  0
  150.7497  142.9383  156.4961 O   0  0  0  0  0  0  0  0  0  0  0  0
  148.6784  141.6411  156.2480 C   0  0  1  0  0  0  0  0  0  0  0  0
  148.6197  142.2217  154.9525 O   0  0  0  0  0  0  0  0  0  0  0  0
  146.6435  140.0070  154.5150 C   0  0  0  0  0  0  0  0  0  0  0  0
  145.9755  140.7628  155.2200 O   0  0  0  0  0  0  0  0  0  0  0  0
  146.1870  139.5166  153.2829 N   0  0  0  0  0  0  0  0  0  0  0  0
  147.7808  139.7574  157.0129 H   0  0  0  0  0  0  0  0  0  0  0  0
  151.0208  140.6128  155.2935 H   0  0  0  0  0  0  0  0  0  0  0  0
  149.9928  141.7045  157.9453 H   0  0  0  0  0  0  0  0  0  0  0  0
  147.9245  142.1151  156.8775 H   0  0  0  0  0  0  0  0  0  0  0  0
  145.6078  138.4065  150.8626 H   0  0  0  0  0  0  0  0  0  0  0  0
  147.0859  137.6129  150.7237 H   0  0  0  0  0  0  0  0  0  0  0  0
  149.6497  138.4903  154.4330 H   0  0  0  0  0  0  0  0  0  0  0  0
  152.6159  140.9072  157.3718 H   0  0  0  0  0  0  0  0  0  0  0  0
  151.6664  139.6471  158.1440 H   0  0  0  0  0  0  0  0  0  0  0  0
  152.3830  139.0408  155.5832 H   0  0  0  0  0  0  0  0  0  0  0  0
  150.1702  143.4678  155.9696 H   0  0  0  0  0  0  0  0  0  0  0  0
  148.9528  143.1051  155.0051 H   0  0  0  0  0  0  0  0  0  0  0  0
  148.7073  137.7922  152.4108 H   0  0  0  0  0  0  0  0  0  0  0  0
  1  2  1  0  0  0  0
  1 22  1  0  0  0  0
  1 23  1  0  0  0  0
  2 17  2  0  0  0  0
  2  3  1  0  0  0  0
  3  4  2  0  0  0  0
  3 30  1  0  0  0  0
  4  5  1  0  0  0  0
  4 24  1  0  0  0  0
  5  6  1  0  0  0  0
  5 15  1  0  0  0  0
  6 18  1  0  0  0  0
  6 13  1  0  0  0  0
  6  7  1  0  0  0  0
  7  8  1  0  0  0  0
  8 19  1  0  0  0  0
  8  9  1  0  0  0  0
  8 11  1  0  0  0  0
  9 10  1  0  0  0  0
  9 25  1  0  0  0  0
  9 26  1  0  0  0  0
 10 27  1  0  0  0  0
 11 20  1  0  0  0  0
 11 12  1  0  0  0  0
 11 13  1  0  0  0  0
 12 28  1  0  0  0  0
 13 21  1  0  0  0  0
 13 14  1  0  0  0  0
 14 29  1  0  0  0  0
 15 16  2  0  0  0  0
 15 17  1  0  0  0  0
M  CHG  1   3   1
M  END
> <s_m_source_file>
AV-unprocessed.smi

> <i_m_source_file_index>
72

> <i_lp_mmshare_version>
43012

> <i_f3d_flags>
0

> <s_epik_input>
W05IMl1jMW5bY0hdbihjKD1PKW4xKVtDQEBIXTJPW0NASF0oW0NIMl1bT0hdKVtDQEBIXShbT0hdKVtDQEhdMltPSF0=

> <s_epik_cmdline>
J2VwaWtfcHl0aG9uJywgJy1waCcsICc3LjAnLCAnLXRuJywgJzgnLCAnLW1hJywgJzIwMCcsICctbWV0YWxfYmluZGluZycsICctaW1hZScsICc8aW5maWxlLm1hZT4nLCAnLW9tYWUnLCAnPG91dGZpbGUubWFlPic=

> <r_lp_tautomer_probability>
4.77166e-05

> <r_epik_Ionization_Penalty>
0.104979

> <r_epik_Ionization_Penalty_Charging>
0.0999619

> <r_epik_Ionization_Penalty_Neutral>
0.00501745

> <r_epik_State_Penalty>
2.51541

> <r_epik_Charging_Adjusted_Penalty>
2.61537

> <i_epik_Tot_Q>
1

> <i_epik_Tot_abs_Q>
1

> <r_epik_Metal_State_Penalty>
3.53763

> <b_epik_Metal_Only>
0

> <s_epik_Chemistry_Notes>
This compound contains an acetal/aminal-like group ( X-CH(R)-Y where X, Y are N, S, or O) that may be acid/base labile, releasing an aldehyde.

> <s_lp_Force_Field>
OPLS_2005

> <r_lp_Energy>
36.6563

> <b_lp_Chiralities_Consistent>
1

> <s_lp_Variant>
AV-unprocessed.smi:72-34

> <Gold.Version>
5.8.1

> <Gold.Id.Protein>
6NUR|6NUR_protein|mol2

> <Gold.PLP.Fitness>
36.8165

> <Gold.PLP.PLP>
-19.7360

> <Gold.PLP.part.hbond>
-6.5562

> <Gold.PLP.part.metal>
0.0000

> <Gold.PLP.part.buried>
-5.4542

> <Gold.PLP.part.nonpolar>
-11.9873

> <Gold.PLP.part.repulsive>
2.3891

> <Gold.PLP.ligand.clash>
0.0000

> <Gold.PLP.ligand.torsion>
0.2063

> <Gold.PLP.Chemscore.Hbond>
5.7920

> <Gold.PLP.Chemscore.CHOScore>
0.0000

> <Gold.PLP.Chemscore.Metal>
0.0000

> <Gold.Chemscore.Hbonds>
donor molecule, donor type, donor heavy atom, donor atom, acceptor molecule, acceptor atom, score
      L1  H     1    22       P1 10171  1.00
      L1  H     3    30       P1  7948  1.92
      L1  H    12    28       P1  8028  1.00
      L1  H    14    29       P1  8028  1.00
      P1  H  7997  8009       L1    10  0.90

> <Gold.PLP.Chemscore.Internal.Correction>
0.1170

> <Gold.Rescore>
     Score         DG    S(hbond)    S(metal)    S(lipo)     H(rot)  DE(clash)    DE(int)     intcor
      9.24     -11.06       4.07        0.00      20.80       4.08       1.44       0.38       ----

> <Gold.Chemscore.Fitness>
9.2408

> <Gold.Chemscore.DG>
-11.0632

> <Gold.Chemscore.ZeroCoef>
-5.4800

> <Gold.Chemscore.Hbond>
4.0688

> <Gold.Chemscore.Metal>
0.0000

> <Gold.Chemscore.Lipo>
20.8028

> <Gold.Chemscore.Internal_Hbond>
0.0000

> <Gold.Chemscore.DEClash>
1.4379

> <Gold.Chemscore.DEInternal>
0.3845

> <Gold.Chemscore.Rot>
4.0783

> <Gold.Chemscore.Internal.Correction>
   9.000000E+99

> <Gold.Chemscore.Hbonds>
donor molecule, donor type, donor heavy atom, donor atom, acceptor molecule, acceptor atom, score
      L1  H     1    22       P1 10171  0.93
      L1  H     3    30       P1  7948  0.92
      L1  H    12    28       P1  8028  0.99
      L1  H    14    29       P1  8028  0.95
      P1  H  7997  8009       L1    10  0.09

> <Gold.Chemscore.Hbond.Weighted>
-13.5897

> <Gold.Chemscore.Metal.Weighted>
-0.0000

> <Gold.Chemscore.Lipo.Weighted>
-2.4339

> <Gold.Chemscore.Internal_Hbond.Weighted>
0.0000

> <Gold.Chemscore.DEClash.Weighted>
1.4379

> <Gold.Chemscore.DEInternal.Weighted>
0.3845

> <Gold.Chemscore.Rot.Weighted>
10.4404

> <Gold.Chemscore.Internal.Correction.Weighted>
   9.000000E+99

> <Gold.Protein.RotatedTorsions>
[ 6907 6896 6895 6894 ] final  122.67 input  -60.11 | X-H torsion
[ 7974 7965 7964 7962 ] final   71.12 input  175.53 | X-H torsion
[ 8008 7997 7996 7995 ] final -158.55 input   59.86 | X-H torsion
[ 10167 10162 10161 10158 ] final -177.17 input  -65.29 | X-H torsion
[ 10718 10713 10712 10709 ] final  113.46 input   66.30 | X-H torsion
[ 10763 10752 10751 10750 ] final   93.27 input  -60.55 | X-H torsion
[ 11005 11000 10999 10996 ] final -123.09 input  -57.11 | X-H torsion

> <Gold.Protein.ActiveResidues>
 VAL166  LYS551  ARG553  GLY616  TRP617  ASP618  TYR619  PRO620  LYS621  CYS622 
 ASP623  PHE694  ASN695  SER759  ASP760  ASP761  ALA762  ILE779  LEU786  VAL792 
 PHE793  MET794  SER795  GLU796  ALA797  LYS798  CYS799  TRP800  GLU811  SER814 

> <Gold.Protein.RotatedAtoms>
  152.4224  133.7139  159.6494 H   0  0  0  0  0  0  0  0  0  0  0  0  # atno 6907 bound_to 6896
  150.8100  133.8428  159.3192 H   0  0  0  0  0  0  0  0  0  0  0  0  # atno 6908 bound_to 6896
  151.6141  135.1040  160.0139 H   0  0  0  0  0  0  0  0  0  0  0  0  # atno 6909 bound_to 6896
  145.7697  139.2837  143.1328 H   0  0  0  0  0  0  0  0  0  0  0  0  # atno 7974 bound_to 7965
  155.7492  140.0824  157.2209 H   0  0  0  0  0  0  0  0  0  0  0  0  # atno 8008 bound_to 7997
  154.4014  140.1563  156.2760 H   0  0  0  0  0  0  0  0  0  0  0  0  # atno 8009 bound_to 7997
  155.8946  140.3413  155.5984 H   0  0  0  0  0  0  0  0  0  0  0  0  # atno 8010 bound_to 7997
  139.5493  144.2152  152.1047 H   0  0  0  0  0  0  0  0  0  0  0  0  # atno 10167 bound_to 10162
  157.6337  131.0984  150.7044 H   0  0  0  0  0  0  0  0  0  0  0  0  # atno 10718 bound_to 10713
  153.2284  135.4331  155.0568 H   0  0  0  0  0  0  0  0  0  0  0  0  # atno 10763 bound_to 10752
  154.8285  135.3373  154.6824 H   0  0  0  0  0  0  0  0  0  0  0  0  # atno 10764 bound_to 10752
  153.7252  135.7014  153.5059 H   0  0  0  0  0  0  0  0  0  0  0  0  # atno 10765 bound_to 10752
  140.9945  134.0491  157.3613 H   0  0  0  0  0  0  0  0  0  0  0  0  # atno 11005 bound_to 11000
  146.0182  140.8372  142.9936 LP  0  0  0  0  0  0  0  0  0  0  0  0  # atno 17320 bound_to 7965
  144.6815  140.2590  143.7321 LP  0  0  0  0  0  0  0  0  0  0  0  0  # atno 17321 bound_to 7965
  140.1644  144.4995  150.6614 LP  0  0  0  0  0  0  0  0  0  0  0  0  # atno 17342 bound_to 10162
  140.6751  143.2301  151.5528 LP  0  0  0  0  0  0  0  0  0  0  0  0  # atno 17343 bound_to 10162
  156.7379  130.4730  149.5484 LP  0  0  0  0  0  0  0  0  0  0  0  0  # atno 17370 bound_to 10713
  156.1559  130.6341  151.0656 LP  0  0  0  0  0  0  0  0  0  0  0  0  # atno 17371 bound_to 10713
  139.9008  135.0164  156.7259 LP  0  0  0  0  0  0  0  0  0  0  0  0  # atno 17394 bound_to 11000
  140.6987  133.9326  155.8011 LP  0  0  0  0  0  0  0  0  0  0  0  0  # atno 17395 bound_to 11000

$$$$
