AV-unprocessed.smi:194|AV-procd|sdf|1521|dock10
  -GOLD-   2262019363D 1   1.00000     0.00000
 Structure written by MMmdl.
 53 55  0  0  0  0  0  0  0  0  1 V2000
  145.3091  137.5699  161.9504 C   0  0  0  0  0  0  0  0  0  0  0  0
  145.3934  136.0843  162.3819 C   0  0  1  0  0  0  0  0  0  0  0  0
  144.5976  135.1961  161.3951 C   0  0  0  0  0  0  0  0  0  0  0  0
  144.1627  133.5897  162.2193 S   0  0  1  0  0  0  0  0  0  0  0  0
  142.3435  133.6552  161.8696 C   0  0  0  0  0  0  0  0  0  0  0  0
  144.7424  132.4742  161.3477 O   0  0  0  0  0  0  0  0  0  0  0  0
  146.7878  135.6245  162.5027 N   0  0  0  0  0  0  0  0  0  0  0  0
  147.7134  136.4596  163.2639 C   0  0  0  0  0  0  0  0  0  0  0  0
  147.3714  135.2185  161.3524 C   0  0  0  0  0  0  0  0  0  0  0  0
  147.5777  133.8880  161.1947 N   0  0  0  0  0  0  0  0  0  0  0  0
  148.1440  133.4304  160.0740 C   0  0  0  0  0  0  0  0  0  0  0  0
  148.5743  134.1188  159.0141 N   0  0  0  0  0  0  0  0  0  0  0  0
  148.3808  135.4595  159.1780 C   0  0  0  0  0  0  0  0  0  0  0  0
  147.7863  136.0901  160.3066 C   0  0  0  0  0  0  0  0  0  0  0  0
  147.7428  137.4653  160.1158 N   0  0  0  0  0  0  0  0  0  0  0  0
  148.2751  137.6372  158.9371 C   0  0  0  0  0  0  0  0  0  0  0  0
  148.7046  136.4885  158.3097 N   0  0  0  0  0  0  0  0  0  0  0  0
  149.3222  136.3958  156.9944 C   0  0  0  0  0  0  0  0  0  0  0  0
  150.5415  137.3355  156.7455 C   0  0  0  0  0  0  0  0  0  0  0  0
  151.5971  137.1931  157.8833 C   0  0  0  0  0  0  0  0  0  0  0  0
  152.1272  135.8890  158.0096 O   0  0  0  0  0  0  0  0  0  0  0  0
  151.1639  137.0859  155.3474 C   0  0  0  0  0  0  0  0  0  0  0  0
  152.1469  138.1931  154.9302 C   0  0  0  0  0  0  0  0  0  0  0  0
  151.4821  139.4497  154.9300 O   0  0  0  0  0  0  0  0  0  0  0  0
  151.0108  139.8237  156.2178 C   0  0  0  0  0  0  0  0  0  0  0  0
  149.9947  138.7866  156.7358 C   0  0  0  0  0  0  0  0  0  0  0  0
  144.2788  137.9070  161.8442 H   0  0  0  0  0  0  0  0  0  0  0  0
  145.8071  137.7302  160.9935 H   0  0  0  0  0  0  0  0  0  0  0  0
  145.7692  138.2371  162.6793 H   0  0  0  0  0  0  0  0  0  0  0  0
  144.9309  135.9850  163.3646 H   0  0  0  0  0  0  0  0  0  0  0  0
  143.6935  135.7000  161.0523 H   0  0  0  0  0  0  0  0  0  0  0  0
  145.1854  134.9441  160.5132 H   0  0  0  0  0  0  0  0  0  0  0  0
  141.9043  134.5555  162.2994 H   0  0  0  0  0  0  0  0  0  0  0  0
  141.8469  132.7868  162.3021 H   0  0  0  0  0  0  0  0  0  0  0  0
  142.1628  133.6572  160.7947 H   0  0  0  0  0  0  0  0  0  0  0  0
  148.7567  136.2428  163.0270 H   0  0  0  0  0  0  0  0  0  0  0  0
  147.5847  136.2857  164.3322 H   0  0  0  0  0  0  0  0  0  0  0  0
  147.5342  137.5164  163.0636 H   0  0  0  0  0  0  0  0  0  0  0  0
  148.2700  132.3592  160.0180 H   0  0  0  0  0  0  0  0  0  0  0  0
  148.3816  138.6163  158.4932 H   0  0  0  0  0  0  0  0  0  0  0  0
  149.6166  135.3554  156.8496 H   0  0  0  0  0  0  0  0  0  0  0  0
  148.5492  136.5878  156.2490 H   0  0  0  0  0  0  0  0  0  0  0  0
  152.4474  137.8532  157.7242 H   0  0  0  0  0  0  0  0  0  0  0  0
  151.1636  137.4859  158.8401 H   0  0  0  0  0  0  0  0  0  0  0  0
  151.6536  135.3131  157.4290 H   0  0  0  0  0  0  0  0  0  0  0  0
  151.6620  136.1173  155.3027 H   0  0  0  0  0  0  0  0  0  0  0  0
  150.3686  137.0460  154.6021 H   0  0  0  0  0  0  0  0  0  0  0  0
  153.0181  138.2228  155.5856 H   0  0  0  0  0  0  0  0  0  0  0  0
  152.5184  137.9977  153.9242 H   0  0  0  0  0  0  0  0  0  0  0  0
  151.8495  139.9499  156.9023 H   0  0  0  0  0  0  0  0  0  0  0  0
  150.5319  140.7998  156.1396 H   0  0  0  0  0  0  0  0  0  0  0  0
  149.1151  138.8399  156.0925 H   0  0  0  0  0  0  0  0  0  0  0  0
  149.6536  139.0709  157.7321 H   0  0  0  0  0  0  0  0  0  0  0  0
  1  2  1  0  0  0  0
  1 27  1  0  0  0  0
  1 28  1  0  0  0  0
  1 29  1  0  0  0  0
  2  3  1  0  0  0  0
  2  7  1  0  0  0  0
  2 30  1  0  0  0  0
  3  4  1  0  0  0  0
  3 31  1  0  0  0  0
  3 32  1  0  0  0  0
  4  5  1  0  0  0  0
  4  6  2  0  0  0  0
  5 33  1  0  0  0  0
  5 34  1  0  0  0  0
  5 35  1  0  0  0  0
  7  8  1  0  0  0  0
  7  9  1  0  0  0  0
  8 36  1  0  0  0  0
  8 37  1  0  0  0  0
  8 38  1  0  0  0  0
  9 14  1  0  0  0  0
  9 10  2  0  0  0  0
 10 11  1  0  0  0  0
 11 12  2  0  0  0  0
 11 39  1  0  0  0  0
 12 13  1  0  0  0  0
 13 17  1  0  0  0  0
 13 14  2  0  0  0  0
 14 15  1  0  0  0  0
 15 16  2  0  0  0  0
 16 17  1  0  0  0  0
 16 40  1  0  0  0  0
 17 18  1  0  0  0  0
 18 19  1  0  0  0  0
 18 41  1  0  0  0  0
 18 42  1  0  0  0  0
 19 26  1  0  0  0  0
 19 20  1  0  0  0  0
 19 22  1  0  0  0  0
 20 21  1  0  0  0  0
 20 43  1  0  0  0  0
 20 44  1  0  0  0  0
 21 45  1  0  0  0  0
 22 23  1  0  0  0  0
 22 46  1  0  0  0  0
 22 47  1  0  0  0  0
 23 24  1  0  0  0  0
 23 48  1  0  0  0  0
 23 49  1  0  0  0  0
 24 25  1  0  0  0  0
 25 26  1  0  0  0  0
 25 50  1  0  0  0  0
 25 51  1  0  0  0  0
 26 52  1  0  0  0  0
 26 53  1  0  0  0  0
M  END
> <s_m_source_file>
AV-unprocessed.smi

> <i_m_source_file_index>
194

> <i_lp_mmshare_version>
43012

> <i_f3d_flags>
0

> <s_epik_input>
W0NIM11bU0BAXSg9TylbQ0gyXVtDQEBIXShbQ0gzXSlOKFtDSDNdKWMobltjSF1uMSljKGMxMiluW2NIXW4yW0NIMl1DMyhbQ0gyXVtPSF0pW0NIMl1bQ0gyXU9bQ0gyXVtDSDJdMw==

> <s_epik_cmdline>
J2VwaWtfcHl0aG9uJywgJy1waCcsICc3LjAnLCAnLXRuJywgJzgnLCAnLW1hJywgJzIwMCcsICctbWV0YWxfYmluZGluZycsICctaW1hZScsICc8aW5maWxlLm1hZT4nLCAnLW9tYWUnLCAnPG91dGZpbGUubWFlPic=

> <r_lp_tautomer_probability>
1

> <r_epik_Ionization_Penalty>
0.00101625

> <r_epik_Ionization_Penalty_Charging>
0

> <r_epik_Ionization_Penalty_Neutral>
0.00101625

> <r_epik_State_Penalty>
0.000568005

> <r_epik_Charging_Adjusted_Penalty>
0.000568005

> <i_epik_Tot_Q>
0

> <i_epik_Tot_abs_Q>
0

> <r_epik_Metal_State_Penalty>
-0

> <b_epik_Metal_Only>
0

> <s_lp_Force_Field>
OPLS_2005

> <r_lp_Energy>
31.1686

> <b_lp_Chiralities_Consistent>
1

> <s_lp_Variant>
AV-unprocessed.smi:194-2

> <Gold.Version>
5.8.1

> <Gold.Id.Protein>
6NUR|6NUR_protein|mol2

> <Gold.PLP.Fitness>
42.3241

> <Gold.PLP.PLP>
-34.2815

> <Gold.PLP.part.hbond>
-4.9640

> <Gold.PLP.part.metal>
0.0000

> <Gold.PLP.part.buried>
-6.7707

> <Gold.PLP.part.nonpolar>
-24.1115

> <Gold.PLP.part.repulsive>
0.1247

> <Gold.PLP.ligand.clash>
0.0000

> <Gold.PLP.ligand.torsion>
0.7525

> <Gold.PLP.Chemscore.Hbond>
2.9696

> <Gold.PLP.Chemscore.CHOScore>
0.0000

> <Gold.PLP.Chemscore.Metal>
0.0000

> <Gold.Chemscore.Hbonds>
donor molecule, donor type, donor heavy atom, donor atom, acceptor molecule, acceptor atom, score
      P1  H  6896  6908       L1    12  0.73
      P1  H  6896  6909       L1    21  0.12
      P1  H  6931  6943       L1    15  0.14
      P1  H  6934  6947       L1    15  0.80
      P1  H  7989  7998       L1    24  1.00

> <Gold.PLP.Chemscore.Internal.Correction>
0.6388

> <Gold.Rescore>
     Score         DG    S(hbond)    S(metal)    S(lipo)     H(rot)  DE(clash)    DE(int)     intcor
     10.04     -10.95       1.75        0.00      69.29       3.31       0.00       0.92       ----

> <Gold.Chemscore.Fitness>
10.0382

> <Gold.Chemscore.DG>
-10.9533

> <Gold.Chemscore.ZeroCoef>
-5.4800

> <Gold.Chemscore.Hbond>
1.7484

> <Gold.Chemscore.Metal>
0.0000

> <Gold.Chemscore.Lipo>
69.2858

> <Gold.Chemscore.Internal_Hbond>
0.0000

> <Gold.Chemscore.DEClash>
0.0000

> <Gold.Chemscore.DEInternal>
0.9150

> <Gold.Chemscore.Rot>
3.3098

> <Gold.Chemscore.Internal.Correction>
   9.000000E+99

> <Gold.Chemscore.Hbonds>
donor molecule, donor type, donor heavy atom, donor atom, acceptor molecule, acceptor atom, score
      P1  H  6896  6908       L1    12  0.04
      P1  H  6896  6909       L1    21  0.05
      P1  H  6931  6943       L1    15  0.05
      P1  H  6934  6947       L1    15  0.68
      P1  H  7989  7998       L1    24  0.91

> <Gold.Chemscore.Hbond.Weighted>
-5.8398

> <Gold.Chemscore.Metal.Weighted>
-0.0000

> <Gold.Chemscore.Lipo.Weighted>
-8.1064

> <Gold.Chemscore.Internal_Hbond.Weighted>
0.0000

> <Gold.Chemscore.DEClash.Weighted>
0.0000

> <Gold.Chemscore.DEInternal.Weighted>
0.9150

> <Gold.Chemscore.Rot.Weighted>
8.4730

> <Gold.Chemscore.Internal.Correction.Weighted>
   9.000000E+99

> <Gold.Protein.RotatedTorsions>
[ 6907 6896 6895 6894 ] final  137.24 input  -60.11 | X-H torsion
[ 7974 7965 7964 7962 ] final  -73.92 input  175.53 | X-H torsion
[ 8008 7997 7996 7995 ] final  -87.89 input   59.86 | X-H torsion
[ 10167 10162 10161 10158 ] final -179.56 input  -65.29 | X-H torsion
[ 10718 10713 10712 10709 ] final -127.81 input   66.30 | X-H torsion
[ 10763 10752 10751 10750 ] final  -74.47 input  -60.55 | X-H torsion
[ 11005 11000 10999 10996 ] final  -99.23 input  -57.11 | X-H torsion

> <Gold.Protein.ActiveResidues>
 VAL166  LYS551  ARG553  GLY616  TRP617  ASP618  TYR619  PRO620  LYS621  CYS622 
 ASP623  PHE694  ASN695  SER759  ASP760  ASP761  ALA762  ILE779  LEU786  VAL792 
 PHE793  MET794  SER795  GLU796  ALA797  LYS798  CYS799  TRP800  GLU811  SER814 

> <Gold.Protein.RotatedAtoms>
  152.2803  133.5464  159.5493 H   0  0  0  0  0  0  0  0  0  0  0  0  # atno 6907 bound_to 6896
  150.7193  134.0574  159.3828 H   0  0  0  0  0  0  0  0  0  0  0  0  # atno 6908 bound_to 6896
  151.8485  135.0566  160.0507 H   0  0  0  0  0  0  0  0  0  0  0  0  # atno 6909 bound_to 6896
  145.6459  140.9297  143.1011 H   0  0  0  0  0  0  0  0  0  0  0  0  # atno 7974 bound_to 7965
  154.6684  140.0560  157.0139 H   0  0  0  0  0  0  0  0  0  0  0  0  # atno 8008 bound_to 7997
  155.1124  140.3239  155.4499 H   0  0  0  0  0  0  0  0  0  0  0  0  # atno 8009 bound_to 7997
  156.2647  140.2012  156.6248 H   0  0  0  0  0  0  0  0  0  0  0  0  # atno 8010 bound_to 7997
  139.5381  144.2441  152.0837 H   0  0  0  0  0  0  0  0  0  0  0  0  # atno 10167 bound_to 10162
  156.1891  130.6783  151.0402 H   0  0  0  0  0  0  0  0  0  0  0  0  # atno 10718 bound_to 10713
  154.4735  135.5863  153.6338 H   0  0  0  0  0  0  0  0  0  0  0  0  # atno 10763 bound_to 10752
  152.9838  135.6072  154.3336 H   0  0  0  0  0  0  0  0  0  0  0  0  # atno 10764 bound_to 10752
  154.3221  135.2843  155.2494 H   0  0  0  0  0  0  0  0  0  0  0  0  # atno 10765 bound_to 10752
  141.1316  133.8305  157.0944 H   0  0  0  0  0  0  0  0  0  0  0  0  # atno 11005 bound_to 11000
  144.7140  139.8264  143.7405 LP  0  0  0  0  0  0  0  0  0  0  0  0  # atno 17320 bound_to 7965
  146.1243  139.4266  143.0208 LP  0  0  0  0  0  0  0  0  0  0  0  0  # atno 17321 bound_to 7965
  140.1914  144.4748  150.6477 LP  0  0  0  0  0  0  0  0  0  0  0  0  # atno 17342 bound_to 10162
  140.6597  143.2248  151.5884 LP  0  0  0  0  0  0  0  0  0  0  0  0  # atno 17343 bound_to 10162
  157.6918  131.0807  150.7086 LP  0  0  0  0  0  0  0  0  0  0  0  0  # atno 17370 bound_to 10713
  156.7142  130.4661  149.5539 LP  0  0  0  0  0  0  0  0  0  0  0  0  # atno 17371 bound_to 10713
  140.0372  134.9872  157.0894 LP  0  0  0  0  0  0  0  0  0  0  0  0  # atno 17394 bound_to 11000
  140.4191  134.1899  155.7164 LP  0  0  0  0  0  0  0  0  0  0  0  0  # atno 17395 bound_to 11000

$$$$
