AV-unprocessed.smi:34|AV-procd|sdf|239|dock9
  -GOLD-   2262015583D 1   1.00000     0.00000
 Structure written by MMmdl.
 54 58  0  0  0  0  0  0  0  0  2 V2000
  152.5132  139.8932  158.6230 O   0  0  0  0  0  0  0  0  0  0  0  0
  151.9644  140.7992  157.9923 C   0  0  0  0  0  0  0  0  0  0  0  0
  151.4553  140.7493  156.7352 N   0  5  0  0  0  0  0  0  0  0  0  0
  151.6531  139.6592  155.9784 C   0  0  0  0  0  0  0  0  0  0  0  0
  152.6790  139.6179  155.0898 N   0  0  0  0  0  0  0  0  0  0  0  0
  152.8777  138.5306  154.3351 C   0  0  0  0  0  0  0  0  0  0  0  0
  152.1807  137.3899  154.3036 N   0  0  0  0  0  0  0  0  0  0  0  0
  151.1401  137.4261  155.1852 C   0  0  0  0  0  0  0  0  0  0  0  0
  150.8126  138.5141  156.0443 C   0  0  0  0  0  0  0  0  0  0  0  0
  149.6927  138.2162  156.8065 N   0  0  0  0  0  0  0  0  0  0  0  0
  149.4009  136.9860  156.3878 C   0  0  0  0  0  0  0  0  0  0  0  0
  150.2033  136.4428  155.4474 N   0  0  0  0  0  0  0  0  0  0  0  0
  150.1276  135.0978  154.7864 C   0  0  2  0  0  0  0  0  0  0  0  0
  148.8913  134.5222  155.0877 O   0  0  0  0  0  0  0  0  0  0  0  0
  149.0575  133.6056  156.1614 C   0  0  1  0  0  0  0  0  0  0  0  0
  147.8714  132.6392  156.2503 C   0  0  0  0  0  0  0  0  0  0  0  0
  147.4833  132.2767  154.9355 O   0  0  0  0  0  0  0  0  0  0  0  0
  146.5653  133.0070  154.2750 C   0  0  0  0  0  0  0  0  0  0  0  0
  146.1519  134.1000  154.6671 O   0  0  0  0  0  0  0  0  0  0  0  0
  146.1020  132.3532  153.0170 C   0  0  0  0  0  0  0  0  0  0  0  0
  146.6758  131.1216  152.6239 C   0  0  0  0  0  0  0  0  0  0  0  0
  146.2592  130.4810  151.4407 C   0  0  0  0  0  0  0  0  0  0  0  0
  145.2635  131.0645  150.6358 C   0  0  0  0  0  0  0  0  0  0  0  0
  144.6848  132.2894  151.0157 C   0  0  0  0  0  0  0  0  0  0  0  0
  145.1003  132.9317  152.1985 C   0  0  0  0  0  0  0  0  0  0  0  0
  150.3938  132.9500  155.8186 C   0  0  1  0  0  0  0  0  0  0  0  0
  150.2368  132.0486  154.8468 F   0  0  0  0  0  0  0  0  0  0  0  0
  151.2167  134.1197  155.2963 C   0  0  2  0  0  0  0  0  0  0  0  0
  152.0423  134.6303  156.3286 O   0  0  0  0  0  0  0  0  0  0  0  0
  151.8771  142.1664  158.6154 C   0  0  0  0  0  0  0  0  0  0  0  0
  152.3456  142.3657  159.9341 C   0  0  0  0  0  0  0  0  0  0  0  0
  152.2497  143.6313  160.5449 C   0  0  0  0  0  0  0  0  0  0  0  0
  151.6750  144.7096  159.8464 C   0  0  0  0  0  0  0  0  0  0  0  0
  151.1927  144.5201  158.5379 C   0  0  0  0  0  0  0  0  0  0  0  0
  151.2885  143.2548  157.9263 C   0  0  0  0  0  0  0  0  0  0  0  0
  153.7182  138.5817  153.6591 H   0  0  0  0  0  0  0  0  0  0  0  0
  148.5520  136.4544  156.7914 H   0  0  0  0  0  0  0  0  0  0  0  0
  150.1959  135.3157  153.7199 H   0  0  0  0  0  0  0  0  0  0  0  0
  149.1627  134.1524  157.1000 H   0  0  0  0  0  0  0  0  0  0  0  0
  148.1359  131.7555  156.8327 H   0  0  0  0  0  0  0  0  0  0  0  0
  147.0310  133.1257  156.7476 H   0  0  0  0  0  0  0  0  0  0  0  0
  147.4418  130.6541  153.2258 H   0  0  0  0  0  0  0  0  0  0  0  0
  146.7047  129.5409  151.1511 H   0  0  0  0  0  0  0  0  0  0  0  0
  144.9442  130.5733  149.7285 H   0  0  0  0  0  0  0  0  0  0  0  0
  143.9202  132.7383  150.3990 H   0  0  0  0  0  0  0  0  0  0  0  0
  144.6359  133.8716  152.4594 H   0  0  0  0  0  0  0  0  0  0  0  0
  150.8485  132.4332  156.6647 H   0  0  0  0  0  0  0  0  0  0  0  0
  151.8528  133.8185  154.4631 H   0  0  0  0  0  0  0  0  0  0  0  0
  151.9868  134.0482  157.0717 H   0  0  0  0  0  0  0  0  0  0  0  0
  152.7879  141.5476  160.4840 H   0  0  0  0  0  0  0  0  0  0  0  0
  152.6162  143.7732  161.5508 H   0  0  0  0  0  0  0  0  0  0  0  0
  151.6006  145.6796  160.3151 H   0  0  0  0  0  0  0  0  0  0  0  0
  150.7454  145.3447  158.0030 H   0  0  0  0  0  0  0  0  0  0  0  0
  150.9019  143.1273  156.9253 H   0  0  0  0  0  0  0  0  0  0  0  0
  1  2  2  0  0  0  0
  2  3  1  0  0  0  0
  2 30  1  0  0  0  0
  3  4  1  0  0  0  0
  4  9  1  0  0  0  0
  4  5  2  0  0  0  0
  5  6  1  0  0  0  0
  6  7  2  0  0  0  0
  6 36  1  0  0  0  0
  7  8  1  0  0  0  0
  8 12  1  0  0  0  0
  8  9  2  0  0  0  0
  9 10  1  0  0  0  0
 10 11  2  0  0  0  0
 11 12  1  0  0  0  0
 11 37  1  0  0  0  0
 12 13  1  0  0  0  0
 13 28  1  0  0  0  0
 13 14  1  0  0  0  0
 13 38  1  0  0  0  0
 14 15  1  0  0  0  0
 15 16  1  0  0  0  0
 15 26  1  0  0  0  0
 15 39  1  0  0  0  0
 16 17  1  0  0  0  0
 16 40  1  0  0  0  0
 16 41  1  0  0  0  0
 17 18  1  0  0  0  0
 18 19  2  0  0  0  0
 18 20  1  0  0  0  0
 20 25  1  0  0  0  0
 20 21  2  0  0  0  0
 21 22  1  0  0  0  0
 21 42  1  0  0  0  0
 22 23  2  0  0  0  0
 22 43  1  0  0  0  0
 23 24  1  0  0  0  0
 23 44  1  0  0  0  0
 24 25  2  0  0  0  0
 24 45  1  0  0  0  0
 25 46  1  0  0  0  0
 26 27  1  0  0  0  0
 26 28  1  0  0  0  0
 26 47  1  0  0  0  0
 28 29  1  0  0  0  0
 28 48  1  0  0  0  0
 29 49  1  0  0  0  0
 30 35  1  0  0  0  0
 30 31  2  0  0  0  0
 31 32  1  0  0  0  0
 31 50  1  0  0  0  0
 32 33  2  0  0  0  0
 32 51  1  0  0  0  0
 33 34  1  0  0  0  0
 33 52  1  0  0  0  0
 34 35  2  0  0  0  0
 34 53  1  0  0  0  0
 35 54  1  0  0  0  0
M  CHG  1   3  -1
M  END
> <s_m_source_file>
AV-unprocessed.smi

> <i_m_source_file_index>
34

> <i_lp_mmshare_version>
43012

> <i_f3d_flags>
0

> <s_epik_input>
W2NIXTFbY0hdW2NIXVtjSF1bY0hdYzFDKD1PKVtOSF1jKG5bY0hdbjIpYyhjMjMpbltjSF1uM1tDQEBIXTRPW0NASF0oW0NAQEhdKEYpW0NASF00W09IXSlbQ0gyXU9DKD1PKWM1W2NIXVtjSF1bY0hdW2NIXVtjSF01

> <s_epik_cmdline>
J2VwaWtfcHl0aG9uJywgJy1waCcsICc3LjAnLCAnLXRuJywgJzgnLCAnLW1hJywgJzIwMCcsICctbWV0YWxfYmluZGluZycsICctaW1hZScsICc8aW5maWxlLm1hZT4nLCAnLW9tYWUnLCAnPG91dGZpbGUubWFlPic=

> <r_lp_tautomer_probability>
1

> <r_epik_Ionization_Penalty>
4.33227

> <r_epik_Ionization_Penalty_Charging>
3.41027

> <r_epik_Ionization_Penalty_Neutral>
0.922001

> <r_epik_State_Penalty>
3.41358

> <r_epik_Charging_Adjusted_Penalty>
6.82385

> <i_epik_Tot_Q>
-1

> <i_epik_Tot_abs_Q>
1

> <r_epik_Metal_State_Penalty>
0.496292

> <b_epik_Metal_Only>
1

> <s_epik_Chemistry_Notes>
This compound has an ester and may undergo hydrolysis at high or low pH. This compound contains an acetal/aminal-like group ( X-CH(R)-Y where X, Y are N, S, or O) that may be acid/base labile, releasing an aldehyde.

> <s_lp_Force_Field>
OPLS_2005

> <r_lp_Energy>
47.457

> <b_lp_Chiralities_Consistent>
1

> <s_lp_Variant>
AV-unprocessed.smi:34-25

> <Gold.Version>
5.8.1

> <Gold.Id.Protein>
6NUR|6NUR_protein|mol2

> <Gold.PLP.Fitness>
60.5385

> <Gold.PLP.PLP>
-56.8875

> <Gold.PLP.part.hbond>
-3.6031

> <Gold.PLP.part.metal>
0.0000

> <Gold.PLP.part.buried>
-9.2763

> <Gold.PLP.part.nonpolar>
-45.4035

> <Gold.PLP.part.repulsive>
0.3865

> <Gold.PLP.ligand.clash>
0.0000

> <Gold.PLP.ligand.torsion>
1.5357

> <Gold.PLP.Chemscore.Hbond>
2.0470

> <Gold.PLP.Chemscore.CHOScore>
0.0000

> <Gold.PLP.Chemscore.Metal>
0.0000

> <Gold.Chemscore.Hbonds>
donor molecule, donor type, donor heavy atom, donor atom, acceptor molecule, acceptor atom, score
      P1  H  7989  7998       L1     5  0.19
      P1  H  7997  8010       L1     5  1.00
      P1  H 10752 10765       L1     7  0.83

> <Gold.PLP.Chemscore.Internal.Correction>
0.5812

> <Gold.Rescore>
     Score         DG    S(hbond)    S(metal)    S(lipo)     H(rot)  DE(clash)    DE(int)     intcor
     16.47     -19.59       1.64        0.00     132.75       2.69       0.07       3.05       ----

> <Gold.Chemscore.Fitness>
16.4713

> <Gold.Chemscore.DG>
-19.5873

> <Gold.Chemscore.ZeroCoef>
-5.4800

> <Gold.Chemscore.Hbond>
1.6387

> <Gold.Chemscore.Metal>
0.0000

> <Gold.Chemscore.Lipo>
132.7500

> <Gold.Chemscore.Internal_Hbond>
0.0000

> <Gold.Chemscore.DEClash>
0.0692

> <Gold.Chemscore.DEInternal>
3.0468

> <Gold.Chemscore.Rot>
2.6944

> <Gold.Chemscore.Internal.Correction>
   9.000000E+99

> <Gold.Chemscore.Hbonds>
donor molecule, donor type, donor heavy atom, donor atom, acceptor molecule, acceptor atom, score
      P1  H  7989  7998       L1     5  0.01
      P1  H  7997  8010       L1     5  0.51
      P1  H 10752 10765       L1     7  0.65

> <Gold.Chemscore.Hbond.Weighted>
-5.4731

> <Gold.Chemscore.Metal.Weighted>
-0.0000

> <Gold.Chemscore.Lipo.Weighted>
-15.5317

> <Gold.Chemscore.Internal_Hbond.Weighted>
0.0000

> <Gold.Chemscore.DEClash.Weighted>
0.0692

> <Gold.Chemscore.DEInternal.Weighted>
3.0468

> <Gold.Chemscore.Rot.Weighted>
6.8975

> <Gold.Chemscore.Internal.Correction.Weighted>
   9.000000E+99

> <Gold.Protein.RotatedTorsions>
[ 6907 6896 6895 6894 ] final -155.82 input  -60.11 | X-H torsion
[ 7974 7965 7964 7962 ] final  -95.10 input  175.53 | X-H torsion
[ 8008 7997 7996 7995 ] final   95.53 input   59.86 | X-H torsion
[ 10167 10162 10161 10158 ] final   86.56 input  -65.29 | X-H torsion
[ 10718 10713 10712 10709 ] final  118.93 input   66.30 | X-H torsion
[ 10763 10752 10751 10750 ] final  160.44 input  -60.55 | X-H torsion
[ 11005 11000 10999 10996 ] final -171.57 input  -57.11 | X-H torsion

> <Gold.Protein.ActiveResidues>
 VAL166  LYS551  ARG553  GLY616  TRP617  ASP618  TYR619  PRO620  LYS621  CYS622 
 ASP623  PHE694  ASN695  SER759  ASP760  ASP761  ALA762  ILE779  LEU786  VAL792 
 PHE793  MET794  SER795  GLU796  ALA797  LYS798  CYS799  TRP800  GLU811  SER814 

> <Gold.Protein.RotatedAtoms>
  151.2783  133.4222  159.2625 H   0  0  0  0  0  0  0  0  0  0  0  0  # atno 6907 bound_to 6896
  151.0384  134.9590  159.8158 H   0  0  0  0  0  0  0  0  0  0  0  0  # atno 6908 bound_to 6896
  152.5360  134.2741  159.9035 H   0  0  0  0  0  0  0  0  0  0  0  0  # atno 6909 bound_to 6896
  145.3645  140.9496  143.2482 H   0  0  0  0  0  0  0  0  0  0  0  0  # atno 7974 bound_to 7965
  156.0699  140.3285  155.7563 H   0  0  0  0  0  0  0  0  0  0  0  0  # atno 8008 bound_to 7997
  155.5322  140.0594  157.2904 H   0  0  0  0  0  0  0  0  0  0  0  0  # atno 8009 bound_to 7997
  154.4524  140.1925  156.0496 H   0  0  0  0  0  0  0  0  0  0  0  0  # atno 8010 bound_to 7997
  139.8862  144.6411  150.8788 H   0  0  0  0  0  0  0  0  0  0  0  0  # atno 10167 bound_to 10162
  157.5996  131.1053  150.7826 H   0  0  0  0  0  0  0  0  0  0  0  0  # atno 10718 bound_to 10713
  154.2475  135.2772  155.2830 H   0  0  0  0  0  0  0  0  0  0  0  0  # atno 10763 bound_to 10752
  154.5493  135.5680  153.6911 H   0  0  0  0  0  0  0  0  0  0  0  0  # atno 10764 bound_to 10752
  152.9987  135.6270  154.2621 H   0  0  0  0  0  0  0  0  0  0  0  0  # atno 10765 bound_to 10752
  140.5068  134.5840  157.5006 H   0  0  0  0  0  0  0  0  0  0  0  0  # atno 11005 bound_to 11000
  144.8622  139.5161  143.6807 LP  0  0  0  0  0  0  0  0  0  0  0  0  # atno 17320 bound_to 7965
  146.2913  139.7147  142.9159 LP  0  0  0  0  0  0  0  0  0  0  0  0  # atno 17321 bound_to 7965
  140.7735  143.3546  151.1947 LP  0  0  0  0  0  0  0  0  0  0  0  0  # atno 17342 bound_to 10162
  139.7150  143.9314  152.2963 LP  0  0  0  0  0  0  0  0  0  0  0  0  # atno 17343 bound_to 10162
  156.8228  130.4989  149.5341 LP  0  0  0  0  0  0  0  0  0  0  0  0  # atno 17370 bound_to 10713
  156.1066  130.6009  150.9981 LP  0  0  0  0  0  0  0  0  0  0  0  0  # atno 17371 bound_to 10713
  139.9682  134.7338  156.0096 LP  0  0  0  0  0  0  0  0  0  0  0  0  # atno 17394 bound_to 11000
  141.1407  133.6565  156.3720 LP  0  0  0  0  0  0  0  0  0  0  0  0  # atno 17395 bound_to 11000

$$$$
