AV-unprocessed.smi:560|AV-procd|sdf|2933|dock9
  -GOLD-   2262023433D 1   1.00000     0.00000
 Structure written by MMmdl.
 41 42  0  0  0  0  0  0  0  0  3 V2000
  148.0057  142.0679  154.0357 C   0  0  0  0  0  0  0  0  0  0  0  0
  148.0720  140.8362  154.9612 C   0  0  1  0  0  0  0  0  0  0  0  0
  147.6982  139.5314  154.2403 C   0  0  0  0  0  0  0  0  0  0  0  0
  148.5269  138.6314  154.0967 O   0  0  0  0  0  0  0  0  0  0  0  0
  146.4369  139.4434  153.7879 N   0  0  0  0  0  0  0  0  0  0  0  0
  145.8724  138.2951  153.0858 C   0  0  2  0  0  0  0  0  0  0  0  0
  146.1396  136.9918  153.8619 C   0  0  0  0  0  0  0  0  0  0  0  0
  145.6476  135.7656  153.0763 C   0  0  0  0  0  0  0  0  0  0  0  0
  146.2728  135.7104  151.7283 N   0  3  1  0  0  0  0  0  0  0  0  0
  145.9521  134.4678  150.9801 C   0  0  0  0  0  0  0  0  0  0  0  0
  144.4408  134.3388  150.7571 C   0  0  0  0  0  0  0  0  0  0  0  0
  144.1126  134.3273  149.4491 N   0  5  0  0  0  0  0  0  0  0  0  0
  143.6881  134.2608  151.7249 O   0  0  0  0  0  0  0  0  0  0  0  0
  145.9894  136.9372  150.9427 C   0  0  0  0  0  0  0  0  0  0  0  0
  146.4845  138.1933  151.6792 C   0  0  0  0  0  0  0  0  0  0  0  0
  149.3717  140.7042  155.6091 N   0  0  0  0  0  0  0  0  0  0  0  0
  149.6539  140.7437  156.9595 C   0  0  0  0  0  0  0  0  0  0  0  0
  150.9964  140.5429  157.1053 C   0  0  0  0  0  0  0  0  0  0  0  0
  151.4596  140.3747  155.7710 C   0  0  0  0  0  0  0  0  0  0  0  0
  150.4865  140.4640  154.8796 N   0  0  0  0  0  0  0  0  0  0  0  0
  147.0106  142.1817  153.6042 H   0  0  0  0  0  0  0  0  0  0  0  0
  148.7172  142.0030  153.2115 H   0  0  0  0  0  0  0  0  0  0  0  0
  148.2271  142.9803  154.5901 H   0  0  0  0  0  0  0  0  0  0  0  0
  147.3354  140.9924  155.7512 H   0  0  0  0  0  0  0  0  0  0  0  0
  145.8219  140.2284  153.9470 H   0  0  0  0  0  0  0  0  0  0  0  0
  144.7946  138.4356  152.9819 H   0  0  0  0  0  0  0  0  0  0  0  0
  147.2077  136.8887  154.0595 H   0  0  0  0  0  0  0  0  0  0  0  0
  145.6474  137.0222  154.8346 H   0  0  0  0  0  0  0  0  0  0  0  0
  145.8853  134.8634  153.6406 H   0  0  0  0  0  0  0  0  0  0  0  0
  144.5619  135.7964  152.9744 H   0  0  0  0  0  0  0  0  0  0  0  0
  146.4865  134.4471  150.0287 H   0  0  0  0  0  0  0  0  0  0  0  0
  146.2802  133.5908  151.5406 H   0  0  0  0  0  0  0  0  0  0  0  0
  144.7929  134.6860  148.7680 H   0  0  0  0  0  0  0  0  0  0  0  0
  146.4843  136.8746  149.9728 H   0  0  0  0  0  0  0  0  0  0  0  0
  144.9177  137.0079  150.7495 H   0  0  0  0  0  0  0  0  0  0  0  0
  146.2373  139.0822  151.0978 H   0  0  0  0  0  0  0  0  0  0  0  0
  147.5731  138.1624  151.7489 H   0  0  0  0  0  0  0  0  0  0  0  0
  148.8836  140.9109  157.6980 H   0  0  0  0  0  0  0  0  0  0  0  0
  151.5614  140.5162  158.0249 H   0  0  0  0  0  0  0  0  0  0  0  0
  152.4660  140.1876  155.4264 H   0  0  0  0  0  0  0  0  0  0  0  0
  147.2737  135.6832  151.8670 H   0  0  0  0  0  0  0  0  0  0  0  0
  1  2  1  0  0  0  0
  1 21  1  0  0  0  0
  1 22  1  0  0  0  0
  1 23  1  0  0  0  0
  2  3  1  0  0  0  0
  2 16  1  0  0  0  0
  2 24  1  0  0  0  0
  3  4  2  0  0  0  0
  3  5  1  0  0  0  0
  5  6  1  0  0  0  0
  5 25  1  0  0  0  0
  6 15  1  0  0  0  0
  6  7  1  0  0  0  0
  6 26  1  0  0  0  0
  7  8  1  0  0  0  0
  7 27  1  0  0  0  0
  7 28  1  0  0  0  0
  8  9  1  0  0  0  0
  8 29  1  0  0  0  0
  8 30  1  0  0  0  0
  9 10  1  0  0  0  0
  9 14  1  0  0  0  0
  9 41  1  0  0  0  0
 10 11  1  0  0  0  0
 10 31  1  0  0  0  0
 10 32  1  0  0  0  0
 11 12  1  0  0  0  0
 11 13  2  0  0  0  0
 12 33  1  0  0  0  0
 14 15  1  0  0  0  0
 14 34  1  0  0  0  0
 14 35  1  0  0  0  0
 15 36  1  0  0  0  0
 15 37  1  0  0  0  0
 16 20  1  0  0  0  0
 16 17  1  0  0  0  0
 17 18  2  0  0  0  0
 17 38  1  0  0  0  0
 18 19  1  0  0  0  0
 18 39  1  0  0  0  0
 19 20  2  0  0  0  0
 19 40  1  0  0  0  0
M  CHG  1   9   1
M  CHG  1  12  -1
M  END
> <s_m_source_file>
AV-unprocessed.smi

> <i_m_source_file_index>
560

> <i_lp_mmshare_version>
43012

> <i_f3d_flags>
0

> <s_epik_input>
bjFbY0hdW2NIXVtjSF1uMVtDQEhdKFtDSDNdKUMoPU8pW05IXVtDSF0yW0NIMl1bQ0gyXU4oW0NIMl1bQ0gyXTIpW0NIMl1DKD1PKVtOSDJd

> <s_epik_cmdline>
J2VwaWtfcHl0aG9uJywgJy1waCcsICc3LjAnLCAnLXRuJywgJzgnLCAnLW1hJywgJzIwMCcsICctbWV0YWxfYmluZGluZycsICctaW1hZScsICc8aW5maWxlLm1hZT4nLCAnLW9tYWUnLCAnPG91dGZpbGUubWFlPic=

> <r_lp_tautomer_probability>
1

> <r_epik_Ionization_Penalty>
5.71084

> <r_epik_Ionization_Penalty_Charging>
5.71081

> <r_epik_Ionization_Penalty_Neutral>
3.04611e-05

> <r_epik_State_Penalty>
6.71277

> <r_epik_Charging_Adjusted_Penalty>
12.4236

> <i_epik_Tot_Q>
0

> <i_epik_Tot_abs_Q>
2

> <r_epik_Metal_State_Penalty>
2.67562

> <b_epik_Metal_Only>
1

> <s_lp_Force_Field>
OPLS_2005

> <r_lp_Energy>
10.2497

> <b_lp_Chiralities_Consistent>
1

> <s_lp_Variant>
AV-unprocessed.smi:560-8

> <Gold.Version>
5.8.1

> <Gold.Id.Protein>
6NUR|6NUR_protein|mol2

> <Gold.PLP.Fitness>
39.2887

> <Gold.PLP.PLP>
-28.2596

> <Gold.PLP.part.hbond>
-4.1652

> <Gold.PLP.part.metal>
0.0000

> <Gold.PLP.part.buried>
0.4402

> <Gold.PLP.part.nonpolar>
-25.2950

> <Gold.PLP.part.repulsive>
0.4999

> <Gold.PLP.ligand.clash>
0.0000

> <Gold.PLP.ligand.torsion>
0.2516

> <Gold.PLP.Chemscore.Hbond>
3.8000

> <Gold.PLP.Chemscore.CHOScore>
0.0000

> <Gold.PLP.Chemscore.Metal>
0.0000

> <Gold.Chemscore.Hbonds>
donor molecule, donor type, donor heavy atom, donor atom, acceptor molecule, acceptor atom, score
      L1  H     9    41       P1  7948  2.00
      L1  H    12    33       P1  7921  1.00
      P1  H  7989  7998       L1    20  0.70

> <Gold.PLP.Chemscore.Internal.Correction>
0.1325

> <Gold.Rescore>
     Score         DG    S(hbond)    S(metal)    S(lipo)     H(rot)  DE(clash)    DE(int)     intcor
      8.56     -13.67       2.28        0.00      59.00       2.47       0.81       4.30       ----

> <Gold.Chemscore.Fitness>
8.5562

> <Gold.Chemscore.DG>
-13.6681

> <Gold.Chemscore.ZeroCoef>
-5.4800

> <Gold.Chemscore.Hbond>
2.2805

> <Gold.Chemscore.Metal>
0.0000

> <Gold.Chemscore.Lipo>
59.0016

> <Gold.Chemscore.Internal_Hbond>
0.0000

> <Gold.Chemscore.DEClash>
0.8087

> <Gold.Chemscore.DEInternal>
4.3032

> <Gold.Chemscore.Rot>
2.4734

> <Gold.Chemscore.Internal.Correction>
   9.000000E+99

> <Gold.Chemscore.Hbonds>
donor molecule, donor type, donor heavy atom, donor atom, acceptor molecule, acceptor atom, score
      L1  H     9    41       P1  7948  0.99
      L1  H    12    33       P1  7921  1.00
      P1  H  7989  7998       L1    20  0.07

> <Gold.Chemscore.Hbond.Weighted>
-7.6167

> <Gold.Chemscore.Metal.Weighted>
-0.0000

> <Gold.Chemscore.Lipo.Weighted>
-6.9032

> <Gold.Chemscore.Internal_Hbond.Weighted>
0.0000

> <Gold.Chemscore.DEClash.Weighted>
0.8087

> <Gold.Chemscore.DEInternal.Weighted>
4.3032

> <Gold.Chemscore.Rot.Weighted>
6.3318

> <Gold.Chemscore.Internal.Correction.Weighted>
   9.000000E+99

> <Gold.Protein.RotatedTorsions>
[ 6907 6896 6895 6894 ] final   40.08 input  -60.11 | X-H torsion
[ 7974 7965 7964 7962 ] final  123.70 input  175.53 | X-H torsion
[ 8008 7997 7996 7995 ] final  -89.04 input   59.86 | X-H torsion
[ 10167 10162 10161 10158 ] final  -47.52 input  -65.29 | X-H torsion
[ 10718 10713 10712 10709 ] final  -50.47 input   66.30 | X-H torsion
[ 10763 10752 10751 10750 ] final  177.29 input  -60.55 | X-H torsion
[ 11005 11000 10999 10996 ] final -169.00 input  -57.11 | X-H torsion

> <Gold.Protein.ActiveResidues>
 VAL166  LYS551  ARG553  GLY616  TRP617  ASP618  TYR619  PRO620  LYS621  CYS622 
 ASP623  PHE694  ASN695  SER759  ASP760  ASP761  ALA762  ILE779  LEU786  VAL792 
 PHE793  MET794  SER795  GLU796  ALA797  LYS798  CYS799  TRP800  GLU811  SER814 

> <Gold.Protein.RotatedAtoms>
  152.1779  134.8779  160.0528 H   0  0  0  0  0  0  0  0  0  0  0  0  # atno 6907 bound_to 6896
  151.9714  133.3722  159.4081 H   0  0  0  0  0  0  0  0  0  0  0  0  # atno 6908 bound_to 6896
  150.6912  134.4059  159.5183 H   0  0  0  0  0  0  0  0  0  0  0  0  # atno 6909 bound_to 6896
  145.0929  139.3574  143.4851 H   0  0  0  0  0  0  0  0  0  0  0  0  # atno 7974 bound_to 7965
  154.6819  140.0546  157.0274 H   0  0  0  0  0  0  0  0  0  0  0  0  # atno 8008 bound_to 7997
  155.0940  140.3222  155.4547 H   0  0  0  0  0  0  0  0  0  0  0  0  # atno 8009 bound_to 7997
  156.2697  140.2043  156.6067 H   0  0  0  0  0  0  0  0  0  0  0  0  # atno 8010 bound_to 7997
  140.6771  143.2781  151.3938 H   0  0  0  0  0  0  0  0  0  0  0  0  # atno 10167 bound_to 10162
  156.1798  130.4150  149.9524 H   0  0  0  0  0  0  0  0  0  0  0  0  # atno 10718 bound_to 10713
  154.4926  135.2779  155.1485 H   0  0  0  0  0  0  0  0  0  0  0  0  # atno 10763 bound_to 10752
  154.3150  135.6221  153.5486 H   0  0  0  0  0  0  0  0  0  0  0  0  # atno 10764 bound_to 10752
  152.9890  135.5729  154.5350 H   0  0  0  0  0  0  0  0  0  0  0  0  # atno 10765 bound_to 10752
  140.5357  134.5572  157.5086 H   0  0  0  0  0  0  0  0  0  0  0  0  # atno 11005 bound_to 11000
  146.3531  140.0772  142.8620 LP  0  0  0  0  0  0  0  0  0  0  0  0  # atno 17320 bound_to 7965
  145.1045  140.9366  143.4693 LP  0  0  0  0  0  0  0  0  0  0  0  0  # atno 17321 bound_to 7965
  139.6071  144.1175  152.2260 LP  0  0  0  0  0  0  0  0  0  0  0  0  # atno 17342 bound_to 10162
  140.0578  144.5881  150.7286 LP  0  0  0  0  0  0  0  0  0  0  0  0  # atno 17343 bound_to 10162
  156.7298  130.9039  151.3625 LP  0  0  0  0  0  0  0  0  0  0  0  0  # atno 17370 bound_to 10713
  157.6860  130.9186  150.0388 LP  0  0  0  0  0  0  0  0  0  0  0  0  # atno 17371 bound_to 10713
  139.9530  134.7583  156.0404 LP  0  0  0  0  0  0  0  0  0  0  0  0  # atno 17394 bound_to 11000
  141.1256  133.6600  156.3328 LP  0  0  0  0  0  0  0  0  0  0  0  0  # atno 17395 bound_to 11000

$$$$
