AV-unprocessed.smi:532|AV-procd|sdf|2851|dock5
  -GOLD-   2262023343D 1   1.00000     0.00000
 Structure written by MMmdl.
 48 50  0  0  0  0  0  0  0  0  2 V2000
  145.0538  135.9321  153.5225 C   0  0  0  0  0  0  0  0  0  0  0  0
  145.0707  135.1583  154.7078 O   0  0  0  0  0  0  0  0  0  0  0  0
  145.9809  134.0738  154.6411 C   0  0  0  0  0  0  0  0  0  0  0  0
  147.4138  134.6004  154.4663 C   0  0  0  0  0  0  0  0  0  0  0  0
  148.4211  133.5520  154.6131 N   0  0  0  0  0  0  0  0  0  0  0  0
  148.5361  132.4001  153.9038 C   0  0  0  0  0  0  0  0  0  0  0  0
  147.6355  132.0831  152.8924 N   0  0  0  0  0  0  0  0  0  0  0  0
  147.3109  130.7210  152.4808 C   0  0  0  0  0  0  0  0  0  0  0  0
  145.7893  130.5087  152.3656 C   0  0  2  0  0  0  0  0  0  0  0  0
  145.4534  129.0636  151.9748 C   0  0  0  0  0  0  0  0  0  0  0  0
  145.1966  131.5219  151.3712 C   0  0  0  0  0  0  0  0  0  0  0  0
  145.6049  132.9556  151.7546 C   0  0  2  0  0  0  0  0  0  0  0  0
  145.0869  133.9813  150.7377 C   0  0  0  0  0  0  0  0  0  0  0  0
  147.1358  133.0447  151.9146 C   0  0  0  0  0  0  0  0  0  0  0  0
  149.5690  131.6283  154.2439 N   0  0  0  0  0  0  0  0  0  0  0  0
  150.1661  132.3534  155.2656 C   0  0  0  0  0  0  0  0  0  0  0  0
  149.4993  133.5157  155.5013 C   0  0  0  0  0  0  0  0  0  0  0  0
  149.9057  134.5079  156.5196 C   0  0  0  0  0  0  0  0  0  0  0  0
  149.2673  135.5457  156.6841 O   0  0  0  0  0  0  0  0  0  0  0  0
  151.0297  134.1178  157.2003 N   0  5  0  0  0  0  0  0  0  0  0  0
  151.7364  132.9516  156.9968 C   0  0  0  0  0  0  0  0  0  0  0  0
  152.7434  132.6793  157.6516 O   0  0  0  0  0  0  0  0  0  0  0  0
  151.3206  132.0606  156.0421 N   0  0  0  0  0  0  0  0  0  0  0  0
  152.0514  130.8126  155.8050 C   0  0  0  0  0  0  0  0  0  0  0  0
  144.3449  136.7526  153.6339 H   0  0  0  0  0  0  0  0  0  0  0  0
  144.7438  135.3326  152.6658 H   0  0  0  0  0  0  0  0  0  0  0  0
  146.0357  136.3596  153.3156 H   0  0  0  0  0  0  0  0  0  0  0  0
  145.9205  133.4804  155.5543 H   0  0  0  0  0  0  0  0  0  0  0  0
  145.7107  133.4194  153.8117 H   0  0  0  0  0  0  0  0  0  0  0  0
  147.5155  135.0699  153.4890 H   0  0  0  0  0  0  0  0  0  0  0  0
  147.6202  135.3891  155.1893 H   0  0  0  0  0  0  0  0  0  0  0  0
  147.7961  130.5143  151.5259 H   0  0  0  0  0  0  0  0  0  0  0  0
  147.7356  130.0188  153.1984 H   0  0  0  0  0  0  0  0  0  0  0  0
  145.3435  130.6959  153.3434 H   0  0  0  0  0  0  0  0  0  0  0  0
  145.8793  128.8054  151.0048 H   0  0  0  0  0  0  0  0  0  0  0  0
  144.3751  128.9128  151.9173 H   0  0  0  0  0  0  0  0  0  0  0  0
  145.8459  128.3599  152.7092 H   0  0  0  0  0  0  0  0  0  0  0  0
  145.5489  131.2965  150.3635 H   0  0  0  0  0  0  0  0  0  0  0  0
  144.1097  131.4343  151.3492 H   0  0  0  0  0  0  0  0  0  0  0  0
  145.1503  133.1909  152.7180 H   0  0  0  0  0  0  0  0  0  0  0  0
  145.5093  133.8063  149.7478 H   0  0  0  0  0  0  0  0  0  0  0  0
  145.3494  134.9964  151.0370 H   0  0  0  0  0  0  0  0  0  0  0  0
  144.0012  133.9334  150.6510 H   0  0  0  0  0  0  0  0  0  0  0  0
  147.4166  134.0500  152.2314 H   0  0  0  0  0  0  0  0  0  0  0  0
  147.6303  132.8697  150.9583 H   0  0  0  0  0  0  0  0  0  0  0  0
  152.1175  130.2253  156.7222 H   0  0  0  0  0  0  0  0  0  0  0  0
  153.0648  131.0252  155.4619 H   0  0  0  0  0  0  0  0  0  0  0  0
  151.5763  130.1838  155.0524 H   0  0  0  0  0  0  0  0  0  0  0  0
  1  2  1  0  0  0  0
  1 25  1  0  0  0  0
  1 26  1  0  0  0  0
  1 27  1  0  0  0  0
  2  3  1  0  0  0  0
  3  4  1  0  0  0  0
  3 28  1  0  0  0  0
  3 29  1  0  0  0  0
  4  5  1  0  0  0  0
  4 30  1  0  0  0  0
  4 31  1  0  0  0  0
  5 17  1  0  0  0  0
  5  6  1  0  0  0  0
  6  7  1  0  0  0  0
  6 15  2  0  0  0  0
  7 14  1  0  0  0  0
  7  8  1  0  0  0  0
  8  9  1  0  0  0  0
  8 32  1  0  0  0  0
  8 33  1  0  0  0  0
  9 10  1  0  0  0  0
  9 11  1  0  0  0  0
  9 34  1  0  0  0  0
 10 35  1  0  0  0  0
 10 36  1  0  0  0  0
 10 37  1  0  0  0  0
 11 12  1  0  0  0  0
 11 38  1  0  0  0  0
 11 39  1  0  0  0  0
 12 13  1  0  0  0  0
 12 14  1  0  0  0  0
 12 40  1  0  0  0  0
 13 41  1  0  0  0  0
 13 42  1  0  0  0  0
 13 43  1  0  0  0  0
 14 44  1  0  0  0  0
 14 45  1  0  0  0  0
 15 16  1  0  0  0  0
 16 23  1  0  0  0  0
 16 17  2  0  0  0  0
 17 18  1  0  0  0  0
 18 19  2  0  0  0  0
 18 20  1  0  0  0  0
 20 21  1  0  0  0  0
 21 22  2  0  0  0  0
 21 23  1  0  0  0  0
 23 24  1  0  0  0  0
 24 46  1  0  0  0  0
 24 47  1  0  0  0  0
 24 48  1  0  0  0  0
M  CHG  1  20  -1
M  END
> <s_m_source_file>
AV-unprocessed.smi

> <i_m_source_file_index>
532

> <i_lp_mmshare_version>
43012

> <i_f3d_flags>
0

> <s_epik_input>
W0NIM11uMWMoPU8pW25IXWMoPU8pYyhjMTIpbihbQ0gyXVtDSDJdT1tDSDNdKWMobjIpTjNbQ0gyXVtDQEBIXShbQ0gzXSlbQ0gyXVtDQEBIXShbQ0gzXSlbQ0gyXTM=

> <s_epik_cmdline>
J2VwaWtfcHl0aG9uJywgJy1waCcsICc3LjAnLCAnLXRuJywgJzgnLCAnLW1hJywgJzIwMCcsICctbWV0YWxfYmluZGluZycsICctaW1hZScsICc8aW5maWxlLm1hZT4nLCAnLW9tYWUnLCAnPG91dGZpbGUubWFlPic=

> <r_lp_tautomer_probability>
1

> <r_epik_Ionization_Penalty>
5.12128

> <r_epik_Ionization_Penalty_Charging>
0.0789629

> <r_epik_Ionization_Penalty_Neutral>
5.04232

> <r_epik_State_Penalty>
5.03111

> <r_epik_Charging_Adjusted_Penalty>
5.11007

> <i_epik_Tot_Q>
-1

> <i_epik_Tot_abs_Q>
1

> <r_epik_Metal_State_Penalty>
1.14201

> <b_epik_Metal_Only>
1

> <s_lp_Force_Field>
OPLS_2005

> <r_lp_Energy>
42.9177

> <b_lp_Chiralities_Consistent>
1

> <s_lp_Variant>
AV-unprocessed.smi:532-4

> <Gold.Version>
5.8.1

> <Gold.Id.Protein>
6NUR|6NUR_protein|mol2

> <Gold.PLP.Fitness>
35.7600

> <Gold.PLP.PLP>
-32.0780

> <Gold.PLP.part.hbond>
-2.0000

> <Gold.PLP.part.metal>
0.0000

> <Gold.PLP.part.buried>
-0.7672

> <Gold.PLP.part.nonpolar>
-30.8054

> <Gold.PLP.part.repulsive>
0.1007

> <Gold.PLP.ligand.clash>
0.0000

> <Gold.PLP.ligand.torsion>
0.5333

> <Gold.PLP.Chemscore.Hbond>
1.2616

> <Gold.PLP.Chemscore.CHOScore>
0.0000

> <Gold.PLP.Chemscore.Metal>
0.0000

> <Gold.Chemscore.Hbonds>
donor molecule, donor type, donor heavy atom, donor atom, acceptor molecule, acceptor atom, score
      P1  H  6896  6907       L1    20  0.34
      P1  H  6896  6909       L1    22  0.85

> <Gold.PLP.Chemscore.Internal.Correction>
0.9639

> <Gold.Rescore>
     Score         DG    S(hbond)    S(metal)    S(lipo)     H(rot)  DE(clash)    DE(int)     intcor
     11.03     -12.72       0.70        0.00      72.82       1.41       0.19       1.51       ----

> <Gold.Chemscore.Fitness>
11.0272

> <Gold.Chemscore.DG>
-12.7245

> <Gold.Chemscore.ZeroCoef>
-5.4800

> <Gold.Chemscore.Hbond>
0.7026

> <Gold.Chemscore.Metal>
0.0000

> <Gold.Chemscore.Lipo>
72.8154

> <Gold.Chemscore.Internal_Hbond>
0.0000

> <Gold.Chemscore.DEClash>
0.1866

> <Gold.Chemscore.DEInternal>
1.5107

> <Gold.Chemscore.Rot>
1.4147

> <Gold.Chemscore.Internal.Correction>
   9.000000E+99

> <Gold.Chemscore.Hbonds>
donor molecule, donor type, donor heavy atom, donor atom, acceptor molecule, acceptor atom, score
      P1  H  6896  6907       L1    20  0.06
      P1  H  6896  6909       L1    22  0.18

> <Gold.Chemscore.Hbond.Weighted>
-2.3467

> <Gold.Chemscore.Metal.Weighted>
-0.0000

> <Gold.Chemscore.Lipo.Weighted>
-8.5194

> <Gold.Chemscore.Internal_Hbond.Weighted>
0.0000

> <Gold.Chemscore.DEClash.Weighted>
0.1866

> <Gold.Chemscore.DEInternal.Weighted>
1.5107

> <Gold.Chemscore.Rot.Weighted>
3.6216

> <Gold.Chemscore.Internal.Correction.Weighted>
   9.000000E+99

> <Gold.Protein.RotatedTorsions>
[ 6907 6896 6895 6894 ] final  -94.23 input  -60.11 | X-H torsion
[ 7974 7965 7964 7962 ] final -115.12 input  175.53 | X-H torsion
[ 8008 7997 7996 7995 ] final  147.52 input   59.86 | X-H torsion
[ 10167 10162 10161 10158 ] final  -18.23 input  -65.29 | X-H torsion
[ 10718 10713 10712 10709 ] final  -18.69 input   66.30 | X-H torsion
[ 10763 10752 10751 10750 ] final  -26.57 input  -60.55 | X-H torsion
[ 11005 11000 10999 10996 ] final  -11.35 input  -57.11 | X-H torsion

> <Gold.Protein.ActiveResidues>
 VAL166  LYS551  ARG553  GLY616  TRP617  ASP618  TYR619  PRO620  LYS621  CYS622 
 ASP623  PHE694  ASN695  SER759  ASP760  ASP761  ALA762  ILE779  LEU786  VAL792 
 PHE793  MET794  SER795  GLU796  ALA797  LYS798  CYS799  TRP800  GLU811  SER814 

> <Gold.Protein.RotatedAtoms>
  150.6938  134.1844  159.4260 H   0  0  0  0  0  0  0  0  0  0  0  0  # atno 6907 bound_to 6896
  151.9817  135.0023  160.0567 H   0  0  0  0  0  0  0  0  0  0  0  0  # atno 6908 bound_to 6896
  152.1749  133.4633  159.4965 H   0  0  0  0  0  0  0  0  0  0  0  0  # atno 6909 bound_to 6896
  145.1121  140.8618  143.3864 H   0  0  0  0  0  0  0  0  0  0  0  0  # atno 7974 bound_to 7965
  156.2822  140.2153  156.5550 H   0  0  0  0  0  0  0  0  0  0  0  0  # atno 8008 bound_to 7997
  154.7260  140.0499  157.0705 H   0  0  0  0  0  0  0  0  0  0  0  0  # atno 8009 bound_to 7997
  155.0416  140.3146  155.4725 H   0  0  0  0  0  0  0  0  0  0  0  0  # atno 8010 bound_to 7997
  140.7256  143.4937  150.9958 H   0  0  0  0  0  0  0  0  0  0  0  0  # atno 10167 bound_to 10162
  156.5561  130.4714  149.6429 H   0  0  0  0  0  0  0  0  0  0  0  0  # atno 10718 bound_to 10713
  153.7181  135.6946  153.5020 H   0  0  0  0  0  0  0  0  0  0  0  0  # atno 10763 bound_to 10752
  153.2223  135.4365  155.0502 H   0  0  0  0  0  0  0  0  0  0  0  0  # atno 10764 bound_to 10752
  154.8293  135.3463  154.6716 H   0  0  0  0  0  0  0  0  0  0  0  0  # atno 10765 bound_to 10752
  140.7544  133.8566  155.9072 H   0  0  0  0  0  0  0  0  0  0  0  0  # atno 11005 bound_to 11000
  145.0835  139.2942  143.5771 LP  0  0  0  0  0  0  0  0  0  0  0  0  # atno 17320 bound_to 7965
  146.3526  140.0349  142.8647 LP  0  0  0  0  0  0  0  0  0  0  0  0  # atno 17321 bound_to 7965
  139.8643  143.7274  152.3171 LP  0  0  0  0  0  0  0  0  0  0  0  0  # atno 17342 bound_to 10162
  139.7500  144.7536  151.0520 LP  0  0  0  0  0  0  0  0  0  0  0  0  # atno 17343 bound_to 10162
  156.2841  130.7087  151.1919 LP  0  0  0  0  0  0  0  0  0  0  0  0  # atno 17370 bound_to 10713
  157.7378  131.0548  150.5334 LP  0  0  0  0  0  0  0  0  0  0  0  0  # atno 17371 bound_to 10713
  140.9721  134.1517  157.4567 LP  0  0  0  0  0  0  0  0  0  0  0  0  # atno 17394 bound_to 11000
  139.8782  134.9982  156.5888 LP  0  0  0  0  0  0  0  0  0  0  0  0  # atno 17395 bound_to 11000

$$$$
