AV-unprocessed.smi:1594|AV-procd|sdf|6414|dock5
  -GOLD-   22720 7 53D 1   1.00000     0.00000
 Structure written by MMmdl.
 35 36  0  0  0  0  0  0  0  0  1 V2000
  148.4581  137.8399  155.6330 C   0  0  0  0  0  0  0  0  0  0  0  0
  149.8941  137.7909  155.1966 C   0  0  0  0  0  0  0  0  0  0  0  0
  150.4244  136.6400  154.8184 N   0  0  0  0  0  0  0  0  0  0  0  0
  151.7493  136.9243  154.4731 O   0  0  0  0  0  0  0  0  0  0  0  0
  151.9668  138.2510  154.6602 C   0  0  0  0  0  0  0  0  0  0  0  0
  153.3322  138.7577  154.3407 C   0  0  0  0  0  0  0  0  0  0  0  0
  150.8328  138.8597  155.1227 C   0  0  0  0  0  0  0  0  0  0  0  0
  150.6163  140.3125  155.4694 C   0  0  0  0  0  0  0  0  0  0  0  0
  151.5298  140.7683  156.6141 C   0  0  0  0  0  0  0  0  0  0  0  0
  152.4176  140.0362  157.0548 O   0  0  0  0  0  0  0  0  0  0  0  0
  151.2949  142.0008  157.0891 N   0  0  0  0  0  0  0  0  0  0  0  0
  152.0429  142.6455  158.1645 C   0  0  0  0  0  0  0  0  0  0  0  0
  151.9374  141.8102  159.4492 C   0  0  0  0  0  0  0  0  0  0  0  0
  152.5946  142.5440  160.6298 C   0  0  0  0  0  0  0  0  0  0  0  0
  152.0015  143.8274  160.7964 O   0  0  0  0  0  0  0  0  0  0  0  0
  152.1873  144.6748  159.6678 C   0  0  0  0  0  0  0  0  0  0  0  0
  151.5079  144.0629  158.4321 C   0  0  0  0  0  0  0  0  0  0  0  0
  147.9460  138.6959  155.1932 H   0  0  0  0  0  0  0  0  0  0  0  0
  148.3842  137.9299  156.7169 H   0  0  0  0  0  0  0  0  0  0  0  0
  147.9147  136.9422  155.3354 H   0  0  0  0  0  0  0  0  0  0  0  0
  153.2837  139.7621  153.9197 H   0  0  0  0  0  0  0  0  0  0  0  0
  153.8293  138.1131  153.6159 H   0  0  0  0  0  0  0  0  0  0  0  0
  153.9482  138.7965  155.2391 H   0  0  0  0  0  0  0  0  0  0  0  0
  150.8013  140.9478  154.6022 H   0  0  0  0  0  0  0  0  0  0  0  0
  149.5823  140.4956  155.7637 H   0  0  0  0  0  0  0  0  0  0  0  0
  150.5453  142.5341  156.6727 H   0  0  0  0  0  0  0  0  0  0  0  0
  153.0963  142.7088  157.8842 H   0  0  0  0  0  0  0  0  0  0  0  0
  150.8892  141.6211  159.6854 H   0  0  0  0  0  0  0  0  0  0  0  0
  152.4067  140.8361  159.3072 H   0  0  0  0  0  0  0  0  0  0  0  0
  152.4586  141.9722  161.5479 H   0  0  0  0  0  0  0  0  0  0  0  0
  153.6697  142.6459  160.4752 H   0  0  0  0  0  0  0  0  0  0  0  0
  151.7560  145.6519  159.8859 H   0  0  0  0  0  0  0  0  0  0  0  0
  153.2522  144.8307  159.4881 H   0  0  0  0  0  0  0  0  0  0  0  0
  151.6710  144.7032  157.5644 H   0  0  0  0  0  0  0  0  0  0  0  0
  150.4300  144.0284  158.5966 H   0  0  0  0  0  0  0  0  0  0  0  0
  1  2  1  0  0  0  0
  1 18  1  0  0  0  0
  1 19  1  0  0  0  0
  1 20  1  0  0  0  0
  2  7  1  0  0  0  0
  2  3  2  0  0  0  0
  3  4  1  0  0  0  0
  4  5  1  0  0  0  0
  5  6  1  0  0  0  0
  5  7  2  0  0  0  0
  6 21  1  0  0  0  0
  6 22  1  0  0  0  0
  6 23  1  0  0  0  0
  7  8  1  0  0  0  0
  8  9  1  0  0  0  0
  8 24  1  0  0  0  0
  8 25  1  0  0  0  0
  9 10  2  0  0  0  0
  9 11  1  0  0  0  0
 11 12  1  0  0  0  0
 11 26  1  0  0  0  0
 12 17  1  0  0  0  0
 12 13  1  0  0  0  0
 12 27  1  0  0  0  0
 13 14  1  0  0  0  0
 13 28  1  0  0  0  0
 13 29  1  0  0  0  0
 14 15  1  0  0  0  0
 14 30  1  0  0  0  0
 14 31  1  0  0  0  0
 15 16  1  0  0  0  0
 16 17  1  0  0  0  0
 16 32  1  0  0  0  0
 16 33  1  0  0  0  0
 17 34  1  0  0  0  0
 17 35  1  0  0  0  0
M  END
> <s_m_source_file>
AV-unprocessed.smi

> <i_m_source_file_index>
1594

> <i_lp_mmshare_version>
43012

> <i_f3d_flags>
0

> <s_epik_input>
W0NIM11jMW5vYyhbQ0gzXSljMVtDSDJdQyg9TylbTkhdW0NIXTJbQ0gyXVtDSDJdT1tDSDJdW0NIMl0y

> <s_epik_cmdline>
J2VwaWtfcHl0aG9uJywgJy1waCcsICc3LjAnLCAnLXRuJywgJzgnLCAnLW1hJywgJzIwMCcsICctbWV0YWxfYmluZGluZycsICctaW1hZScsICc8aW5maWxlLm1hZT4nLCAnLW9tYWUnLCAnPG91dGZpbGUubWFlPic=

> <r_lp_tautomer_probability>
1

> <r_epik_Ionization_Penalty>
2.34123e-08

> <r_epik_Ionization_Penalty_Charging>
0

> <r_epik_Ionization_Penalty_Neutral>
2.34123e-08

> <r_epik_State_Penalty>
-0

> <r_epik_Charging_Adjusted_Penalty>
0

> <i_epik_Tot_Q>
0

> <i_epik_Tot_abs_Q>
0

> <r_epik_Metal_State_Penalty>
-0

> <b_epik_Metal_Only>
0

> <s_lp_Force_Field>
OPLS_2005

> <r_lp_Energy>
1.65601

> <b_lp_Chiralities_Consistent>
1

> <s_lp_Variant>
AV-unprocessed.smi:1594-1

> <Gold.Version>
5.8.1

> <Gold.Id.Protein>
6NUR|6NUR_protein|mol2

> <Gold.PLP.Fitness>
39.1705

> <Gold.PLP.PLP>
-33.2855

> <Gold.PLP.part.hbond>
-2.0000

> <Gold.PLP.part.metal>
0.0000

> <Gold.PLP.part.buried>
-4.9864

> <Gold.PLP.part.nonpolar>
-25.6160

> <Gold.PLP.part.repulsive>
0.4906

> <Gold.PLP.ligand.clash>
0.0000

> <Gold.PLP.ligand.torsion>
0.0585

> <Gold.PLP.Chemscore.Hbond>
2.0000

> <Gold.PLP.Chemscore.CHOScore>
0.0000

> <Gold.PLP.Chemscore.Metal>
0.0000

> <Gold.Chemscore.Hbonds>
donor molecule, donor type, donor heavy atom, donor atom, acceptor molecule, acceptor atom, score
      P1  H  7997  8008       L1    10  1.00
      P1  H 10752 10763       L1     4  1.00

> <Gold.PLP.Chemscore.Internal.Correction>
0.0020

> <Gold.Rescore>
     Score         DG    S(hbond)    S(metal)    S(lipo)     H(rot)  DE(clash)    DE(int)     intcor
     18.89     -19.11       1.97        0.00      90.41       1.38       0.03       0.20       ----

> <Gold.Chemscore.Fitness>
18.8888

> <Gold.Chemscore.DG>
-19.1149

> <Gold.Chemscore.ZeroCoef>
-5.4800

> <Gold.Chemscore.Hbond>
1.9718

> <Gold.Chemscore.Metal>
0.0000

> <Gold.Chemscore.Lipo>
90.4144

> <Gold.Chemscore.Internal_Hbond>
0.0000

> <Gold.Chemscore.DEClash>
0.0288

> <Gold.Chemscore.DEInternal>
0.1974

> <Gold.Chemscore.Rot>
1.3786

> <Gold.Chemscore.Internal.Correction>
   9.000000E+99

> <Gold.Chemscore.Hbonds>
donor molecule, donor type, donor heavy atom, donor atom, acceptor molecule, acceptor atom, score
      P1  H  7997  8008       L1    10  0.95
      P1  H 10752 10763       L1     4  0.90

> <Gold.Chemscore.Hbond.Weighted>
-6.5858

> <Gold.Chemscore.Metal.Weighted>
-0.0000

> <Gold.Chemscore.Lipo.Weighted>
-10.5785

> <Gold.Chemscore.Internal_Hbond.Weighted>
0.0000

> <Gold.Chemscore.DEClash.Weighted>
0.0288

> <Gold.Chemscore.DEInternal.Weighted>
0.1974

> <Gold.Chemscore.Rot.Weighted>
3.5293

> <Gold.Chemscore.Internal.Correction.Weighted>
   9.000000E+99

> <Gold.Protein.RotatedTorsions>
[ 6907 6896 6895 6894 ] final  113.14 input  -60.11 | X-H torsion
[ 7974 7965 7964 7962 ] final  -23.33 input  175.53 | X-H torsion
[ 8008 7997 7996 7995 ] final  -53.54 input   59.86 | X-H torsion
[ 10167 10162 10161 10158 ] final  133.72 input  -65.29 | X-H torsion
[ 10718 10713 10712 10709 ] final -131.77 input   66.30 | X-H torsion
[ 10763 10752 10751 10750 ] final   60.44 input  -60.55 | X-H torsion
[ 11005 11000 10999 10996 ] final -112.13 input  -57.11 | X-H torsion

> <Gold.Protein.ActiveResidues>
 VAL166  LYS551  ARG553  GLY616  TRP617  ASP618  TYR619  PRO620  LYS621  CYS622 
 ASP623  PHE694  ASN695  SER759  ASP760  ASP761  ALA762  ILE779  LEU786  VAL792 
 PHE793  MET794  SER795  GLU796  ALA797  LYS798  CYS799  TRP800  GLU811  SER814 

> <Gold.Protein.RotatedAtoms>
  152.4877  133.8417  159.7155 H   0  0  0  0  0  0  0  0  0  0  0  0  # atno 6907 bound_to 6896
  150.8979  133.7148  159.2893 H   0  0  0  0  0  0  0  0  0  0  0  0  # atno 6908 bound_to 6896
  151.4599  135.1041  159.9774 H   0  0  0  0  0  0  0  0  0  0  0  0  # atno 6909 bound_to 6896
  146.1623  140.4601  142.8566 H   0  0  0  0  0  0  0  0  0  0  0  0  # atno 7974 bound_to 7965
  154.4136  140.1197  156.5170 H   0  0  0  0  0  0  0  0  0  0  0  0  # atno 8008 bound_to 7997
  155.6741  140.3496  155.4810 H   0  0  0  0  0  0  0  0  0  0  0  0  # atno 8009 bound_to 7997
  155.9608  140.1122  157.0887 H   0  0  0  0  0  0  0  0  0  0  0  0  # atno 8010 bound_to 7997
  139.5285  144.6602  151.5036 H   0  0  0  0  0  0  0  0  0  0  0  0  # atno 10167 bound_to 10162
  156.2278  130.7018  151.0825 H   0  0  0  0  0  0  0  0  0  0  0  0  # atno 10718 bound_to 10713
  152.9921  135.5536  154.5875 H   0  0  0  0  0  0  0  0  0  0  0  0  # atno 10763 bound_to 10752
  154.5243  135.2809  155.1237 H   0  0  0  0  0  0  0  0  0  0  0  0  # atno 10764 bound_to 10752
  154.2578  135.6387  153.5316 H   0  0  0  0  0  0  0  0  0  0  0  0  # atno 10765 bound_to 10752
  141.0693  133.9406  157.2516 H   0  0  0  0  0  0  0  0  0  0  0  0  # atno 11005 bound_to 11000
  144.8043  140.6271  143.6457 LP  0  0  0  0  0  0  0  0  0  0  0  0  # atno 17320 bound_to 7965
  145.4558  139.1518  143.3893 LP  0  0  0  0  0  0  0  0  0  0  0  0  # atno 17321 bound_to 7965
  140.6447  143.8819  150.6725 LP  0  0  0  0  0  0  0  0  0  0  0  0  # atno 17342 bound_to 10162
  140.2164  143.3843  152.1677 LP  0  0  0  0  0  0  0  0  0  0  0  0  # atno 17343 bound_to 10162
  157.7118  131.0730  150.6471 LP  0  0  0  0  0  0  0  0  0  0  0  0  # atno 17370 bound_to 10713
  156.6537  130.4492  149.5711 LP  0  0  0  0  0  0  0  0  0  0  0  0  # atno 17371 bound_to 10713
  139.9508  135.0176  156.8987 LP  0  0  0  0  0  0  0  0  0  0  0  0  # atno 17394 bound_to 11000
  140.5706  134.0447  155.7429 LP  0  0  0  0  0  0  0  0  0  0  0  0  # atno 17395 bound_to 11000

$$$$
