AV-unprocessed.smi:2772|AV-procd|sdf|10670|dock5
  -GOLD-   2272015113D 1   1.00000     0.00000
 Structure written by MMmdl.
 54 56  0  0  0  0  0  0  0  0  2 V2000
  148.6480  129.0523  153.8280 C   0  0  0  0  0  0  0  0  0  0  0  0
  148.9604  130.5311  153.9219 C   0  0  0  0  0  0  0  0  0  0  0  0
  149.9574  131.0052  154.7986 C   0  0  0  0  0  0  0  0  0  0  0  0
  150.2120  132.3895  154.8441 C   0  0  0  0  0  0  0  0  0  0  0  0
  149.4659  133.2505  154.0034 C   0  0  0  0  0  0  0  0  0  0  0  0
  149.6143  134.6638  153.9647 N   0  0  0  0  0  0  0  0  0  0  0  0
  150.4615  135.4400  154.6622 C   0  0  0  0  0  0  0  0  0  0  0  0
  151.2980  135.0385  155.4707 O   0  0  0  0  0  0  0  0  0  0  0  0
  150.2995  136.7346  154.3526 N   0  0  0  0  0  0  0  0  0  0  0  0
  151.0637  137.8370  154.9295 C   0  0  2  0  0  0  0  0  0  0  0  0
  151.1924  137.6499  156.4463 C   0  0  0  0  0  0  0  0  0  0  0  0
  151.9263  138.8330  157.1019 C   0  0  0  0  0  0  0  0  0  0  0  0
  151.2632  140.1363  156.8014 N   0  3  1  0  0  0  0  0  0  0  0  0
  151.8603  141.3283  157.4886 C   0  0  0  0  0  0  0  0  0  0  0  0
  152.1547  141.1119  158.9932 C   0  0  0  0  0  0  0  0  0  0  0  0
  152.6682  142.3955  159.6684 C   0  0  0  0  0  0  0  0  0  0  0  0
  151.6832  143.4650  159.5302 N   0  0  0  0  0  0  0  0  0  0  0  0
  152.1578  144.6511  160.2291 C   0  0  0  0  0  0  0  0  0  0  0  0
  151.4960  143.7799  158.1163 C   0  0  0  0  0  0  0  0  0  0  0  0
  150.9298  142.5580  157.3731 C   0  0  0  0  0  0  0  0  0  0  0  0
  151.1460  140.3360  155.3280 C   0  0  0  0  0  0  0  0  0  0  0  0
  150.3837  139.1863  154.6511 C   0  0  0  0  0  0  0  0  0  0  0  0
  148.4840  132.6685  153.1739 C   0  0  0  0  0  0  0  0  0  0  0  0
  148.2336  131.3429  153.1244 N   0  0  0  0  0  0  0  0  0  0  0  0
  149.0696  128.5072  154.6729 H   0  0  0  0  0  0  0  0  0  0  0  0
  149.0653  128.6371  152.9103 H   0  0  0  0  0  0  0  0  0  0  0  0
  147.5704  128.8859  153.8223 H   0  0  0  0  0  0  0  0  0  0  0  0
  150.5146  130.3263  155.4269 H   0  0  0  0  0  0  0  0  0  0  0  0
  150.9606  132.7574  155.5279 H   0  0  0  0  0  0  0  0  0  0  0  0
  149.0375  135.1368  153.2845 H   0  0  0  0  0  0  0  0  0  0  0  0
  149.5919  136.9750  153.6736 H   0  0  0  0  0  0  0  0  0  0  0  0
  152.0661  137.8420  154.4963 H   0  0  0  0  0  0  0  0  0  0  0  0
  150.2020  137.5482  156.8929 H   0  0  0  0  0  0  0  0  0  0  0  0
  151.7250  136.7233  156.6639 H   0  0  0  0  0  0  0  0  0  0  0  0
  151.9348  138.6383  158.1733 H   0  0  0  0  0  0  0  0  0  0  0  0
  152.9650  138.8660  156.7698 H   0  0  0  0  0  0  0  0  0  0  0  0
  152.8100  141.5569  157.0016 H   0  0  0  0  0  0  0  0  0  0  0  0
  151.2562  140.7672  159.5077 H   0  0  0  0  0  0  0  0  0  0  0  0
  152.9159  140.3439  159.1315 H   0  0  0  0  0  0  0  0  0  0  0  0
  152.8470  142.2013  160.7269 H   0  0  0  0  0  0  0  0  0  0  0  0
  153.6218  142.6990  159.2330 H   0  0  0  0  0  0  0  0  0  0  0  0
  151.4310  145.4601  160.1457 H   0  0  0  0  0  0  0  0  0  0  0  0
  153.1076  145.0015  159.8224 H   0  0  0  0  0  0  0  0  0  0  0  0
  152.2974  144.4405  161.2899 H   0  0  0  0  0  0  0  0  0  0  0  0
  150.8022  144.6159  158.0192 H   0  0  0  0  0  0  0  0  0  0  0  0
  152.4404  144.0939  157.6682 H   0  0  0  0  0  0  0  0  0  0  0  0
  150.7754  142.8444  156.3345 H   0  0  0  0  0  0  0  0  0  0  0  0
  149.9441  142.3154  157.7733 H   0  0  0  0  0  0  0  0  0  0  0  0
  150.6245  141.2628  155.0983 H   0  0  0  0  0  0  0  0  0  0  0  0
  152.1431  140.4251  154.8938 H   0  0  0  0  0  0  0  0  0  0  0  0
  150.3320  139.3684  153.5768 H   0  0  0  0  0  0  0  0  0  0  0  0
  149.3540  139.1687  155.0112 H   0  0  0  0  0  0  0  0  0  0  0  0
  147.8806  133.2855  152.5241 H   0  0  0  0  0  0  0  0  0  0  0  0
  150.3229  140.0528  157.1603 H   0  0  0  0  0  0  0  0  0  0  0  0
  1  2  1  0  0  0  0
  1 25  1  0  0  0  0
  1 26  1  0  0  0  0
  1 27  1  0  0  0  0
  2 24  1  0  0  0  0
  2  3  2  0  0  0  0
  3  4  1  0  0  0  0
  3 28  1  0  0  0  0
  4  5  2  0  0  0  0
  4 29  1  0  0  0  0
  5  6  1  0  0  0  0
  5 23  1  0  0  0  0
  6  7  1  0  0  0  0
  6 30  1  0  0  0  0
  7  8  2  0  0  0  0
  7  9  1  0  0  0  0
  9 10  1  0  0  0  0
  9 31  1  0  0  0  0
 10 22  1  0  0  0  0
 10 11  1  0  0  0  0
 10 32  1  0  0  0  0
 11 12  1  0  0  0  0
 11 33  1  0  0  0  0
 11 34  1  0  0  0  0
 12 13  1  0  0  0  0
 12 35  1  0  0  0  0
 12 36  1  0  0  0  0
 13 14  1  0  0  0  0
 13 21  1  0  0  0  0
 13 54  1  0  0  0  0
 14 20  1  0  0  0  0
 14 15  1  0  0  0  0
 14 37  1  0  0  0  0
 15 16  1  0  0  0  0
 15 38  1  0  0  0  0
 15 39  1  0  0  0  0
 16 17  1  0  0  0  0
 16 40  1  0  0  0  0
 16 41  1  0  0  0  0
 17 18  1  0  0  0  0
 17 19  1  0  0  0  0
 18 42  1  0  0  0  0
 18 43  1  0  0  0  0
 18 44  1  0  0  0  0
 19 20  1  0  0  0  0
 19 45  1  0  0  0  0
 19 46  1  0  0  0  0
 20 47  1  0  0  0  0
 20 48  1  0  0  0  0
 21 22  1  0  0  0  0
 21 49  1  0  0  0  0
 21 50  1  0  0  0  0
 22 51  1  0  0  0  0
 22 52  1  0  0  0  0
 23 24  2  0  0  0  0
 23 53  1  0  0  0  0
M  CHG  1  13   1
M  END
> <s_m_source_file>
AV-unprocessed.smi

> <i_m_source_file_index>
2772

> <i_lp_mmshare_version>
43012

> <i_f3d_flags>
0

> <s_epik_input>
W0NIM11jMVtjSF1bY0hdYyhbY0hdbjEpW05IXUMoPU8pW05IXVtDSF0yW0NIMl1bQ0gyXU4oW0NIMl1bQ0gyXTIpW0NIXTNbQ0gyXVtDSDJdTihbQ0gzXSlbQ0gyXVtDSDJdMw==

> <s_epik_cmdline>
J2VwaWtfcHl0aG9uJywgJy1waCcsICc3LjAnLCAnLXRuJywgJzgnLCAnLW1hJywgJzIwMCcsICctbWV0YWxfYmluZGluZycsICctaW1hZScsICc8aW5maWxlLm1hZT4nLCAnLW9tYWUnLCAnPG91dGZpbGUubWFlPic=

> <r_epik_Ionization_Penalty>
1.38854

> <r_epik_Ionization_Penalty_Charging>
0.00081195

> <r_epik_Ionization_Penalty_Neutral>
1.38772

> <r_epik_State_Penalty>
1.56122

> <r_epik_Charging_Adjusted_Penalty>
1.56203

> <i_epik_Tot_Q>
1

> <i_epik_Tot_abs_Q>
1

> <r_epik_Metal_State_Penalty>
1.5614

> <b_epik_Metal_Only>
0

> <s_lp_Force_Field>
OPLS_2005

> <r_lp_Energy>
35.3566

> <b_lp_Chiralities_Consistent>
1

> <s_lp_Variant>
AV-unprocessed.smi:2772-7

> <Gold.Version>
5.8.1

> <Gold.Id.Protein>
6NUR|6NUR_protein|mol2

> <Gold.PLP.Fitness>
52.2132

> <Gold.PLP.PLP>
-44.6350

> <Gold.PLP.part.hbond>
-4.0473

> <Gold.PLP.part.metal>
0.0000

> <Gold.PLP.part.buried>
-2.4768

> <Gold.PLP.part.nonpolar>
-38.3754

> <Gold.PLP.part.repulsive>
0.7654

> <Gold.PLP.ligand.clash>
0.0000

> <Gold.PLP.ligand.torsion>
0.3082

> <Gold.PLP.Chemscore.Hbond>
2.7210

> <Gold.PLP.Chemscore.CHOScore>
0.0000

> <Gold.PLP.Chemscore.Metal>
0.0000

> <Gold.Chemscore.Hbonds>
donor molecule, donor type, donor heavy atom, donor atom, acceptor molecule, acceptor atom, score
      L1  H     6    30       P1  7948  0.93
      L1  H     9    31       P1  7948  0.70
      P1  H 10752 10763       L1     8  0.91

> <Gold.PLP.Chemscore.Internal.Correction>
0.0316

> <Gold.Rescore>
     Score         DG    S(hbond)    S(metal)    S(lipo)     H(rot)  DE(clash)    DE(int)     intcor
     17.82     -21.15       1.59        0.00     114.65       1.19       0.38       2.95       ----

> <Gold.Chemscore.Fitness>
17.8190

> <Gold.Chemscore.DG>
-21.1461

> <Gold.Chemscore.ZeroCoef>
-5.4800

> <Gold.Chemscore.Hbond>
1.5871

> <Gold.Chemscore.Metal>
0.0000

> <Gold.Chemscore.Lipo>
114.6501

> <Gold.Chemscore.Internal_Hbond>
0.0000

> <Gold.Chemscore.DEClash>
0.3794

> <Gold.Chemscore.DEInternal>
2.9476

> <Gold.Chemscore.Rot>
1.1910

> <Gold.Chemscore.Internal.Correction>
   9.000000E+99

> <Gold.Chemscore.Hbonds>
donor molecule, donor type, donor heavy atom, donor atom, acceptor molecule, acceptor atom, score
      L1  H     6    30       P1  7948  0.27
      L1  H     9    31       P1  7948  0.54
      P1  H 10752 10763       L1     8  0.58

> <Gold.Chemscore.Hbond.Weighted>
-5.3009

> <Gold.Chemscore.Metal.Weighted>
-0.0000

> <Gold.Chemscore.Lipo.Weighted>
-13.4141

> <Gold.Chemscore.Internal_Hbond.Weighted>
0.0000

> <Gold.Chemscore.DEClash.Weighted>
0.3794

> <Gold.Chemscore.DEInternal.Weighted>
2.9476

> <Gold.Chemscore.Rot.Weighted>
3.0489

> <Gold.Chemscore.Internal.Correction.Weighted>
   9.000000E+99

> <Gold.Protein.RotatedTorsions>
[ 6907 6896 6895 6894 ] final -136.05 input  -60.11 | X-H torsion
[ 7974 7965 7964 7962 ] final  102.58 input  175.53 | X-H torsion
[ 8008 7997 7996 7995 ] final  -19.12 input   59.86 | X-H torsion
[ 10167 10162 10161 10158 ] final   42.93 input  -65.29 | X-H torsion
[ 10718 10713 10712 10709 ] final   19.23 input   66.30 | X-H torsion
[ 10763 10752 10751 10750 ] final   73.99 input  -60.55 | X-H torsion
[ 11005 11000 10999 10996 ] final  139.08 input  -57.11 | X-H torsion

> <Gold.Protein.ActiveResidues>
 VAL166  LYS551  ARG553  GLY616  TRP617  ASP618  TYR619  PRO620  LYS621  CYS622 
 ASP623  PHE694  ASN695  SER759  ASP760  ASP761  ALA762  ILE779  LEU786  VAL792 
 PHE793  MET794  SER795  GLU796  ALA797  LYS798  CYS799  TRP800  GLU811  SER814 

> <Gold.Protein.RotatedAtoms>
  151.0053  133.6016  159.2689 H   0  0  0  0  0  0  0  0  0  0  0  0  # atno 6907 bound_to 6896
  151.3188  135.0812  159.9308 H   0  0  0  0  0  0  0  0  0  0  0  0  # atno 6908 bound_to 6896
  152.5285  133.9704  159.7814 H   0  0  0  0  0  0  0  0  0  0  0  0  # atno 6909 bound_to 6896
  145.3572  139.2426  143.3526 H   0  0  0  0  0  0  0  0  0  0  0  0  # atno 7974 bound_to 7965
  154.4858  140.2097  155.9658 H   0  0  0  0  0  0  0  0  0  0  0  0  # atno 8008 bound_to 7997
  156.1234  140.3209  155.8211 H   0  0  0  0  0  0  0  0  0  0  0  0  # atno 8009 bound_to 7997
  155.4427  140.0511  157.2999 H   0  0  0  0  0  0  0  0  0  0  0  0  # atno 8010 bound_to 7997
  140.3495  144.2368  150.6147 H   0  0  0  0  0  0  0  0  0  0  0  0  # atno 10167 bound_to 10162
  157.1075  130.6494  149.5888 H   0  0  0  0  0  0  0  0  0  0  0  0  # atno 10718 bound_to 10713
  153.0557  135.5042  154.7976 H   0  0  0  0  0  0  0  0  0  0  0  0  # atno 10763 bound_to 10752
  154.6803  135.2967  154.9624 H   0  0  0  0  0  0  0  0  0  0  0  0  # atno 10764 bound_to 10752
  154.0412  135.6716  153.4843 H   0  0  0  0  0  0  0  0  0  0  0  0  # atno 10765 bound_to 10752
  140.0229  134.9388  157.0511 H   0  0  0  0  0  0  0  0  0  0  0  0  # atno 11005 bound_to 11000
  146.2943  140.4199  142.8728 LP  0  0  0  0  0  0  0  0  0  0  0  0  # atno 17320 bound_to 7965
  144.8673  140.7224  143.6069 LP  0  0  0  0  0  0  0  0  0  0  0  0  # atno 17321 bound_to 7965
  140.5232  143.2260  151.8355 LP  0  0  0  0  0  0  0  0  0  0  0  0  # atno 17342 bound_to 10162
  139.4828  144.4811  151.9305 LP  0  0  0  0  0  0  0  0  0  0  0  0  # atno 17343 bound_to 10162
  155.9858  130.4890  150.7050 LP  0  0  0  0  0  0  0  0  0  0  0  0  # atno 17370 bound_to 10713
  157.4588  131.0881  151.0768 LP  0  0  0  0  0  0  0  0  0  0  0  0  # atno 17371 bound_to 10713
  140.4356  134.1735  155.7170 LP  0  0  0  0  0  0  0  0  0  0  0  0  # atno 17394 bound_to 11000
  141.1785  133.8463  157.1339 LP  0  0  0  0  0  0  0  0  0  0  0  0  # atno 17395 bound_to 11000

$$$$
