#       Name:                AV-unprocessed.smi:3251
#       Creating user name   scv26
#       Creation time:       Fri Mar 27 18:32:52 2020


#       File generated by GOLD software.
#

@<TRIPOS>MOLECULE
AV-unprocessed.smi:3251
    44    45     1
SMALL
NO_CHARGES


@<TRIPOS>ATOM
      1 ****        -1.6509   3.7650  -3.4070 C.3            1 S1                 0.0000
      2 ****        -1.8840   3.2117  -2.0312 C.2            1 S1                 0.0000
      3 ****        -2.9566   2.3849  -1.5914 C.2            1 S1                 0.0000
      4 ****        -2.8661   2.0614  -0.3117 N.2            1 S1                 0.0000
      5 ****        -1.7354   2.6667   0.1092 N.pl3          1 S1                 0.0000
      6 ****        -1.3012   2.5050   1.4852 C.3            1 S1                 0.0000
      7 ****        -0.5141   1.2001   1.6832 C.3            1 S1                 0.0000
      8 ****         0.7876   1.3006   1.0296 N.3            1 S1                 0.0000
      9 ****         1.4830   0.0084   0.9066 C.3            1 S1                 0.0000
     10 ****         2.9444   0.2488   0.4979 C.3            1 S1                 0.0000
     11 ****         0.8051  -0.9373  -0.1111 C.2            1 S1                 0.0000
     12 ****         0.3508  -0.4605  -1.1531 O.2            1 S1                 0.0000
     13 ****         0.7215  -2.2577   0.1604 N.am           1 S1                 0.0000
     14 ****         1.2518  -2.9370   1.3422 C.3            1 S1                 0.0000
     15 ****         1.1265  -4.4333   1.0544 C.3            1 S1                 0.0000
     16 ****        -0.0157  -4.5247   0.0531 C.3            1 S1                 0.0000
     17 ****         0.0745  -3.2171  -0.7333 C.3            1 S1                 0.0000
     18 ****        -1.1229   3.3681  -0.9076 C.2            1 S1                 0.0000
     19 ****        -2.5739   3.8143  -3.9850 H              1 S1                 0.0000
     20 ****        -0.9497   3.1505  -3.9718 H              1 S1                 0.0000
     21 ****        -1.2398   4.7740  -3.3721 H              1 S1                 0.0000
     22 ****        -3.7933   2.0107  -2.1627 H              1 S1                 0.0000
     23 ****        -0.7038   3.3708   1.7741 H              1 S1                 0.0000
     24 ****        -2.1836   2.5071   2.1265 H              1 S1                 0.0000
     25 ****        -0.3565   1.0159   2.7463 H              1 S1                 0.0000
     26 ****        -1.1015   0.3643   1.3016 H              1 S1                 0.0000
     27 ****         1.3521   1.9895   1.5053 H              1 S1                 0.0000
     28 ****         1.4913  -0.4436   1.8980 H              1 S1                 0.0000
     29 ****         3.4943  -0.6897   0.4174 H              1 S1                 0.0000
     30 ****         3.4600   0.8648   1.2351 H              1 S1                 0.0000
     31 ****         3.0132   0.7579  -0.4646 H              1 S1                 0.0000
     32 ****         2.2881  -2.6647   1.5462 H              1 S1                 0.0000
     33 ****         0.6473  -2.6662   2.2092 H              1 S1                 0.0000
     34 ****         2.0457  -4.7950   0.5916 H              1 S1                 0.0000
     35 ****         0.9501  -5.0238   1.9538 H              1 S1                 0.0000
     36 ****         0.0483  -5.4072  -0.5841 H              1 S1                 0.0000
     37 ****        -0.9662  -4.5656   0.5868 H              1 S1                 0.0000
     38 ****        -0.9125  -2.8794  -1.0536 H              1 S1                 0.0000
     39 ****         0.6935  -3.3467  -1.6222 H              1 S1                 0.0000
     40 ****        -0.2006   3.9079  -0.7505 H              1 S1                 0.0000
     41 ****        -3.4939   1.4959   0.2232 LP             1 S1                 0.0000
     42 ****         0.6300   1.5983   0.0880 LP             1 S1                 0.0000
     43 ****         0.4245   0.5215  -1.3274 LP             1 S1                 0.0000
     44 ****        -0.0915  -1.0556  -1.8241 LP             1 S1                 0.0000
@<TRIPOS>BOND
    1    1    2 1     
    2    1   19 1     
    3    1   20 1     
    4    1   21 1     
    5    2   18 2     
    6    2    3 1     
    7    3    4 2     
    8    3   22 1     
    9    4    5 1     
   10    5    6 1     
   11    5   18 1     
   12    6    7 1     
   13    6   23 1     
   14    6   24 1     
   15    7    8 1     
   16    7   25 1     
   17    7   26 1     
   18    8    9 1     
   19    8   27 1     
   20    9   10 1     
   21    9   11 1     
   22    9   28 1     
   23   10   29 1     
   24   10   30 1     
   25   10   31 1     
   26   11   12 2     
   27   11   13 am    
   28   13   17 1     
   29   13   14 1     
   30   14   15 1     
   31   14   32 1     
   32   14   33 1     
   33   15   16 1     
   34   15   34 1     
   35   15   35 1     
   36   16   17 1     
   37   16   36 1     
   38   16   37 1     
   39   17   38 1     
   40   17   39 1     
   41   18   40 1     
   42    4   41 1     
   43    8   42 1     
   44   12   43 1     
   45   12   44 1     
@<TRIPOS>SUBSTRUCTURE
      1 S1             1
@<TRIPOS>SET
LONE_PAIRS      STATIC     ATOMS    <user>   **** ""
4 41 42 43 44
DONOR_HYDROGENS      STATIC     ATOMS    <user>   **** ""
1 27
ATOM$BLUE        STATIC     ATOMS    COLORGROUP SYSTEM
4 41 42 43 44
ATOM$RED        STATIC     ATOMS    COLORGROUP SYSTEM
1 27
