AV-unprocessed.smi:1740|AV-procd|sdf|7010|dock4
  -GOLD-   22720 8223D 1   1.00000     0.00000
 Structure written by MMmdl.
 53 55  0  0  0  0  0  0  0  0  3 V2000
  142.5743  132.8698  150.1669 N   0  0  0  0  0  0  0  0  0  0  0  0
  143.7699  132.3152  150.3792 C   0  0  0  0  0  0  0  0  0  0  0  0
  144.3462  131.6508  149.5194 O   0  0  0  0  0  0  0  0  0  0  0  0
  144.4105  132.5605  151.7496 C   0  0  0  0  0  0  0  0  0  0  0  0
  144.7544  133.9865  151.9873 N   0  3  2  0  0  0  0  0  0  0  0  0
  143.5795  134.8154  152.3695 C   0  0  0  0  0  0  0  0  0  0  0  0
  144.0053  136.2467  152.7364 C   0  0  0  0  0  0  0  0  0  0  0  0
  144.7774  136.9078  151.5797 C   0  0  1  0  0  0  0  0  0  0  0  0
  145.2587  138.2336  151.9583 N   0  0  0  0  0  0  0  0  0  0  0  0
  146.2651  138.4720  152.8116 C   0  0  0  0  0  0  0  0  0  0  0  0
  146.9199  137.5838  153.3568 O   0  0  0  0  0  0  0  0  0  0  0  0
  146.4703  139.7903  152.9728 N   0  0  0  0  0  0  0  0  0  0  0  0
  147.4585  140.4260  153.7772 C   0  0  0  0  0  0  0  0  0  0  0  0
  148.4543  139.6679  154.4458 C   0  0  0  0  0  0  0  0  0  0  0  0
  149.3764  140.3095  155.2934 C   0  0  0  0  0  0  0  0  0  0  0  0
  149.2802  141.6995  155.4744 C   0  0  0  0  0  0  0  0  0  0  0  0
  148.3146  142.3914  154.8353 N   0  3  0  0  0  0  0  0  0  0  0  0
  147.4067  141.8340  153.9951 C   0  0  0  0  0  0  0  0  0  0  0  0
  146.4588  142.6897  153.3881 N   0  0  0  0  0  0  0  0  0  0  0  0
  145.5862  143.5248  154.2061 C   0  0  0  0  0  0  0  0  0  0  0  0
  144.9939  144.5473  153.2398 C   0  0  0  0  0  0  0  0  0  0  0  0
  146.1454  144.7835  152.2676 C   0  0  0  0  0  0  0  0  0  0  0  0
  146.8279  143.4149  152.1763 C   0  0  0  0  0  0  0  0  0  0  0  0
  145.9626  136.0151  151.1791 C   0  0  0  0  0  0  0  0  0  0  0  0
  145.4971  134.5865  150.8494 C   0  0  0  0  0  0  0  0  0  0  0  0
  142.1140  132.7413  149.2768 H   0  0  0  0  0  0  0  0  0  0  0  0
  142.1329  133.4203  150.8896 H   0  0  0  0  0  0  0  0  0  0  0  0
  143.6854  132.2293  152.4944 H   0  0  0  0  0  0  0  0  0  0  0  0
  145.2963  131.9354  151.8751 H   0  0  0  0  0  0  0  0  0  0  0  0
  142.8655  134.8384  151.5447 H   0  0  0  0  0  0  0  0  0  0  0  0
  143.0628  134.3683  153.2191 H   0  0  0  0  0  0  0  0  0  0  0  0
  143.1224  136.8357  152.9876 H   0  0  0  0  0  0  0  0  0  0  0  0
  144.6260  136.2223  153.6335 H   0  0  0  0  0  0  0  0  0  0  0  0
  144.1147  137.0030  150.7168 H   0  0  0  0  0  0  0  0  0  0  0  0
  144.7789  139.0247  151.5538 H   0  0  0  0  0  0  0  0  0  0  0  0
  145.9241  140.4038  152.3860 H   0  0  0  0  0  0  0  0  0  0  0  0
  148.5115  138.5950  154.3397 H   0  0  0  0  0  0  0  0  0  0  0  0
  150.1377  139.7404  155.8070 H   0  0  0  0  0  0  0  0  0  0  0  0
  149.9373  142.2752  156.1100 H   0  0  0  0  0  0  0  0  0  0  0  0
  144.8113  142.9335  154.6945 H   0  0  0  0  0  0  0  0  0  0  0  0
  146.1623  144.0415  154.9747 H   0  0  0  0  0  0  0  0  0  0  0  0
  144.1434  144.1144  152.7114 H   0  0  0  0  0  0  0  0  0  0  0  0
  144.6584  145.4579  153.7366 H   0  0  0  0  0  0  0  0  0  0  0  0
  145.8158  145.1586  151.2984 H   0  0  0  0  0  0  0  0  0  0  0  0
  146.8381  145.5113  152.6920 H   0  0  0  0  0  0  0  0  0  0  0  0
  147.9085  143.5174  152.0683 H   0  0  0  0  0  0  0  0  0  0  0  0
  146.4494  142.8676  151.3129 H   0  0  0  0  0  0  0  0  0  0  0  0
  146.4778  136.4412  150.3173 H   0  0  0  0  0  0  0  0  0  0  0  0
  146.6925  135.9794  151.9895 H   0  0  0  0  0  0  0  0  0  0  0  0
  146.3681  133.9739  150.6134 H   0  0  0  0  0  0  0  0  0  0  0  0
  144.8623  134.5916  149.9618 H   0  0  0  0  0  0  0  0  0  0  0  0
  145.3874  133.9916  152.7748 H   0  0  0  0  0  0  0  0  0  0  0  0
  148.2699  143.3987  154.9886 H   0  0  0  0  0  0  0  0  0  0  0  0
  1  2  1  0  0  0  0
  1 26  1  0  0  0  0
  1 27  1  0  0  0  0
  2  3  2  0  0  0  0
  2  4  1  0  0  0  0
  4  5  1  0  0  0  0
  4 28  1  0  0  0  0
  4 29  1  0  0  0  0
  5 25  1  0  0  0  0
  5  6  1  0  0  0  0
  5 52  1  0  0  0  0
  6  7  1  0  0  0  0
  6 30  1  0  0  0  0
  6 31  1  0  0  0  0
  7  8  1  0  0  0  0
  7 32  1  0  0  0  0
  7 33  1  0  0  0  0
  8  9  1  0  0  0  0
  8 24  1  0  0  0  0
  8 34  1  0  0  0  0
  9 10  1  0  0  0  0
  9 35  1  0  0  0  0
 10 11  2  0  0  0  0
 10 12  1  0  0  0  0
 12 13  1  0  0  0  0
 12 36  1  0  0  0  0
 13 18  1  0  0  0  0
 13 14  2  0  0  0  0
 14 15  1  0  0  0  0
 14 37  1  0  0  0  0
 15 16  2  0  0  0  0
 15 38  1  0  0  0  0
 16 17  1  0  0  0  0
 16 39  1  0  0  0  0
 17 18  2  0  0  0  0
 17 53  1  0  0  0  0
 18 19  1  0  0  0  0
 19 23  1  0  0  0  0
 19 20  1  0  0  0  0
 20 21  1  0  0  0  0
 20 40  1  0  0  0  0
 20 41  1  0  0  0  0
 21 22  1  0  0  0  0
 21 42  1  0  0  0  0
 21 43  1  0  0  0  0
 22 23  1  0  0  0  0
 22 44  1  0  0  0  0
 22 45  1  0  0  0  0
 23 46  1  0  0  0  0
 23 47  1  0  0  0  0
 24 25  1  0  0  0  0
 24 48  1  0  0  0  0
 24 49  1  0  0  0  0
 25 50  1  0  0  0  0
 25 51  1  0  0  0  0
M  CHG  1   5   1
M  CHG  1  17   1
M  END
> <s_m_source_file>
AV-unprocessed.smi

> <i_m_source_file_index>
1740

> <i_lp_mmshare_version>
43012

> <i_f3d_flags>
0

> <s_epik_input>
W05IMl1DKD1PKVtDSDJdTjFbQ0gyXVtDSDJdW0NIXShbQ0gyXVtDSDJdMSlbTkhdQyg9TylbTkhdYzJbY0hdW2NIXVtjSF1uYzJOM1tDSDJdW0NIMl1bQ0gyXVtDSDJdMw==

> <s_epik_cmdline>
J2VwaWtfcHl0aG9uJywgJy1waCcsICc3LjAnLCAnLXRuJywgJzgnLCAnLW1hJywgJzIwMCcsICctbWV0YWxfYmluZGluZycsICctaW1hZScsICc8aW5maWxlLm1hZT4nLCAnLW9tYWUnLCAnPG91dGZpbGUubWFlPic=

> <r_lp_tautomer_probability>
0.999994

> <r_epik_Ionization_Penalty>
2.11361

> <r_epik_Ionization_Penalty_Charging>
2.11355

> <r_epik_Ionization_Penalty_Neutral>
5.98217e-05

> <r_epik_State_Penalty>
2.13444

> <r_epik_Charging_Adjusted_Penalty>
4.24799

> <i_epik_Tot_Q>
2

> <i_epik_Tot_abs_Q>
2

> <r_epik_Metal_State_Penalty>
2.23528

> <b_epik_Metal_Only>
0

> <s_lp_Force_Field>
OPLS_2005

> <r_lp_Energy>
49.3709

> <b_lp_Chiralities_Consistent>
1

> <s_lp_Variant>
AV-unprocessed.smi:1740-5

> <Gold.Version>
5.8.1

> <Gold.Id.Protein>
6NUR|6NUR_protein|mol2

> <Gold.PLP.Fitness>
56.1388

> <Gold.PLP.PLP>
-42.0135

> <Gold.PLP.part.hbond>
-6.7879

> <Gold.PLP.part.metal>
0.0000

> <Gold.PLP.part.buried>
-5.7273

> <Gold.PLP.part.nonpolar>
-32.4755

> <Gold.PLP.part.repulsive>
3.2586

> <Gold.PLP.ligand.clash>
0.0000

> <Gold.PLP.ligand.torsion>
0.6298

> <Gold.PLP.Chemscore.Hbond>
4.9840

> <Gold.PLP.Chemscore.CHOScore>
0.0000

> <Gold.PLP.Chemscore.Metal>
0.0000

> <Gold.Chemscore.Hbonds>
donor molecule, donor type, donor heavy atom, donor atom, acceptor molecule, acceptor atom, score
      L1  H     9    35       P1 10175  0.61
      L1  H    12    36       P1 10175  0.23
      L1  H    17    53       P1  8028  2.00
      P1  H 10785 10796       L1     3  0.51

> <Gold.PLP.Chemscore.Internal.Correction>
0.4328

> <Gold.Rescore>
     Score         DG    S(hbond)    S(metal)    S(lipo)     H(rot)  DE(clash)    DE(int)     intcor
     15.57     -21.03       3.62        0.00      78.20       2.22       1.44       4.02       ----

> <Gold.Chemscore.Fitness>
15.5683

> <Gold.Chemscore.DG>
-21.0335

> <Gold.Chemscore.ZeroCoef>
-5.4800

> <Gold.Chemscore.Hbond>
3.6194

> <Gold.Chemscore.Metal>
0.0000

> <Gold.Chemscore.Lipo>
78.2007

> <Gold.Chemscore.Internal_Hbond>
0.0000

> <Gold.Chemscore.DEClash>
1.4429

> <Gold.Chemscore.DEInternal>
4.0223

> <Gold.Chemscore.Rot>
2.2207

> <Gold.Chemscore.Internal.Correction>
   9.000000E+99

> <Gold.Chemscore.Hbonds>
donor molecule, donor type, donor heavy atom, donor atom, acceptor molecule, acceptor atom, score
      L1  H     1    26       P1 10186  0.01
      L1  H     1    27       P1 10186  0.01
      L1  H     9    35       P1 10175  0.55
      L1  H    12    36       P1 10175  0.11
      L1  H    17    53       P1  8028  0.90
      P1  H 10785 10796       L1     3  0.44

> <Gold.Chemscore.Hbond.Weighted>
-12.0889

> <Gold.Chemscore.Metal.Weighted>
-0.0000

> <Gold.Chemscore.Lipo.Weighted>
-9.1495

> <Gold.Chemscore.Internal_Hbond.Weighted>
0.0000

> <Gold.Chemscore.DEClash.Weighted>
1.4429

> <Gold.Chemscore.DEInternal.Weighted>
4.0223

> <Gold.Chemscore.Rot.Weighted>
5.6849

> <Gold.Chemscore.Internal.Correction.Weighted>
   9.000000E+99

> <Gold.Protein.RotatedTorsions>
[ 6907 6896 6895 6894 ] final   22.63 input  -60.11 | X-H torsion
[ 7974 7965 7964 7962 ] final  109.70 input  175.53 | X-H torsion
[ 8008 7997 7996 7995 ] final  176.38 input   59.86 | X-H torsion
[ 10167 10162 10161 10158 ] final  128.75 input  -65.29 | X-H torsion
[ 10718 10713 10712 10709 ] final  -29.06 input   66.30 | X-H torsion
[ 10763 10752 10751 10750 ] final    5.75 input  -60.55 | X-H torsion
[ 11005 11000 10999 10996 ] final  -94.49 input  -57.11 | X-H torsion

> <Gold.Protein.ActiveResidues>
 VAL166  LYS551  ARG553  GLY616  TRP617  ASP618  TYR619  PRO620  LYS621  CYS622 
 ASP623  PHE694  ASN695  SER759  ASP760  ASP761  ALA762  ILE779  LEU786  VAL792 
 PHE793  MET794  SER795  GLU796  ALA797  LYS798  CYS799  TRP800  GLU811  SER814 

> <Gold.Protein.RotatedAtoms>
  151.9300  135.0261  160.0528 H   0  0  0  0  0  0  0  0  0  0  0  0  # atno 6907 bound_to 6896
  152.2127  133.4918  159.5127 H   0  0  0  0  0  0  0  0  0  0  0  0  # atno 6908 bound_to 6896
  150.6980  134.1363  159.4131 H   0  0  0  0  0  0  0  0  0  0  0  0  # atno 6909 bound_to 6896
  145.2645  139.2690  143.3999 H   0  0  0  0  0  0  0  0  0  0  0  0  # atno 7974 bound_to 7965
  156.0770  140.1385  156.9759 H   0  0  0  0  0  0  0  0  0  0  0  0  # atno 8008 bound_to 7997
  154.4563  140.0960  156.6818 H   0  0  0  0  0  0  0  0  0  0  0  0  # atno 8009 bound_to 7997
  155.5136  140.3454  155.4395 H   0  0  0  0  0  0  0  0  0  0  0  0  # atno 8010 bound_to 7997
  139.5512  144.6814  151.4319 H   0  0  0  0  0  0  0  0  0  0  0  0  # atno 10167 bound_to 10162
  156.4173  130.4419  149.7209 H   0  0  0  0  0  0  0  0  0  0  0  0  # atno 10718 bound_to 10713
  153.2557  135.6918  153.7632 H   0  0  0  0  0  0  0  0  0  0  0  0  # atno 10763 bound_to 10752
  153.6710  135.3344  155.3154 H   0  0  0  0  0  0  0  0  0  0  0  0  # atno 10764 bound_to 10752
  154.8411  135.4500  154.1529 H   0  0  0  0  0  0  0  0  0  0  0  0  # atno 10765 bound_to 10752
  141.1469  133.7959  157.0304 H   0  0  0  0  0  0  0  0  0  0  0  0  # atno 11005 bound_to 11000
  146.3265  140.3071  142.8624 LP  0  0  0  0  0  0  0  0  0  0  0  0  # atno 17320 bound_to 7965
  144.9389  140.8057  143.5643 LP  0  0  0  0  0  0  0  0  0  0  0  0  # atno 17321 bound_to 7965
  140.6774  143.8158  150.7077 LP  0  0  0  0  0  0  0  0  0  0  0  0  # atno 17342 bound_to 10162
  140.1601  143.4283  152.2073 LP  0  0  0  0  0  0  0  0  0  0  0  0  # atno 17343 bound_to 10162
  156.4164  130.7747  151.2762 LP  0  0  0  0  0  0  0  0  0  0  0  0  # atno 17370 bound_to 10713
  157.7508  131.0196  150.3674 LP  0  0  0  0  0  0  0  0  0  0  0  0  # atno 17371 bound_to 10713
  140.0757  134.9677  157.1542 LP  0  0  0  0  0  0  0  0  0  0  0  0  # atno 17394 bound_to 11000
  140.3647  134.2456  155.7183 LP  0  0  0  0  0  0  0  0  0  0  0  0  # atno 17395 bound_to 11000

$$$$
