AV-unprocessed.smi:1627|AV-procd|sdf|6517|dock10
  -GOLD-   22720 7193D 1   1.00000     0.00000
 Structure written by MMmdl.
 43 44  0  0  0  0  0  0  0  0  1 V2000
  156.9127  141.7299  166.7230 C   0  0  0  0  0  0  0  0  0  0  0  0
  155.9038  142.8758  166.8893 C   0  0  1  0  0  0  0  0  0  0  0  0
  156.5747  143.9432  167.5549 O   0  0  0  0  0  0  0  0  0  0  0  0
  157.1644  143.6121  168.8083 C   0  0  0  0  0  0  0  0  0  0  0  0
  158.4593  144.4138  168.9866 C   0  0  0  0  0  0  0  0  0  0  0  0
  159.1929  144.3154  167.8785 F   0  0  0  0  0  0  0  0  0  0  0  0
  158.1802  145.6991  169.2013 F   0  0  0  0  0  0  0  0  0  0  0  0
  159.1630  143.9309  170.0101 F   0  0  0  0  0  0  0  0  0  0  0  0
  155.3640  143.3460  165.5284 C   0  0  0  0  0  0  0  0  0  0  0  0
  155.4652  144.5307  165.2105 O   0  0  0  0  0  0  0  0  0  0  0  0
  154.7679  142.4005  164.7785 N   0  0  0  0  0  0  0  0  0  0  0  0
  154.1792  142.5266  163.4912 C   0  0  0  0  0  0  0  0  0  0  0  0
  154.1350  141.4936  162.5272 C   0  0  0  0  0  0  0  0  0  0  0  0
  153.5049  141.7377  161.2918 C   0  0  0  0  0  0  0  0  0  0  0  0
  152.9246  143.0078  161.0458 C   0  0  0  0  0  0  0  0  0  0  0  0
  152.2705  143.3148  159.8306 N   0  0  0  0  0  0  0  0  0  0  0  0
  152.3104  144.7189  159.4092 C   0  0  0  0  0  0  0  0  0  0  0  0
  151.2227  145.0228  158.3650 C   0  0  0  0  0  0  0  0  0  0  0  0
  151.3015  144.0457  157.1839 C   0  0  0  0  0  0  0  0  0  0  0  0
  151.2228  142.6014  157.6970 C   0  0  0  0  0  0  0  0  0  0  0  0
  152.3084  142.3258  158.7514 C   0  0  0  0  0  0  0  0  0  0  0  0
  152.9596  143.9883  161.9802 N   0  0  0  0  0  0  0  0  0  0  0  0
  153.5634  143.7498  163.1626 C   0  0  0  0  0  0  0  0  0  0  0  0
  156.4661  140.8797  166.2061 H   0  0  0  0  0  0  0  0  0  0  0  0
  157.2605  141.3780  167.6944 H   0  0  0  0  0  0  0  0  0  0  0  0
  157.7894  142.0453  166.1556 H   0  0  0  0  0  0  0  0  0  0  0  0
  155.0818  142.5195  167.5135 H   0  0  0  0  0  0  0  0  0  0  0  0
  156.4840  143.8338  169.6314 H   0  0  0  0  0  0  0  0  0  0  0  0
  157.3844  142.5442  168.8453 H   0  0  0  0  0  0  0  0  0  0  0  0
  154.6800  141.4899  165.2059 H   0  0  0  0  0  0  0  0  0  0  0  0
  154.5579  140.5183  162.7110 H   0  0  0  0  0  0  0  0  0  0  0  0
  153.4862  140.9461  160.5583 H   0  0  0  0  0  0  0  0  0  0  0  0
  152.1806  145.3989  160.2509 H   0  0  0  0  0  0  0  0  0  0  0  0
  153.2957  144.9263  158.9900 H   0  0  0  0  0  0  0  0  0  0  0  0
  150.2396  144.9525  158.8327 H   0  0  0  0  0  0  0  0  0  0  0  0
  151.3241  146.0484  158.0096 H   0  0  0  0  0  0  0  0  0  0  0  0
  150.4937  144.2402  156.4779 H   0  0  0  0  0  0  0  0  0  0  0  0
  152.2360  144.1951  156.6416 H   0  0  0  0  0  0  0  0  0  0  0  0
  150.2388  142.4232  158.1328 H   0  0  0  0  0  0  0  0  0  0  0  0
  151.3247  141.9026  156.8665 H   0  0  0  0  0  0  0  0  0  0  0  0
  153.2951  142.3430  158.2862 H   0  0  0  0  0  0  0  0  0  0  0  0
  152.1531  141.3236  159.1521 H   0  0  0  0  0  0  0  0  0  0  0  0
  153.5578  144.5681  163.8679 H   0  0  0  0  0  0  0  0  0  0  0  0
  1  2  1  0  0  0  0
  1 24  1  0  0  0  0
  1 25  1  0  0  0  0
  1 26  1  0  0  0  0
  2  3  1  0  0  0  0
  2  9  1  0  0  0  0
  2 27  1  0  0  0  0
  3  4  1  0  0  0  0
  4  5  1  0  0  0  0
  4 28  1  0  0  0  0
  4 29  1  0  0  0  0
  5  6  1  0  0  0  0
  5  7  1  0  0  0  0
  5  8  1  0  0  0  0
  9 10  2  0  0  0  0
  9 11  1  0  0  0  0
 11 12  1  0  0  0  0
 11 30  1  0  0  0  0
 12 23  1  0  0  0  0
 12 13  2  0  0  0  0
 13 14  1  0  0  0  0
 13 31  1  0  0  0  0
 14 15  2  0  0  0  0
 14 32  1  0  0  0  0
 15 16  1  0  0  0  0
 15 22  1  0  0  0  0
 16 21  1  0  0  0  0
 16 17  1  0  0  0  0
 17 18  1  0  0  0  0
 17 33  1  0  0  0  0
 17 34  1  0  0  0  0
 18 19  1  0  0  0  0
 18 35  1  0  0  0  0
 18 36  1  0  0  0  0
 19 20  1  0  0  0  0
 19 37  1  0  0  0  0
 19 38  1  0  0  0  0
 20 21  1  0  0  0  0
 20 39  1  0  0  0  0
 20 40  1  0  0  0  0
 21 41  1  0  0  0  0
 21 42  1  0  0  0  0
 22 23  2  0  0  0  0
 23 43  1  0  0  0  0
M  END
> <s_m_source_file>
AV-unprocessed.smi

> <i_m_source_file_index>
1627

> <i_lp_mmshare_version>
43012

> <i_f3d_flags>
0

> <s_epik_input>
RkMoRikoRilbQ0gyXU9bQ0BASF0oW0NIM10pQyg9TylbTkhdYzFbY0hdW2NIXWMobltjSF0xKU4yW0NIMl1bQ0gyXVtDSDJdW0NIMl1bQ0gyXTI=

> <s_epik_cmdline>
J2VwaWtfcHl0aG9uJywgJy1waCcsICc3LjAnLCAnLXRuJywgJzgnLCAnLW1hJywgJzIwMCcsICctbWV0YWxfYmluZGluZycsICctaW1hZScsICc8aW5maWxlLm1hZT4nLCAnLW9tYWUnLCAnPG91dGZpbGUubWFlPic=

> <r_lp_tautomer_probability>
1

> <r_epik_Ionization_Penalty>
0.0254771

> <r_epik_Ionization_Penalty_Charging>
0

> <r_epik_Ionization_Penalty_Neutral>
0.0254771

> <r_epik_State_Penalty>
0.0187406

> <r_epik_Charging_Adjusted_Penalty>
0.0187406

> <i_epik_Tot_Q>
0

> <i_epik_Tot_abs_Q>
0

> <r_epik_Metal_State_Penalty>
0.017939

> <b_epik_Metal_Only>
0

> <s_lp_Force_Field>
OPLS_2005

> <r_lp_Energy>
25.1621

> <b_lp_Chiralities_Consistent>
1

> <s_lp_Variant>
AV-unprocessed.smi:1627-2

> <Gold.Version>
5.8.1

> <Gold.Id.Protein>
6NUR|6NUR_protein|mol2

> <Gold.PLP.Fitness>
46.7907

> <Gold.PLP.PLP>
-48.0221

> <Gold.PLP.part.hbond>
-0.4858

> <Gold.PLP.part.metal>
0.0000

> <Gold.PLP.part.buried>
-1.6094

> <Gold.PLP.part.nonpolar>
-45.4178

> <Gold.PLP.part.repulsive>
0.3313

> <Gold.PLP.ligand.clash>
0.0000

> <Gold.PLP.ligand.torsion>
0.7700

> <Gold.PLP.Chemscore.Hbond>
0.0000

> <Gold.PLP.Chemscore.CHOScore>
0.0000

> <Gold.PLP.Chemscore.Metal>
0.0000

> <Gold.PLP.Chemscore.Internal.Correction>
0.3087

> <Gold.Rescore>
     Score         DG    S(hbond)    S(metal)    S(lipo)     H(rot)  DE(clash)    DE(int)     intcor
     11.00     -14.66       0.00        0.00     114.00       1.63       1.79       1.87       ----

> <Gold.Chemscore.Fitness>
10.9953

> <Gold.Chemscore.DG>
-14.6552

> <Gold.Chemscore.ZeroCoef>
-5.4800

> <Gold.Chemscore.Hbond>
0.0000

> <Gold.Chemscore.Metal>
0.0000

> <Gold.Chemscore.Lipo>
113.9973

> <Gold.Chemscore.Internal_Hbond>
0.0000

> <Gold.Chemscore.DEClash>
1.7857

> <Gold.Chemscore.DEInternal>
1.8742

> <Gold.Chemscore.Rot>
1.6260

> <Gold.Chemscore.Internal.Correction>
   9.000000E+99

> <Gold.Chemscore.Hbond.Weighted>
-0.0000

> <Gold.Chemscore.Metal.Weighted>
-0.0000

> <Gold.Chemscore.Lipo.Weighted>
-13.3377

> <Gold.Chemscore.Internal_Hbond.Weighted>
0.0000

> <Gold.Chemscore.DEClash.Weighted>
1.7857

> <Gold.Chemscore.DEInternal.Weighted>
1.8742

> <Gold.Chemscore.Rot.Weighted>
4.1625

> <Gold.Chemscore.Internal.Correction.Weighted>
   9.000000E+99

> <Gold.Protein.RotatedTorsions>
[ 6907 6896 6895 6894 ] final   -1.19 input  -60.11 | X-H torsion
[ 7974 7965 7964 7962 ] final  -50.08 input  175.53 | X-H torsion
[ 8008 7997 7996 7995 ] final  -26.04 input   59.86 | X-H torsion
[ 10167 10162 10161 10158 ] final   14.22 input  -65.29 | X-H torsion
[ 10718 10713 10712 10709 ] final -160.38 input   66.30 | X-H torsion
[ 10763 10752 10751 10750 ] final   74.65 input  -60.55 | X-H torsion
[ 11005 11000 10999 10996 ] final  -57.73 input  -57.11 | X-H torsion

> <Gold.Protein.ActiveResidues>
 VAL166  LYS551  ARG553  GLY616  TRP617  ASP618  TYR619  PRO620  LYS621  CYS622 
 ASP623  PHE694  ASN695  SER759  ASP760  ASP761  ALA762  ILE779  LEU786  VAL792 
 PHE793  MET794  SER795  GLU796  ALA797  LYS798  CYS799  TRP800  GLU811  SER814 

> <Gold.Protein.RotatedAtoms>
  151.5500  135.1067  159.9947 H   0  0  0  0  0  0  0  0  0  0  0  0  # atno 6907 bound_to 6896
  152.4496  133.7598  159.6751 H   0  0  0  0  0  0  0  0  0  0  0  0  # atno 6908 bound_to 6896
  150.8420  133.7854  159.3081 H   0  0  0  0  0  0  0  0  0  0  0  0  # atno 6909 bound_to 6896
  145.9337  140.7726  142.9587 H   0  0  0  0  0  0  0  0  0  0  0  0  # atno 7974 bound_to 7965
  154.4445  140.1910  156.0714 H   0  0  0  0  0  0  0  0  0  0  0  0  # atno 8008 bound_to 7997
  156.0508  140.3308  155.7322 H   0  0  0  0  0  0  0  0  0  0  0  0  # atno 8009 bound_to 7997
  155.5559  140.0599  157.2830 H   0  0  0  0  0  0  0  0  0  0  0  0  # atno 8010 bound_to 7997
  140.5950  143.8719  150.6910 H   0  0  0  0  0  0  0  0  0  0  0  0  # atno 10167 bound_to 10162
  156.5813  130.8730  151.2865 H   0  0  0  0  0  0  0  0  0  0  0  0  # atno 10718 bound_to 10713
  153.0601  135.5018  154.8074 H   0  0  0  0  0  0  0  0  0  0  0  0  # atno 10763 bound_to 10752
  154.6869  135.2978  154.9537 H   0  0  0  0  0  0  0  0  0  0  0  0  # atno 10764 bound_to 10752
  154.0304  135.6730  153.4833 H   0  0  0  0  0  0  0  0  0  0  0  0  # atno 10765 bound_to 10752
  141.1177  133.6611  156.4814 H   0  0  0  0  0  0  0  0  0  0  0  0  # atno 11005 bound_to 11000
  144.6768  140.2168  143.7371 LP  0  0  0  0  0  0  0  0  0  0  0  0  # atno 17320 bound_to 7965
  145.8392  139.2122  143.1837 LP  0  0  0  0  0  0  0  0  0  0  0  0  # atno 17321 bound_to 7965
  140.2251  143.3779  152.1611 LP  0  0  0  0  0  0  0  0  0  0  0  0  # atno 17342 bound_to 10162
  139.5252  144.7093  151.5255 LP  0  0  0  0  0  0  0  0  0  0  0  0  # atno 17343 bound_to 10162
  157.7326  130.9717  150.1935 LP  0  0  0  0  0  0  0  0  0  0  0  0  # atno 17370 bound_to 10713
  156.2629  130.3713  149.8111 LP  0  0  0  0  0  0  0  0  0  0  0  0  # atno 17371 bound_to 10713
  140.4597  134.6852  157.5079 LP  0  0  0  0  0  0  0  0  0  0  0  0  # atno 17394 bound_to 11000
  140.0111  134.6689  155.9379 LP  0  0  0  0  0  0  0  0  0  0  0  0  # atno 17395 bound_to 11000

$$$$
