AV-unprocessed.smi:287|AV-procd|sdf|2199|dock1
  -GOLD-   2262022 13D 1   1.00000     0.00000
 Structure written by MMmdl.
 55 58  0  0  0  0  0  0  0  0  1 V2000
  152.9258  142.9914  160.5712 C   0  0  0  0  0  0  0  0  0  0  0  0
  152.5362  142.0499  159.4837 C   0  0  0  0  0  0  0  0  0  0  0  0
  151.6265  142.1049  158.4686 C   0  0  0  0  0  0  0  0  0  0  0  0
  151.7107  140.8733  157.7530 C   0  0  0  0  0  0  0  0  0  0  0  0
  150.8717  140.4865  156.5421 C   0  0  1  0  0  0  0  0  0  0  0  0
  149.8346  141.5844  156.2539 C   0  0  0  0  0  0  0  0  0  0  0  0
  151.6357  140.3722  155.3571 O   0  0  0  0  0  0  0  0  0  0  0  0
  150.1668  139.1231  156.7291 C   0  0  0  0  0  0  0  0  0  0  0  0
  149.5171  138.6535  155.5100 N   0  0  0  0  0  0  0  0  0  0  0  0
  149.1934  137.3518  155.3675 C   0  0  0  0  0  0  0  0  0  0  0  0
  150.0520  136.3695  155.7463 N   0  0  0  0  0  0  0  0  0  0  0  0
  149.7073  135.0878  155.5894 C   0  0  0  0  0  0  0  0  0  0  0  0
  148.5792  134.5828  155.0856 N   0  0  0  0  0  0  0  0  0  0  0  0
  147.7119  135.5663  154.7071 C   0  0  0  0  0  0  0  0  0  0  0  0
  147.9454  136.9654  154.8154 C   0  0  0  0  0  0  0  0  0  0  0  0
  146.8488  137.6663  154.3313 N   0  0  0  0  0  0  0  0  0  0  0  0
  146.0162  136.7313  153.9607 C   0  0  0  0  0  0  0  0  0  0  0  0
  146.4543  135.4394  154.1515 N   0  0  0  0  0  0  0  0  0  0  0  0
  145.7231  134.1772  153.8310 C   0  0  1  0  0  0  0  0  0  0  0  0
  145.5609  134.1038  152.4508 O   0  0  0  0  0  0  0  0  0  0  0  0
  145.6544  132.7462  152.0455 C   0  0  1  0  0  0  0  0  0  0  0  0
  145.9470  132.6408  150.5387 C   0  0  0  0  0  0  0  0  0  0  0  0
  144.9150  133.2602  149.8014 O   0  0  0  0  0  0  0  0  0  0  0  0
  146.7325  132.1720  152.9781 C   0  0  1  0  0  0  0  0  0  0  0  0
  148.0355  132.3928  152.4711 O   0  0  0  0  0  0  0  0  0  0  0  0
  146.5261  132.9436  154.2798 C   0  0  2  0  0  0  0  0  0  0  0  0
  145.7773  132.1533  155.1823 O   0  0  0  0  0  0  0  0  0  0  0  0
  152.6949  140.1612  158.3959 C   0  0  0  0  0  0  0  0  0  0  0  0
  153.3083  138.8157  158.1870 C   0  0  0  0  0  0  0  0  0  0  0  0
  153.1980  140.8664  159.4475 O   0  0  0  0  0  0  0  0  0  0  0  0
  144.7555  134.2778  154.3254 H   0  0  0  0  0  0  0  0  0  0  0  0
  144.7089  132.2527  152.2799 H   0  0  0  0  0  0  0  0  0  0  0  0
  146.6135  131.0950  153.1056 H   0  0  0  0  0  0  0  0  0  0  0  0
  147.4680  133.2309  154.7511 H   0  0  0  0  0  0  0  0  0  0  0  0
  152.2468  143.8433  160.6097 H   0  0  0  0  0  0  0  0  0  0  0  0
  153.9350  143.3703  160.4106 H   0  0  0  0  0  0  0  0  0  0  0  0
  152.8992  142.4947  161.5413 H   0  0  0  0  0  0  0  0  0  0  0  0
  150.9654  142.9342  158.2649 H   0  0  0  0  0  0  0  0  0  0  0  0
  149.1624  141.7260  157.1009 H   0  0  0  0  0  0  0  0  0  0  0  0
  149.2198  141.3369  155.3875 H   0  0  0  0  0  0  0  0  0  0  0  0
  150.3168  142.5424  156.0546 H   0  0  0  0  0  0  0  0  0  0  0  0
  152.5465  140.2898  155.5948 H   0  0  0  0  0  0  0  0  0  0  0  0
  150.9174  138.3795  157.0014 H   0  0  0  0  0  0  0  0  0  0  0  0
  149.4515  139.1603  157.5522 H   0  0  0  0  0  0  0  0  0  0  0  0
  149.4096  139.3378  154.7746 H   0  0  0  0  0  0  0  0  0  0  0  0
  150.4394  134.3631  155.9131 H   0  0  0  0  0  0  0  0  0  0  0  0
  145.0494  136.9606  153.5370 H   0  0  0  0  0  0  0  0  0  0  0  0
  146.9106  133.0866  150.2892 H   0  0  0  0  0  0  0  0  0  0  0  0
  145.9812  131.5949  150.2334 H   0  0  0  0  0  0  0  0  0  0  0  0
  145.2639  133.5345  148.9670 H   0  0  0  0  0  0  0  0  0  0  0  0
  148.1349  131.9039  151.6691 H   0  0  0  0  0  0  0  0  0  0  0  0
  144.8752  132.1499  154.9015 H   0  0  0  0  0  0  0  0  0  0  0  0
  153.7156  138.7292  157.1797 H   0  0  0  0  0  0  0  0  0  0  0  0
  152.5669  138.0284  158.3232 H   0  0  0  0  0  0  0  0  0  0  0  0
  154.1197  138.6370  158.8927 H   0  0  0  0  0  0  0  0  0  0  0  0
  1  2  1  0  0  0  0
  1 35  1  0  0  0  0
  1 36  1  0  0  0  0
  1 37  1  0  0  0  0
  2 30  1  0  0  0  0
  2  3  2  0  0  0  0
  3  4  1  0  0  0  0
  3 38  1  0  0  0  0
  4  5  1  0  0  0  0
  4 28  2  0  0  0  0
  5  6  1  0  0  0  0
  5  7  1  0  0  0  0
  5  8  1  0  0  0  0
  6 39  1  0  0  0  0
  6 40  1  0  0  0  0
  6 41  1  0  0  0  0
  7 42  1  0  0  0  0
  8  9  1  0  0  0  0
  8 43  1  0  0  0  0
  8 44  1  0  0  0  0
  9 10  1  0  0  0  0
  9 45  1  0  0  0  0
 10 15  1  0  0  0  0
 10 11  2  0  0  0  0
 11 12  1  0  0  0  0
 12 13  2  0  0  0  0
 12 46  1  0  0  0  0
 13 14  1  0  0  0  0
 14 18  1  0  0  0  0
 14 15  2  0  0  0  0
 15 16  1  0  0  0  0
 16 17  2  0  0  0  0
 17 18  1  0  0  0  0
 17 47  1  0  0  0  0
 18 19  1  0  0  0  0
 19 31  1  0  0  0  0
 19 26  1  0  0  0  0
 19 20  1  0  0  0  0
 20 21  1  0  0  0  0
 21 32  1  0  0  0  0
 21 22  1  0  0  0  0
 21 24  1  0  0  0  0
 22 23  1  0  0  0  0
 22 48  1  0  0  0  0
 22 49  1  0  0  0  0
 23 50  1  0  0  0  0
 24 33  1  0  0  0  0
 24 25  1  0  0  0  0
 24 26  1  0  0  0  0
 25 51  1  0  0  0  0
 26 34  1  0  0  0  0
 26 27  1  0  0  0  0
 27 52  1  0  0  0  0
 28 29  1  0  0  0  0
 28 30  1  0  0  0  0
 29 53  1  0  0  0  0
 29 54  1  0  0  0  0
 29 55  1  0  0  0  0
M  END
> <s_m_source_file>
AV-unprocessed.smi

> <i_m_source_file_index>
287

> <i_lp_mmshare_version>
43012

> <i_f3d_flags>
0

> <s_epik_input>
W0NIM11jMVtjSF1jKGMobzEpW0NIM10pW0NAQF0oW0NIM10pKFtPSF0pW0NIMl1bTkhdYyhuW2NIXW4yKWMoYzIzKW5bY0hdbjNbQ0BASF00T1tDQEhdKFtDSDJdW09IXSlbQ0BASF0oW09IXSlbQ0BIXTRbT0hd

> <s_epik_cmdline>
J2VwaWtfcHl0aG9uJywgJy1waCcsICc3LjAnLCAnLXRuJywgJzgnLCAnLW1hJywgJzIwMCcsICctbWV0YWxfYmluZGluZycsICctaW1hZScsICc8aW5maWxlLm1hZT4nLCAnLW9tYWUnLCAnPG91dGZpbGUubWFlPic=

> <r_lp_tautomer_probability>
1

> <r_epik_Ionization_Penalty>
0.000992612

> <r_epik_Ionization_Penalty_Charging>
0

> <r_epik_Ionization_Penalty_Neutral>
0.000992612

> <r_epik_State_Penalty>
-0

> <r_epik_Charging_Adjusted_Penalty>
0

> <i_epik_Tot_Q>
0

> <i_epik_Tot_abs_Q>
0

> <r_epik_Metal_State_Penalty>
-0

> <b_epik_Metal_Only>
0

> <s_epik_Chemistry_Notes>
This compound contains an acetal/aminal-like group ( X-CH(R)-Y where X, Y are N, S, or O) that may be acid/base labile, releasing an aldehyde.

> <s_lp_Force_Field>
OPLS_2005

> <r_lp_Energy>
38.8116

> <b_lp_Chiralities_Consistent>
1

> <s_lp_Variant>
AV-unprocessed.smi:287-23

> <Gold.Version>
5.8.1

> <Gold.Id.Protein>
6NUR|6NUR_protein|mol2

> <Gold.PLP.Fitness>
44.1719

> <Gold.PLP.PLP>
-33.8415

> <Gold.PLP.part.hbond>
-4.0000

> <Gold.PLP.part.metal>
0.0000

> <Gold.PLP.part.buried>
-6.5329

> <Gold.PLP.part.nonpolar>
-24.6488

> <Gold.PLP.part.repulsive>
0.3741

> <Gold.PLP.ligand.clash>
0.0733

> <Gold.PLP.ligand.torsion>
0.6776

> <Gold.PLP.Chemscore.Hbond>
3.8636

> <Gold.PLP.Chemscore.CHOScore>
0.0000

> <Gold.PLP.Chemscore.Metal>
0.0000

> <Gold.Chemscore.Hbonds>
donor molecule, donor type, donor heavy atom, donor atom, acceptor molecule, acceptor atom, score
      L1  H    23    50       P1  7921  0.99
      L1  H    25    51       P1 10747  1.00
      L1  H    27    52       P1 10957  0.54
      P1  H  7989  7998       L1     7  0.85

> <Gold.PLP.Chemscore.Internal.Correction>
0.1682

> <Gold.Rescore>
     Score         DG    S(hbond)    S(metal)    S(lipo)     H(rot)  DE(clash)    DE(int)     intcor
     10.80     -13.30       3.39        0.00      85.20       5.27       0.14       2.36       ----

> <Gold.Chemscore.Fitness>
10.7982

> <Gold.Chemscore.DG>
-13.2978

> <Gold.Chemscore.ZeroCoef>
-5.4800

> <Gold.Chemscore.Hbond>
3.3930

> <Gold.Chemscore.Metal>
0.0000

> <Gold.Chemscore.Lipo>
85.2047

> <Gold.Chemscore.Internal_Hbond>
0.0000

> <Gold.Chemscore.DEClash>
0.1367

> <Gold.Chemscore.DEInternal>
2.3628

> <Gold.Chemscore.Rot>
5.2672

> <Gold.Chemscore.Internal.Correction>
   9.000000E+99

> <Gold.Chemscore.Hbonds>
donor molecule, donor type, donor heavy atom, donor atom, acceptor molecule, acceptor atom, score
      L1  H    23    50       P1  7921  0.55
      L1  H    25    51       P1 10747  0.99
      L1  H    27    52       P1 10957  0.27
      P1  H  7989  7998       L1     7  0.41

> <Gold.Chemscore.Hbond.Weighted>
-11.3327

> <Gold.Chemscore.Metal.Weighted>
-0.0000

> <Gold.Chemscore.Lipo.Weighted>
-9.9690

> <Gold.Chemscore.Internal_Hbond.Weighted>
0.0000

> <Gold.Chemscore.DEClash.Weighted>
0.1367

> <Gold.Chemscore.DEInternal.Weighted>
2.3628

> <Gold.Chemscore.Rot.Weighted>
13.4839

> <Gold.Chemscore.Internal.Correction.Weighted>
   9.000000E+99

> <Gold.Protein.RotatedTorsions>
[ 6907 6896 6895 6894 ] final  -76.54 input  -60.11 | X-H torsion
[ 7974 7965 7964 7962 ] final -171.26 input  175.53 | X-H torsion
[ 8008 7997 7996 7995 ] final  173.58 input   59.86 | X-H torsion
[ 10167 10162 10161 10158 ] final  -50.11 input  -65.29 | X-H torsion
[ 10718 10713 10712 10709 ] final   61.66 input   66.30 | X-H torsion
[ 10763 10752 10751 10750 ] final  133.34 input  -60.55 | X-H torsion
[ 11005 11000 10999 10996 ] final   86.28 input  -57.11 | X-H torsion

> <Gold.Protein.ActiveResidues>
 VAL166  LYS551  ARG553  GLY616  TRP617  ASP618  TYR619  PRO620  LYS621  CYS622 
 ASP623  PHE694  ASN695  SER759  ASP760  ASP761  ALA762  ILE779  LEU786  VAL792 
 PHE793  MET794  SER795  GLU796  ALA797  LYS798  CYS799  TRP800  GLU811  SER814 

> <Gold.Protein.RotatedAtoms>
  150.7024  134.4557  159.5356 H   0  0  0  0  0  0  0  0  0  0  0  0  # atno 6907 bound_to 6896
  152.2241  134.8382  160.0491 H   0  0  0  0  0  0  0  0  0  0  0  0  # atno 6908 bound_to 6896
  151.9222  133.3553  159.3938 H   0  0  0  0  0  0  0  0  0  0  0  0  # atno 6909 bound_to 6896
  144.7159  140.1949  143.6344 H   0  0  0  0  0  0  0  0  0  0  0  0  # atno 7974 bound_to 7965
  156.1060  140.1456  156.9403 H   0  0  0  0  0  0  0  0  0  0  0  0  # atno 8008 bound_to 7997
  154.4734  140.0902  156.7247 H   0  0  0  0  0  0  0  0  0  0  0  0  # atno 8009 bound_to 7997
  155.4678  140.3440  155.4323 H   0  0  0  0  0  0  0  0  0  0  0  0  # atno 8010 bound_to 7997
  140.6653  143.2670  151.4313 H   0  0  0  0  0  0  0  0  0  0  0  0  # atno 10167 bound_to 10162
  157.5844  130.9007  149.9489 H   0  0  0  0  0  0  0  0  0  0  0  0  # atno 10718 bound_to 10713
  153.8054  135.3136  155.3395 H   0  0  0  0  0  0  0  0  0  0  0  0  # atno 10763 bound_to 10752
  154.8072  135.4690  154.0426 H   0  0  0  0  0  0  0  0  0  0  0  0  # atno 10764 bound_to 10752
  153.1787  135.6890  153.8595 H   0  0  0  0  0  0  0  0  0  0  0  0  # atno 10765 bound_to 10752
  139.8949  134.8344  156.2699 H   0  0  0  0  0  0  0  0  0  0  0  0  # atno 11005 bound_to 11000
  145.8734  139.2284  143.1648 LP  0  0  0  0  0  0  0  0  0  0  0  0  # atno 17320 bound_to 7965
  146.0064  140.8475  142.9993 LP  0  0  0  0  0  0  0  0  0  0  0  0  # atno 17321 bound_to 7965
  139.5900  144.1520  152.2076 LP  0  0  0  0  0  0  0  0  0  0  0  0  # atno 17342 bound_to 10162
  140.0872  144.5651  150.7080 LP  0  0  0  0  0  0  0  0  0  0  0  0  # atno 17343 bound_to 10162
  156.0892  130.3665  150.0428 LP  0  0  0  0  0  0  0  0  0  0  0  0  # atno 17370 bound_to 10713
  156.8562  130.9476  151.3621 LP  0  0  0  0  0  0  0  0  0  0  0  0  # atno 17371 bound_to 10713
  141.0108  133.7097  156.1108 LP  0  0  0  0  0  0  0  0  0  0  0  0  # atno 17394 bound_to 11000
  140.7371  134.4191  157.5559 LP  0  0  0  0  0  0  0  0  0  0  0  0  # atno 17395 bound_to 11000

$$$$
