AV-unprocessed.smi:1889|AV-procd|sdf|7659|dock3
  -GOLD-   22720 9393D 1   1.00000     0.00000
 Structure written by MMmdl.
 36 37  0  0  0  0  0  0  0  0  1 V2000
  150.6823  143.0507  158.5436 C   0  0  0  0  0  0  0  0  0  0  0  0
  150.1738  141.8922  157.6787 C   0  0  0  0  0  0  0  0  0  0  0  0
  150.7503  141.9214  156.2562 C   0  0  0  0  0  0  0  0  0  0  0  0
  150.2742  140.7795  155.4216 C   0  0  0  0  0  0  0  0  0  0  0  0
  151.1090  139.8947  154.8612 N   0  0  0  0  0  0  0  0  0  0  0  0
  150.4395  138.9394  154.1082 N   0  0  0  0  0  0  0  0  0  0  0  0
  149.1188  139.1412  154.1062 C   0  0  0  0  0  0  0  0  0  0  0  0
  148.3072  138.2405  153.3723 N   0  0  0  0  0  0  0  0  0  0  0  0
  146.9672  138.1541  153.3664 C   0  0  0  0  0  0  0  0  0  0  0  0
  146.2036  138.8762  154.0071 O   0  0  0  0  0  0  0  0  0  0  0  0
  146.5488  137.1669  152.5618 N   0  0  0  0  0  0  0  0  0  0  0  0
  145.1538  136.8053  152.3329 C   0  0  0  0  0  0  0  0  0  0  0  0
  145.0133  135.5949  151.3896 C   0  0  2  0  0  0  0  0  0  0  0  0
  143.7304  134.8039  151.5545 C   0  0  0  0  0  0  0  0  0  0  0  0
  144.0931  133.4762  150.8965 C   0  0  0  0  0  0  0  0  0  0  0  0
  145.4916  133.3046  151.1087 O   0  0  0  0  0  0  0  0  0  0  0  0
  146.0618  134.5070  151.6176 C   0  0  0  0  0  0  0  0  0  0  0  0
  148.5741  140.5329  155.0425 S   0  0  0  0  0  0  0  0  0  0  0  0
  150.2587  143.0018  159.5469 H   0  0  0  0  0  0  0  0  0  0  0  0
  150.4069  144.0135  158.1128 H   0  0  0  0  0  0  0  0  0  0  0  0
  151.7680  143.0235  158.6392 H   0  0  0  0  0  0  0  0  0  0  0  0
  150.4312  140.9469  158.1577 H   0  0  0  0  0  0  0  0  0  0  0  0
  149.0846  141.9293  157.6333 H   0  0  0  0  0  0  0  0  0  0  0  0
  150.4795  142.8549  155.7608 H   0  0  0  0  0  0  0  0  0  0  0  0
  151.8399  141.8929  156.2928 H   0  0  0  0  0  0  0  0  0  0  0  0
  148.8056  137.5869  152.7864 H   0  0  0  0  0  0  0  0  0  0  0  0
  147.2448  136.6239  152.0717 H   0  0  0  0  0  0  0  0  0  0  0  0
  144.6627  136.6006  153.2856 H   0  0  0  0  0  0  0  0  0  0  0  0
  144.6487  137.6728  151.9073 H   0  0  0  0  0  0  0  0  0  0  0  0
  145.0854  135.9270  150.3525 H   0  0  0  0  0  0  0  0  0  0  0  0
  143.5103  134.6500  152.6119 H   0  0  0  0  0  0  0  0  0  0  0  0
  142.8672  135.2831  151.0911 H   0  0  0  0  0  0  0  0  0  0  0  0
  143.5224  132.6408  151.3032 H   0  0  0  0  0  0  0  0  0  0  0  0
  143.9084  133.5206  149.8224 H   0  0  0  0  0  0  0  0  0  0  0  0
  147.0108  134.7344  151.1316 H   0  0  0  0  0  0  0  0  0  0  0  0
  146.2526  134.3700  152.6828 H   0  0  0  0  0  0  0  0  0  0  0  0
  1  2  1  0  0  0  0
  1 19  1  0  0  0  0
  1 20  1  0  0  0  0
  1 21  1  0  0  0  0
  2  3  1  0  0  0  0
  2 22  1  0  0  0  0
  2 23  1  0  0  0  0
  3  4  1  0  0  0  0
  3 24  1  0  0  0  0
  3 25  1  0  0  0  0
  4 18  1  0  0  0  0
  4  5  2  0  0  0  0
  5  6  1  0  0  0  0
  6  7  2  0  0  0  0
  7  8  1  0  0  0  0
  7 18  1  0  0  0  0
  8  9  1  0  0  0  0
  8 26  1  0  0  0  0
  9 10  2  0  0  0  0
  9 11  1  0  0  0  0
 11 12  1  0  0  0  0
 11 27  1  0  0  0  0
 12 13  1  0  0  0  0
 12 28  1  0  0  0  0
 12 29  1  0  0  0  0
 13 17  1  0  0  0  0
 13 14  1  0  0  0  0
 13 30  1  0  0  0  0
 14 15  1  0  0  0  0
 14 31  1  0  0  0  0
 14 32  1  0  0  0  0
 15 16  1  0  0  0  0
 15 33  1  0  0  0  0
 15 34  1  0  0  0  0
 16 17  1  0  0  0  0
 17 35  1  0  0  0  0
 17 36  1  0  0  0  0
M  END
> <s_m_source_file>
AV-unprocessed.smi

> <i_m_source_file_index>
1889

> <i_lp_mmshare_version>
43012

> <i_f3d_flags>
0

> <s_epik_input>
W0NIM11bQ0gyXVtDSDJdYzFubmMoczEpW05IXUMoPU8pW05IXVtDSDJdW0NAQEhdMltDSDJdW0NIMl1PW0NIMl0y

> <s_epik_cmdline>
J2VwaWtfcHl0aG9uJywgJy1waCcsICc3LjAnLCAnLXRuJywgJzgnLCAnLW1hJywgJzIwMCcsICctbWV0YWxfYmluZGluZycsICctaW1hZScsICc8aW5maWxlLm1hZT4nLCAnLW9tYWUnLCAnPG91dGZpbGUubWFlPic=

> <r_lp_tautomer_probability>
1

> <r_epik_Ionization_Penalty>
0.000450509

> <r_epik_Ionization_Penalty_Charging>
0

> <r_epik_Ionization_Penalty_Neutral>
0.000450509

> <r_epik_State_Penalty>
-0

> <r_epik_Charging_Adjusted_Penalty>
0

> <i_epik_Tot_Q>
0

> <i_epik_Tot_abs_Q>
0

> <r_epik_Metal_State_Penalty>
0.207747

> <b_epik_Metal_Only>
0

> <s_lp_Force_Field>
OPLS_2005

> <r_lp_Energy>
11.6585

> <b_lp_Chiralities_Consistent>
1

> <s_lp_Variant>
AV-unprocessed.smi:1889-1

> <Gold.Version>
5.8.1

> <Gold.Id.Protein>
6NUR|6NUR_protein|mol2

> <Gold.PLP.Fitness>
36.8767

> <Gold.PLP.PLP>
-28.8471

> <Gold.PLP.part.hbond>
-3.9997

> <Gold.PLP.part.metal>
0.0000

> <Gold.PLP.part.buried>
-4.3106

> <Gold.PLP.part.nonpolar>
-22.1587

> <Gold.PLP.part.repulsive>
0.6176

> <Gold.PLP.ligand.clash>
0.0000

> <Gold.PLP.ligand.torsion>
0.2605

> <Gold.PLP.Chemscore.Hbond>
2.8420

> <Gold.PLP.Chemscore.CHOScore>
0.0000

> <Gold.PLP.Chemscore.Metal>
0.0000

> <Gold.Chemscore.Hbonds>
donor molecule, donor type, donor heavy atom, donor atom, acceptor molecule, acceptor atom, score
      L1  H     8    26       P1  7948  1.00
      L1  H    11    27       P1  7948  0.98
      P1  H  7989  7998       L1     5  0.76

> <Gold.PLP.Chemscore.Internal.Correction>
0.0245

> <Gold.Rescore>
     Score         DG    S(hbond)    S(metal)    S(lipo)     H(rot)  DE(clash)    DE(int)     intcor
     14.90     -15.17       1.94        0.00      63.04       1.63       0.06       0.21       ----

> <Gold.Chemscore.Fitness>
14.8978

> <Gold.Chemscore.DG>
-15.1684

> <Gold.Chemscore.ZeroCoef>
-5.4800

> <Gold.Chemscore.Hbond>
1.9425

> <Gold.Chemscore.Metal>
0.0000

> <Gold.Chemscore.Lipo>
63.0437

> <Gold.Chemscore.Internal_Hbond>
0.0000

> <Gold.Chemscore.DEClash>
0.0605

> <Gold.Chemscore.DEInternal>
0.2100

> <Gold.Chemscore.Rot>
1.6311

> <Gold.Chemscore.Internal.Correction>
   9.000000E+99

> <Gold.Chemscore.Hbonds>
donor molecule, donor type, donor heavy atom, donor atom, acceptor molecule, acceptor atom, score
      L1  H     8    26       P1  7948  0.98
      L1  H    11    27       P1  7948  0.93
      P1  H  7989  7998       L1     5  0.03

> <Gold.Chemscore.Hbond.Weighted>
-6.4879

> <Gold.Chemscore.Metal.Weighted>
-0.0000

> <Gold.Chemscore.Lipo.Weighted>
-7.3761

> <Gold.Chemscore.Internal_Hbond.Weighted>
0.0000

> <Gold.Chemscore.DEClash.Weighted>
0.0605

> <Gold.Chemscore.DEInternal.Weighted>
0.2100

> <Gold.Chemscore.Rot.Weighted>
4.1757

> <Gold.Chemscore.Internal.Correction.Weighted>
   9.000000E+99

> <Gold.Protein.RotatedTorsions>
[ 6907 6896 6895 6894 ] final -114.81 input  -60.11 | X-H torsion
[ 7974 7965 7964 7962 ] final  102.84 input  175.53 | X-H torsion
[ 8008 7997 7996 7995 ] final   98.18 input   59.86 | X-H torsion
[ 10167 10162 10161 10158 ] final   19.20 input  -65.29 | X-H torsion
[ 10718 10713 10712 10709 ] final   83.19 input   66.30 | X-H torsion
[ 10763 10752 10751 10750 ] final -122.40 input  -60.55 | X-H torsion
[ 11005 11000 10999 10996 ] final -169.90 input  -57.11 | X-H torsion

> <Gold.Protein.ActiveResidues>
 VAL166  LYS551  ARG553  GLY616  TRP617  ASP618  TYR619  PRO620  LYS621  CYS622 
 ASP623  PHE694  ASN695  SER759  ASP760  ASP761  ALA762  ILE779  LEU786  VAL792 
 PHE793  MET794  SER795  GLU796  ALA797  LYS798  CYS799  TRP800  GLU811  SER814 

> <Gold.Protein.RotatedAtoms>
  150.7930  133.8747  159.3268 H   0  0  0  0  0  0  0  0  0  0  0  0  # atno 6907 bound_to 6896
  151.6580  135.0991  160.0183 H   0  0  0  0  0  0  0  0  0  0  0  0  # atno 6908 bound_to 6896
  152.4008  133.6775  159.6349 H   0  0  0  0  0  0  0  0  0  0  0  0  # atno 6909 bound_to 6896
  145.3537  139.2433  143.3544 H   0  0  0  0  0  0  0  0  0  0  0  0  # atno 7974 bound_to 7965
  156.0977  140.3247  155.7900 H   0  0  0  0  0  0  0  0  0  0  0  0  # atno 8008 bound_to 7997
  155.4889  140.0560  157.2974 H   0  0  0  0  0  0  0  0  0  0  0  0  # atno 8009 bound_to 7997
  154.4677  140.1997  156.0090 H   0  0  0  0  0  0  0  0  0  0  0  0  # atno 8010 bound_to 7997
  140.5597  143.9360  150.6633 H   0  0  0  0  0  0  0  0  0  0  0  0  # atno 10167 bound_to 10162
  157.6873  131.0080  150.2486 H   0  0  0  0  0  0  0  0  0  0  0  0  # atno 10718 bound_to 10713
  154.8689  135.4134  154.2776 H   0  0  0  0  0  0  0  0  0  0  0  0  # atno 10763 bound_to 10752
  153.3675  135.7006  153.6669 H   0  0  0  0  0  0  0  0  0  0  0  0  # atno 10764 bound_to 10752
  153.5545  135.3622  155.2745 H   0  0  0  0  0  0  0  0  0  0  0  0  # atno 10765 bound_to 10752
  140.5255  134.5667  157.5060 H   0  0  0  0  0  0  0  0  0  0  0  0  # atno 11005 bound_to 11000
  146.2957  140.4158  142.8723 LP  0  0  0  0  0  0  0  0  0  0  0  0  # atno 17320 bound_to 7965
  144.8698  140.7256  143.6054 LP  0  0  0  0  0  0  0  0  0  0  0  0  # atno 17321 bound_to 7965
  140.2808  143.3391  152.1153 LP  0  0  0  0  0  0  0  0  0  0  0  0  # atno 17342 bound_to 10162
  139.5064  144.6813  151.6001 LP  0  0  0  0  0  0  0  0  0  0  0  0  # atno 17343 bound_to 10162
  156.3087  130.3769  149.7682 LP  0  0  0  0  0  0  0  0  0  0  0  0  # atno 17370 bound_to 10713
  156.5289  130.8248  151.3230 LP  0  0  0  0  0  0  0  0  0  0  0  0  # atno 17371 bound_to 10713
  139.9582  134.7498  156.0294 LP  0  0  0  0  0  0  0  0  0  0  0  0  # atno 17394 bound_to 11000
  141.1310  133.6586  156.3465 LP  0  0  0  0  0  0  0  0  0  0  0  0  # atno 17395 bound_to 11000

$$$$
