#       Name:                AV-unprocessed.smi:1212
#       Creating user name   scv26
#       Creation time:       Fri Mar 27 04:13:23 2020


#       File generated by GOLD software.
#

@<TRIPOS>MOLECULE
AV-unprocessed.smi:1212
    45    46     1
SMALL
NO_CHARGES


@<TRIPOS>ATOM
      1 ****        -7.8648   2.6406   0.5802 C.3            1 S1                 0.0000
      2 ****        -6.4515   2.1682   0.5381 C.2            1 S1                 0.0000
      3 ****        -5.4090   3.0036   0.4499 N.2            1 S1                 0.0000
      4 ****        -4.1953   2.3299   0.4264 N.2            1 S1                 0.0000
      5 ****        -4.3596   1.0018   0.4998 C.2            1 S1                 0.0000
      6 ****        -3.2868   0.0716   0.4941 N.am           1 S1                 0.0000
      7 ****        -1.9670   0.3205   0.4255 C.2            1 S1                 0.0000
      8 ****        -1.4553   1.4382   0.3526 O.2            1 S1                 0.0000
      9 ****        -1.2570  -0.8167   0.4463 N.am           1 S1                 0.0000
     10 ****         0.1978  -0.8941   0.3961 C.3            1 S1                 0.0000
     11 ****         0.7215  -0.7807  -1.0478 C.3            1 S1                 0.0000
     12 ****         2.1871  -0.8621  -1.0866 N.am           1 S1                 0.0000
     13 ****         2.9100   0.4194  -1.1424 C.3            1 S1                 0.0000
     14 ****         3.6716   0.7629   0.1594 C.3            1 S1                 0.0000
     15 ****         4.1759  -0.4311   0.9941 C.3            1 S1                 0.0000
     16 ****         5.0131  -1.4660   0.2139 C.3            1 S1                 0.0000
     17 ****         4.3707  -2.0473  -1.0680 C.3            1 S1                 0.0000
     18 ****         2.8333  -2.0539  -1.0581 C.2            1 S1                 0.0000
     19 ****         2.2459  -3.1354  -1.0185 O.2            1 S1                 0.0000
     20 ****        -6.0268   0.4622   0.6051 S.3            1 S1                 0.0000
     21 ****        -7.9343   3.6765   0.2463 H              1 S1                 0.0000
     22 ****        -8.2495   2.5737   1.5978 H              1 S1                 0.0000
     23 ****        -8.4847   2.0235  -0.0704 H              1 S1                 0.0000
     24 ****        -3.5567  -0.8992   0.5502 H              1 S1                 0.0000
     25 ****        -1.7569  -1.6919   0.5044 H              1 S1                 0.0000
     26 ****         0.6355  -0.1159   1.0237 H              1 S1                 0.0000
     27 ****         0.4981  -1.8464   0.8338 H              1 S1                 0.0000
     28 ****         0.2868  -1.5693  -1.6647 H              1 S1                 0.0000
     29 ****         0.3768   0.1509  -1.4975 H              1 S1                 0.0000
     30 ****         3.6041   0.4013  -1.9829 H              1 S1                 0.0000
     31 ****         2.2368   1.2446  -1.3759 H              1 S1                 0.0000
     32 ****         4.5084   1.4176  -0.0854 H              1 S1                 0.0000
     33 ****         3.0135   1.3548   0.7968 H              1 S1                 0.0000
     34 ****         4.7709  -0.0519   1.8254 H              1 S1                 0.0000
     35 ****         3.3255  -0.9292   1.4620 H              1 S1                 0.0000
     36 ****         5.9711  -1.0178  -0.0515 H              1 S1                 0.0000
     37 ****         5.2534  -2.2879   0.8892 H              1 S1                 0.0000
     38 ****         4.7173  -1.4983  -1.9433 H              1 S1                 0.0000
     39 ****         4.7316  -3.0655  -1.2182 H              1 S1                 0.0000
     40 ****        -5.4948   3.9989   0.4060 LP             1 S1                 0.0000
     41 ****        -3.3054   2.7814   0.3624 LP             1 S1                 0.0000
     42 ****        -2.0344   2.2534   0.3408 LP             1 S1                 0.0000
     43 ****        -0.4607   1.5306   0.3052 LP             1 S1                 0.0000
     44 ****         1.2463  -3.1613  -1.0060 LP             1 S1                 0.0000
     45 ****         2.7684  -3.9878  -0.9988 LP             1 S1                 0.0000
@<TRIPOS>BOND
    1    1    2 1     
    2    1   21 1     
    3    1   22 1     
    4    1   23 1     
    5    2   20 1     
    6    2    3 2     
    7    3    4 1     
    8    4    5 2     
    9    5    6 1     
   10    5   20 1     
   11    6    7 am    
   12    6   24 1     
   13    7    8 2     
   14    7    9 am    
   15    9   10 1     
   16    9   25 1     
   17   10   11 1     
   18   10   26 1     
   19   10   27 1     
   20   11   12 1     
   21   11   28 1     
   22   11   29 1     
   23   12   18 am    
   24   12   13 1     
   25   13   14 1     
   26   13   30 1     
   27   13   31 1     
   28   14   15 1     
   29   14   32 1     
   30   14   33 1     
   31   15   16 1     
   32   15   34 1     
   33   15   35 1     
   34   16   17 1     
   35   16   36 1     
   36   16   37 1     
   37   17   18 1     
   38   17   38 1     
   39   17   39 1     
   40   18   19 2     
   41    3   40 1     
   42    4   41 1     
   43    8   42 1     
   44    8   43 1     
   45   19   44 1     
   46   19   45 1     
@<TRIPOS>SUBSTRUCTURE
      1 S1             1
@<TRIPOS>SET
LONE_PAIRS      STATIC     ATOMS    <user>   **** ""
6 40 41 42 43 44 45
DONOR_HYDROGENS      STATIC     ATOMS    <user>   **** ""
2 24 25
ATOM$BLUE        STATIC     ATOMS    COLORGROUP SYSTEM
6 40 41 42 43 44 45
ATOM$RED        STATIC     ATOMS    COLORGROUP SYSTEM
2 24 25
