AV-unprocessed.smi:1388|AV-procd|sdf|5642|dock3
  -GOLD-   22720 5263D 1   1.00000     0.00000
 Structure written by MMmdl.
 46 47  0  0  0  0  0  0  0  0  2 V2000
  153.9944  132.9493  165.1310 C   0  0  0  0  0  0  0  0  0  0  0  0
  154.0657  133.4858  163.7802 N   0  0  0  0  0  0  0  0  0  0  0  0
  155.1312  133.3653  162.9763 C   0  0  0  0  0  0  0  0  0  0  0  0
  156.1668  132.7885  163.3106 O   0  0  0  0  0  0  0  0  0  0  0  0
  155.0093  134.0103  161.5916 C   0  0  0  0  0  0  0  0  0  0  0  0
  154.5912  135.4352  161.6444 N   0  3  2  0  0  0  0  0  0  0  0  0
  154.4982  136.0464  160.2941 C   0  0  0  0  0  0  0  0  0  0  0  0
  153.9309  137.4736  160.3672 C   0  0  0  0  0  0  0  0  0  0  0  0
  154.7729  138.3584  161.3050 C   0  0  1  0  0  0  0  0  0  0  0  0
  154.1858  139.6882  161.4414 N   0  0  0  0  0  0  0  0  0  0  0  0
  153.8472  140.4874  160.4188 C   0  0  0  0  0  0  0  0  0  0  0  0
  153.9913  140.1703  159.2376 O   0  0  0  0  0  0  0  0  0  0  0  0
  153.3431  141.6543  160.8579 N   0  0  0  0  0  0  0  0  0  0  0  0
  152.8493  142.7486  160.0927 C   0  0  0  0  0  0  0  0  0  0  0  0
  152.7847  142.7232  158.7377 N   0  0  0  0  0  0  0  0  0  0  0  0
  152.3015  143.7933  158.0742 C   0  0  0  0  0  0  0  0  0  0  0  0
  151.8509  144.9574  158.7198 C   0  0  0  0  0  0  0  0  0  0  0  0
  151.9108  145.0005  160.1232 C   0  0  0  0  0  0  0  0  0  0  0  0
  152.4151  143.8854  160.8259 C   0  0  0  0  0  0  0  0  0  0  0  0
  152.4811  143.9307  162.3438 C   0  0  0  0  0  0  0  0  0  0  0  0
  154.8783  137.6865  162.6833 C   0  0  0  0  0  0  0  0  0  0  0  0
  155.4292  136.2562  162.5598 C   0  0  0  0  0  0  0  0  0  0  0  0
  153.0335  133.2002  165.5806 H   0  0  0  0  0  0  0  0  0  0  0  0
  154.7834  133.3673  165.7581 H   0  0  0  0  0  0  0  0  0  0  0  0
  154.0942  131.8629  165.1233 H   0  0  0  0  0  0  0  0  0  0  0  0
  153.2544  133.9807  163.4381 H   0  0  0  0  0  0  0  0  0  0  0  0
  155.9471  133.9157  161.0416 H   0  0  0  0  0  0  0  0  0  0  0  0
  154.2655  133.4299  161.0441 H   0  0  0  0  0  0  0  0  0  0  0  0
  155.4851  136.0566  159.8287 H   0  0  0  0  0  0  0  0  0  0  0  0
  153.8531  135.4395  159.6578 H   0  0  0  0  0  0  0  0  0  0  0  0
  153.9001  137.9037  159.3655 H   0  0  0  0  0  0  0  0  0  0  0  0
  152.8987  137.4362  160.7189 H   0  0  0  0  0  0  0  0  0  0  0  0
  155.7799  138.4572  160.8944 H   0  0  0  0  0  0  0  0  0  0  0  0
  154.0340  140.0270  162.3803 H   0  0  0  0  0  0  0  0  0  0  0  0
  153.3022  141.7765  161.8587 H   0  0  0  0  0  0  0  0  0  0  0  0
  152.2736  143.7185  156.9972 H   0  0  0  0  0  0  0  0  0  0  0  0
  151.4701  145.7943  158.1533 H   0  0  0  0  0  0  0  0  0  0  0  0
  151.5729  145.8806  160.6505 H   0  0  0  0  0  0  0  0  0  0  0  0
  152.1090  144.8802  162.7296 H   0  0  0  0  0  0  0  0  0  0  0  0
  153.5100  143.8110  162.6848 H   0  0  0  0  0  0  0  0  0  0  0  0
  151.8763  143.1330  162.7762 H   0  0  0  0  0  0  0  0  0  0  0  0
  155.5235  138.2738  163.3378 H   0  0  0  0  0  0  0  0  0  0  0  0
  153.8973  137.6568  163.1605 H   0  0  0  0  0  0  0  0  0  0  0  0
  155.4632  135.8012  163.5500 H   0  0  0  0  0  0  0  0  0  0  0  0
  156.4557  136.2818  162.1906 H   0  0  0  0  0  0  0  0  0  0  0  0
  153.6539  135.4374  162.0217 H   0  0  0  0  0  0  0  0  0  0  0  0
  1  2  1  0  0  0  0
  1 23  1  0  0  0  0
  1 24  1  0  0  0  0
  1 25  1  0  0  0  0
  2  3  1  0  0  0  0
  2 26  1  0  0  0  0
  3  4  2  0  0  0  0
  3  5  1  0  0  0  0
  5  6  1  0  0  0  0
  5 27  1  0  0  0  0
  5 28  1  0  0  0  0
  6 22  1  0  0  0  0
  6  7  1  0  0  0  0
  6 46  1  0  0  0  0
  7  8  1  0  0  0  0
  7 29  1  0  0  0  0
  7 30  1  0  0  0  0
  8  9  1  0  0  0  0
  8 31  1  0  0  0  0
  8 32  1  0  0  0  0
  9 10  1  0  0  0  0
  9 21  1  0  0  0  0
  9 33  1  0  0  0  0
 10 11  1  0  0  0  0
 10 34  1  0  0  0  0
 11 12  2  0  0  0  0
 11 13  1  0  0  0  0
 13 14  1  0  0  0  0
 13 35  1  0  0  0  0
 14 19  1  0  0  0  0
 14 15  2  0  0  0  0
 15 16  1  0  0  0  0
 16 17  2  0  0  0  0
 16 36  1  0  0  0  0
 17 18  1  0  0  0  0
 17 37  1  0  0  0  0
 18 19  2  0  0  0  0
 18 38  1  0  0  0  0
 19 20  1  0  0  0  0
 20 39  1  0  0  0  0
 20 40  1  0  0  0  0
 20 41  1  0  0  0  0
 21 22  1  0  0  0  0
 21 42  1  0  0  0  0
 21 43  1  0  0  0  0
 22 44  1  0  0  0  0
 22 45  1  0  0  0  0
M  CHG  1   6   1
M  END
> <s_m_source_file>
AV-unprocessed.smi

> <i_m_source_file_index>
1388

> <i_lp_mmshare_version>
43012

> <i_f3d_flags>
0

> <s_epik_input>
W0NIM11bTkhdQyg9TylbQ0gyXU4xW0NIMl1bQ0gyXVtDSF0oW0NIMl1bQ0gyXTEpW05IXUMoPU8pW05IXWMybltjSF1bY0hdW2NIXWMyW0NIM10=

> <s_epik_cmdline>
J2VwaWtfcHl0aG9uJywgJy1waCcsICc3LjAnLCAnLXRuJywgJzgnLCAnLW1hJywgJzIwMCcsICctbWV0YWxfYmluZGluZycsICctaW1hZScsICc8aW5maWxlLm1hZT4nLCAnLW9tYWUnLCAnPG91dGZpbGUubWFlPic=

> <r_epik_Ionization_Penalty>
0.83891

> <r_epik_Ionization_Penalty_Charging>
0.838844

> <r_epik_Ionization_Penalty_Neutral>
6.58477e-05

> <r_epik_State_Penalty>
0.8734

> <r_epik_Charging_Adjusted_Penalty>
1.71224

> <i_epik_Tot_Q>
1

> <i_epik_Tot_abs_Q>
1

> <r_epik_Metal_State_Penalty>
0.877924

> <b_epik_Metal_Only>
0

> <s_lp_Force_Field>
OPLS_2005

> <r_lp_Energy>
15.763

> <b_lp_Chiralities_Consistent>
1

> <s_lp_Variant>
AV-unprocessed.smi:1388-2

> <Gold.Version>
5.8.1

> <Gold.Id.Protein>
6NUR|6NUR_protein|mol2

> <Gold.PLP.Fitness>
42.0435

> <Gold.PLP.PLP>
-40.4638

> <Gold.PLP.part.hbond>
-0.8581

> <Gold.PLP.part.metal>
0.0000

> <Gold.PLP.part.buried>
-4.8587

> <Gold.PLP.part.nonpolar>
-34.0890

> <Gold.PLP.part.repulsive>
0.1378

> <Gold.PLP.ligand.clash>
0.0000

> <Gold.PLP.ligand.torsion>
0.1168

> <Gold.PLP.Chemscore.Hbond>
0.5983

> <Gold.PLP.Chemscore.CHOScore>
0.0000

> <Gold.PLP.Chemscore.Metal>
0.0000

> <Gold.Chemscore.Hbonds>
donor molecule, donor type, donor heavy atom, donor atom, acceptor molecule, acceptor atom, score
      P1  H  7997  8010       L1    12  0.58

> <Gold.PLP.Chemscore.Internal.Correction>
0.0185

> <Gold.Rescore>
     Score         DG    S(hbond)    S(metal)    S(lipo)     H(rot)  DE(clash)    DE(int)     intcor
     11.87     -14.63       0.45        0.00     102.17       1.69       0.17       2.58       ----

> <Gold.Chemscore.Fitness>
11.8738

> <Gold.Chemscore.DG>
-14.6259

> <Gold.Chemscore.ZeroCoef>
-5.4800

> <Gold.Chemscore.Hbond>
0.4509

> <Gold.Chemscore.Metal>
0.0000

> <Gold.Chemscore.Lipo>
102.1714

> <Gold.Chemscore.Internal_Hbond>
0.0000

> <Gold.Chemscore.DEClash>
0.1711

> <Gold.Chemscore.DEInternal>
2.5809

> <Gold.Chemscore.Rot>
1.6853

> <Gold.Chemscore.Internal.Correction>
   9.000000E+99

> <Gold.Chemscore.Hbonds>
donor molecule, donor type, donor heavy atom, donor atom, acceptor molecule, acceptor atom, score
      P1  H  7997  8010       L1    12  0.57

> <Gold.Chemscore.Hbond.Weighted>
-1.5061

> <Gold.Chemscore.Metal.Weighted>
-0.0000

> <Gold.Chemscore.Lipo.Weighted>
-11.9541

> <Gold.Chemscore.Internal_Hbond.Weighted>
0.0000

> <Gold.Chemscore.DEClash.Weighted>
0.1711

> <Gold.Chemscore.DEInternal.Weighted>
2.5809

> <Gold.Chemscore.Rot.Weighted>
4.3143

> <Gold.Chemscore.Internal.Correction.Weighted>
   9.000000E+99

> <Gold.Protein.RotatedTorsions>
[ 6907 6896 6895 6894 ] final -128.49 input  -60.11 | X-H torsion
[ 7974 7965 7964 7962 ] final -161.16 input  175.53 | X-H torsion
[ 8008 7997 7996 7995 ] final    6.23 input   59.86 | X-H torsion
[ 10167 10162 10161 10158 ] final  127.78 input  -65.29 | X-H torsion
[ 10718 10713 10712 10709 ] final -157.69 input   66.30 | X-H torsion
[ 10763 10752 10751 10750 ] final   60.85 input  -60.55 | X-H torsion
[ 11005 11000 10999 10996 ] final  173.87 input  -57.11 | X-H torsion

> <Gold.Protein.ActiveResidues>
 VAL166  LYS551  ARG553  GLY616  TRP617  ASP618  TYR619  PRO620  LYS621  CYS622 
 ASP623  PHE694  ASN695  SER759  ASP760  ASP761  ALA762  ILE779  LEU786  VAL792 
 PHE793  MET794  SER795  GLU796  ALA797  LYS798  CYS799  TRP800  GLU811  SER814 

> <Gold.Protein.RotatedAtoms>
  150.9185  133.6910  159.2837 H   0  0  0  0  0  0  0  0  0  0  0  0  # atno 6907 bound_to 6896
  151.4372  135.1015  159.9669 H   0  0  0  0  0  0  0  0  0  0  0  0  # atno 6908 bound_to 6896
  152.4967  133.8601  159.7301 H   0  0  0  0  0  0  0  0  0  0  0  0  # atno 6909 bound_to 6896
  144.7401  140.3437  143.6129 H   0  0  0  0  0  0  0  0  0  0  0  0  # atno 7974 bound_to 7965
  154.7383  140.2744  155.6395 H   0  0  0  0  0  0  0  0  0  0  0  0  # atno 8008 bound_to 7997
  156.2867  140.2702  156.2029 H   0  0  0  0  0  0  0  0  0  0  0  0  # atno 8009 bound_to 7997
  155.0291  140.0371  157.2457 H   0  0  0  0  0  0  0  0  0  0  0  0  # atno 8010 bound_to 7997
  139.5561  144.6849  151.4180 H   0  0  0  0  0  0  0  0  0  0  0  0  # atno 10167 bound_to 10162
  156.5438  130.8575  151.2757 H   0  0  0  0  0  0  0  0  0  0  0  0  # atno 10718 bound_to 10713
  152.9933  135.5521  154.5940 H   0  0  0  0  0  0  0  0  0  0  0  0  # atno 10763 bound_to 10752
  154.5296  135.2812  155.1194 H   0  0  0  0  0  0  0  0  0  0  0  0  # atno 10764 bound_to 10752
  154.2514  135.6398  153.5294 H   0  0  0  0  0  0  0  0  0  0  0  0  # atno 10765 bound_to 10752
  140.3452  134.7242  157.4230 H   0  0  0  0  0  0  0  0  0  0  0  0  # atno 11005 bound_to 11000
  145.7348  139.1747  143.2410 LP  0  0  0  0  0  0  0  0  0  0  0  0  # atno 17320 bound_to 7965
  146.1179  140.7346  142.9472 LP  0  0  0  0  0  0  0  0  0  0  0  0  # atno 17321 bound_to 7965
  140.6833  143.8031  150.7152 LP  0  0  0  0  0  0  0  0  0  0  0  0  # atno 17342 bound_to 10162
  140.1491  143.4373  152.2143 LP  0  0  0  0  0  0  0  0  0  0  0  0  # atno 17343 bound_to 10162
  157.7400  130.9843  150.2352 LP  0  0  0  0  0  0  0  0  0  0  0  0  # atno 17370 bound_to 10713
  156.2947  130.3750  149.7807 LP  0  0  0  0  0  0  0  0  0  0  0  0  # atno 17371 bound_to 10713
  140.0748  134.5812  155.8602 LP  0  0  0  0  0  0  0  0  0  0  0  0  # atno 17394 bound_to 11000
  141.2027  133.6627  156.6024 LP  0  0  0  0  0  0  0  0  0  0  0  0  # atno 17395 bound_to 11000

$$$$
