AV-unprocessed.smi:290|AV-procd|sdf|2215|dock2
  -GOLD-   2262022 53D 1   1.00000     0.00000
 Structure written by MMmdl.
 59 62  0  0  0  0  0  0  0  0  2 V2000
  151.3262  141.8873  157.6809 C   0  0  0  0  0  0  0  0  0  0  0  0
  151.1180  141.3480  156.2579 C   0  0  2  0  0  0  0  0  0  0  0  0
  149.8167  141.6753  155.7777 O   0  0  0  0  0  0  0  0  0  0  0  0
  149.3307  140.6395  154.9278 C   0  0  0  0  0  0  0  0  0  0  0  0
  150.4919  139.6641  154.7579 C   0  0  0  0  0  0  0  0  0  0  0  0
  151.2557  139.8258  156.0669 C   0  0  1  0  0  0  0  0  0  0  0  0
  152.6115  139.4770  155.8558 O   0  0  0  0  0  0  0  0  0  0  0  0
  150.6806  138.9852  157.2393 C   0  0  0  0  0  0  0  0  0  0  0  0
  150.3142  137.6287  156.8640 N   0  0  0  0  0  0  0  0  0  0  0  0
  150.9817  136.4708  157.1945 C   0  0  0  0  0  0  0  0  0  0  0  0
  150.4494  135.3709  156.7356 N   0  0  0  0  0  0  0  0  0  0  0  0
  149.3280  135.8036  156.0382 C   0  0  0  0  0  0  0  0  0  0  0  0
  148.3038  135.1514  155.2953 C   0  0  0  0  0  0  0  0  0  0  0  0
  148.2193  133.8180  155.1028 N   0  0  0  0  0  0  0  0  0  0  0  0
  149.4435  133.1963  154.6024 C   0  0  0  0  0  0  0  0  0  0  0  0
  149.0003  132.0298  153.7164 C   0  0  0  0  0  0  0  0  0  0  0  0
  147.6772  132.5651  153.1638 C   0  0  1  0  0  0  0  0  0  0  0  0
  146.7762  131.6091  152.4475 N   0  3  1  0  0  0  0  0  0  0  0  0
  146.5768  130.3616  153.2267 C   0  0  0  0  0  0  0  0  0  0  0  0
  145.4924  132.1828  151.9538 C   0  0  0  0  0  0  0  0  0  0  0  0
  145.6246  132.8605  150.5779 C   0  0  0  0  0  0  0  0  0  0  0  0
  146.1938  131.9660  149.6460 O   0  0  0  0  0  0  0  0  0  0  0  0
  147.0617  133.3273  154.3546 C   0  0  1  0  0  0  0  0  0  0  0  0
  146.1566  132.5137  155.2941 C   0  0  0  0  0  0  0  0  0  0  0  0
  147.3270  135.9153  154.7490 N   0  0  0  0  0  0  0  0  0  0  0  0
  147.3525  137.2426  154.9048 C   0  0  0  0  0  0  0  0  0  0  0  0
  148.2443  137.9895  155.5596 N   0  0  0  0  0  0  0  0  0  0  0  0
  149.2230  137.2202  156.1176 C   0  0  0  0  0  0  0  0  0  0  0  0
  147.9481  133.3441  152.4487 H   0  0  0  0  0  0  0  0  0  0  0  0
  146.4643  134.1544  153.9682 H   0  0  0  0  0  0  0  0  0  0  0  0
  152.3085  141.6111  158.0651 H   0  0  0  0  0  0  0  0  0  0  0  0
  150.5731  141.5087  158.3719 H   0  0  0  0  0  0  0  0  0  0  0  0
  151.2603  142.9754  157.6928 H   0  0  0  0  0  0  0  0  0  0  0  0
  151.8212  141.8506  155.5910 H   0  0  0  0  0  0  0  0  0  0  0  0
  148.4871  140.1523  155.4179 H   0  0  0  0  0  0  0  0  0  0  0  0
  148.9834  141.0377  153.9743 H   0  0  0  0  0  0  0  0  0  0  0  0
  150.1699  138.6472  154.5367 H   0  0  0  0  0  0  0  0  0  0  0  0
  151.1078  139.9947  153.9197 H   0  0  0  0  0  0  0  0  0  0  0  0
  152.7296  138.5724  156.1021 H   0  0  0  0  0  0  0  0  0  0  0  0
  151.4039  138.9220  158.0534 H   0  0  0  0  0  0  0  0  0  0  0  0
  149.7980  139.4712  157.6565 H   0  0  0  0  0  0  0  0  0  0  0  0
  151.8845  136.4687  157.7878 H   0  0  0  0  0  0  0  0  0  0  0  0
  150.0236  133.9118  154.0170 H   0  0  0  0  0  0  0  0  0  0  0  0
  150.0706  132.8556  155.4267 H   0  0  0  0  0  0  0  0  0  0  0  0
  149.7260  131.7917  152.9382 H   0  0  0  0  0  0  0  0  0  0  0  0
  148.8640  131.1463  154.3390 H   0  0  0  0  0  0  0  0  0  0  0  0
  146.0389  130.5650  154.1536 H   0  0  0  0  0  0  0  0  0  0  0  0
  147.5342  129.9056  153.4819 H   0  0  0  0  0  0  0  0  0  0  0  0
  146.0181  129.6145  152.6658 H   0  0  0  0  0  0  0  0  0  0  0  0
  144.7381  131.3959  151.9105 H   0  0  0  0  0  0  0  0  0  0  0  0
  145.1113  132.9294  152.6476 H   0  0  0  0  0  0  0  0  0  0  0  0
  144.6722  133.2302  150.2003 H   0  0  0  0  0  0  0  0  0  0  0  0
  146.2818  133.7266  150.6598 H   0  0  0  0  0  0  0  0  0  0  0  0
  146.8641  131.4614  150.0822 H   0  0  0  0  0  0  0  0  0  0  0  0
  145.2874  132.1182  154.7702 H   0  0  0  0  0  0  0  0  0  0  0  0
  145.7831  133.1424  156.1030 H   0  0  0  0  0  0  0  0  0  0  0  0
  146.6915  131.6829  155.7539 H   0  0  0  0  0  0  0  0  0  0  0  0
  146.5431  137.7838  154.4371 H   0  0  0  0  0  0  0  0  0  0  0  0
  147.2890  131.3330  151.6218 H   0  0  0  0  0  0  0  0  0  0  0  0
  1  2  1  0  0  0  0
  1 31  1  0  0  0  0
  1 32  1  0  0  0  0
  1 33  1  0  0  0  0
  2  6  1  0  0  0  0
  2  3  1  0  0  0  0
  2 34  1  0  0  0  0
  3  4  1  0  0  0  0
  4  5  1  0  0  0  0
  4 35  1  0  0  0  0
  4 36  1  0  0  0  0
  5  6  1  0  0  0  0
  5 37  1  0  0  0  0
  5 38  1  0  0  0  0
  6  7  1  0  0  0  0
  6  8  1  0  0  0  0
  7 39  1  0  0  0  0
  8  9  1  0  0  0  0
  8 40  1  0  0  0  0
  8 41  1  0  0  0  0
  9 28  1  0  0  0  0
  9 10  1  0  0  0  0
 10 11  2  0  0  0  0
 10 42  1  0  0  0  0
 11 12  1  0  0  0  0
 12 28  2  0  0  0  0
 12 13  1  0  0  0  0
 13 14  1  0  0  0  0
 13 25  2  0  0  0  0
 14 23  1  0  0  0  0
 14 15  1  0  0  0  0
 15 16  1  0  0  0  0
 15 43  1  0  0  0  0
 15 44  1  0  0  0  0
 16 17  1  0  0  0  0
 16 45  1  0  0  0  0
 16 46  1  0  0  0  0
 17 29  1  0  0  0  0
 17 18  1  0  0  0  0
 17 23  1  0  0  0  0
 18 19  1  0  0  0  0
 18 20  1  0  0  0  0
 18 59  1  0  0  0  0
 19 47  1  0  0  0  0
 19 48  1  0  0  0  0
 19 49  1  0  0  0  0
 20 21  1  0  0  0  0
 20 50  1  0  0  0  0
 20 51  1  0  0  0  0
 21 22  1  0  0  0  0
 21 52  1  0  0  0  0
 21 53  1  0  0  0  0
 22 54  1  0  0  0  0
 23 30  1  0  0  0  0
 23 24  1  0  0  0  0
 24 55  1  0  0  0  0
 24 56  1  0  0  0  0
 24 57  1  0  0  0  0
 25 26  1  0  0  0  0
 26 27  2  0  0  0  0
 26 58  1  0  0  0  0
 27 28  1  0  0  0  0
M  CHG  1  18   1
M  END
> <s_m_source_file>
AV-unprocessed.smi

> <i_m_source_file_index>
290

> <i_lp_mmshare_version>
43012

> <i_f3d_flags>
0

> <s_epik_input>
W0NIMl0xW0NIMl1PW0NAQEhdKFtDSDNdKVtDQEBdMShbT0hdKVtDSDJdbihbY0hdbjIpYyhjMjMpbltjSF1uYzNONFtDSDJdW0NIMl1bQ0BIXShbQ0BIXTRbQ0gzXSlOKFtDSDNdKVtDSDJdW0NIMl1bT0hd

> <s_epik_cmdline>
J2VwaWtfcHl0aG9uJywgJy1waCcsICc3LjAnLCAnLXRuJywgJzgnLCAnLW1hJywgJzIwMCcsICctbWV0YWxfYmluZGluZycsICctaW1hZScsICc8aW5maWxlLm1hZT4nLCAnLW9tYWUnLCAnPG91dGZpbGUubWFlPic=

> <r_lp_tautomer_probability>
1

> <r_epik_Ionization_Penalty>
0.0036983

> <r_epik_Ionization_Penalty_Charging>
0.0032725

> <r_epik_Ionization_Penalty_Neutral>
0.000425798

> <r_epik_State_Penalty>
-0

> <r_epik_Charging_Adjusted_Penalty>
0.0032725

> <i_epik_Tot_Q>
1

> <i_epik_Tot_abs_Q>
1

> <r_epik_Metal_State_Penalty>
-0

> <b_epik_Metal_Only>
0

> <s_lp_Force_Field>
OPLS_2005

> <r_lp_Energy>
65.3188

> <b_lp_Chiralities_Consistent>
1

> <s_lp_Variant>
AV-unprocessed.smi:290-1

> <Gold.Version>
5.8.1

> <Gold.Id.Protein>
6NUR|6NUR_protein|mol2

> <Gold.PLP.Fitness>
44.4510

> <Gold.PLP.PLP>
-37.0801

> <Gold.PLP.part.hbond>
-2.9788

> <Gold.PLP.part.metal>
0.0000

> <Gold.PLP.part.buried>
-4.9440

> <Gold.PLP.part.nonpolar>
-29.1521

> <Gold.PLP.part.repulsive>
1.1747

> <Gold.PLP.ligand.clash>
0.0000

> <Gold.PLP.ligand.torsion>
0.9927

> <Gold.PLP.Chemscore.Hbond>
3.0000

> <Gold.PLP.Chemscore.CHOScore>
0.0000

> <Gold.PLP.Chemscore.Metal>
0.0000

> <Gold.Chemscore.Hbonds>
donor molecule, donor type, donor heavy atom, donor atom, acceptor molecule, acceptor atom, score
      L1  H    18    59       P1 10747  0.55
      L1  H    22    54       P1 10747  0.58
      P1  H  7997  8010       L1     7  0.85

> <Gold.PLP.Chemscore.Internal.Correction>
0.3562

> <Gold.Rescore>
     Score         DG    S(hbond)    S(metal)    S(lipo)     H(rot)  DE(clash)    DE(int)     intcor
     14.70     -15.72       2.99        0.00      82.49       3.67       0.04       0.98       ----

> <Gold.Chemscore.Fitness>
14.6961

> <Gold.Chemscore.DG>
-15.7223

> <Gold.Chemscore.ZeroCoef>
-5.4800

> <Gold.Chemscore.Hbond>
2.9865

> <Gold.Chemscore.Metal>
0.0000

> <Gold.Chemscore.Lipo>
82.4939

> <Gold.Chemscore.Internal_Hbond>
0.0000

> <Gold.Chemscore.DEClash>
0.0438

> <Gold.Chemscore.DEInternal>
0.9824

> <Gold.Chemscore.Rot>
3.6658

> <Gold.Chemscore.Internal.Correction>
   9.000000E+99

> <Gold.Chemscore.Hbonds>
donor molecule, donor type, donor heavy atom, donor atom, acceptor molecule, acceptor atom, score
      L1  H    18    59       P1 10747  0.54
      L1  H    22    54       P1 10747  0.54
      P1  H  7997  8010       L1     7  0.14

> <Gold.Chemscore.Hbond.Weighted>
-9.9749

> <Gold.Chemscore.Metal.Weighted>
-0.0000

> <Gold.Chemscore.Lipo.Weighted>
-9.6518

> <Gold.Chemscore.Internal_Hbond.Weighted>
0.0000

> <Gold.Chemscore.DEClash.Weighted>
0.0438

> <Gold.Chemscore.DEInternal.Weighted>
0.9824

> <Gold.Chemscore.Rot.Weighted>
9.3844

> <Gold.Chemscore.Internal.Correction.Weighted>
   9.000000E+99

> <Gold.Protein.RotatedTorsions>
[ 6907 6896 6895 6894 ] final  163.90 input  -60.11 | X-H torsion
[ 7974 7965 7964 7962 ] final   39.17 input  175.53 | X-H torsion
[ 8008 7997 7996 7995 ] final   70.06 input   59.86 | X-H torsion
[ 10167 10162 10161 10158 ] final  123.67 input  -65.29 | X-H torsion
[ 10718 10713 10712 10709 ] final -161.23 input   66.30 | X-H torsion
[ 10763 10752 10751 10750 ] final  -37.43 input  -60.55 | X-H torsion
[ 11005 11000 10999 10996 ] final  172.16 input  -57.11 | X-H torsion

> <Gold.Protein.ActiveResidues>
 VAL166  LYS551  ARG553  GLY616  TRP617  ASP618  TYR619  PRO620  LYS621  CYS622 
 ASP623  PHE694  ASN695  SER759  ASP760  ASP761  ALA762  ILE779  LEU786  VAL792 
 PHE793  MET794  SER795  GLU796  ALA797  LYS798  CYS799  TRP800  GLU811  SER814 

> <Gold.Protein.RotatedAtoms>
  151.9182  133.3578  159.3887 H   0  0  0  0  0  0  0  0  0  0  0  0  # atno 6907 bound_to 6896
  150.7043  134.4663  159.5413 H   0  0  0  0  0  0  0  0  0  0  0  0  # atno 6908 bound_to 6896
  152.2281  134.8348  160.0528 H   0  0  0  0  0  0  0  0  0  0  0  0  # atno 6909 bound_to 6896
  146.1005  139.5684  142.9417 H   0  0  0  0  0  0  0  0  0  0  0  0  # atno 7974 bound_to 7965
  155.7330  140.3491  155.5068 H   0  0  0  0  0  0  0  0  0  0  0  0  # atno 8008 bound_to 7997
  155.9165  140.1059  157.1261 H   0  0  0  0  0  0  0  0  0  0  0  0  # atno 8009 bound_to 7997
  154.4063  140.1258  156.4610 H   0  0  0  0  0  0  0  0  0  0  0  0  # atno 8010 bound_to 7997
  139.5786  144.6975  151.3588 H   0  0  0  0  0  0  0  0  0  0  0  0  # atno 10167 bound_to 10162
  156.5933  130.8779  151.2895 H   0  0  0  0  0  0  0  0  0  0  0  0  # atno 10718 bound_to 10713
  153.8961  135.6807  153.4758 H   0  0  0  0  0  0  0  0  0  0  0  0  # atno 10763 bound_to 10752
  153.1154  135.4764  154.9104 H   0  0  0  0  0  0  0  0  0  0  0  0  # atno 10764 bound_to 10752
  154.7598  135.3207  154.8354 H   0  0  0  0  0  0  0  0  0  0  0  0  # atno 10765 bound_to 10752
  140.3267  134.7392  157.4104 H   0  0  0  0  0  0  0  0  0  0  0  0  # atno 11005 bound_to 11000
  145.5863  141.0376  143.2094 LP  0  0  0  0  0  0  0  0  0  0  0  0  # atno 17320 bound_to 7965
  144.7429  139.7399  143.7304 LP  0  0  0  0  0  0  0  0  0  0  0  0  # atno 17321 bound_to 7965
  140.7066  143.7497  150.7493 LP  0  0  0  0  0  0  0  0  0  0  0  0  # atno 17342 bound_to 10162
  140.1023  143.4776  152.2418 LP  0  0  0  0  0  0  0  0  0  0  0  0  # atno 17343 bound_to 10162
  157.7298  130.9676  150.1804 LP  0  0  0  0  0  0  0  0  0  0  0  0  # atno 17370 bound_to 10713
  156.2531  130.3702  149.8211 LP  0  0  0  0  0  0  0  0  0  0  0  0  # atno 17371 bound_to 10713
  140.0895  134.5620  155.8458 LP  0  0  0  0  0  0  0  0  0  0  0  0  # atno 17394 bound_to 11000
  141.2073  133.6663  156.6300 LP  0  0  0  0  0  0  0  0  0  0  0  0  # atno 17395 bound_to 11000

$$$$
