AV-unprocessed.smi:2607|AV-procd|sdf|10203|dock9
  -GOLD-   2272014213D 1   1.00000     0.00000
 Structure written by MMmdl.
 21 22  0  0  0  0  0  0  0  0  2 V2000
  150.2338  139.5103  157.9319 C   0  0  0  0  0  0  0  0  0  0  0  0
  150.2327  140.8498  157.1667 C   0  0  2  0  0  0  0  0  0  0  0  0
  151.1495  141.8779  157.8599 C   0  0  0  0  0  0  0  0  0  0  0  0
  151.3145  143.2054  157.3840 C   0  0  0  0  0  0  0  0  0  0  0  0
  152.1130  144.1011  158.0073 N   0  0  0  0  0  0  0  0  0  0  0  0
  152.7518  143.6738  159.1173 C   0  0  0  0  0  0  0  0  0  0  0  0
  152.5921  142.3608  159.6040 C   0  0  0  0  0  0  0  0  0  0  0  0
  151.7939  141.4666  158.9822 N   0  0  0  0  0  0  0  0  0  0  0  0
  148.8547  141.3054  157.0168 N   0  5  0  0  0  0  0  0  0  0  0  0
  148.5605  141.4124  155.7004 C   0  0  0  0  0  0  0  0  0  0  0  0
  147.5069  141.7896  155.1927 O   0  0  0  0  0  0  0  0  0  0  0  0
  149.6014  141.0345  154.9548 N   0  0  0  0  0  0  0  0  0  0  0  0
  150.6308  140.6530  155.7042 C   0  0  0  0  0  0  0  0  0  0  0  0
  151.7048  140.2036  155.3039 O   0  0  0  0  0  0  0  0  0  0  0  0
  151.2381  139.0916  158.0054 H   0  0  0  0  0  0  0  0  0  0  0  0
  149.6064  138.7634  157.4428 H   0  0  0  0  0  0  0  0  0  0  0  0
  149.8594  139.6396  158.9479 H   0  0  0  0  0  0  0  0  0  0  0  0
  150.8084  143.5690  156.5024 H   0  0  0  0  0  0  0  0  0  0  0  0
  153.3916  144.3828  159.6212 H   0  0  0  0  0  0  0  0  0  0  0  0
  153.1047  142.0277  160.4941 H   0  0  0  0  0  0  0  0  0  0  0  0
  149.5969  141.0172  153.9460 H   0  0  0  0  0  0  0  0  0  0  0  0
  1  2  1  0  0  0  0
  1 15  1  0  0  0  0
  1 16  1  0  0  0  0
  1 17  1  0  0  0  0
  2 13  1  0  0  0  0
  2  3  1  0  0  0  0
  2  9  1  0  0  0  0
  3  8  1  0  0  0  0
  3  4  2  0  0  0  0
  4  5  1  0  0  0  0
  4 18  1  0  0  0  0
  5  6  2  0  0  0  0
  6  7  1  0  0  0  0
  6 19  1  0  0  0  0
  7  8  2  0  0  0  0
  7 20  1  0  0  0  0
  9 10  1  0  0  0  0
 10 11  2  0  0  0  0
 10 12  1  0  0  0  0
 12 13  1  0  0  0  0
 12 21  1  0  0  0  0
 13 14  2  0  0  0  0
M  CHG  1   9  -1
M  END
> <s_m_source_file>
AV-unprocessed.smi

> <i_m_source_file_index>
2607

> <i_lp_mmshare_version>
43012

> <i_f3d_flags>
0

> <s_epik_input>
Tz1DMVtOSF1DKD1PKVtOSF1bQ0BAXTEoW0NIM10pYzJbY0hdbltjSF1bY0hdbjI=

> <s_epik_cmdline>
J2VwaWtfcHl0aG9uJywgJy1waCcsICc3LjAnLCAnLXRuJywgJzgnLCAnLW1hJywgJzIwMCcsICctbWV0YWxfYmluZGluZycsICctaW1hZScsICc8aW5maWxlLm1hZT4nLCAnLW9tYWUnLCAnPG91dGZpbGUubWFlPic=

> <r_lp_tautomer_probability>
1

> <r_epik_Ionization_Penalty>
4.70687

> <r_epik_Ionization_Penalty_Charging>
4.70687

> <r_epik_Ionization_Penalty_Neutral>
2.29475e-06

> <r_epik_State_Penalty>
4.73416

> <r_epik_Charging_Adjusted_Penalty>
9.44103

> <i_epik_Tot_Q>
-1

> <i_epik_Tot_abs_Q>
1

> <r_epik_Metal_State_Penalty>
1.2389

> <b_epik_Metal_Only>
1

> <s_lp_Force_Field>
OPLS_2005

> <r_lp_Energy>
21.97

> <b_lp_Chiralities_Consistent>
1

> <s_lp_Variant>
AV-unprocessed.smi:2607-6

> <Gold.Version>
5.8.1

> <Gold.Id.Protein>
6NUR|6NUR_protein|mol2

> <Gold.PLP.Fitness>
28.8202

> <Gold.PLP.PLP>
-23.1329

> <Gold.PLP.part.hbond>
-1.0000

> <Gold.PLP.part.metal>
0.0000

> <Gold.PLP.part.buried>
-5.9445

> <Gold.PLP.part.nonpolar>
-17.5995

> <Gold.PLP.part.repulsive>
0.4410

> <Gold.PLP.ligand.clash>
0.0000

> <Gold.PLP.ligand.torsion>
0.0274

> <Gold.PLP.Chemscore.Hbond>
0.8960

> <Gold.PLP.Chemscore.CHOScore>
1.0000

> <Gold.PLP.Chemscore.Metal>
0.0000

> <Gold.Chemscore.Hbonds>
donor molecule, donor type, donor heavy atom, donor atom, acceptor molecule, acceptor atom, score
      P1  H  7989  7998       L1    14  0.85
      L1  C     4    18       P1  8028  1.00

> <Gold.PLP.Chemscore.Internal.Correction>
0.0541

> <Gold.Rescore>
     Score         DG    S(hbond)    S(metal)    S(lipo)     H(rot)  DE(clash)    DE(int)     intcor
     12.22     -12.30       0.98        0.00      52.17       1.00       0.04       0.04       ----

> <Gold.Chemscore.Fitness>
12.2162

> <Gold.Chemscore.DG>
-12.2987

> <Gold.Chemscore.ZeroCoef>
-5.4800

> <Gold.Chemscore.Hbond>
0.9806

> <Gold.Chemscore.Metal>
0.0000

> <Gold.Chemscore.Lipo>
52.1666

> <Gold.Chemscore.Internal_Hbond>
0.0000

> <Gold.Chemscore.DEClash>
0.0442

> <Gold.Chemscore.DEInternal>
0.0383

> <Gold.Chemscore.Rot>
1.0000

> <Gold.Chemscore.Internal.Correction>
   9.000000E+99

> <Gold.Chemscore.Hbonds>
donor molecule, donor type, donor heavy atom, donor atom, acceptor molecule, acceptor atom, score
      P1  H  7989  7998       L1    14  0.19

> <Gold.Chemscore.Hbond.Weighted>
-3.2752

> <Gold.Chemscore.Metal.Weighted>
-0.0000

> <Gold.Chemscore.Lipo.Weighted>
-6.1035

> <Gold.Chemscore.Internal_Hbond.Weighted>
0.0000

> <Gold.Chemscore.DEClash.Weighted>
0.0442

> <Gold.Chemscore.DEInternal.Weighted>
0.0383

> <Gold.Chemscore.Rot.Weighted>
2.5600

> <Gold.Chemscore.Internal.Correction.Weighted>
   9.000000E+99

> <Gold.Protein.RotatedTorsions>
[ 6907 6896 6895 6894 ] final -162.81 input  -60.11 | X-H torsion
[ 7974 7965 7964 7962 ] final   11.89 input  175.53 | X-H torsion
[ 8008 7997 7996 7995 ] final   -5.72 input   59.86 | X-H torsion
[ 10167 10162 10161 10158 ] final  -39.60 input  -65.29 | X-H torsion
[ 10718 10713 10712 10709 ] final   78.30 input   66.30 | X-H torsion
[ 10763 10752 10751 10750 ] final  -80.91 input  -60.55 | X-H torsion
[ 11005 11000 10999 10996 ] final  -77.78 input  -57.11 | X-H torsion

> <Gold.Protein.ActiveResidues>
 VAL166  LYS551  ARG553  GLY616  TRP617  ASP618  TYR619  PRO620  LYS621  CYS622 
 ASP623  PHE694  ASN695  SER759  ASP760  ASP761  ALA762  ILE779  LEU786  VAL792 
 PHE793  MET794  SER795  GLU796  ALA797  LYS798  CYS799  TRP800  GLU811  SER814 

> <Gold.Protein.RotatedAtoms>
  151.3861  133.3804  159.2715 H   0  0  0  0  0  0  0  0  0  0  0  0  # atno 6907 bound_to 6896
  150.9540  134.8938  159.7700 H   0  0  0  0  0  0  0  0  0  0  0  0  # atno 6908 bound_to 6896
  152.5123  134.3817  159.9406 H   0  0  0  0  0  0  0  0  0  0  0  0  # atno 6909 bound_to 6896
  146.2362  139.9417  142.8482 H   0  0  0  0  0  0  0  0  0  0  0  0  # atno 7974 bound_to 7965
  154.6011  140.2451  155.7792 H   0  0  0  0  0  0  0  0  0  0  0  0  # atno 8008 bound_to 7997
  156.2311  140.2966  156.0143 H   0  0  0  0  0  0  0  0  0  0  0  0  # atno 8009 bound_to 7997
  155.2210  140.0400  157.2938 H   0  0  0  0  0  0  0  0  0  0  0  0  # atno 8010 bound_to 7997
  140.7059  143.3204  151.2806 H   0  0  0  0  0  0  0  0  0  0  0  0  # atno 10167 bound_to 10162
  157.6740  130.9861  150.1766 H   0  0  0  0  0  0  0  0  0  0  0  0  # atno 10718 bound_to 10713
  154.5570  135.5645  153.6973 H   0  0  0  0  0  0  0  0  0  0  0  0  # atno 10763 bound_to 10752
  153.0006  135.6264  154.2296 H   0  0  0  0  0  0  0  0  0  0  0  0  # atno 10764 bound_to 10752
  154.2233  135.2869  155.2896 H   0  0  0  0  0  0  0  0  0  0  0  0  # atno 10765 bound_to 10752
  141.1662  133.7036  156.7873 H   0  0  0  0  0  0  0  0  0  0  0  0  # atno 11005 bound_to 11000
  145.1946  140.9827  143.4191 LP  0  0  0  0  0  0  0  0  0  0  0  0  # atno 17320 bound_to 7965
  144.9827  139.3767  143.6254 LP  0  0  0  0  0  0  0  0  0  0  0  0  # atno 17321 bound_to 7965
  139.6656  144.0111  152.2721 LP  0  0  0  0  0  0  0  0  0  0  0  0  # atno 17342 bound_to 10162
  139.9692  144.6505  150.8005 LP  0  0  0  0  0  0  0  0  0  0  0  0  # atno 17343 bound_to 10162
  156.2508  130.3700  149.8235 LP  0  0  0  0  0  0  0  0  0  0  0  0  # atno 17370 bound_to 10713
  156.6008  130.8546  151.3431 LP  0  0  0  0  0  0  0  0  0  0  0  0  # atno 17371 bound_to 10713
  140.2351  134.8656  157.3517 LP  0  0  0  0  0  0  0  0  0  0  0  0  # atno 17394 bound_to 11000
  140.1852  134.4440  155.7748 LP  0  0  0  0  0  0  0  0  0  0  0  0  # atno 17395 bound_to 11000

$$$$
