AV-unprocessed.smi:1130|AV-procd|sdf|4848|dock6
  -GOLD-   22720 3413D 1   1.00000     0.00000
 Structure written by MMmdl.
 36 37  0  0  0  0  0  0  0  0  1 V2000
  144.5044  145.0210  153.6749 C   0  0  0  0  0  0  0  0  0  0  0  0
  145.0793  143.7282  154.1443 C   0  0  0  0  0  0  0  0  0  0  0  0
  144.7276  143.1997  155.3102 N   0  0  0  0  0  0  0  0  0  0  0  0
  145.4758  142.0149  155.3669 O   0  0  0  0  0  0  0  0  0  0  0  0
  146.2081  141.9855  154.2275 C   0  0  0  0  0  0  0  0  0  0  0  0
  147.0838  140.8071  153.9619 C   0  0  0  0  0  0  0  0  0  0  0  0
  148.5516  141.2084  153.7473 C   0  0  0  0  0  0  0  0  0  0  0  0
  149.0875  141.9312  154.8949 N   0  0  0  0  0  0  0  0  0  0  0  0
  150.1464  141.5447  155.6195 C   0  0  0  0  0  0  0  0  0  0  0  0
  150.7910  140.5177  155.4064 O   0  0  0  0  0  0  0  0  0  0  0  0
  150.4172  142.4115  156.6046 N   0  0  0  0  0  0  0  0  0  0  0  0
  151.5089  142.2739  157.5620 C   0  0  0  0  0  0  0  0  0  0  0  0
  151.3576  143.2318  158.7563 C   0  0  2  0  0  0  0  0  0  0  0  0
  151.3975  144.7199  158.3968 C   0  0  0  0  0  0  0  0  0  0  0  0
  152.0234  145.3803  159.6179 C   0  0  0  0  0  0  0  0  0  0  0  0
  152.4273  144.2089  160.5151 C   0  0  0  0  0  0  0  0  0  0  0  0
  152.4544  143.0891  159.6443 O   0  0  0  0  0  0  0  0  0  0  0  0
  145.9886  143.0201  153.4197 N   0  0  0  0  0  0  0  0  0  0  0  0
  143.5260  145.1956  154.1240 H   0  0  0  0  0  0  0  0  0  0  0  0
  144.3871  145.0143  152.5909 H   0  0  0  0  0  0  0  0  0  0  0  0
  145.1634  145.8455  153.9477 H   0  0  0  0  0  0  0  0  0  0  0  0
  147.0011  140.1165  154.8020 H   0  0  0  0  0  0  0  0  0  0  0  0
  146.6997  140.2821  153.0864 H   0  0  0  0  0  0  0  0  0  0  0  0
  149.1627  140.3280  153.5401 H   0  0  0  0  0  0  0  0  0  0  0  0
  148.6346  141.8559  152.8740 H   0  0  0  0  0  0  0  0  0  0  0  0
  148.6240  142.7913  155.1492 H   0  0  0  0  0  0  0  0  0  0  0  0
  149.8292  143.2268  156.6990 H   0  0  0  0  0  0  0  0  0  0  0  0
  151.5720  141.2421  157.9113 H   0  0  0  0  0  0  0  0  0  0  0  0
  152.4434  142.4786  157.0387 H   0  0  0  0  0  0  0  0  0  0  0  0
  150.4413  143.0100  159.3071 H   0  0  0  0  0  0  0  0  0  0  0  0
  152.0315  144.8884  157.5253 H   0  0  0  0  0  0  0  0  0  0  0  0
  150.4058  145.1113  158.1687 H   0  0  0  0  0  0  0  0  0  0  0  0
  152.8964  145.9640  159.3239 H   0  0  0  0  0  0  0  0  0  0  0  0
  151.3293  146.0488  160.1283 H   0  0  0  0  0  0  0  0  0  0  0  0
  153.3917  144.3620  160.9999 H   0  0  0  0  0  0  0  0  0  0  0  0
  151.6783  144.0414  161.2908 H   0  0  0  0  0  0  0  0  0  0  0  0
  1  2  1  0  0  0  0
  1 19  1  0  0  0  0
  1 20  1  0  0  0  0
  1 21  1  0  0  0  0
  2 18  1  0  0  0  0
  2  3  2  0  0  0  0
  3  4  1  0  0  0  0
  4  5  1  0  0  0  0
  5  6  1  0  0  0  0
  5 18  2  0  0  0  0
  6  7  1  0  0  0  0
  6 22  1  0  0  0  0
  6 23  1  0  0  0  0
  7  8  1  0  0  0  0
  7 24  1  0  0  0  0
  7 25  1  0  0  0  0
  8  9  1  0  0  0  0
  8 26  1  0  0  0  0
  9 10  2  0  0  0  0
  9 11  1  0  0  0  0
 11 12  1  0  0  0  0
 11 27  1  0  0  0  0
 12 13  1  0  0  0  0
 12 28  1  0  0  0  0
 12 29  1  0  0  0  0
 13 17  1  0  0  0  0
 13 14  1  0  0  0  0
 13 30  1  0  0  0  0
 14 15  1  0  0  0  0
 14 31  1  0  0  0  0
 14 32  1  0  0  0  0
 15 16  1  0  0  0  0
 15 33  1  0  0  0  0
 15 34  1  0  0  0  0
 16 17  1  0  0  0  0
 16 35  1  0  0  0  0
 16 36  1  0  0  0  0
M  END
> <s_m_source_file>
AV-unprocessed.smi

> <i_m_source_file_index>
1130

> <i_lp_mmshare_version>
43012

> <i_f3d_flags>
0

> <s_epik_input>
W0NIM11jMW5vYyhuMSlbQ0gyXVtDSDJdW05IXUMoPU8pW05IXVtDSDJdW0NAQEhdMltDSDJdW0NIMl1bQ0gyXU8y

> <s_epik_cmdline>
J2VwaWtfcHl0aG9uJywgJy1waCcsICc3LjAnLCAnLXRuJywgJzgnLCAnLW1hJywgJzIwMCcsICctbWV0YWxfYmluZGluZycsICctaW1hZScsICc8aW5maWxlLm1hZT4nLCAnLW9tYWUnLCAnPG91dGZpbGUubWFlPic=

> <r_lp_tautomer_probability>
1

> <r_epik_Ionization_Penalty>
4.67036e-05

> <r_epik_Ionization_Penalty_Charging>
0

> <r_epik_Ionization_Penalty_Neutral>
4.67036e-05

> <r_epik_State_Penalty>
-0

> <r_epik_Charging_Adjusted_Penalty>
0

> <i_epik_Tot_Q>
0

> <i_epik_Tot_abs_Q>
0

> <r_epik_Metal_State_Penalty>
-0

> <b_epik_Metal_Only>
0

> <s_lp_Force_Field>
OPLS_2005

> <r_lp_Energy>
8.95109

> <b_lp_Chiralities_Consistent>
1

> <s_lp_Variant>
AV-unprocessed.smi:1130-1

> <Gold.Version>
5.8.1

> <Gold.Id.Protein>
6NUR|6NUR_protein|mol2

> <Gold.PLP.Fitness>
44.0429

> <Gold.PLP.PLP>
-36.6846

> <Gold.PLP.part.hbond>
-3.0000

> <Gold.PLP.part.metal>
0.0000

> <Gold.PLP.part.buried>
-5.1267

> <Gold.PLP.part.nonpolar>
-28.9164

> <Gold.PLP.part.repulsive>
0.8308

> <Gold.PLP.ligand.clash>
0.0000

> <Gold.PLP.ligand.torsion>
0.0903

> <Gold.PLP.Chemscore.Hbond>
2.5037

> <Gold.PLP.Chemscore.CHOScore>
0.0000

> <Gold.PLP.Chemscore.Metal>
0.0000

> <Gold.Chemscore.Hbonds>
donor molecule, donor type, donor heavy atom, donor atom, acceptor molecule, acceptor atom, score
      L1  H     8    26       P1  8028  0.91
      L1  H    11    27       P1  8028  0.86
      P1  H  7989  7998       L1    10  0.76

> <Gold.PLP.Chemscore.Internal.Correction>
0.0278

> <Gold.Rescore>
     Score         DG    S(hbond)    S(metal)    S(lipo)     H(rot)  DE(clash)    DE(int)     intcor
     15.58     -16.10       2.29        0.00      76.25       2.33       0.41       0.12       ----

> <Gold.Chemscore.Fitness>
15.5767

> <Gold.Chemscore.DG>
-16.1007

> <Gold.Chemscore.ZeroCoef>
-5.4800

> <Gold.Chemscore.Hbond>
2.2937

> <Gold.Chemscore.Metal>
0.0000

> <Gold.Chemscore.Lipo>
76.2517

> <Gold.Chemscore.Internal_Hbond>
0.0000

> <Gold.Chemscore.DEClash>
0.4059

> <Gold.Chemscore.DEInternal>
0.1182

> <Gold.Chemscore.Rot>
2.3288

> <Gold.Chemscore.Internal.Correction>
   9.000000E+99

> <Gold.Chemscore.Hbonds>
donor molecule, donor type, donor heavy atom, donor atom, acceptor molecule, acceptor atom, score
      L1  H     8    26       P1  8028  0.86
      L1  H    11    27       P1  8028  0.79
      P1  H  7989  7998       L1    10  0.29

> <Gold.Chemscore.Hbond.Weighted>
-7.6609

> <Gold.Chemscore.Metal.Weighted>
-0.0000

> <Gold.Chemscore.Lipo.Weighted>
-8.9214

> <Gold.Chemscore.Internal_Hbond.Weighted>
0.0000

> <Gold.Chemscore.DEClash.Weighted>
0.4059

> <Gold.Chemscore.DEInternal.Weighted>
0.1182

> <Gold.Chemscore.Rot.Weighted>
5.9617

> <Gold.Chemscore.Internal.Correction.Weighted>
   9.000000E+99

> <Gold.Protein.RotatedTorsions>
[ 6907 6896 6895 6894 ] final   52.06 input  -60.11 | X-H torsion
[ 7974 7965 7964 7962 ] final   71.74 input  175.53 | X-H torsion
[ 8008 7997 7996 7995 ] final -128.93 input   59.86 | X-H torsion
[ 10167 10162 10161 10158 ] final -137.53 input  -65.29 | X-H torsion
[ 10718 10713 10712 10709 ] final   32.72 input   66.30 | X-H torsion
[ 10763 10752 10751 10750 ] final   64.90 input  -60.55 | X-H torsion
[ 11005 11000 10999 10996 ] final  -75.82 input  -57.11 | X-H torsion

> <Gold.Protein.ActiveResidues>
 VAL166  LYS551  ARG553  GLY616  TRP617  ASP618  TYR619  PRO620  LYS621  CYS622 
 ASP623  PHE694  ASN695  SER759  ASP760  ASP761  ALA762  ILE779  LEU786  VAL792 
 PHE793  MET794  SER795  GLU796  ALA797  LYS798  CYS799  TRP800  GLU811  SER814 

> <Gold.Protein.RotatedAtoms>
  152.3193  134.7400  160.0317 H   0  0  0  0  0  0  0  0  0  0  0  0  # atno 6907 bound_to 6896
  151.7854  133.3348  159.3492 H   0  0  0  0  0  0  0  0  0  0  0  0  # atno 6908 bound_to 6896
  150.7361  134.5823  159.5989 H   0  0  0  0  0  0  0  0  0  0  0  0  # atno 6909 bound_to 6896
  145.7620  139.2805  143.1370 H   0  0  0  0  0  0  0  0  0  0  0  0  # atno 7974 bound_to 7965
  155.2708  140.0440  157.3006 H   0  0  0  0  0  0  0  0  0  0  0  0  # atno 8008 bound_to 7997
  154.5654  140.2358  155.8239 H   0  0  0  0  0  0  0  0  0  0  0  0  # atno 8009 bound_to 7997
  156.2081  140.3007  155.9679 H   0  0  0  0  0  0  0  0  0  0  0  0  # atno 8010 bound_to 7997
  139.8568  143.7128  152.2653 H   0  0  0  0  0  0  0  0  0  0  0  0  # atno 10167 bound_to 10162
  157.2888  130.7292  149.6598 H   0  0  0  0  0  0  0  0  0  0  0  0  # atno 10718 bound_to 10713
  153.0074  135.5376  154.6583 H   0  0  0  0  0  0  0  0  0  0  0  0  # atno 10763 bound_to 10752
  154.5798  135.2849  155.0746 H   0  0  0  0  0  0  0  0  0  0  0  0  # atno 10764 bound_to 10752
  154.1880  135.6505  153.5105 H   0  0  0  0  0  0  0  0  0  0  0  0  # atno 10765 bound_to 10752
  141.1649  133.6961  156.7575 H   0  0  0  0  0  0  0  0  0  0  0  0  # atno 11005 bound_to 11000
  146.0254  140.8308  142.9902 LP  0  0  0  0  0  0  0  0  0  0  0  0  # atno 17320 bound_to 7965
  144.6828  140.2691  143.7308 LP  0  0  0  0  0  0  0  0  0  0  0  0  # atno 17321 bound_to 7965
  139.7412  144.7559  151.0649 LP  0  0  0  0  0  0  0  0  0  0  0  0  # atno 17342 bound_to 10162
  140.7780  143.4970  150.9820 LP  0  0  0  0  0  0  0  0  0  0  0  0  # atno 17343 bound_to 10162
  155.9666  130.4315  150.4924 LP  0  0  0  0  0  0  0  0  0  0  0  0  # atno 17370 bound_to 10713
  157.2882  131.0621  151.2152 LP  0  0  0  0  0  0  0  0  0  0  0  0  # atno 17371 bound_to 10713
  140.2558  134.8505  157.3711 LP  0  0  0  0  0  0  0  0  0  0  0  0  # atno 17394 bound_to 11000
  140.1658  134.4670  155.7864 LP  0  0  0  0  0  0  0  0  0  0  0  0  # atno 17395 bound_to 11000

$$$$
