#       Name:                AV-unprocessed.smi:3163
#       Creating user name   scv26
#       Creation time:       Fri Mar 27 17:50:24 2020


#       File generated by GOLD software.
#

@<TRIPOS>MOLECULE
AV-unprocessed.smi:3163
    39    40     1
SMALL
NO_CHARGES


@<TRIPOS>ATOM
      1 ****        -3.8994  -1.8919  -0.1058 C.3            1 S1                 0.0000
      2 ****        -2.7043  -2.4283   0.5783 N.4            1 S1                 1.0000
      3 ****        -2.7453  -2.3087   2.0516 C.3            1 S1                 0.0000
      4 ****        -1.2888  -2.1702   2.4866 C.3            1 S1                 0.0000
      5 ****        -0.6834  -1.3427   1.3562 C.3            1 S1                 0.0000
      6 ****         0.8540  -1.4180   1.2773 C.3            1 S1                 0.0000
      7 ****         1.3896  -0.6482   0.1590 N.am           1 S1                 0.0000
      8 ****         1.5076   0.6872   0.1305 C.2            1 S1                 0.0000
      9 ****         1.1653   1.4135   1.0629 O.2            1 S1                 0.0000
     10 ****         2.0473   1.1008  -1.0296 N.am           1 S1                 0.0000
     11 ****         2.3308   2.4230  -1.4710 C.ar           1 S1                 0.0000
     12 ****         3.1509   2.5648  -2.6097 C.ar           1 S1                 0.0000
     13 ****         3.4430   3.8599  -3.0817 C.ar           1 S1                 0.0000
     14 ****         2.9705   4.9838  -2.5035 N.ar           1 S1                 0.0000
     15 ****         2.1770   4.8473  -1.4204 C.ar           1 S1                 0.0000
     16 ****         1.8243   3.6000  -0.8670 C.ar           1 S1                 0.0000
     17 ****        -1.4200  -1.8562   0.1092 C.3            1 S1                 0.0000
     18 ****        -3.9990  -0.8184   0.0612 H              1 S1                 0.0000
     19 ****        -4.8010  -2.3824   0.2623 H              1 S1                 0.0000
     20 ****        -3.8347  -2.0684  -1.1798 H              1 S1                 0.0000
     21 ****        -3.2949  -1.4098   2.3372 H              1 S1                 0.0000
     22 ****        -3.2411  -3.1650   2.5098 H              1 S1                 0.0000
     23 ****        -1.1833  -1.6967   3.4633 H              1 S1                 0.0000
     24 ****        -0.8194  -3.1541   2.5336 H              1 S1                 0.0000
     25 ****        -0.9817  -0.3053   1.5186 H              1 S1                 0.0000
     26 ****         1.2976  -1.0683   2.2111 H              1 S1                 0.0000
     27 ****         1.1730  -2.4534   1.1549 H              1 S1                 0.0000
     28 ****         1.7049  -1.1716  -0.6449 H              1 S1                 0.0000
     29 ****         2.3263   0.3706  -1.6681 H              1 S1                 0.0000
     30 ****         3.5554   1.6994  -3.1144 H              1 S1                 0.0000
     31 ****         4.0723   3.9955  -3.9488 H              1 S1                 0.0000
     32 ****         1.8054   5.7621  -0.9827 H              1 S1                 0.0000
     33 ****         1.1734   3.5798  -0.0077 H              1 S1                 0.0000
     34 ****        -0.8563  -2.6538  -0.3762 H              1 S1                 0.0000
     35 ****        -1.5564  -1.0594  -0.6239 H              1 S1                 0.0000
     36 ****        -2.6612  -3.4161   0.3716 H              1 S1                 0.0000
     37 ****         0.7777   1.0124   1.8929 LP             1 S1                 0.0000
     38 ****         1.2748   2.4048   0.9907 LP             1 S1                 0.0000
     39 ****         3.2005   5.8872  -2.8653 LP             1 S1                 0.0000
@<TRIPOS>BOND
    1    1    2 1     
    2    1   18 1     
    3    1   19 1     
    4    1   20 1     
    5    2   17 1     
    6    2    3 1     
    7    2   36 1     
    8    3    4 1     
    9    3   21 1     
   10    3   22 1     
   11    4    5 1     
   12    4   23 1     
   13    4   24 1     
   14    5    6 1     
   15    5   17 1     
   16    5   25 1     
   17    6    7 1     
   18    6   26 1     
   19    6   27 1     
   20    7    8 am    
   21    7   28 1     
   22    8    9 2     
   23    8   10 am    
   24   10   11 1     
   25   10   29 1     
   26   11   16 ar    
   27   11   12 ar    
   28   12   13 ar    
   29   12   30 1     
   30   13   14 ar    
   31   13   31 1     
   32   14   15 ar    
   33   15   16 ar    
   34   15   32 1     
   35   16   33 1     
   36   17   34 1     
   37   17   35 1     
   38    9   37 1     
   39    9   38 1     
   40   14   39 1     
@<TRIPOS>SUBSTRUCTURE
      1 S1             1
@<TRIPOS>SET
LONE_PAIRS      STATIC     ATOMS    <user>   **** ""
3 37 38 39
DONOR_HYDROGENS      STATIC     ATOMS    <user>   **** ""
3 36 28 29
ATOM$BLUE        STATIC     ATOMS    COLORGROUP SYSTEM
3 37 38 39
ATOM$RED        STATIC     ATOMS    COLORGROUP SYSTEM
3 36 28 29
