AV-unprocessed.smi:3303|AV-procd|sdf|12670|dock1
  -GOLD-   2272019 03D 1   1.00000     0.00000
 Structure written by MMmdl.
 45 46  0  0  0  0  0  0  0  0  3 V2000
  147.1912  141.8892  154.1768 C   0  0  0  0  0  0  0  0  0  0  0  0
  148.0732  140.7117  154.6285 C   0  0  1  0  0  0  0  0  0  0  0  0
  147.9059  139.5243  153.6509 C   0  0  0  0  0  0  0  0  0  0  0  0
  148.7507  138.3583  154.0170 N   0  3  2  0  0  0  0  0  0  0  0  0
  148.2243  137.6065  155.1849 C   0  0  0  0  0  0  0  0  0  0  0  0
  150.1929  138.7305  154.0886 C   0  0  2  0  0  0  0  0  0  0  0  0
  151.1113  137.5256  154.3564 C   0  0  0  0  0  0  0  0  0  0  0  0
  150.4239  139.8814  155.0889 C   0  0  0  0  0  0  0  0  0  0  0  0
  149.5631  141.1121  154.7480 C   0  0  2  0  0  0  0  0  0  0  0  0
  149.7517  142.1501  155.7875 N   0  3  0  0  0  0  0  0  0  0  0  0
  149.4969  141.6972  157.1698 C   0  0  0  0  0  0  0  0  0  0  0  0
  150.8038  141.6083  157.9691 C   0  0  0  0  0  0  0  0  0  0  0  0
  151.1712  142.9295  158.6167 C   0  0  0  0  0  0  0  0  0  0  0  0
  152.1931  143.7387  158.0762 C   0  0  0  0  0  0  0  0  0  0  0  0
  152.4976  144.9534  158.7207 C   0  0  0  0  0  0  0  0  0  0  0  0
  151.7733  145.3087  159.8749 C   0  0  0  0  0  0  0  0  0  0  0  0
  150.7728  144.4299  160.3358 C   0  0  0  0  0  0  0  0  0  0  0  0
  150.4739  143.2619  159.7260 N   0  0  0  0  0  0  0  0  0  0  0  0
  147.5071  142.2725  153.2059 H   0  0  0  0  0  0  0  0  0  0  0  0
  147.2259  142.7149  154.8877 H   0  0  0  0  0  0  0  0  0  0  0  0
  146.1479  141.5849  154.0884 H   0  0  0  0  0  0  0  0  0  0  0  0
  147.7197  140.3982  155.6118 H   0  0  0  0  0  0  0  0  0  0  0  0
  146.8607  139.2164  153.5975 H   0  0  0  0  0  0  0  0  0  0  0  0
  148.1780  139.8388  152.6419 H   0  0  0  0  0  0  0  0  0  0  0  0
  148.3316  138.1639  156.1150 H   0  0  0  0  0  0  0  0  0  0  0  0
  148.7321  136.6495  155.3012 H   0  0  0  0  0  0  0  0  0  0  0  0
  147.1655  137.3843  155.0486 H   0  0  0  0  0  0  0  0  0  0  0  0
  150.4583  139.1014  153.0970 H   0  0  0  0  0  0  0  0  0  0  0  0
  152.1587  137.8065  154.2430 H   0  0  0  0  0  0  0  0  0  0  0  0
  150.9140  136.7145  153.6545 H   0  0  0  0  0  0  0  0  0  0  0  0
  150.9918  137.1356  155.3677 H   0  0  0  0  0  0  0  0  0  0  0  0
  150.2106  139.5438  156.1041 H   0  0  0  0  0  0  0  0  0  0  0  0
  151.4775  140.1641  155.0816 H   0  0  0  0  0  0  0  0  0  0  0  0
  149.8957  141.4977  153.7820 H   0  0  0  0  0  0  0  0  0  0  0  0
  150.7032  142.4852  155.7336 H   0  0  0  0  0  0  0  0  0  0  0  0
  148.8066  142.3918  157.6507 H   0  0  0  0  0  0  0  0  0  0  0  0
  149.0111  140.7207  157.1459 H   0  0  0  0  0  0  0  0  0  0  0  0
  150.7176  140.8433  158.7419 H   0  0  0  0  0  0  0  0  0  0  0  0
  151.6217  141.2960  157.3178 H   0  0  0  0  0  0  0  0  0  0  0  0
  152.7325  143.4397  157.1894 H   0  0  0  0  0  0  0  0  0  0  0  0
  153.2732  145.6002  158.3378 H   0  0  0  0  0  0  0  0  0  0  0  0
  151.9793  146.2327  160.3947 H   0  0  0  0  0  0  0  0  0  0  0  0
  150.1985  144.6706  161.2181 H   0  0  0  0  0  0  0  0  0  0  0  0
  149.1304  142.9216  155.5886 H   0  0  0  0  0  0  0  0  0  0  0  0
  148.6722  137.7152  153.2415 H   0  0  0  0  0  0  0  0  0  0  0  0
  1  2  1  0  0  0  0
  1 19  1  0  0  0  0
  1 20  1  0  0  0  0
  1 21  1  0  0  0  0
  2  9  1  0  0  0  0
  2  3  1  0  0  0  0
  2 22  1  0  0  0  0
  3  4  1  0  0  0  0
  3 23  1  0  0  0  0
  3 24  1  0  0  0  0
  4  5  1  0  0  0  0
  4  6  1  0  0  0  0
  4 45  1  0  0  0  0
  5 25  1  0  0  0  0
  5 26  1  0  0  0  0
  5 27  1  0  0  0  0
  6  7  1  0  0  0  0
  6  8  1  0  0  0  0
  6 28  1  0  0  0  0
  7 29  1  0  0  0  0
  7 30  1  0  0  0  0
  7 31  1  0  0  0  0
  8  9  1  0  0  0  0
  8 32  1  0  0  0  0
  8 33  1  0  0  0  0
  9 10  1  0  0  0  0
  9 34  1  0  0  0  0
 10 11  1  0  0  0  0
 10 35  1  0  0  0  0
 10 44  1  0  0  0  0
 11 12  1  0  0  0  0
 11 36  1  0  0  0  0
 11 37  1  0  0  0  0
 12 13  1  0  0  0  0
 12 38  1  0  0  0  0
 12 39  1  0  0  0  0
 13 18  1  0  0  0  0
 13 14  2  0  0  0  0
 14 15  1  0  0  0  0
 14 40  1  0  0  0  0
 15 16  2  0  0  0  0
 15 41  1  0  0  0  0
 16 17  1  0  0  0  0
 16 42  1  0  0  0  0
 17 18  2  0  0  0  0
 17 43  1  0  0  0  0
M  CHG  1   4   1
M  CHG  1  10   1
M  END
> <s_m_source_file>
AV-unprocessed.smi

> <i_m_source_file_index>
3303

> <i_lp_mmshare_version>
43012

> <i_f3d_flags>
0

> <s_epik_input>
W0NIM11bQ0BASF0xW0NIMl1OKFtDSDNdKVtDQEBIXShbQ0gzXSlbQ0gyXVtDQEhdMVtOSF1bQ0gyXVtDSDJdYzJbY0hdW2NIXVtjSF1bY0hdbjI=

> <s_epik_cmdline>
J2VwaWtfcHl0aG9uJywgJy1waCcsICc3LjAnLCAnLXRuJywgJzgnLCAnLW1hJywgJzIwMCcsICctbWV0YWxfYmluZGluZycsICctaW1hZScsICc8aW5maWxlLm1hZT4nLCAnLW9tYWUnLCAnPG91dGZpbGUubWFlPic=

> <r_epik_Ionization_Penalty>
0.0769462

> <r_epik_Ionization_Penalty_Charging>
0.0759813

> <r_epik_Ionization_Penalty_Neutral>
0.000964829

> <r_epik_State_Penalty>
0.0654373

> <r_epik_Charging_Adjusted_Penalty>
0.141419

> <i_epik_Tot_Q>
2

> <i_epik_Tot_abs_Q>
2

> <r_epik_Metal_State_Penalty>
0.0656439

> <b_epik_Metal_Only>
0

> <s_lp_Force_Field>
OPLS_2005

> <r_lp_Energy>
31.8581

> <b_lp_Chiralities_Consistent>
1

> <s_lp_Variant>
AV-unprocessed.smi:3303-14

> <Gold.Version>
5.8.1

> <Gold.Id.Protein>
6NUR|6NUR_protein|mol2

> <Gold.PLP.Fitness>
53.2144

> <Gold.PLP.PLP>
-43.1116

> <Gold.PLP.part.hbond>
-2.9637

> <Gold.PLP.part.metal>
0.0000

> <Gold.PLP.part.buried>
-3.3705

> <Gold.PLP.part.nonpolar>
-36.3032

> <Gold.PLP.part.repulsive>
0.2409

> <Gold.PLP.ligand.clash>
0.0000

> <Gold.PLP.ligand.torsion>
0.7400

> <Gold.PLP.Chemscore.Hbond>
3.8560

> <Gold.PLP.Chemscore.CHOScore>
0.0000

> <Gold.PLP.Chemscore.Metal>
0.0000

> <Gold.Chemscore.Hbonds>
donor molecule, donor type, donor heavy atom, donor atom, acceptor molecule, acceptor atom, score
      L1  H     4    45       P1  7948  2.00
      L1  H    10    44       P1  8028  1.89

> <Gold.PLP.Chemscore.Internal.Correction>
0.0149

> <Gold.Rescore>
     Score         DG    S(hbond)    S(metal)    S(lipo)     H(rot)  DE(clash)    DE(int)     intcor
     20.98     -22.45       1.83        0.00     122.99       1.37       0.61       0.86       ----

> <Gold.Chemscore.Fitness>
20.9799

> <Gold.Chemscore.DG>
-22.4500

> <Gold.Chemscore.ZeroCoef>
-5.4800

> <Gold.Chemscore.Hbond>
1.8261

> <Gold.Chemscore.Metal>
0.0000

> <Gold.Chemscore.Lipo>
122.9862

> <Gold.Chemscore.Internal_Hbond>
0.0000

> <Gold.Chemscore.DEClash>
0.6111

> <Gold.Chemscore.DEInternal>
0.8590

> <Gold.Chemscore.Rot>
1.3744

> <Gold.Chemscore.Internal.Correction>
   9.000000E+99

> <Gold.Chemscore.Hbonds>
donor molecule, donor type, donor heavy atom, donor atom, acceptor molecule, acceptor atom, score
      L1  H     4    45       P1  7948  0.93
      L1  H    10    44       P1  8028  0.91

> <Gold.Chemscore.Hbond.Weighted>
-6.0991

> <Gold.Chemscore.Metal.Weighted>
-0.0000

> <Gold.Chemscore.Lipo.Weighted>
-14.3894

> <Gold.Chemscore.Internal_Hbond.Weighted>
0.0000

> <Gold.Chemscore.DEClash.Weighted>
0.6111

> <Gold.Chemscore.DEInternal.Weighted>
0.8590

> <Gold.Chemscore.Rot.Weighted>
3.5185

> <Gold.Chemscore.Internal.Correction.Weighted>
   9.000000E+99

> <Gold.Protein.RotatedTorsions>
[ 6907 6896 6895 6894 ] final  142.71 input  -60.11 | X-H torsion
[ 7974 7965 7964 7962 ] final   27.56 input  175.53 | X-H torsion
[ 8008 7997 7996 7995 ] final  132.01 input   59.86 | X-H torsion
[ 10167 10162 10161 10158 ] final -147.00 input  -65.29 | X-H torsion
[ 10718 10713 10712 10709 ] final -104.92 input   66.30 | X-H torsion
[ 10763 10752 10751 10750 ] final   63.05 input  -60.55 | X-H torsion
[ 11005 11000 10999 10996 ] final  164.83 input  -57.11 | X-H torsion

> <Gold.Protein.ActiveResidues>
 VAL166  LYS551  ARG553  GLY616  TRP617  ASP618  TYR619  PRO620  LYS621  CYS622 
 ASP623  PHE694  ASN695  SER759  ASP760  ASP761  ALA762  ILE779  LEU786  VAL792 
 PHE793  MET794  SER795  GLU796  ALA797  LYS798  CYS799  TRP800  GLU811  SER814 

> <Gold.Protein.RotatedAtoms>
  152.2153  133.4942  159.5132 H   0  0  0  0  0  0  0  0  0  0  0  0  # atno 6907 bound_to 6896
  150.7000  134.1413  159.4115 H   0  0  0  0  0  0  0  0  0  0  0  0  # atno 6908 bound_to 6896
  151.9333  135.0246  160.0581 H   0  0  0  0  0  0  0  0  0  0  0  0  # atno 6909 bound_to 6896
  146.1777  139.7175  142.8922 H   0  0  0  0  0  0  0  0  0  0  0  0  # atno 7974 bound_to 7965
  156.2977  140.2557  156.3019 H   0  0  0  0  0  0  0  0  0  0  0  0  # atno 8008 bound_to 7997
  154.9409  140.0396  157.2115 H   0  0  0  0  0  0  0  0  0  0  0  0  # atno 8009 bound_to 7997
  154.8127  140.2847  155.5846 H   0  0  0  0  0  0  0  0  0  0  0  0  # atno 8010 bound_to 7997
  139.7662  143.8305  152.2616 H   0  0  0  0  0  0  0  0  0  0  0  0  # atno 10167 bound_to 10162
  156.0324  130.5539  150.7466 H   0  0  0  0  0  0  0  0  0  0  0  0  # atno 10718 bound_to 10713
  153.0004  135.5443  154.6290 H   0  0  0  0  0  0  0  0  0  0  0  0  # atno 10763 bound_to 10752
  154.5572  135.2831  155.0955 H   0  0  0  0  0  0  0  0  0  0  0  0  # atno 10764 bound_to 10752
  154.2172  135.6457  153.5186 H   0  0  0  0  0  0  0  0  0  0  0  0  # atno 10765 bound_to 10752
  140.2499  134.7985  157.3492 H   0  0  0  0  0  0  0  0  0  0  0  0  # atno 11005 bound_to 11000
  145.4164  141.0402  143.2988 LP  0  0  0  0  0  0  0  0  0  0  0  0  # atno 17320 bound_to 7965
  144.8264  139.5703  143.6964 LP  0  0  0  0  0  0  0  0  0  0  0  0  # atno 17321 bound_to 7965
  139.8325  144.7247  150.9432 LP  0  0  0  0  0  0  0  0  0  0  0  0  # atno 17342 bound_to 10162
  140.7811  143.4056  151.1076 LP  0  0  0  0  0  0  0  0  0  0  0  0  # atno 17343 bound_to 10162
  157.5021  131.0919  151.0302 LP  0  0  0  0  0  0  0  0  0  0  0  0  # atno 17370 bound_to 10713
  157.0680  130.5852  149.5397 LP  0  0  0  0  0  0  0  0  0  0  0  0  # atno 17371 bound_to 10713
  140.1568  134.4779  155.7922 LP  0  0  0  0  0  0  0  0  0  0  0  0  # atno 17394 bound_to 11000
  141.2202  133.6885  156.7475 LP  0  0  0  0  0  0  0  0  0  0  0  0  # atno 17395 bound_to 11000

$$$$
