#       Name:                AV-unprocessed.smi:1975
#       Creating user name   scv26
#       Creation time:       Fri Mar 27 10:16:17 2020


#       File generated by GOLD software.
#

@<TRIPOS>MOLECULE
AV-unprocessed.smi:1975
    40    41     1
SMALL
NO_CHARGES


@<TRIPOS>ATOM
      1 ****        -3.6743  -2.1622  -0.1789 C.3            1 S1                 0.0000
      2 ****        -3.5659  -1.3312   1.1084 C.3            1 S1                 0.0000
      3 ****        -2.7397  -0.1620   0.9548 N.am           1 S1                 0.0000
      4 ****        -3.2812   1.0828   0.7105 C.2            1 S1                 0.0000
      5 ****        -2.5219   2.1854   0.5454 C.2            1 S1                 0.0000
      6 ****        -3.0995   3.4636   0.2914 C.1            1 S1                 0.0000
      7 ****        -3.5914   4.4913   0.0882 N.1            1 S1                 0.0000
      8 ****        -1.0644   2.1146   0.6167 C.2            1 S1                 0.0000
      9 ****        -0.3287   3.0908   0.4614 O.2            1 S1                 0.0000
     10 ****        -0.5268   0.8270   0.8710 N.am           1 S1                 0.0000
     11 ****         0.9433   0.6690   0.9293 C.3            1 S1                 0.0000
     12 ****         1.5757   0.3137  -0.4256 C.2            1 S1                 0.0000
     13 ****         0.9180   0.3656  -1.4661 O.2            1 S1                 0.0000
     14 ****         2.8679  -0.0420  -0.3883 N.am           1 S1                 0.0000
     15 ****         3.6604  -0.4093  -1.5169 C.3            1 S1                 0.0000
     16 ****         4.7028  -1.4893  -1.3223 C.3            1 S1                 0.0000
     17 ****         5.1318  -0.0573  -1.4849 C.3            1 S1                 0.0000
     18 ****        -1.3369  -0.3230   1.0333 C.2            1 S1                 0.0000
     19 ****        -0.8301  -1.4308   1.2293 O.2            1 S1                 0.0000
     20 ****        -4.3343  -3.0171  -0.0309 H              1 S1                 0.0000
     21 ****        -2.7037  -2.5463  -0.4937 H              1 S1                 0.0000
     22 ****        -4.0802  -1.5671  -0.9974 H              1 S1                 0.0000
     23 ****        -4.5472  -0.9661   1.4142 H              1 S1                 0.0000
     24 ****        -3.1708  -1.9061   1.9480 H              1 S1                 0.0000
     25 ****        -4.3556   1.1793   0.6456 H              1 S1                 0.0000
     26 ****         1.4245   1.5734   1.3046 H              1 S1                 0.0000
     27 ****         1.2198  -0.0961   1.6570 H              1 S1                 0.0000
     28 ****         3.3274  -0.0537   0.5108 H              1 S1                 0.0000
     29 ****         3.1840  -0.3747  -2.4958 H              1 S1                 0.0000
     30 ****         4.7980  -1.9330  -0.3330 H              1 S1                 0.0000
     31 ****         4.8850  -2.1660  -2.1546 H              1 S1                 0.0000
     32 ****         5.6013   0.2217  -2.4261 H              1 S1                 0.0000
     33 ****         5.5143   0.4550  -0.6042 H              1 S1                 0.0000
     34 ****        -4.0165   5.3793  -0.0874 LP             1 S1                 0.0000
     35 ****        -0.7241   3.9903   0.2756 LP             1 S1                 0.0000
     36 ****         0.6637   2.9835   0.5211 LP             1 S1                 0.0000
     37 ****        -0.0426   0.6422  -1.4372 LP             1 S1                 0.0000
     38 ****         1.3447   0.1311  -2.3396 LP             1 S1                 0.0000
     39 ****        -1.4137  -2.2358   1.3359 LP             1 S1                 0.0000
     40 ****         0.1642  -1.5236   1.2815 LP             1 S1                 0.0000
@<TRIPOS>BOND
    1    1    2 1     
    2    1   20 1     
    3    1   21 1     
    4    1   22 1     
    5    2    3 1     
    6    2   23 1     
    7    2   24 1     
    8    3   18 am    
    9    3    4 1     
   10    4    5 2     
   11    4   25 1     
   12    5    6 1     
   13    5    8 1     
   14    6    7 3     
   15    8    9 2     
   16    8   10 am    
   17   10   11 1     
   18   10   18 am    
   19   11   12 1     
   20   11   26 1     
   21   11   27 1     
   22   12   13 2     
   23   12   14 am    
   24   14   15 1     
   25   14   28 1     
   26   15   17 1     
   27   15   16 1     
   28   15   29 1     
   29   16   17 1     
   30   16   30 1     
   31   16   31 1     
   32   17   32 1     
   33   17   33 1     
   34   18   19 2     
   35    7   34 1     
   36    9   35 1     
   37    9   36 1     
   38   13   37 1     
   39   13   38 1     
   40   19   39 1     
   41   19   40 1     
@<TRIPOS>SUBSTRUCTURE
      1 S1             1
@<TRIPOS>SET
LONE_PAIRS      STATIC     ATOMS    <user>   **** ""
7 34 35 36 37 38 39 40
DONOR_HYDROGENS      STATIC     ATOMS    <user>   **** ""
1 28
ATOM$BLUE        STATIC     ATOMS    COLORGROUP SYSTEM
7 34 35 36 37 38 39 40
ATOM$RED        STATIC     ATOMS    COLORGROUP SYSTEM
1 28
