AV-unprocessed.smi:2596|AV-procd|sdf|10169|dock9
  -GOLD-   2272014183D 1   1.00000     0.00000
 Structure written by MMmdl.
 32 33  0  0  0  0  0  0  0  0  1 V2000
  151.0213  140.8945  158.2850 O   0  0  0  0  0  0  0  0  0  0  0  0
  150.8187  142.0422  157.8902 C   0  0  0  0  0  0  0  0  0  0  0  0
  151.7981  143.1619  158.2562 C   0  0  0  0  0  0  0  0  0  0  0  0
  152.2630  143.0468  159.6481 N   0  0  0  0  0  0  0  0  0  0  0  0
  153.0497  141.9224  159.9699 C   0  0  0  0  0  0  0  0  0  0  0  0
  153.5339  141.7324  161.2067 C   0  0  0  0  0  0  0  0  0  0  0  0
  154.2868  140.6570  161.4893 F   0  0  0  0  0  0  0  0  0  0  0  0
  153.2341  142.7085  162.2259 C   0  0  0  0  0  0  0  0  0  0  0  0
  152.4837  143.7874  161.9266 C   0  0  0  0  0  0  0  0  0  0  0  0
  151.9515  144.0056  160.5757 C   0  0  0  0  0  0  0  0  0  0  0  0
  151.2681  144.9907  160.2961 O   0  0  0  0  0  0  0  0  0  0  0  0
  149.7530  142.3976  157.1555 N   0  0  0  0  0  0  0  0  0  0  0  0
  148.6558  141.5150  156.7794 C   0  0  0  0  0  0  0  0  0  0  0  0
  148.2352  141.7670  155.3342 C   0  0  0  0  0  0  0  0  0  0  0  0
  146.8983  141.2171  154.8117 C   0  0  0  0  0  0  0  0  0  0  0  0
  147.5716  141.0027  153.4537 C   0  0  0  0  0  0  0  0  0  0  0  0
  148.9101  140.9853  154.1974 C   0  0  0  0  0  0  0  0  0  0  0  0
  152.6449  143.1441  157.5673 H   0  0  0  0  0  0  0  0  0  0  0  0
  151.3132  144.1245  158.0856 H   0  0  0  0  0  0  0  0  0  0  0  0
  153.2364  141.2397  159.1535 H   0  0  0  0  0  0  0  0  0  0  0  0
  153.6114  142.5746  163.2291 H   0  0  0  0  0  0  0  0  0  0  0  0
  152.2667  144.5109  162.6988 H   0  0  0  0  0  0  0  0  0  0  0  0
  149.6740  143.3638  156.8734 H   0  0  0  0  0  0  0  0  0  0  0  0
  148.9964  140.4862  156.8967 H   0  0  0  0  0  0  0  0  0  0  0  0
  147.8097  141.6327  157.4585 H   0  0  0  0  0  0  0  0  0  0  0  0
  148.2878  142.8325  155.0994 H   0  0  0  0  0  0  0  0  0  0  0  0
  146.6088  140.2801  155.2902 H   0  0  0  0  0  0  0  0  0  0  0  0
  146.0790  141.9369  154.8112 H   0  0  0  0  0  0  0  0  0  0  0  0
  147.3117  140.0679  152.9564 H   0  0  0  0  0  0  0  0  0  0  0  0
  147.4667  141.8614  152.7887 H   0  0  0  0  0  0  0  0  0  0  0  0
  149.7195  141.5165  153.6957 H   0  0  0  0  0  0  0  0  0  0  0  0
  149.2123  139.9796  154.4943 H   0  0  0  0  0  0  0  0  0  0  0  0
  1  2  2  0  0  0  0
  2  3  1  0  0  0  0
  2 12  1  0  0  0  0
  3  4  1  0  0  0  0
  3 18  1  0  0  0  0
  3 19  1  0  0  0  0
  4 10  1  0  0  0  0
  4  5  1  0  0  0  0
  5  6  2  0  0  0  0
  5 20  1  0  0  0  0
  6  7  1  0  0  0  0
  6  8  1  0  0  0  0
  8  9  2  0  0  0  0
  8 21  1  0  0  0  0
  9 10  1  0  0  0  0
  9 22  1  0  0  0  0
 10 11  2  0  0  0  0
 12 13  1  0  0  0  0
 12 23  1  0  0  0  0
 13 14  1  0  0  0  0
 13 24  1  0  0  0  0
 13 25  1  0  0  0  0
 14 17  1  0  0  0  0
 14 15  1  0  0  0  0
 14 26  1  0  0  0  0
 15 16  1  0  0  0  0
 15 27  1  0  0  0  0
 15 28  1  0  0  0  0
 16 17  1  0  0  0  0
 16 29  1  0  0  0  0
 16 30  1  0  0  0  0
 17 31  1  0  0  0  0
 17 32  1  0  0  0  0
M  END
> <s_m_source_file>
AV-unprocessed.smi

> <i_m_source_file_index>
2596

> <i_lp_mmshare_version>
43012

> <i_f3d_flags>
0

> <s_epik_input>
W0NIMl0xW0NIMl1bQ0gyXVtDSF0xW0NIMl1bTkhdQyg9TylbQ0gyXW4yW2NIXWMoRilbY0hdW2NIXWMyPU8=

> <s_epik_cmdline>
J2VwaWtfcHl0aG9uJywgJy1waCcsICc3LjAnLCAnLXRuJywgJzgnLCAnLW1hJywgJzIwMCcsICctbWV0YWxfYmluZGluZycsICctaW1hZScsICc8aW5maWxlLm1hZT4nLCAnLW9tYWUnLCAnPG91dGZpbGUubWFlPic=

> <r_lp_tautomer_probability>
1

> <r_epik_Ionization_Penalty>
2.75493e-07

> <r_epik_Ionization_Penalty_Charging>
2.56191e-07

> <r_epik_Ionization_Penalty_Neutral>
1.93017e-08

> <r_epik_State_Penalty>
-0

> <r_epik_Charging_Adjusted_Penalty>
2.56191e-07

> <i_epik_Tot_Q>
0

> <i_epik_Tot_abs_Q>
0

> <r_epik_Metal_State_Penalty>
-0

> <b_epik_Metal_Only>
0

> <s_lp_Force_Field>
OPLS_2005

> <r_lp_Energy>
22.7993

> <b_lp_Chiralities_Consistent>
1

> <s_lp_Variant>
AV-unprocessed.smi:2596-1

> <Gold.Version>
5.8.1

> <Gold.Id.Protein>
6NUR|6NUR_protein|mol2

> <Gold.PLP.Fitness>
44.1404

> <Gold.PLP.PLP>
-42.4738

> <Gold.PLP.part.hbond>
-1.0000

> <Gold.PLP.part.metal>
0.0000

> <Gold.PLP.part.buried>
-4.0869

> <Gold.PLP.part.nonpolar>
-36.8896

> <Gold.PLP.part.repulsive>
0.1818

> <Gold.PLP.ligand.clash>
0.0000

> <Gold.PLP.ligand.torsion>
0.6634

> <Gold.PLP.Chemscore.Hbond>
0.9760

> <Gold.PLP.Chemscore.CHOScore>
0.0000

> <Gold.PLP.Chemscore.Metal>
0.0000

> <Gold.Chemscore.Hbonds>
donor molecule, donor type, donor heavy atom, donor atom, acceptor molecule, acceptor atom, score
      L1  H    12    23       P1  8028  0.99

> <Gold.PLP.Chemscore.Internal.Correction>
0.0654

> <Gold.Rescore>
     Score         DG    S(hbond)    S(metal)    S(lipo)     H(rot)  DE(clash)    DE(int)     intcor
     12.75     -14.57       0.98        0.00      87.08       1.71       0.00       1.82       ----

> <Gold.Chemscore.Fitness>
12.7523

> <Gold.Chemscore.DG>
-14.5742

> <Gold.Chemscore.ZeroCoef>
-5.4800

> <Gold.Chemscore.Hbond>
0.9815

> <Gold.Chemscore.Metal>
0.0000

> <Gold.Chemscore.Lipo>
87.0773

> <Gold.Chemscore.Internal_Hbond>
0.0000

> <Gold.Chemscore.DEClash>
0.0018

> <Gold.Chemscore.DEInternal>
1.8201

> <Gold.Chemscore.Rot>
1.7078

> <Gold.Chemscore.Internal.Correction>
   9.000000E+99

> <Gold.Chemscore.Hbonds>
donor molecule, donor type, donor heavy atom, donor atom, acceptor molecule, acceptor atom, score
      L1  H    12    23       P1  8028  0.92

> <Gold.Chemscore.Hbond.Weighted>
-3.2781

> <Gold.Chemscore.Metal.Weighted>
-0.0000

> <Gold.Chemscore.Lipo.Weighted>
-10.1880

> <Gold.Chemscore.Internal_Hbond.Weighted>
0.0000

> <Gold.Chemscore.DEClash.Weighted>
0.0018

> <Gold.Chemscore.DEInternal.Weighted>
1.8201

> <Gold.Chemscore.Rot.Weighted>
4.3719

> <Gold.Chemscore.Internal.Correction.Weighted>
   9.000000E+99

> <Gold.Protein.RotatedTorsions>
[ 6907 6896 6895 6894 ] final   71.01 input  -60.11 | X-H torsion
[ 7974 7965 7964 7962 ] final   -9.32 input  175.53 | X-H torsion
[ 8008 7997 7996 7995 ] final   88.44 input   59.86 | X-H torsion
[ 10167 10162 10161 10158 ] final  -30.54 input  -65.29 | X-H torsion
[ 10718 10713 10712 10709 ] final  -57.97 input   66.30 | X-H torsion
[ 10763 10752 10751 10750 ] final   59.01 input  -60.55 | X-H torsion
[ 11005 11000 10999 10996 ] final  156.56 input  -57.11 | X-H torsion

> <Gold.Protein.ActiveResidues>
 VAL166  LYS551  ARG553  GLY616  TRP617  ASP618  TYR619  PRO620  LYS621  CYS622 
 ASP623  PHE694  ASN695  SER759  ASP760  ASP761  ALA762  ILE779  LEU786  VAL792 
 PHE793  MET794  SER795  GLU796  ALA797  LYS798  CYS799  TRP800  GLU811  SER814 

> <Gold.Protein.RotatedAtoms>
  152.4784  134.4784  159.9657 H   0  0  0  0  0  0  0  0  0  0  0  0  # atno 6907 bound_to 6896
  151.4795  133.3544  159.2844 H   0  0  0  0  0  0  0  0  0  0  0  0  # atno 6908 bound_to 6896
  150.8838  134.8260  159.7305 H   0  0  0  0  0  0  0  0  0  0  0  0  # atno 6909 bound_to 6896
  146.2255  140.2599  142.8351 H   0  0  0  0  0  0  0  0  0  0  0  0  # atno 7974 bound_to 7965
  155.9877  140.3371  155.6723 H   0  0  0  0  0  0  0  0  0  0  0  0  # atno 8008 bound_to 7997
  155.6463  140.0700  157.2620 H   0  0  0  0  0  0  0  0  0  0  0  0  # atno 8009 bound_to 7997
  154.4210  140.1734  156.1614 H   0  0  0  0  0  0  0  0  0  0  0  0  # atno 8010 bound_to 7997
  140.7248  143.3841  151.1548 H   0  0  0  0  0  0  0  0  0  0  0  0  # atno 10167 bound_to 10162
  156.1170  130.4169  150.0513 H   0  0  0  0  0  0  0  0  0  0  0  0  # atno 10718 bound_to 10713
  152.9884  135.5586  154.5645 H   0  0  0  0  0  0  0  0  0  0  0  0  # atno 10763 bound_to 10752
  154.5057  135.2799  155.1386 H   0  0  0  0  0  0  0  0  0  0  0  0  # atno 10764 bound_to 10752
  154.2798  135.6347  153.5395 H   0  0  0  0  0  0  0  0  0  0  0  0  # atno 10765 bound_to 10752
  140.1686  134.8559  157.2663 H   0  0  0  0  0  0  0  0  0  0  0  0  # atno 11005 bound_to 11000
  144.9347  140.8014  143.5667 LP  0  0  0  0  0  0  0  0  0  0  0  0  # atno 17320 bound_to 7965
  145.2545  139.2017  143.4924 LP  0  0  0  0  0  0  0  0  0  0  0  0  # atno 17321 bound_to 7965
  139.7435  143.8888  152.3057 LP  0  0  0  0  0  0  0  0  0  0  0  0  # atno 17342 bound_to 10162
  139.8717  144.7064  150.8979 LP  0  0  0  0  0  0  0  0  0  0  0  0  # atno 17343 bound_to 10162
  156.8461  130.9443  151.3628 LP  0  0  0  0  0  0  0  0  0  0  0  0  # atno 17370 bound_to 10713
  157.6354  130.8762  149.9349 LP  0  0  0  0  0  0  0  0  0  0  0  0  # atno 17371 bound_to 10713
  140.2404  134.3803  155.7483 LP  0  0  0  0  0  0  0  0  0  0  0  0  # atno 17394 bound_to 11000
  141.2215  133.7262  156.8779 LP  0  0  0  0  0  0  0  0  0  0  0  0  # atno 17395 bound_to 11000

$$$$
