AV-unprocessed.smi:314|AV-procd|sdf|2315|dock1
  -GOLD-   2262022223D 1   1.00000     0.00000
 Structure written by MMmdl.
 48 49  0  0  0  0  0  0  0  0  1 V2000
  154.1790  141.2343  161.5043 C   0  0  0  0  0  0  0  0  0  0  0  0
  153.6442  142.4983  161.1271 O   0  0  0  0  0  0  0  0  0  0  0  0
  152.8260  142.5586  160.0176 C   0  0  0  0  0  0  0  0  0  0  0  0
  152.3558  143.8177  159.5942 C   0  0  0  0  0  0  0  0  0  0  0  0
  151.5183  143.8842  158.4648 C   0  0  0  0  0  0  0  0  0  0  0  0
  151.1661  142.6929  157.7996 C   0  0  0  0  0  0  0  0  0  0  0  0
  150.3346  142.7854  156.6515 N   0  0  0  0  0  0  0  0  0  0  0  0
  149.8821  141.7871  155.8742 C   0  0  0  0  0  0  0  0  0  0  0  0
  150.0644  140.5873  156.0819 O   0  0  0  0  0  0  0  0  0  0  0  0
  149.1779  142.2590  154.8355 N   0  0  0  0  0  0  0  0  0  0  0  0
  148.5424  141.4334  153.8142 C   0  0  0  0  0  0  0  0  0  0  0  0
  147.0693  141.1320  154.1607 C   0  0  0  0  0  0  0  0  0  0  0  0
  146.1783  142.3841  154.2226 C   0  0  0  0  0  0  0  0  0  0  0  0
  146.3421  143.2762  153.3888 O   0  0  0  0  0  0  0  0  0  0  0  0
  145.2466  142.4754  155.2018 N   0  0  0  0  0  0  0  0  0  0  0  0
  144.4363  143.6724  155.4321 C   0  0  0  0  0  0  0  0  0  0  0  0
  144.8649  144.2891  156.7781 C   0  0  1  0  0  0  0  0  0  0  0  0
  144.0240  145.5165  157.1440 C   0  0  0  0  0  0  0  0  0  0  0  0
  144.7110  143.3205  157.8194 O   0  0  0  0  0  0  0  0  0  0  0  0
  145.3892  142.0762  157.6164 C   0  0  2  0  0  0  0  0  0  0  0  0
  146.9088  142.2246  157.8146 C   0  0  0  0  0  0  0  0  0  0  0  0
  144.9888  141.4830  156.2491 C   0  0  0  0  0  0  0  0  0  0  0  0
  151.7012  141.4784  158.2937 C   0  0  0  0  0  0  0  0  0  0  0  0
  152.5075  141.4084  159.3739 N   0  0  0  0  0  0  0  0  0  0  0  0
  154.7888  141.3533  162.3995 H   0  0  0  0  0  0  0  0  0  0  0  0
  154.8174  140.8217  160.7216 H   0  0  0  0  0  0  0  0  0  0  0  0
  153.3882  140.5191  161.7356 H   0  0  0  0  0  0  0  0  0  0  0  0
  152.6325  144.7155  160.1265 H   0  0  0  0  0  0  0  0  0  0  0  0
  151.1478  144.8386  158.1200 H   0  0  0  0  0  0  0  0  0  0  0  0
  150.0149  143.7141  156.4185 H   0  0  0  0  0  0  0  0  0  0  0  0
  149.0709  143.2588  154.7454 H   0  0  0  0  0  0  0  0  0  0  0  0
  148.6198  141.9313  152.8457 H   0  0  0  0  0  0  0  0  0  0  0  0
  149.1079  140.5044  153.7343 H   0  0  0  0  0  0  0  0  0  0  0  0
  146.6535  140.4387  153.4286 H   0  0  0  0  0  0  0  0  0  0  0  0
  147.0313  140.6376  155.1315 H   0  0  0  0  0  0  0  0  0  0  0  0
  144.5364  144.4100  154.6347 H   0  0  0  0  0  0  0  0  0  0  0  0
  143.3805  143.3985  155.4565 H   0  0  0  0  0  0  0  0  0  0  0  0
  145.9089  144.5988  156.7213 H   0  0  0  0  0  0  0  0  0  0  0  0
  144.1203  146.2968  156.3888 H   0  0  0  0  0  0  0  0  0  0  0  0
  144.3433  145.9367  158.0981 H   0  0  0  0  0  0  0  0  0  0  0  0
  142.9678  145.2602  157.2291 H   0  0  0  0  0  0  0  0  0  0  0  0
  145.0290  141.4007  158.3931 H   0  0  0  0  0  0  0  0  0  0  0  0
  147.4034  141.2549  157.7532 H   0  0  0  0  0  0  0  0  0  0  0  0
  147.1326  142.6461  158.7947 H   0  0  0  0  0  0  0  0  0  0  0  0
  147.3655  142.8689  157.0639 H   0  0  0  0  0  0  0  0  0  0  0  0
  143.9232  141.2489  156.2518 H   0  0  0  0  0  0  0  0  0  0  0  0
  145.4891  140.5291  156.0893 H   0  0  0  0  0  0  0  0  0  0  0  0
  151.5082  140.5323  157.8125 H   0  0  0  0  0  0  0  0  0  0  0  0
  1  2  1  0  0  0  0
  1 25  1  0  0  0  0
  1 26  1  0  0  0  0
  1 27  1  0  0  0  0
  2  3  1  0  0  0  0
  3 24  1  0  0  0  0
  3  4  2  0  0  0  0
  4  5  1  0  0  0  0
  4 28  1  0  0  0  0
  5  6  2  0  0  0  0
  5 29  1  0  0  0  0
  6  7  1  0  0  0  0
  6 23  1  0  0  0  0
  7  8  1  0  0  0  0
  7 30  1  0  0  0  0
  8  9  2  0  0  0  0
  8 10  1  0  0  0  0
 10 11  1  0  0  0  0
 10 31  1  0  0  0  0
 11 12  1  0  0  0  0
 11 32  1  0  0  0  0
 11 33  1  0  0  0  0
 12 13  1  0  0  0  0
 12 34  1  0  0  0  0
 12 35  1  0  0  0  0
 13 14  2  0  0  0  0
 13 15  1  0  0  0  0
 15 22  1  0  0  0  0
 15 16  1  0  0  0  0
 16 17  1  0  0  0  0
 16 36  1  0  0  0  0
 16 37  1  0  0  0  0
 17 18  1  0  0  0  0
 17 19  1  0  0  0  0
 17 38  1  0  0  0  0
 18 39  1  0  0  0  0
 18 40  1  0  0  0  0
 18 41  1  0  0  0  0
 19 20  1  0  0  0  0
 20 21  1  0  0  0  0
 20 22  1  0  0  0  0
 20 42  1  0  0  0  0
 21 43  1  0  0  0  0
 21 44  1  0  0  0  0
 21 45  1  0  0  0  0
 22 46  1  0  0  0  0
 22 47  1  0  0  0  0
 23 24  2  0  0  0  0
 23 48  1  0  0  0  0
M  END
> <s_m_source_file>
AV-unprocessed.smi

> <i_m_source_file_index>
314

> <i_lp_mmshare_version>
43012

> <i_f3d_flags>
0

> <s_epik_input>
W0NIM11PYzFbY0hdW2NIXWMoW2NIXW4xKVtOSF1DKD1PKVtOSF1bQ0gyXVtDSDJdQyg9TylOMltDSDJdW0NAQEhdKFtDSDNdKU9bQ0BASF0oW0NIM10pW0NIMl0y

> <s_epik_cmdline>
J2VwaWtfcHl0aG9uJywgJy1waCcsICc3LjAnLCAnLXRuJywgJzgnLCAnLW1hJywgJzIwMCcsICctbWV0YWxfYmluZGluZycsICctaW1hZScsICc8aW5maWxlLm1hZT4nLCAnLW9tYWUnLCAnPG91dGZpbGUubWFlPic=

> <r_lp_tautomer_probability>
1

> <r_epik_Ionization_Penalty>
8.55977e-05

> <r_epik_Ionization_Penalty_Charging>
0

> <r_epik_Ionization_Penalty_Neutral>
8.55977e-05

> <r_epik_State_Penalty>
-0

> <r_epik_Charging_Adjusted_Penalty>
0

> <i_epik_Tot_Q>
0

> <i_epik_Tot_abs_Q>
0

> <r_epik_Metal_State_Penalty>
-0

> <b_epik_Metal_Only>
0

> <s_lp_Force_Field>
OPLS_2005

> <r_lp_Energy>
24.1988

> <b_lp_Chiralities_Consistent>
1

> <s_lp_Variant>
AV-unprocessed.smi:314-3

> <Gold.Version>
5.8.1

> <Gold.Id.Protein>
6NUR|6NUR_protein|mol2

> <Gold.PLP.Fitness>
45.3292

> <Gold.PLP.PLP>
-40.3246

> <Gold.PLP.part.hbond>
-2.9165

> <Gold.PLP.part.metal>
0.0000

> <Gold.PLP.part.buried>
-4.3995

> <Gold.PLP.part.nonpolar>
-33.4203

> <Gold.PLP.part.repulsive>
0.5771

> <Gold.PLP.ligand.clash>
0.0000

> <Gold.PLP.ligand.torsion>
0.4867

> <Gold.PLP.Chemscore.Hbond>
1.9840

> <Gold.PLP.Chemscore.CHOScore>
0.0000

> <Gold.PLP.Chemscore.Metal>
0.0000

> <Gold.Chemscore.Hbonds>
donor molecule, donor type, donor heavy atom, donor atom, acceptor molecule, acceptor atom, score
      L1  H     7    30       P1  8028  1.00
      L1  H    10    31       P1  8028  0.90

> <Gold.PLP.Chemscore.Internal.Correction>
0.0261

> <Gold.Rescore>
     Score         DG    S(hbond)    S(metal)    S(lipo)     H(rot)  DE(clash)    DE(int)     intcor
     14.04     -15.92       1.89        0.00      74.90       1.81       0.20       1.67       ----

> <Gold.Chemscore.Fitness>
14.0427

> <Gold.Chemscore.DG>
-15.9200

> <Gold.Chemscore.ZeroCoef>
-5.4800

> <Gold.Chemscore.Hbond>
1.8869

> <Gold.Chemscore.Metal>
0.0000

> <Gold.Chemscore.Lipo>
74.8980

> <Gold.Chemscore.Internal_Hbond>
0.0000

> <Gold.Chemscore.DEClash>
0.2047

> <Gold.Chemscore.DEInternal>
1.6727

> <Gold.Chemscore.Rot>
1.8067

> <Gold.Chemscore.Internal.Correction>
   9.000000E+99

> <Gold.Chemscore.Hbonds>
donor molecule, donor type, donor heavy atom, donor atom, acceptor molecule, acceptor atom, score
      L1  H     7    30       P1  8028  0.95
      L1  H    10    31       P1  8028  0.88

> <Gold.Chemscore.Hbond.Weighted>
-6.3021

> <Gold.Chemscore.Metal.Weighted>
-0.0000

> <Gold.Chemscore.Lipo.Weighted>
-8.7631

> <Gold.Chemscore.Internal_Hbond.Weighted>
0.0000

> <Gold.Chemscore.DEClash.Weighted>
0.2047

> <Gold.Chemscore.DEInternal.Weighted>
1.6727

> <Gold.Chemscore.Rot.Weighted>
4.6252

> <Gold.Chemscore.Internal.Correction.Weighted>
   9.000000E+99

> <Gold.Protein.RotatedTorsions>
[ 6907 6896 6895 6894 ] final  -81.90 input  -60.11 | X-H torsion
[ 7974 7965 7964 7962 ] final  -80.77 input  175.53 | X-H torsion
[ 8008 7997 7996 7995 ] final    5.61 input   59.86 | X-H torsion
[ 10167 10162 10161 10158 ] final   33.83 input  -65.29 | X-H torsion
[ 10718 10713 10712 10709 ] final -110.04 input   66.30 | X-H torsion
[ 10763 10752 10751 10750 ] final  -34.25 input  -60.55 | X-H torsion
[ 11005 11000 10999 10996 ] final  119.59 input  -57.11 | X-H torsion

> <Gold.Protein.ActiveResidues>
 VAL166  LYS551  ARG553  GLY616  TRP617  ASP618  TYR619  PRO620  LYS621  CYS622 
 ASP623  PHE694  ASN695  SER759  ASP760  ASP761  ALA762  ILE779  LEU786  VAL792 
 PHE793  MET794  SER795  GLU796  ALA797  LYS798  CYS799  TRP800  GLU811  SER814 

> <Gold.Protein.RotatedAtoms>
  150.6905  134.3747  159.5007 H   0  0  0  0  0  0  0  0  0  0  0  0  # atno 6907 bound_to 6896
  152.1558  134.8949  160.0554 H   0  0  0  0  0  0  0  0  0  0  0  0  # atno 6908 bound_to 6896
  152.0030  133.3798  159.4226 H   0  0  0  0  0  0  0  0  0  0  0  0  # atno 6909 bound_to 6896
  145.5555  140.9490  143.1476 H   0  0  0  0  0  0  0  0  0  0  0  0  # atno 7974 bound_to 7965
  154.7306  140.2729  155.6460 H   0  0  0  0  0  0  0  0  0  0  0  0  # atno 8008 bound_to 7997
  156.2848  140.2716  156.1930 H   0  0  0  0  0  0  0  0  0  0  0  0  # atno 8009 bound_to 7997
  155.0387  140.0371  157.2491 H   0  0  0  0  0  0  0  0  0  0  0  0  # atno 8010 bound_to 7997
  140.4371  144.1241  150.6168 H   0  0  0  0  0  0  0  0  0  0  0  0  # atno 10167 bound_to 10162
  156.0569  130.5795  150.8182 H   0  0  0  0  0  0  0  0  0  0  0  0  # atno 10718 bound_to 10713
  153.8436  135.6855  153.4800 H   0  0  0  0  0  0  0  0  0  0  0  0  # atno 10763 bound_to 10752
  153.1439  135.4646  154.9535 H   0  0  0  0  0  0  0  0  0  0  0  0  # atno 10764 bound_to 10752
  154.7834  135.3276  154.7887 H   0  0  0  0  0  0  0  0  0  0  0  0  # atno 10765 bound_to 10752
  139.9152  134.9629  156.7679 H   0  0  0  0  0  0  0  0  0  0  0  0  # atno 11005 bound_to 11000
  144.7508  139.7198  143.7274 LP  0  0  0  0  0  0  0  0  0  0  0  0  # atno 17320 bound_to 7965
  146.1887  139.5116  142.9819 LP  0  0  0  0  0  0  0  0  0  0  0  0  # atno 17321 bound_to 7965
  140.4361  143.2546  151.9533 LP  0  0  0  0  0  0  0  0  0  0  0  0  # atno 17342 bound_to 10162
  139.4787  144.5698  151.8106 LP  0  0  0  0  0  0  0  0  0  0  0  0  # atno 17343 bound_to 10162
  157.5546  131.0944  150.9646 LP  0  0  0  0  0  0  0  0  0  0  0  0  # atno 17370 bound_to 10713
  156.9898  130.5559  149.5302 LP  0  0  0  0  0  0  0  0  0  0  0  0  # atno 17371 bound_to 10713
  140.6645  133.9615  155.7822 LP  0  0  0  0  0  0  0  0  0  0  0  0  # atno 17394 bound_to 11000
  141.0621  134.0331  157.3645 LP  0  0  0  0  0  0  0  0  0  0  0  0  # atno 17395 bound_to 11000

$$$$
