AV-unprocessed.smi:927|AV-procd|sdf|4190|dock5
  -GOLD-   22720 2 93D 1   1.00000     0.00000
 Structure written by MMmdl.
 20 20  0  0  0  0  0  0  0  0  1 V2000
  146.4553  137.7146  150.8789 N   0  0  0  0  0  0  0  0  0  0  0  0
  146.0510  136.3564  150.4825 C   0  0  0  0  0  0  0  0  0  0  0  0
  145.2256  135.6377  151.5644 C   0  0  1  0  0  0  0  0  0  0  0  0
  144.0032  136.3298  151.7253 O   0  0  0  0  0  0  0  0  0  0  0  0
  144.9863  134.1826  151.1914 C   0  0  0  0  0  0  0  0  0  0  0  0
  146.0639  133.3095  150.9272 C   0  0  0  0  0  0  0  0  0  0  0  0
  145.7810  131.9699  150.5942 C   0  0  0  0  0  0  0  0  0  0  0  0
  144.5275  131.4743  150.5153 N   0  0  0  0  0  0  0  0  0  0  0  0
  143.5006  132.3130  150.7707 C   0  0  0  0  0  0  0  0  0  0  0  0
  143.6745  133.6694  151.1117 C   0  0  0  0  0  0  0  0  0  0  0  0
  145.7672  138.3975  150.5649 H   0  0  0  0  0  0  0  0  0  0  0  0
  146.5086  137.7883  151.8938 H   0  0  0  0  0  0  0  0  0  0  0  0
  145.5021  136.3813  149.5402 H   0  0  0  0  0  0  0  0  0  0  0  0
  146.9532  135.7750  150.2903 H   0  0  0  0  0  0  0  0  0  0  0  0
  145.7588  135.6705  152.5158 H   0  0  0  0  0  0  0  0  0  0  0  0
  143.9810  137.0439  151.1073 H   0  0  0  0  0  0  0  0  0  0  0  0
  147.0858  133.6557  150.9794 H   0  0  0  0  0  0  0  0  0  0  0  0
  146.5835  131.2777  150.3869 H   0  0  0  0  0  0  0  0  0  0  0  0
  142.5092  131.8904  150.7021 H   0  0  0  0  0  0  0  0  0  0  0  0
  142.8175  134.2967  151.3080 H   0  0  0  0  0  0  0  0  0  0  0  0
  1  2  1  0  0  0  0
  1 11  1  0  0  0  0
  1 12  1  0  0  0  0
  2  3  1  0  0  0  0
  2 13  1  0  0  0  0
  2 14  1  0  0  0  0
  3  4  1  0  0  0  0
  3  5  1  0  0  0  0
  3 15  1  0  0  0  0
  4 16  1  0  0  0  0
  5 10  1  0  0  0  0
  5  6  2  0  0  0  0
  6  7  1  0  0  0  0
  6 17  1  0  0  0  0
  7  8  2  0  0  0  0
  7 18  1  0  0  0  0
  8  9  1  0  0  0  0
  9 10  2  0  0  0  0
  9 19  1  0  0  0  0
 10 20  1  0  0  0  0
M  END
> <s_m_source_file>
AV-unprocessed.smi

> <i_m_source_file_index>
927

> <i_lp_mmshare_version>
43012

> <i_f3d_flags>
0

> <s_epik_input>
W05IMl1bQ0gyXVtDQEhdKFtPSF0pYzFbY0hdW2NIXW5bY0hdW2NIXTE=

> <s_epik_cmdline>
J2VwaWtfcHl0aG9uJywgJy1waCcsICc3LjAnLCAnLXRuJywgJzgnLCAnLW1hJywgJzIwMCcsICctbWV0YWxfYmluZGluZycsICctaW1hZScsICc8aW5maWxlLm1hZT4nLCAnLW9tYWUnLCAnPG91dGZpbGUubWFlPic=

> <r_epik_Ionization_Penalty>
2.24668

> <r_epik_Ionization_Penalty_Charging>
0

> <r_epik_Ionization_Penalty_Neutral>
2.24668

> <r_epik_State_Penalty>
2.36938

> <r_epik_Charging_Adjusted_Penalty>
2.36938

> <i_epik_Tot_Q>
0

> <i_epik_Tot_abs_Q>
0

> <r_epik_Metal_State_Penalty>
2.3492

> <b_epik_Metal_Only>
0

> <s_lp_Force_Field>
OPLS_2005

> <r_lp_Energy>
12.0252

> <b_lp_Chiralities_Consistent>
1

> <s_lp_Variant>
AV-unprocessed.smi:927-4

> <Gold.Version>
5.8.1

> <Gold.Id.Protein>
6NUR|6NUR_protein|mol2

> <Gold.PLP.Fitness>
35.5672

> <Gold.PLP.PLP>
-21.0028

> <Gold.PLP.part.hbond>
-4.3230

> <Gold.PLP.part.metal>
0.0000

> <Gold.PLP.part.buried>
-2.1389

> <Gold.PLP.part.nonpolar>
-15.0609

> <Gold.PLP.part.repulsive>
0.1277

> <Gold.PLP.ligand.clash>
0.0000

> <Gold.PLP.ligand.torsion>
0.0422

> <Gold.PLP.Chemscore.Hbond>
2.8960

> <Gold.PLP.Chemscore.CHOScore>
1.9863

> <Gold.PLP.Chemscore.Metal>
0.0000

> <Gold.Chemscore.Hbonds>
donor molecule, donor type, donor heavy atom, donor atom, acceptor molecule, acceptor atom, score
      L1  H     1    11       P1 10171  0.87
      L1  H     4    16       P1 10171  1.00
      P1  H  7954  7966       L1     1  1.00
      L1  C     7    18       P1 10747  1.00
      L1  C     9    19       P1 10952  0.97

> <Gold.PLP.Chemscore.Internal.Correction>
0.0021

> <Gold.Rescore>
     Score         DG    S(hbond)    S(metal)    S(lipo)     H(rot)  DE(clash)    DE(int)     intcor
     13.38     -14.13       2.22        0.00      51.00       1.85       0.74       0.01       ----

> <Gold.Chemscore.Fitness>
13.3795

> <Gold.Chemscore.DG>
-14.1320

> <Gold.Chemscore.ZeroCoef>
-5.4800

> <Gold.Chemscore.Hbond>
2.2184

> <Gold.Chemscore.Metal>
0.0000

> <Gold.Chemscore.Lipo>
51.0009

> <Gold.Chemscore.Internal_Hbond>
0.0000

> <Gold.Chemscore.DEClash>
0.7413

> <Gold.Chemscore.DEInternal>
0.0113

> <Gold.Chemscore.Rot>
1.8455

> <Gold.Chemscore.Internal.Correction>
   9.000000E+99

> <Gold.Chemscore.Hbonds>
donor molecule, donor type, donor heavy atom, donor atom, acceptor molecule, acceptor atom, score
      L1  H     1    11       P1 10171  0.80
      L1  H     4    16       P1 10171  0.95
      P1  H  7954  7966       L1     1  0.19

> <Gold.Chemscore.Hbond.Weighted>
-7.4094

> <Gold.Chemscore.Metal.Weighted>
-0.0000

> <Gold.Chemscore.Lipo.Weighted>
-5.9671

> <Gold.Chemscore.Internal_Hbond.Weighted>
0.0000

> <Gold.Chemscore.DEClash.Weighted>
0.7413

> <Gold.Chemscore.DEInternal.Weighted>
0.0113

> <Gold.Chemscore.Rot.Weighted>
4.7245

> <Gold.Chemscore.Internal.Correction.Weighted>
   9.000000E+99

> <Gold.Protein.RotatedTorsions>
[ 6907 6896 6895 6894 ] final   90.58 input  -60.11 | X-H torsion
[ 7974 7965 7964 7962 ] final   12.33 input  175.53 | X-H torsion
[ 8008 7997 7996 7995 ] final  -42.20 input   59.86 | X-H torsion
[ 10167 10162 10161 10158 ] final   54.48 input  -65.29 | X-H torsion
[ 10718 10713 10712 10709 ] final  -45.49 input   66.30 | X-H torsion
[ 10763 10752 10751 10750 ] final   26.02 input  -60.55 | X-H torsion
[ 11005 11000 10999 10996 ] final  113.80 input  -57.11 | X-H torsion

> <Gold.Protein.ActiveResidues>
 VAL166  LYS551  ARG553  GLY616  TRP617  ASP618  TYR619  PRO620  LYS621  CYS622 
 ASP623  PHE694  ASN695  SER759  ASP760  ASP761  ALA762  ILE779  LEU786  VAL792 
 PHE793  MET794  SER795  GLU796  ALA797  LYS798  CYS799  TRP800  GLU811  SER814 

> <Gold.Protein.RotatedAtoms>
  152.5445  134.1789  159.8627 H   0  0  0  0  0  0  0  0  0  0  0  0  # atno 6907 bound_to 6896
  151.1793  133.4728  159.2601 H   0  0  0  0  0  0  0  0  0  0  0  0  # atno 6908 bound_to 6896
  151.1194  135.0083  159.8587 H   0  0  0  0  0  0  0  0  0  0  0  0  # atno 6909 bound_to 6896
  146.2353  139.9353  142.8490 H   0  0  0  0  0  0  0  0  0  0  0  0  # atno 7974 bound_to 7965
  154.4000  140.1479  156.3316 H   0  0  0  0  0  0  0  0  0  0  0  0  # atno 8008 bound_to 7997
  155.8438  140.3461  155.5628 H   0  0  0  0  0  0  0  0  0  0  0  0  # atno 8009 bound_to 7997
  155.8058  140.0877  157.1922 H   0  0  0  0  0  0  0  0  0  0  0  0  # atno 8010 bound_to 7997
  140.2297  144.3700  150.6419 H   0  0  0  0  0  0  0  0  0  0  0  0  # atno 10167 bound_to 10162
  156.2278  130.4170  149.8912 H   0  0  0  0  0  0  0  0  0  0  0  0  # atno 10718 bound_to 10713
  153.0651  135.6570  154.0373 H   0  0  0  0  0  0  0  0  0  0  0  0  # atno 10763 bound_to 10752
  154.0032  135.2935  155.3402 H   0  0  0  0  0  0  0  0  0  0  0  0  # atno 10764 bound_to 10752
  154.7005  135.5246  153.8589 H   0  0  0  0  0  0  0  0  0  0  0  0  # atno 10765 bound_to 10752
  139.8963  134.9556  156.6794 H   0  0  0  0  0  0  0  0  0  0  0  0  # atno 11005 bound_to 11000
  145.2005  140.9852  143.4158 LP  0  0  0  0  0  0  0  0  0  0  0  0  # atno 17320 bound_to 7965
  144.9778  139.3814  143.6277 LP  0  0  0  0  0  0  0  0  0  0  0  0  # atno 17321 bound_to 7965
  140.6194  143.2175  151.6724 LP  0  0  0  0  0  0  0  0  0  0  0  0  # atno 17342 bound_to 10162
  139.5114  144.3509  152.0653 LP  0  0  0  0  0  0  0  0  0  0  0  0  # atno 17343 bound_to 10162
  156.6536  130.8753  151.3535 LP  0  0  0  0  0  0  0  0  0  0  0  0  # atno 17370 bound_to 10713
  157.7119  130.9450  150.1118 LP  0  0  0  0  0  0  0  0  0  0  0  0  # atno 17371 bound_to 10713
  140.7311  133.9058  155.8212 LP  0  0  0  0  0  0  0  0  0  0  0  0  # atno 17394 bound_to 11000
  141.0152  134.0965  157.4179 LP  0  0  0  0  0  0  0  0  0  0  0  0  # atno 17395 bound_to 11000

$$$$
