AV-unprocessed.smi:2866|AV-procd|sdf|11019|dock8
  -GOLD-   2272015483D 1   1.00000     0.00000
 Structure written by MMmdl.
 41 43  0  0  0  0  0  0  0  0  1 V2000
  153.2837  142.5212  161.2808 C   0  0  0  0  0  0  0  0  0  0  0  0
  152.4524  142.2677  160.0355 C   0  0  0  0  0  0  0  0  0  0  0  0
  152.3650  140.9534  159.5237 C   0  0  0  0  0  0  0  0  0  0  0  0
  151.6023  140.6755  158.3682 C   0  0  0  0  0  0  0  0  0  0  0  0
  151.3808  139.4821  157.7022 N   0  0  0  0  0  0  0  0  0  0  0  0
  150.5894  139.8730  156.7072 C   0  0  0  0  0  0  0  0  0  0  0  0
  150.2685  141.1802  156.6525 N   0  0  0  0  0  0  0  0  0  0  0  0
  149.4255  141.8376  155.6698 C   0  0  0  0  0  0  0  0  0  0  0  0
  148.9117  140.8656  154.5910 C   0  0  2  0  0  0  0  0  0  0  0  0
  149.9934  140.4357  153.7853 O   0  0  0  0  0  0  0  0  0  0  0  0
  147.8213  141.5063  153.7114 C   0  0  0  0  0  0  0  0  0  0  0  0
  146.6553  141.9114  154.4773 N   0  0  0  0  0  0  0  0  0  0  0  0
  146.0726  141.2707  155.5491 C   0  0  0  0  0  0  0  0  0  0  0  0
  145.0007  142.0222  155.9364 C   0  0  0  0  0  0  0  0  0  0  0  0
  145.0045  143.1242  155.0324 C   0  0  0  0  0  0  0  0  0  0  0  0
  144.0490  144.2870  154.9727 C   0  0  0  0  0  0  0  0  0  0  0  0
  144.2345  145.0915  156.0193 F   0  0  0  0  0  0  0  0  0  0  0  0
  144.2497  144.9850  153.8549 F   0  0  0  0  0  0  0  0  0  0  0  0
  142.7917  143.8449  154.9894 F   0  0  0  0  0  0  0  0  0  0  0  0
  146.0039  143.0514  154.1635 N   0  0  0  0  0  0  0  0  0  0  0  0
  150.9235  141.7571  157.7346 C   0  0  0  0  0  0  0  0  0  0  0  0
  151.0041  143.0692  158.2331 C   0  0  0  0  0  0  0  0  0  0  0  0
  151.7712  143.3295  159.3878 C   0  0  0  0  0  0  0  0  0  0  0  0
  151.8530  144.7500  159.9179 C   0  0  0  0  0  0  0  0  0  0  0  0
  153.7138  141.5969  161.6677 H   0  0  0  0  0  0  0  0  0  0  0  0
  152.6703  142.9588  162.0686 H   0  0  0  0  0  0  0  0  0  0  0  0
  154.1035  143.2049  161.0588 H   0  0  0  0  0  0  0  0  0  0  0  0
  152.8847  140.1446  160.0161 H   0  0  0  0  0  0  0  0  0  0  0  0
  150.2175  139.1679  155.9782 H   0  0  0  0  0  0  0  0  0  0  0  0
  148.5865  142.2948  156.1956 H   0  0  0  0  0  0  0  0  0  0  0  0
  149.9894  142.6520  155.2122 H   0  0  0  0  0  0  0  0  0  0  0  0
  148.4952  139.9835  155.0789 H   0  0  0  0  0  0  0  0  0  0  0  0
  149.6713  140.2774  152.9110 H   0  0  0  0  0  0  0  0  0  0  0  0
  148.2169  142.3914  153.2119 H   0  0  0  0  0  0  0  0  0  0  0  0
  147.5111  140.8174  152.9238 H   0  0  0  0  0  0  0  0  0  0  0  0
  146.4628  140.3425  155.9400 H   0  0  0  0  0  0  0  0  0  0  0  0
  144.3145  141.8156  156.7443 H   0  0  0  0  0  0  0  0  0  0  0  0
  150.4791  143.8679  157.7303 H   0  0  0  0  0  0  0  0  0  0  0  0
  151.2804  145.4399  159.2973 H   0  0  0  0  0  0  0  0  0  0  0  0
  152.8875  145.0935  159.9326 H   0  0  0  0  0  0  0  0  0  0  0  0
  151.4551  144.8031  160.9316 H   0  0  0  0  0  0  0  0  0  0  0  0
  1  2  1  0  0  0  0
  1 25  1  0  0  0  0
  1 26  1  0  0  0  0
  1 27  1  0  0  0  0
  2 23  1  0  0  0  0
  2  3  2  0  0  0  0
  3  4  1  0  0  0  0
  3 28  1  0  0  0  0
  4 21  2  0  0  0  0
  4  5  1  0  0  0  0
  5  6  2  0  0  0  0
  6  7  1  0  0  0  0
  6 29  1  0  0  0  0
  7  8  1  0  0  0  0
  7 21  1  0  0  0  0
  8  9  1  0  0  0  0
  8 30  1  0  0  0  0
  8 31  1  0  0  0  0
  9 10  1  0  0  0  0
  9 11  1  0  0  0  0
  9 32  1  0  0  0  0
 10 33  1  0  0  0  0
 11 12  1  0  0  0  0
 11 34  1  0  0  0  0
 11 35  1  0  0  0  0
 12 20  1  0  0  0  0
 12 13  1  0  0  0  0
 13 14  2  0  0  0  0
 13 36  1  0  0  0  0
 14 15  1  0  0  0  0
 14 37  1  0  0  0  0
 15 16  1  0  0  0  0
 15 20  2  0  0  0  0
 16 17  1  0  0  0  0
 16 18  1  0  0  0  0
 16 19  1  0  0  0  0
 21 22  1  0  0  0  0
 22 23  2  0  0  0  0
 22 38  1  0  0  0  0
 23 24  1  0  0  0  0
 24 39  1  0  0  0  0
 24 40  1  0  0  0  0
 24 41  1  0  0  0  0
M  END
> <s_m_source_file>
AV-unprocessed.smi

> <i_m_source_file_index>
2866

> <i_lp_mmshare_version>
43012

> <i_f3d_flags>
0

> <s_epik_input>
W0NIM11jKFtjSF0xKWMoW0NIM10pW2NIXWMoYzEyKW4oW2NIXW4yKVtDSDJdW0NASF0oW09IXSlbQ0gyXW4zW2NIXVtjSF1jKG4zKUMoRikoRilG

> <s_epik_cmdline>
J2VwaWtfcHl0aG9uJywgJy1waCcsICc3LjAnLCAnLXRuJywgJzgnLCAnLW1hJywgJzIwMCcsICctbWV0YWxfYmluZGluZycsICctaW1hZScsICc8aW5maWxlLm1hZT4nLCAnLW9tYWUnLCAnPG91dGZpbGUubWFlPic=

> <r_lp_tautomer_probability>
1

> <r_epik_Ionization_Penalty>
0.1021

> <r_epik_Ionization_Penalty_Charging>
0

> <r_epik_Ionization_Penalty_Neutral>
0.1021

> <r_epik_State_Penalty>
0.0920694

> <r_epik_Charging_Adjusted_Penalty>
0.0920694

> <i_epik_Tot_Q>
0

> <i_epik_Tot_abs_Q>
0

> <r_epik_Metal_State_Penalty>
0.0784291

> <b_epik_Metal_Only>
0

> <s_lp_Force_Field>
OPLS_2005

> <r_lp_Energy>
11.3604

> <b_lp_Chiralities_Consistent>
1

> <s_lp_Variant>
AV-unprocessed.smi:2866-1

> <Gold.Version>
5.8.1

> <Gold.Id.Protein>
6NUR|6NUR_protein|mol2

> <Gold.PLP.Fitness>
53.5084

> <Gold.PLP.PLP>
-49.7495

> <Gold.PLP.part.hbond>
-2.0000

> <Gold.PLP.part.metal>
0.0000

> <Gold.PLP.part.buried>
-7.0804

> <Gold.PLP.part.nonpolar>
-40.8092

> <Gold.PLP.part.repulsive>
0.2126

> <Gold.PLP.ligand.clash>
0.0000

> <Gold.PLP.ligand.torsion>
0.6732

> <Gold.PLP.Chemscore.Hbond>
1.6880

> <Gold.PLP.Chemscore.CHOScore>
0.0000

> <Gold.PLP.Chemscore.Metal>
0.0000

> <Gold.Chemscore.Hbonds>
donor molecule, donor type, donor heavy atom, donor atom, acceptor molecule, acceptor atom, score
      L1  H    10    33       P1  7957  1.00
      P1  H  7989  7998       L1    10  0.66

> <Gold.PLP.Chemscore.Internal.Correction>
0.0412

> <Gold.Rescore>
     Score         DG    S(hbond)    S(metal)    S(lipo)     H(rot)  DE(clash)    DE(int)     intcor
     16.54     -16.87       1.44        0.00     109.23       2.42       0.10       0.23       ----

> <Gold.Chemscore.Fitness>
16.5406

> <Gold.Chemscore.DG>
-16.8707

> <Gold.Chemscore.ZeroCoef>
-5.4800

> <Gold.Chemscore.Hbond>
1.4423

> <Gold.Chemscore.Metal>
0.0000

> <Gold.Chemscore.Lipo>
109.2295

> <Gold.Chemscore.Internal_Hbond>
0.0000

> <Gold.Chemscore.DEClash>
0.0965

> <Gold.Chemscore.DEInternal>
0.2336

> <Gold.Chemscore.Rot>
2.4243

> <Gold.Chemscore.Internal.Correction>
   9.000000E+99

> <Gold.Chemscore.Hbonds>
donor molecule, donor type, donor heavy atom, donor atom, acceptor molecule, acceptor atom, score
      L1  H    10    33       P1  7957  1.00
      P1  H  7989  7998       L1    10  0.20

> <Gold.Chemscore.Hbond.Weighted>
-4.8171

> <Gold.Chemscore.Metal.Weighted>
-0.0000

> <Gold.Chemscore.Lipo.Weighted>
-12.7798

> <Gold.Chemscore.Internal_Hbond.Weighted>
0.0000

> <Gold.Chemscore.DEClash.Weighted>
0.0965

> <Gold.Chemscore.DEInternal.Weighted>
0.2336

> <Gold.Chemscore.Rot.Weighted>
6.2063

> <Gold.Chemscore.Internal.Correction.Weighted>
   9.000000E+99

> <Gold.Protein.RotatedTorsions>
[ 6907 6896 6895 6894 ] final  -26.44 input  -60.11 | X-H torsion
[ 7974 7965 7964 7962 ] final  -79.32 input  175.53 | X-H torsion
[ 8008 7997 7996 7995 ] final  161.63 input   59.86 | X-H torsion
[ 10167 10162 10161 10158 ] final   61.37 input  -65.29 | X-H torsion
[ 10718 10713 10712 10709 ] final  179.04 input   66.30 | X-H torsion
[ 10763 10752 10751 10750 ] final -141.65 input  -60.55 | X-H torsion
[ 11005 11000 10999 10996 ] final   56.41 input  -57.11 | X-H torsion

> <Gold.Protein.ActiveResidues>
 VAL166  LYS551  ARG553  GLY616  TRP617  ASP618  TYR619  PRO620  LYS621  CYS622 
 ASP623  PHE694  ASN695  SER759  ASP760  ASP761  ALA762  ILE779  LEU786  VAL792 
 PHE793  MET794  SER795  GLU796  ALA797  LYS798  CYS799  TRP800  GLU811  SER814 

> <Gold.Protein.RotatedAtoms>
  151.1610  135.0273  159.8709 H   0  0  0  0  0  0  0  0  0  0  0  0  # atno 6907 bound_to 6896
  152.5451  134.1279  159.8437 H   0  0  0  0  0  0  0  0  0  0  0  0  # atno 6908 bound_to 6896
  151.1375  133.4948  159.2630 H   0  0  0  0  0  0  0  0  0  0  0  0  # atno 6909 bound_to 6896
  145.5747  140.9459  143.1376 H   0  0  0  0  0  0  0  0  0  0  0  0  # atno 7974 bound_to 7965
  156.2089  140.1772  156.7739 H   0  0  0  0  0  0  0  0  0  0  0  0  # atno 8008 bound_to 7997
  154.5694  140.0685  156.8971 H   0  0  0  0  0  0  0  0  0  0  0  0  # atno 8009 bound_to 7997
  155.2701  140.3342  155.4268 H   0  0  0  0  0  0  0  0  0  0  0  0  # atno 8010 bound_to 7997
  140.1555  144.4421  150.6736 H   0  0  0  0  0  0  0  0  0  0  0  0  # atno 10167 bound_to 10162
  156.8817  130.9818  151.3061 H   0  0  0  0  0  0  0  0  0  0  0  0  # atno 10718 bound_to 10713
  154.8538  135.3518  154.5901 H   0  0  0  0  0  0  0  0  0  0  0  0  # atno 10763 bound_to 10752
  153.6511  135.6994  153.5213 H   0  0  0  0  0  0  0  0  0  0  0  0  # atno 10764 bound_to 10752
  153.2893  135.4239  155.1110 H   0  0  0  0  0  0  0  0  0  0  0  0  # atno 10765 bound_to 10752
  140.0531  134.5708  155.9239 H   0  0  0  0  0  0  0  0  0  0  0  0  # atno 11005 bound_to 11000
  144.7421  139.7419  143.7306 LP  0  0  0  0  0  0  0  0  0  0  0  0  # atno 17320 bound_to 7965
  146.1759  139.4929  142.9898 LP  0  0  0  0  0  0  0  0  0  0  0  0  # atno 17321 bound_to 7965
  140.6676  143.2273  151.5705 LP  0  0  0  0  0  0  0  0  0  0  0  0  # atno 17342 bound_to 10162
  139.5405  144.2660  152.1341 LP  0  0  0  0  0  0  0  0  0  0  0  0  # atno 17343 bound_to 10162
  157.6136  130.8602  149.8992 LP  0  0  0  0  0  0  0  0  0  0  0  0  # atno 17370 bound_to 10713
  156.0674  130.3690  150.0849 LP  0  0  0  0  0  0  0  0  0  0  0  0  # atno 17371 bound_to 10713
  141.1940  133.6581  156.5573 LP  0  0  0  0  0  0  0  0  0  0  0  0  # atno 17394 bound_to 11000
  140.3885  134.7461  157.4707 LP  0  0  0  0  0  0  0  0  0  0  0  0  # atno 17395 bound_to 11000

$$$$
