AV-unprocessed.smi:754|AV-procd|sdf|3608|dock8
  -GOLD-   22720 1 03D 1   1.00000     0.00000
 Structure written by MMmdl.
 37 38  0  0  0  0  0  0  0  0  1 V2000
  152.4824  143.2432  161.6300 C   0  0  0  0  0  0  0  0  0  0  0  0
  152.8213  141.9827  160.8317 C   0  0  0  0  0  0  0  0  0  0  0  0
  151.7531  141.7057  159.9423 O   0  0  0  0  0  0  0  0  0  0  0  0
  152.1000  141.9049  158.5812 C   0  0  1  0  0  0  0  0  0  0  0  0
  151.3713  140.9866  157.5952 C   0  0  0  0  0  0  0  0  0  0  0  0
  151.3021  142.2084  156.6778 C   0  0  1  0  0  0  0  0  0  0  0  0
  150.0483  142.2811  155.9349 N   0  0  0  0  0  0  0  0  0  0  0  0
  149.6453  141.3727  155.0344 C   0  0  0  0  0  0  0  0  0  0  0  0
  150.3070  140.3776  154.7373 O   0  0  0  0  0  0  0  0  0  0  0  0
  148.2948  141.6317  154.3618 C   0  0  0  0  0  0  0  0  0  0  0  0
  147.4761  140.4338  154.3335 N   0  0  0  0  0  0  0  0  0  0  0  0
  147.0694  139.6728  153.3155 C   0  0  0  0  0  0  0  0  0  0  0  0
  146.3342  138.6527  153.7308 N   0  0  0  0  0  0  0  0  0  0  0  0
  146.3057  138.8244  155.1049 N   0  0  0  0  0  0  0  0  0  0  0  0
  146.9820  139.8796  155.4685 N   0  0  0  0  0  0  0  0  0  0  0  0
  151.3719  143.1118  157.9393 C   0  0  0  0  0  0  0  0  0  0  0  0
  150.0386  143.5182  158.5914 C   0  0  0  0  0  0  0  0  0  0  0  0
  152.2046  144.3861  157.8004 C   0  0  0  0  0  0  0  0  0  0  0  0
  153.2842  143.4918  162.3254 H   0  0  0  0  0  0  0  0  0  0  0  0
  151.5682  143.1052  162.2077 H   0  0  0  0  0  0  0  0  0  0  0  0
  152.3358  144.0971  160.9682 H   0  0  0  0  0  0  0  0  0  0  0  0
  153.7464  142.1331  160.2731 H   0  0  0  0  0  0  0  0  0  0  0  0
  152.9777  141.1436  161.5109 H   0  0  0  0  0  0  0  0  0  0  0  0
  153.1792  141.9338  158.4118 H   0  0  0  0  0  0  0  0  0  0  0  0
  151.9723  140.1611  157.2129 H   0  0  0  0  0  0  0  0  0  0  0  0
  150.3998  140.6471  157.9591 H   0  0  0  0  0  0  0  0  0  0  0  0
  152.1932  142.2886  156.0505 H   0  0  0  0  0  0  0  0  0  0  0  0
  149.4487  143.0722  156.1205 H   0  0  0  0  0  0  0  0  0  0  0  0
  147.7481  142.4237  154.8765 H   0  0  0  0  0  0  0  0  0  0  0  0
  148.4614  141.9671  153.3376 H   0  0  0  0  0  0  0  0  0  0  0  0
  147.3129  139.8632  152.2806 H   0  0  0  0  0  0  0  0  0  0  0  0
  149.5025  144.2511  157.9878 H   0  0  0  0  0  0  0  0  0  0  0  0
  150.1961  143.9629  159.5745 H   0  0  0  0  0  0  0  0  0  0  0  0
  149.3725  142.6666  158.7313 H   0  0  0  0  0  0  0  0  0  0  0  0
  151.7001  145.1290  157.1821 H   0  0  0  0  0  0  0  0  0  0  0  0
  153.1704  144.1848  157.3363 H   0  0  0  0  0  0  0  0  0  0  0  0
  152.4019  144.8425  158.7707 H   0  0  0  0  0  0  0  0  0  0  0  0
  1  2  1  0  0  0  0
  1 19  1  0  0  0  0
  1 20  1  0  0  0  0
  1 21  1  0  0  0  0
  2  3  1  0  0  0  0
  2 22  1  0  0  0  0
  2 23  1  0  0  0  0
  3  4  1  0  0  0  0
  4 16  1  0  0  0  0
  4  5  1  0  0  0  0
  4 24  1  0  0  0  0
  5  6  1  0  0  0  0
  5 25  1  0  0  0  0
  5 26  1  0  0  0  0
  6  7  1  0  0  0  0
  6 16  1  0  0  0  0
  6 27  1  0  0  0  0
  7  8  1  0  0  0  0
  7 28  1  0  0  0  0
  8  9  2  0  0  0  0
  8 10  1  0  0  0  0
 10 11  1  0  0  0  0
 10 29  1  0  0  0  0
 10 30  1  0  0  0  0
 11 15  1  0  0  0  0
 11 12  1  0  0  0  0
 12 13  2  0  0  0  0
 12 31  1  0  0  0  0
 13 14  1  0  0  0  0
 14 15  2  0  0  0  0
 16 17  1  0  0  0  0
 16 18  1  0  0  0  0
 17 32  1  0  0  0  0
 17 33  1  0  0  0  0
 17 34  1  0  0  0  0
 18 35  1  0  0  0  0
 18 36  1  0  0  0  0
 18 37  1  0  0  0  0
M  END
> <s_m_source_file>
AV-unprocessed.smi

> <i_m_source_file_index>
754

> <i_lp_mmshare_version>
43012

> <i_f3d_flags>
0

> <s_epik_input>
W0NIM11bQ0gyXU9bQ0BASF0oQzEoW0NIM10pW0NIM10pW0NIMl1bQ0BIXTFbTkhdQyg9TylbQ0gyXW4yW2NIXW5ubjI=

> <s_epik_cmdline>
J2VwaWtfcHl0aG9uJywgJy1waCcsICc3LjAnLCAnLXRuJywgJzgnLCAnLW1hJywgJzIwMCcsICctbWV0YWxfYmluZGluZycsICctaW1hZScsICc8aW5maWxlLm1hZT4nLCAnLW9tYWUnLCAnPG91dGZpbGUubWFlPic=

> <r_lp_tautomer_probability>
1

> <r_epik_Ionization_Penalty>
8.28422e-07

> <r_epik_Ionization_Penalty_Charging>
0

> <r_epik_Ionization_Penalty_Neutral>
8.28422e-07

> <r_epik_State_Penalty>
-0

> <r_epik_Charging_Adjusted_Penalty>
0

> <i_epik_Tot_Q>
0

> <i_epik_Tot_abs_Q>
0

> <r_epik_Metal_State_Penalty>
-0

> <b_epik_Metal_Only>
0

> <s_lp_Force_Field>
OPLS_2005

> <r_lp_Energy>
20.8169

> <b_lp_Chiralities_Consistent>
1

> <s_lp_Variant>
AV-unprocessed.smi:754-2

> <Gold.Version>
5.8.1

> <Gold.Id.Protein>
6NUR|6NUR_protein|mol2

> <Gold.PLP.Fitness>
43.2720

> <Gold.PLP.PLP>
-36.5531

> <Gold.PLP.part.hbond>
-2.5248

> <Gold.PLP.part.metal>
0.0000

> <Gold.PLP.part.buried>
-5.5190

> <Gold.PLP.part.nonpolar>
-28.5493

> <Gold.PLP.part.repulsive>
0.4921

> <Gold.PLP.ligand.clash>
0.0000

> <Gold.PLP.ligand.torsion>
1.2451

> <Gold.PLP.Chemscore.Hbond>
1.9600

> <Gold.PLP.Chemscore.CHOScore>
0.9960

> <Gold.PLP.Chemscore.Metal>
0.0000

> <Gold.Chemscore.Hbonds>
donor molecule, donor type, donor heavy atom, donor atom, acceptor molecule, acceptor atom, score
      L1  H     7    28       P1  8028  0.98
      P1  H  7989  7998       L1     9  1.00
      L1  C    12    31       P1  7957  0.99

> <Gold.PLP.Chemscore.Internal.Correction>
0.3410

> <Gold.Rescore>
     Score         DG    S(hbond)    S(metal)    S(lipo)     H(rot)  DE(clash)    DE(int)     intcor
     13.58     -15.17       1.73        0.00      87.17       2.46       0.45       1.14       ----

> <Gold.Chemscore.Fitness>
13.5840

> <Gold.Chemscore.DG>
-15.1720

> <Gold.Chemscore.ZeroCoef>
-5.4800

> <Gold.Chemscore.Hbond>
1.7348

> <Gold.Chemscore.Metal>
0.0000

> <Gold.Chemscore.Lipo>
87.1746

> <Gold.Chemscore.Internal_Hbond>
0.0000

> <Gold.Chemscore.DEClash>
0.4483

> <Gold.Chemscore.DEInternal>
1.1396

> <Gold.Chemscore.Rot>
2.4616

> <Gold.Chemscore.Internal.Correction>
   9.000000E+99

> <Gold.Chemscore.Hbonds>
donor molecule, donor type, donor heavy atom, donor atom, acceptor molecule, acceptor atom, score
      L1  H     7    28       P1  8028  0.93
      P1  H  7989  7998       L1     9  0.63

> <Gold.Chemscore.Hbond.Weighted>
-5.7942

> <Gold.Chemscore.Metal.Weighted>
-0.0000

> <Gold.Chemscore.Lipo.Weighted>
-10.1994

> <Gold.Chemscore.Internal_Hbond.Weighted>
0.0000

> <Gold.Chemscore.DEClash.Weighted>
0.4483

> <Gold.Chemscore.DEInternal.Weighted>
1.1396

> <Gold.Chemscore.Rot.Weighted>
6.3016

> <Gold.Chemscore.Internal.Correction.Weighted>
   9.000000E+99

> <Gold.Protein.RotatedTorsions>
[ 6907 6896 6895 6894 ] final -136.41 input  -60.11 | X-H torsion
[ 7974 7965 7964 7962 ] final   54.11 input  175.53 | X-H torsion
[ 8008 7997 7996 7995 ] final   44.26 input   59.86 | X-H torsion
[ 10167 10162 10161 10158 ] final   65.56 input  -65.29 | X-H torsion
[ 10718 10713 10712 10709 ] final  -62.16 input   66.30 | X-H torsion
[ 10763 10752 10751 10750 ] final  -88.62 input  -60.55 | X-H torsion
[ 11005 11000 10999 10996 ] final -109.98 input  -57.11 | X-H torsion

> <Gold.Protein.ActiveResidues>
 VAL166  LYS551  ARG553  GLY616  TRP617  ASP618  TYR619  PRO620  LYS621  CYS622 
 ASP623  PHE694  ASN695  SER759  ASP760  ASP761  ALA762  ILE779  LEU786  VAL792 
 PHE793  MET794  SER795  GLU796  ALA797  LYS798  CYS799  TRP800  GLU811  SER814 

> <Gold.Protein.RotatedAtoms>
  151.0098  133.5976  159.2683 H   0  0  0  0  0  0  0  0  0  0  0  0  # atno 6907 bound_to 6896
  151.3132  135.0799  159.9289 H   0  0  0  0  0  0  0  0  0  0  0  0  # atno 6908 bound_to 6896
  152.5296  133.9758  159.7838 H   0  0  0  0  0  0  0  0  0  0  0  0  # atno 6909 bound_to 6896
  145.9642  139.4087  143.0229 H   0  0  0  0  0  0  0  0  0  0  0  0  # atno 7974 bound_to 7965
  155.3164  140.3394  155.4242 H   0  0  0  0  0  0  0  0  0  0  0  0  # atno 8008 bound_to 7997
  156.1930  140.1705  156.8091 H   0  0  0  0  0  0  0  0  0  0  0  0  # atno 8009 bound_to 7997
  154.5465  140.0714  156.8581 H   0  0  0  0  0  0  0  0  0  0  0  0  # atno 8010 bound_to 7997
  140.1100  144.4827  150.6984 H   0  0  0  0  0  0  0  0  0  0  0  0  # atno 10167 bound_to 10162
  156.0874  130.4206  150.1096 H   0  0  0  0  0  0  0  0  0  0  0  0  # atno 10718 bound_to 10713
  154.6465  135.5370  153.7851 H   0  0  0  0  0  0  0  0  0  0  0  0  # atno 10763 bound_to 10752
  153.0362  135.6472  154.1081 H   0  0  0  0  0  0  0  0  0  0  0  0  # atno 10764 bound_to 10752
  154.1002  135.2934  155.3233 H   0  0  0  0  0  0  0  0  0  0  0  0  # atno 10765 bound_to 10752
  141.0817  133.9208  157.2273 H   0  0  0  0  0  0  0  0  0  0  0  0  # atno 11005 bound_to 11000
  145.7997  140.9776  143.1005 LP  0  0  0  0  0  0  0  0  0  0  0  0  # atno 17320 bound_to 7965
  144.6822  139.9786  143.7483 LP  0  0  0  0  0  0  0  0  0  0  0  0  # atno 17321 bound_to 7965
  140.6931  143.2387  151.5076 LP  0  0  0  0  0  0  0  0  0  0  0  0  # atno 17342 bound_to 10162
  139.5624  144.2123  152.1713 LP  0  0  0  0  0  0  0  0  0  0  0  0  # atno 17343 bound_to 10162
  156.9113  130.9653  151.3562 LP  0  0  0  0  0  0  0  0  0  0  0  0  # atno 17370 bound_to 10713
  157.6012  130.8514  149.8805 LP  0  0  0  0  0  0  0  0  0  0  0  0  # atno 17371 bound_to 10713
  139.9632  135.0149  156.9317 LP  0  0  0  0  0  0  0  0  0  0  0  0  # atno 17394 bound_to 11000
  140.5453  134.0680  155.7353 LP  0  0  0  0  0  0  0  0  0  0  0  0  # atno 17395 bound_to 11000

$$$$
