AV-unprocessed.smi:1307|AV-procd|sdf|5436|dock4
  -GOLD-   22720 5 03D 1   1.00000     0.00000
 Structure written by MMmdl.
 41 41  0  0  0  0  0  0  0  0  1 V2000
  147.2278  132.9469  161.7504 C   0  0  0  0  0  0  0  0  0  0  0  0
  146.8654  134.3129  162.3615 C   0  0  0  0  0  0  0  0  0  0  0  0
  145.3374  134.4016  162.5464 C   0  0  0  0  0  0  0  0  0  0  0  0
  147.4350  135.4966  161.5326 C   0  0  2  0  0  0  0  0  0  0  0  0
  146.9170  136.8694  161.9946 C   0  0  0  0  0  0  0  0  0  0  0  0
  147.1013  135.3444  160.1161 N   0  0  0  0  0  0  0  0  0  0  0  0
  147.9661  135.3855  159.0907 C   0  0  0  0  0  0  0  0  0  0  0  0
  149.1779  135.5570  159.2309 O   0  0  0  0  0  0  0  0  0  0  0  0
  147.3535  135.1757  157.6959 C   0  0  0  0  0  0  0  0  0  0  0  0
  148.3391  135.2568  156.5884 N   0  0  0  0  0  0  0  0  0  0  0  0
  148.7254  134.0716  155.8870 C   0  0  0  0  0  0  0  0  0  0  0  0
  148.1528  132.7147  156.3229 C   0  0  0  0  0  0  0  0  0  0  0  0
  148.6681  131.7196  155.5995 F   0  0  0  0  0  0  0  0  0  0  0  0
  148.4303  132.4390  157.5971 F   0  0  0  0  0  0  0  0  0  0  0  0
  146.8319  132.6787  156.1439 F   0  0  0  0  0  0  0  0  0  0  0  0
  149.6113  134.1511  154.8771 C   0  0  0  0  0  0  0  0  0  0  0  0
  150.1625  135.4221  154.4965 C   0  0  0  0  0  0  0  0  0  0  0  0
  149.8126  136.5512  155.1534 C   0  0  0  0  0  0  0  0  0  0  0  0
  150.3533  137.8830  154.7980 C   0  0  0  0  0  0  0  0  0  0  0  0
  150.2668  138.1817  153.4955 N   0  0  0  0  0  0  0  0  0  0  0  0
  150.8584  138.7058  155.5618 O   0  0  0  0  0  0  0  0  0  0  0  0
  148.8446  136.5004  156.2793 C   0  0  0  0  0  0  0  0  0  0  0  0
  148.4911  137.4904  156.9275 O   0  0  0  0  0  0  0  0  0  0  0  0
  146.8660  132.8633  160.7252 H   0  0  0  0  0  0  0  0  0  0  0  0
  146.7870  132.1309  162.3239 H   0  0  0  0  0  0  0  0  0  0  0  0
  148.3039  132.7781  161.7413 H   0  0  0  0  0  0  0  0  0  0  0  0
  147.3105  134.3517  163.3567 H   0  0  0  0  0  0  0  0  0  0  0  0
  144.8240  134.4332  161.5849 H   0  0  0  0  0  0  0  0  0  0  0  0
  145.0463  135.2889  163.1087 H   0  0  0  0  0  0  0  0  0  0  0  0
  144.9570  133.5409  163.0973 H   0  0  0  0  0  0  0  0  0  0  0  0
  148.5194  135.5020  161.6557 H   0  0  0  0  0  0  0  0  0  0  0  0
  147.2406  137.1051  163.0078 H   0  0  0  0  0  0  0  0  0  0  0  0
  145.8276  136.9124  161.9708 H   0  0  0  0  0  0  0  0  0  0  0  0
  147.2939  137.6650  161.3506 H   0  0  0  0  0  0  0  0  0  0  0  0
  146.1273  135.1924  159.8984 H   0  0  0  0  0  0  0  0  0  0  0  0
  146.8014  134.2407  157.7018 H   0  0  0  0  0  0  0  0  0  0  0  0
  146.5633  135.9160  157.5562 H   0  0  0  0  0  0  0  0  0  0  0  0
  149.9254  133.2678  154.3413 H   0  0  0  0  0  0  0  0  0  0  0  0
  150.8590  135.4294  153.6713 H   0  0  0  0  0  0  0  0  0  0  0  0
  150.6041  139.0708  153.1565 H   0  0  0  0  0  0  0  0  0  0  0  0
  149.8574  137.5151  152.8571 H   0  0  0  0  0  0  0  0  0  0  0  0
  1  2  1  0  0  0  0
  1 24  1  0  0  0  0
  1 25  1  0  0  0  0
  1 26  1  0  0  0  0
  2  3  1  0  0  0  0
  2  4  1  0  0  0  0
  2 27  1  0  0  0  0
  3 28  1  0  0  0  0
  3 29  1  0  0  0  0
  3 30  1  0  0  0  0
  4  5  1  0  0  0  0
  4  6  1  0  0  0  0
  4 31  1  0  0  0  0
  5 32  1  0  0  0  0
  5 33  1  0  0  0  0
  5 34  1  0  0  0  0
  6  7  1  0  0  0  0
  6 35  1  0  0  0  0
  7  8  2  0  0  0  0
  7  9  1  0  0  0  0
  9 10  1  0  0  0  0
  9 36  1  0  0  0  0
  9 37  1  0  0  0  0
 10 22  1  0  0  0  0
 10 11  1  0  0  0  0
 11 12  1  0  0  0  0
 11 16  2  0  0  0  0
 12 13  1  0  0  0  0
 12 14  1  0  0  0  0
 12 15  1  0  0  0  0
 16 17  1  0  0  0  0
 16 38  1  0  0  0  0
 17 18  2  0  0  0  0
 17 39  1  0  0  0  0
 18 19  1  0  0  0  0
 18 22  1  0  0  0  0
 19 20  1  0  0  0  0
 19 21  2  0  0  0  0
 20 40  1  0  0  0  0
 20 41  1  0  0  0  0
 22 23  2  0  0  0  0
M  END
> <s_m_source_file>
AV-unprocessed.smi

> <i_m_source_file_index>
1307

> <i_lp_mmshare_version>
43012

> <i_f3d_flags>
0

> <s_epik_input>
W0NIM11bQ0hdKFtDSDNdKVtDQEhdKFtDSDNdKVtOSF1DKD1PKVtDSDJdbjFjKEMoRikoRilGKVtjSF1bY0hdYyhjMT1PKUMoPU8pW05IMl0=

> <s_epik_cmdline>
J2VwaWtfcHl0aG9uJywgJy1waCcsICc3LjAnLCAnLXRuJywgJzgnLCAnLW1hJywgJzIwMCcsICctbWV0YWxfYmluZGluZycsICctaW1hZScsICc8aW5maWxlLm1hZT4nLCAnLW9tYWUnLCAnPG91dGZpbGUubWFlPic=

> <r_lp_tautomer_probability>
1

> <r_epik_Ionization_Penalty>
2.05992e-06

> <r_epik_Ionization_Penalty_Charging>
8.21357e-10

> <r_epik_Ionization_Penalty_Neutral>
2.0591e-06

> <r_epik_State_Penalty>
-0

> <r_epik_Charging_Adjusted_Penalty>
8.21357e-10

> <i_epik_Tot_Q>
0

> <i_epik_Tot_abs_Q>
0

> <r_epik_Metal_State_Penalty>
-0

> <b_epik_Metal_Only>
0

> <s_lp_Force_Field>
OPLS_2005

> <r_lp_Energy>
26.4012

> <b_lp_Chiralities_Consistent>
1

> <s_lp_Variant>
AV-unprocessed.smi:1307-1

> <Gold.Version>
5.8.1

> <Gold.Id.Protein>
6NUR|6NUR_protein|mol2

> <Gold.PLP.Fitness>
34.7840

> <Gold.PLP.PLP>
-30.1036

> <Gold.PLP.part.hbond>
-3.0084

> <Gold.PLP.part.metal>
0.0000

> <Gold.PLP.part.buried>
-2.5320

> <Gold.PLP.part.nonpolar>
-23.6710

> <Gold.PLP.part.repulsive>
0.1490

> <Gold.PLP.ligand.clash>
3.9460

> <Gold.PLP.ligand.torsion>
1.2595

> <Gold.PLP.Chemscore.Hbond>
2.3689

> <Gold.PLP.Chemscore.CHOScore>
0.0000

> <Gold.PLP.Chemscore.Metal>
0.0000

> <Gold.Chemscore.Hbonds>
donor molecule, donor type, donor heavy atom, donor atom, acceptor molecule, acceptor atom, score
      L1  H    20    40       P1  7957  0.02
      L1  H    20    41       P1  7948  1.00
      P1  H  6896  6909       L1     8  1.00

> <Gold.PLP.Chemscore.Internal.Correction>
4.0386

> <Gold.Rescore>
     Score         DG    S(hbond)    S(metal)    S(lipo)     H(rot)  DE(clash)    DE(int)     intcor
     13.98     -17.29       2.71        0.00      66.62       1.97       0.18       3.12       ----

> <Gold.Chemscore.Fitness>
13.9822

> <Gold.Chemscore.DG>
-17.2858

> <Gold.Chemscore.ZeroCoef>
-5.4800

> <Gold.Chemscore.Hbond>
2.7126

> <Gold.Chemscore.Metal>
0.0000

> <Gold.Chemscore.Lipo>
66.6208

> <Gold.Chemscore.Internal_Hbond>
0.0000

> <Gold.Chemscore.DEClash>
0.1811

> <Gold.Chemscore.DEInternal>
3.1225

> <Gold.Chemscore.Rot>
1.9723

> <Gold.Chemscore.Internal.Correction>
   9.000000E+99

> <Gold.Chemscore.Hbonds>
donor molecule, donor type, donor heavy atom, donor atom, acceptor molecule, acceptor atom, score
      L1  H    20    40       P1  7957  0.02
      L1  H    20    41       P1  7948  0.30
      P1  H  6896  6909       L1     8  1.00

> <Gold.Chemscore.Hbond.Weighted>
-9.0602

> <Gold.Chemscore.Metal.Weighted>
-0.0000

> <Gold.Chemscore.Lipo.Weighted>
-7.7946

> <Gold.Chemscore.Internal_Hbond.Weighted>
0.0000

> <Gold.Chemscore.DEClash.Weighted>
0.1811

> <Gold.Chemscore.DEInternal.Weighted>
3.1225

> <Gold.Chemscore.Rot.Weighted>
5.0490

> <Gold.Chemscore.Internal.Correction.Weighted>
   9.000000E+99

> <Gold.Protein.RotatedTorsions>
[ 6907 6896 6895 6894 ] final   58.03 input  -60.11 | X-H torsion
[ 7974 7965 7964 7962 ] final -171.73 input  175.53 | X-H torsion
[ 8008 7997 7996 7995 ] final  -24.26 input   59.86 | X-H torsion
[ 10167 10162 10161 10158 ] final  -18.25 input  -65.29 | X-H torsion
[ 10718 10713 10712 10709 ] final  125.93 input   66.30 | X-H torsion
[ 10763 10752 10751 10750 ] final  -98.11 input  -60.55 | X-H torsion
[ 11005 11000 10999 10996 ] final  164.12 input  -57.11 | X-H torsion

> <Gold.Protein.ActiveResidues>
 VAL166  LYS551  ARG553  GLY616  TRP617  ASP618  TYR619  PRO620  LYS621  CYS622 
 ASP623  PHE694  ASN695  SER759  ASP760  ASP761  ALA762  ILE779  LEU786  VAL792 
 PHE793  MET794  SER795  GLU796  ALA797  LYS798  CYS799  TRP800  GLU811  SER814 

> <Gold.Protein.RotatedAtoms>
  152.3787  134.6624  160.0150 H   0  0  0  0  0  0  0  0  0  0  0  0  # atno 6907 bound_to 6896
  151.6894  133.3305  159.3247 H   0  0  0  0  0  0  0  0  0  0  0  0  # atno 6908 bound_to 6896
  150.7730  134.6647  159.6403 H   0  0  0  0  0  0  0  0  0  0  0  0  # atno 6909 bound_to 6896
  144.7154  140.1879  143.6351 H   0  0  0  0  0  0  0  0  0  0  0  0  # atno 7974 bound_to 7965
  154.4539  140.1958  156.0436 H   0  0  0  0  0  0  0  0  0  0  0  0  # atno 8008 bound_to 7997
  156.0706  140.3285  155.7543 H   0  0  0  0  0  0  0  0  0  0  0  0  # atno 8009 bound_to 7997
  155.5269  140.0574  157.2887 H   0  0  0  0  0  0  0  0  0  0  0  0  # atno 8010 bound_to 7997
  140.7256  143.4935  150.9961 H   0  0  0  0  0  0  0  0  0  0  0  0  # atno 10167 bound_to 10162
  157.5462  131.1095  150.8778 H   0  0  0  0  0  0  0  0  0  0  0  0  # atno 10718 bound_to 10713
  154.7386  135.5021  153.9084 H   0  0  0  0  0  0  0  0  0  0  0  0  # atno 10763 bound_to 10752
  153.1020  135.6687  153.9663 H   0  0  0  0  0  0  0  0  0  0  0  0  # atno 10764 bound_to 10752
  153.9446  135.3064  155.3420 H   0  0  0  0  0  0  0  0  0  0  0  0  # atno 10765 bound_to 10752
  140.2427  134.8038  157.3426 H   0  0  0  0  0  0  0  0  0  0  0  0  # atno 11005 bound_to 11000
  145.8796  139.2315  143.1613 LP  0  0  0  0  0  0  0  0  0  0  0  0  # atno 17320 bound_to 7965
  146.0008  140.8522  143.0020 LP  0  0  0  0  0  0  0  0  0  0  0  0  # atno 17321 bound_to 7965
  139.8640  143.7277  152.3171 LP  0  0  0  0  0  0  0  0  0  0  0  0  # atno 17342 bound_to 10162
  139.7503  144.7536  151.0517 LP  0  0  0  0  0  0  0  0  0  0  0  0  # atno 17343 bound_to 10162
  156.9316  130.5352  149.5279 LP  0  0  0  0  0  0  0  0  0  0  0  0  # atno 17370 bound_to 10713
  156.0538  130.5603  150.9046 LP  0  0  0  0  0  0  0  0  0  0  0  0  # atno 17371 bound_to 10713
  140.1637  134.4696  155.7877 LP  0  0  0  0  0  0  0  0  0  0  0  0  # atno 17394 bound_to 11000
  141.2209  133.6912  156.7588 LP  0  0  0  0  0  0  0  0  0  0  0  0  # atno 17395 bound_to 11000

$$$$
