AV-unprocessed.smi:1782|AV-procd|sdf|7191|dock1
  -GOLD-   22720 8433D 1   1.00000     0.00000
 Structure written by MMmdl.
 42 44  0  0  0  0  0  0  0  0  2 V2000
  144.4102  135.1095  151.7312 O   0  0  0  0  0  0  0  0  0  0  0  0
  145.6125  135.2779  151.5236 C   0  0  0  0  0  0  0  0  0  0  0  0
  146.4467  134.1918  150.8301 C   0  0  0  0  0  0  0  0  0  0  0  0
  146.3108  132.8711  151.4684 N   0  0  0  0  0  0  0  0  0  0  0  0
  145.3236  132.0112  150.9545 C   0  0  0  0  0  0  0  0  0  0  0  0
  145.1136  130.7920  151.4685 C   0  0  0  0  0  0  0  0  0  0  0  0
  145.9304  130.3699  152.5801 C   0  0  0  0  0  0  0  0  0  0  0  0
  146.8885  131.1744  153.0958 C   0  0  0  0  0  0  0  0  0  0  0  0
  147.7535  130.7483  154.2799 C   0  0  0  0  0  0  0  0  0  0  0  0
  149.0344  130.6702  153.9173 F   0  0  0  0  0  0  0  0  0  0  0  0
  147.6556  131.6295  155.2762 F   0  0  0  0  0  0  0  0  0  0  0  0
  147.3902  129.5558  154.7547 F   0  0  0  0  0  0  0  0  0  0  0  0
  147.1143  132.5155  152.5189 C   0  0  0  0  0  0  0  0  0  0  0  0
  147.9757  133.2838  152.9513 O   0  0  0  0  0  0  0  0  0  0  0  0
  146.2644  136.3989  151.8662 N   0  0  0  0  0  0  0  0  0  0  0  0
  145.6569  137.5314  152.5560 C   0  0  1  0  0  0  0  0  0  0  0  0
  145.2108  137.2310  153.9905 C   0  0  0  0  0  0  0  0  0  0  0  0
  145.3631  138.5690  154.7336 C   0  0  0  0  0  0  0  0  0  0  0  0
  146.0315  139.5043  153.7992 N   0  3  1  0  0  0  0  0  0  0  0  0
  146.9640  140.4498  154.4481 C   0  0  0  0  0  0  0  0  0  0  0  0
  146.4446  141.8666  154.5022 C   0  0  0  0  0  0  0  0  0  0  0  0
  147.5209  141.4907  153.5068 C   0  0  0  0  0  0  0  0  0  0  0  0
  146.6454  138.6777  152.7458 C   0  0  0  0  0  0  0  0  0  0  0  0
  146.1433  134.1501  149.7832 H   0  0  0  0  0  0  0  0  0  0  0  0
  147.4974  134.4882  150.8106 H   0  0  0  0  0  0  0  0  0  0  0  0
  144.7503  132.4051  150.1277 H   0  0  0  0  0  0  0  0  0  0  0  0
  144.3494  130.1444  151.0644 H   0  0  0  0  0  0  0  0  0  0  0  0
  145.7578  129.3902  152.9998 H   0  0  0  0  0  0  0  0  0  0  0  0
  147.2498  136.4607  151.6524 H   0  0  0  0  0  0  0  0  0  0  0  0
  144.8040  137.8975  151.9804 H   0  0  0  0  0  0  0  0  0  0  0  0
  144.1918  136.8450  154.0319 H   0  0  0  0  0  0  0  0  0  0  0  0
  145.8644  136.4852  154.4460 H   0  0  0  0  0  0  0  0  0  0  0  0
  144.3965  138.9789  155.0281 H   0  0  0  0  0  0  0  0  0  0  0  0
  145.9537  138.4279  155.6403 H   0  0  0  0  0  0  0  0  0  0  0  0
  147.5732  140.0539  155.2589 H   0  0  0  0  0  0  0  0  0  0  0  0
  145.4470  142.0650  154.1141 H   0  0  0  0  0  0  0  0  0  0  0  0
  146.7427  142.4787  155.3512 H   0  0  0  0  0  0  0  0  0  0  0  0
  148.5277  141.8557  153.7006 H   0  0  0  0  0  0  0  0  0  0  0  0
  147.2389  141.4401  152.4565 H   0  0  0  0  0  0  0  0  0  0  0  0
  147.6108  138.3000  153.0893 H   0  0  0  0  0  0  0  0  0  0  0  0
  146.8070  139.2488  151.8308 H   0  0  0  0  0  0  0  0  0  0  0  0
  145.3006  140.0417  153.3552 H   0  0  0  0  0  0  0  0  0  0  0  0
  1  2  2  0  0  0  0
  2  3  1  0  0  0  0
  2 15  1  0  0  0  0
  3  4  1  0  0  0  0
  3 24  1  0  0  0  0
  3 25  1  0  0  0  0
  4 13  1  0  0  0  0
  4  5  1  0  0  0  0
  5  6  2  0  0  0  0
  5 26  1  0  0  0  0
  6  7  1  0  0  0  0
  6 27  1  0  0  0  0
  7  8  2  0  0  0  0
  7 28  1  0  0  0  0
  8  9  1  0  0  0  0
  8 13  1  0  0  0  0
  9 10  1  0  0  0  0
  9 11  1  0  0  0  0
  9 12  1  0  0  0  0
 13 14  2  0  0  0  0
 15 16  1  0  0  0  0
 15 29  1  0  0  0  0
 16 23  1  0  0  0  0
 16 17  1  0  0  0  0
 16 30  1  0  0  0  0
 17 18  1  0  0  0  0
 17 31  1  0  0  0  0
 17 32  1  0  0  0  0
 18 19  1  0  0  0  0
 18 33  1  0  0  0  0
 18 34  1  0  0  0  0
 19 20  1  0  0  0  0
 19 23  1  0  0  0  0
 19 42  1  0  0  0  0
 20 22  1  0  0  0  0
 20 21  1  0  0  0  0
 20 35  1  0  0  0  0
 21 22  1  0  0  0  0
 21 36  1  0  0  0  0
 21 37  1  0  0  0  0
 22 38  1  0  0  0  0
 22 39  1  0  0  0  0
 23 40  1  0  0  0  0
 23 41  1  0  0  0  0
M  CHG  1  19   1
M  END
> <s_m_source_file>
AV-unprocessed.smi

> <i_m_source_file_index>
1782

> <i_lp_mmshare_version>
43012

> <i_f3d_flags>
0

> <s_epik_input>
W0NIMl0xW0NIMl1bQ0hdMU4oW0NIMl0yKVtDSDJdW0NIMl1bQ0BIXTJbTkhdQyg9TylbQ0gyXW4zW2NIXVtjSF1bY0hdYyhDKEYpKEYpRiljMz1P

> <s_epik_cmdline>
J2VwaWtfcHl0aG9uJywgJy1waCcsICc3LjAnLCAnLXRuJywgJzgnLCAnLW1hJywgJzIwMCcsICctbWV0YWxfYmluZGluZycsICctaW1hZScsICc8aW5maWxlLm1hZT4nLCAnLW9tYWUnLCAnPG91dGZpbGUubWFlPic=

> <r_lp_tautomer_probability>
1

> <r_epik_Ionization_Penalty>
0.00106789

> <r_epik_Ionization_Penalty_Charging>
0.00106781

> <r_epik_Ionization_Penalty_Neutral>
8.2288e-08

> <r_epik_State_Penalty>
0.000699156

> <r_epik_Charging_Adjusted_Penalty>
0.00176697

> <i_epik_Tot_Q>
1

> <i_epik_Tot_abs_Q>
1

> <r_epik_Metal_State_Penalty>
-0

> <b_epik_Metal_Only>
0

> <s_lp_Force_Field>
OPLS_2005

> <r_lp_Energy>
45.6714

> <b_lp_Chiralities_Consistent>
1

> <s_lp_Variant>
AV-unprocessed.smi:1782-4

> <Gold.Version>
5.8.1

> <Gold.Id.Protein>
6NUR|6NUR_protein|mol2

> <Gold.PLP.Fitness>
43.4398

> <Gold.PLP.PLP>
-35.4688

> <Gold.PLP.part.hbond>
-2.0000

> <Gold.PLP.part.metal>
0.0000

> <Gold.PLP.part.buried>
-7.7649

> <Gold.PLP.part.nonpolar>
-26.2408

> <Gold.PLP.part.repulsive>
0.3977

> <Gold.PLP.ligand.clash>
0.2635

> <Gold.PLP.ligand.torsion>
1.1942

> <Gold.PLP.Chemscore.Hbond>
3.0000

> <Gold.PLP.Chemscore.CHOScore>
0.0000

> <Gold.PLP.Chemscore.Metal>
0.0000

> <Gold.Chemscore.Hbonds>
donor molecule, donor type, donor heavy atom, donor atom, acceptor molecule, acceptor atom, score
      L1  H    15    29       P1  7948  1.00
      L1  H    19    42       P1 10175  2.00

> <Gold.PLP.Chemscore.Internal.Correction>
1.6229

> <Gold.Rescore>
     Score         DG    S(hbond)    S(metal)    S(lipo)     H(rot)  DE(clash)    DE(int)     intcor
     12.57     -16.27       1.96        0.00      75.91       1.81       0.66       3.04       ----

> <Gold.Chemscore.Fitness>
12.5728

> <Gold.Chemscore.DG>
-16.2727

> <Gold.Chemscore.ZeroCoef>
-5.4800

> <Gold.Chemscore.Hbond>
1.9595

> <Gold.Chemscore.Metal>
0.0000

> <Gold.Chemscore.Lipo>
75.9123

> <Gold.Chemscore.Internal_Hbond>
0.0000

> <Gold.Chemscore.DEClash>
0.6646

> <Gold.Chemscore.DEInternal>
3.0353

> <Gold.Chemscore.Rot>
1.8101

> <Gold.Chemscore.Internal.Correction>
   9.000000E+99

> <Gold.Chemscore.Hbonds>
donor molecule, donor type, donor heavy atom, donor atom, acceptor molecule, acceptor atom, score
      L1  H    15    29       P1  7948  0.99
      L1  H    19    42       P1 10175  1.00

> <Gold.Chemscore.Hbond.Weighted>
-6.5447

> <Gold.Chemscore.Metal.Weighted>
-0.0000

> <Gold.Chemscore.Lipo.Weighted>
-8.8817

> <Gold.Chemscore.Internal_Hbond.Weighted>
0.0000

> <Gold.Chemscore.DEClash.Weighted>
0.6646

> <Gold.Chemscore.DEInternal.Weighted>
3.0353

> <Gold.Chemscore.Rot.Weighted>
4.6338

> <Gold.Chemscore.Internal.Correction.Weighted>
   9.000000E+99

> <Gold.Protein.RotatedTorsions>
[ 6907 6896 6895 6894 ] final   12.21 input  -60.11 | X-H torsion
[ 7974 7965 7964 7962 ] final  -31.61 input  175.53 | X-H torsion
[ 8008 7997 7996 7995 ] final  157.57 input   59.86 | X-H torsion
[ 10167 10162 10161 10158 ] final   58.05 input  -65.29 | X-H torsion
[ 10718 10713 10712 10709 ] final -121.31 input   66.30 | X-H torsion
[ 10763 10752 10751 10750 ] final  -79.81 input  -60.55 | X-H torsion
[ 11005 11000 10999 10996 ] final -154.77 input  -57.11 | X-H torsion

> <Gold.Protein.ActiveResidues>
 VAL166  LYS551  ARG553  GLY616  TRP617  ASP618  TYR619  PRO620  LYS621  CYS622 
 ASP623  PHE694  ASN695  SER759  ASP760  ASP761  ALA762  ILE779  LEU786  VAL792 
 PHE793  MET794  SER795  GLU796  ALA797  LYS798  CYS799  TRP800  GLU811  SER814 

> <Gold.Protein.RotatedAtoms>
  151.7666  135.0797  160.0353 H   0  0  0  0  0  0  0  0  0  0  0  0  # atno 6907 bound_to 6896
  152.3317  133.5961  159.5822 H   0  0  0  0  0  0  0  0  0  0  0  0  # atno 6908 bound_to 6896
  150.7426  133.9774  159.3607 H   0  0  0  0  0  0  0  0  0  0  0  0  # atno 6909 bound_to 6896
  146.1054  140.5689  142.8802 H   0  0  0  0  0  0  0  0  0  0  0  0  # atno 7974 bound_to 7965
  156.2356  140.1882  156.7128 H   0  0  0  0  0  0  0  0  0  0  0  0  # atno 8008 bound_to 7997
  154.6100  140.0623  156.9508 H   0  0  0  0  0  0  0  0  0  0  0  0  # atno 8009 bound_to 7997
  155.2032  140.3294  155.4342 H   0  0  0  0  0  0  0  0  0  0  0  0  # atno 8010 bound_to 7997
  140.1914  144.4082  150.6569 H   0  0  0  0  0  0  0  0  0  0  0  0  # atno 10167 bound_to 10162
  156.1327  130.6407  150.9647 H   0  0  0  0  0  0  0  0  0  0  0  0  # atno 10718 bound_to 10713
  154.5433  135.5682  153.6858 H   0  0  0  0  0  0  0  0  0  0  0  0  # atno 10763 bound_to 10752
  152.9969  135.6233  154.2472 H   0  0  0  0  0  0  0  0  0  0  0  0  # atno 10764 bound_to 10752
  154.2404  135.2862  155.2836 H   0  0  0  0  0  0  0  0  0  0  0  0  # atno 10765 bound_to 10752
  140.6938  134.4012  157.5217 H   0  0  0  0  0  0  0  0  0  0  0  0  # atno 11005 bound_to 11000
  144.7466  140.5085  143.6831 LP  0  0  0  0  0  0  0  0  0  0  0  0  # atno 17320 bound_to 7965
  145.5771  139.1486  143.3256 LP  0  0  0  0  0  0  0  0  0  0  0  0  # atno 17321 bound_to 7965
  140.6453  143.2212  151.6199 LP  0  0  0  0  0  0  0  0  0  0  0  0  # atno 17342 bound_to 10162
  139.5254  144.3074  152.1022 LP  0  0  0  0  0  0  0  0  0  0  0  0  # atno 17343 bound_to 10162
  157.6503  131.0898  150.8064 LP  0  0  0  0  0  0  0  0  0  0  0  0  # atno 17370 bound_to 10713
  156.8147  130.4964  149.5351 LP  0  0  0  0  0  0  0  0  0  0  0  0  # atno 17371 bound_to 10713
  139.8916  134.8776  156.2312 LP  0  0  0  0  0  0  0  0  0  0  0  0  # atno 17394 bound_to 11000
  141.0220  133.7036  156.1284 LP  0  0  0  0  0  0  0  0  0  0  0  0  # atno 17395 bound_to 11000

$$$$
