AV-unprocessed.smi:1829|AV-procd|sdf|7429|dock5
  -GOLD-   22720 9113D 1   1.00000     0.00000
 Structure written by MMmdl.
 45 47  0  0  0  0  0  0  0  0  1 V2000
  152.3834  145.2186  157.6355 C   0  0  0  0  0  0  0  0  0  0  0  0
  151.7424  144.7070  158.9353 C   0  0  0  0  0  0  0  0  0  0  0  0
  151.8404  145.7469  160.0626 C   0  0  0  0  0  0  0  0  0  0  0  0
  152.3229  143.3639  159.3604 C   0  0  0  0  0  0  0  0  0  0  0  0
  152.7983  143.1841  160.6771 C   0  0  0  0  0  0  0  0  0  0  0  0
  153.3411  141.9471  161.0756 C   0  0  0  0  0  0  0  0  0  0  0  0
  153.4126  140.8737  160.1633 C   0  0  0  0  0  0  0  0  0  0  0  0
  154.0098  139.5444  160.5974 C   0  0  1  0  0  0  0  0  0  0  0  0
  154.4081  139.5559  161.9546 O   0  0  0  0  0  0  0  0  0  0  0  0
  153.0293  138.3819  160.3445 C   0  0  0  0  0  0  0  0  0  0  0  0
  153.6172  137.0796  160.6299 N   0  0  0  0  0  0  0  0  0  0  0  0
  154.2233  136.2194  159.7723 C   0  0  0  0  0  0  0  0  0  0  0  0
  154.3686  136.5415  158.3117 C   0  0  0  0  0  0  0  0  0  0  0  0
  153.7783  135.5886  157.4502 O   0  0  0  0  0  0  0  0  0  0  0  0
  154.6773  135.0878  160.3175 N   0  0  0  0  0  0  0  0  0  0  0  0
  154.3328  135.2276  161.6473 C   0  0  0  0  0  0  0  0  0  0  0  0
  154.5375  134.3624  162.7460 C   0  0  0  0  0  0  0  0  0  0  0  0
  154.0918  134.7264  164.0338 C   0  0  0  0  0  0  0  0  0  0  0  0
  153.4368  135.9577  164.2411 C   0  0  0  0  0  0  0  0  0  0  0  0
  153.2229  136.8342  163.1598 C   0  0  0  0  0  0  0  0  0  0  0  0
  153.6692  136.4654  161.8767 C   0  0  0  0  0  0  0  0  0  0  0  0
  152.9400  141.0529  158.8452 C   0  0  0  0  0  0  0  0  0  0  0  0
  152.3979  142.2898  158.4469 C   0  0  0  0  0  0  0  0  0  0  0  0
  152.2669  144.4937  156.8292 H   0  0  0  0  0  0  0  0  0  0  0  0
  153.4495  145.4110  157.7599 H   0  0  0  0  0  0  0  0  0  0  0  0
  151.9174  146.1493  157.3104 H   0  0  0  0  0  0  0  0  0  0  0  0
  150.6814  144.5579  158.7302 H   0  0  0  0  0  0  0  0  0  0  0  0
  151.3337  145.3972  160.9627 H   0  0  0  0  0  0  0  0  0  0  0  0
  151.3750  146.6879  159.7680 H   0  0  0  0  0  0  0  0  0  0  0  0
  152.8768  145.9603  160.3254 H   0  0  0  0  0  0  0  0  0  0  0  0
  152.7516  143.9953  161.3888 H   0  0  0  0  0  0  0  0  0  0  0  0
  153.7049  141.8276  162.0858 H   0  0  0  0  0  0  0  0  0  0  0  0
  154.9148  139.3728  160.0130 H   0  0  0  0  0  0  0  0  0  0  0  0
  153.6332  139.6067  162.4930 H   0  0  0  0  0  0  0  0  0  0  0  0
  152.1188  138.5118  160.9293 H   0  0  0  0  0  0  0  0  0  0  0  0
  152.7172  138.3842  159.2992 H   0  0  0  0  0  0  0  0  0  0  0  0
  153.9153  137.5117  158.1088 H   0  0  0  0  0  0  0  0  0  0  0  0
  155.4288  136.6175  158.0693 H   0  0  0  0  0  0  0  0  0  0  0  0
  153.5974  134.8058  157.9473 H   0  0  0  0  0  0  0  0  0  0  0  0
  155.0384  133.4173  162.5973 H   0  0  0  0  0  0  0  0  0  0  0  0
  154.2536  134.0576  164.8663 H   0  0  0  0  0  0  0  0  0  0  0  0
  153.0985  136.2288  165.2305 H   0  0  0  0  0  0  0  0  0  0  0  0
  152.7214  137.7781  163.3143 H   0  0  0  0  0  0  0  0  0  0  0  0
  152.9954  140.2424  158.1332 H   0  0  0  0  0  0  0  0  0  0  0  0
  152.0414  142.4102  157.4343 H   0  0  0  0  0  0  0  0  0  0  0  0
  1  2  1  0  0  0  0
  1 24  1  0  0  0  0
  1 25  1  0  0  0  0
  1 26  1  0  0  0  0
  2  3  1  0  0  0  0
  2  4  1  0  0  0  0
  2 27  1  0  0  0  0
  3 28  1  0  0  0  0
  3 29  1  0  0  0  0
  3 30  1  0  0  0  0
  4 23  1  0  0  0  0
  4  5  2  0  0  0  0
  5  6  1  0  0  0  0
  5 31  1  0  0  0  0
  6  7  2  0  0  0  0
  6 32  1  0  0  0  0
  7  8  1  0  0  0  0
  7 22  1  0  0  0  0
  8  9  1  0  0  0  0
  8 10  1  0  0  0  0
  8 33  1  0  0  0  0
  9 34  1  0  0  0  0
 10 11  1  0  0  0  0
 10 35  1  0  0  0  0
 10 36  1  0  0  0  0
 11 21  1  0  0  0  0
 11 12  1  0  0  0  0
 12 13  1  0  0  0  0
 12 15  2  0  0  0  0
 13 14  1  0  0  0  0
 13 37  1  0  0  0  0
 13 38  1  0  0  0  0
 14 39  1  0  0  0  0
 15 16  1  0  0  0  0
 16 21  2  0  0  0  0
 16 17  1  0  0  0  0
 17 18  2  0  0  0  0
 17 40  1  0  0  0  0
 18 19  1  0  0  0  0
 18 41  1  0  0  0  0
 19 20  2  0  0  0  0
 19 42  1  0  0  0  0
 20 21  1  0  0  0  0
 20 43  1  0  0  0  0
 22 23  2  0  0  0  0
 22 44  1  0  0  0  0
 23 45  1  0  0  0  0
M  END
> <s_m_source_file>
AV-unprocessed.smi

> <i_m_source_file_index>
1829

> <i_lp_mmshare_version>
43012

> <i_f3d_flags>
0

> <s_epik_input>
W0NIM11bQ0hdKFtDSDNdKWMxW2NIXVtjSF1jKFtjSF1bY0hdMSlbQ0BIXShbT0hdKVtDSDJdbihjKG4yKVtDSDJdW09IXSljKGMyMylbY0hdW2NIXVtjSF1bY0hdMw==

> <s_epik_cmdline>
J2VwaWtfcHl0aG9uJywgJy1waCcsICc3LjAnLCAnLXRuJywgJzgnLCAnLW1hJywgJzIwMCcsICctbWV0YWxfYmluZGluZycsICctaW1hZScsICc8aW5maWxlLm1hZT4nLCAnLW9tYWUnLCAnPG91dGZpbGUubWFlPic=

> <r_epik_Ionization_Penalty>
0.0634718

> <r_epik_Ionization_Penalty_Charging>
0

> <r_epik_Ionization_Penalty_Neutral>
0.0634718

> <r_epik_State_Penalty>
0.0551572

> <r_epik_Charging_Adjusted_Penalty>
0.0551572

> <i_epik_Tot_Q>
0

> <i_epik_Tot_abs_Q>
0

> <r_epik_Metal_State_Penalty>
5.78034e-05

> <b_epik_Metal_Only>
0

> <s_lp_Force_Field>
OPLS_2005

> <r_lp_Energy>
13.3672

> <b_lp_Chiralities_Consistent>
1

> <s_lp_Variant>
AV-unprocessed.smi:1829-2

> <Gold.Version>
5.8.1

> <Gold.Id.Protein>
6NUR|6NUR_protein|mol2

> <Gold.PLP.Fitness>
53.2173

> <Gold.PLP.PLP>
-51.2623

> <Gold.PLP.part.hbond>
-0.9394

> <Gold.PLP.part.metal>
0.0000

> <Gold.PLP.part.buried>
-6.0705

> <Gold.PLP.part.nonpolar>
-44.2377

> <Gold.PLP.part.repulsive>
0.0000

> <Gold.PLP.ligand.clash>
0.0000

> <Gold.PLP.ligand.torsion>
0.4814

> <Gold.PLP.Chemscore.Hbond>
0.9425

> <Gold.PLP.Chemscore.CHOScore>
0.0000

> <Gold.PLP.Chemscore.Metal>
0.0000

> <Gold.Chemscore.Hbonds>
donor molecule, donor type, donor heavy atom, donor atom, acceptor molecule, acceptor atom, score
      P1  H 10752 10764       L1    14  0.89

> <Gold.PLP.Chemscore.Internal.Correction>
0.0904

> <Gold.Rescore>
     Score         DG    S(hbond)    S(metal)    S(lipo)     H(rot)  DE(clash)    DE(int)     intcor
     18.46     -19.35       0.96        0.00     149.64       2.68       0.02       0.87       ----

> <Gold.Chemscore.Fitness>
18.4584

> <Gold.Chemscore.DG>
-19.3522

> <Gold.Chemscore.ZeroCoef>
-5.4800

> <Gold.Chemscore.Hbond>
0.9626

> <Gold.Chemscore.Metal>
0.0000

> <Gold.Chemscore.Lipo>
149.6394

> <Gold.Chemscore.Internal_Hbond>
0.0000

> <Gold.Chemscore.DEClash>
0.0217

> <Gold.Chemscore.DEInternal>
0.8721

> <Gold.Chemscore.Rot>
2.6761

> <Gold.Chemscore.Internal.Correction>
   9.000000E+99

> <Gold.Chemscore.Hbonds>
donor molecule, donor type, donor heavy atom, donor atom, acceptor molecule, acceptor atom, score
      P1  H 10752 10764       L1    14  0.79

> <Gold.Chemscore.Hbond.Weighted>
-3.2151

> <Gold.Chemscore.Metal.Weighted>
-0.0000

> <Gold.Chemscore.Lipo.Weighted>
-17.5078

> <Gold.Chemscore.Internal_Hbond.Weighted>
0.0000

> <Gold.Chemscore.DEClash.Weighted>
0.0217

> <Gold.Chemscore.DEInternal.Weighted>
0.8721

> <Gold.Chemscore.Rot.Weighted>
6.8507

> <Gold.Chemscore.Internal.Correction.Weighted>
   9.000000E+99

> <Gold.Protein.RotatedTorsions>
[ 6907 6896 6895 6894 ] final  -50.18 input  -60.11 | X-H torsion
[ 7974 7965 7964 7962 ] final  -47.49 input  175.53 | X-H torsion
[ 8008 7997 7996 7995 ] final   93.51 input   59.86 | X-H torsion
[ 10167 10162 10161 10158 ] final  172.72 input  -65.29 | X-H torsion
[ 10718 10713 10712 10709 ] final  -28.79 input   66.30 | X-H torsion
[ 10763 10752 10751 10750 ] final    8.38 input  -60.55 | X-H torsion
[ 11005 11000 10999 10996 ] final   44.70 input  -57.11 | X-H torsion

> <Gold.Protein.ActiveResidues>
 VAL166  LYS551  ARG553  GLY616  TRP617  ASP618  TYR619  PRO620  LYS621  CYS622 
 ASP623  PHE694  ASN695  SER759  ASP760  ASP761  ALA762  ILE779  LEU786  VAL792 
 PHE793  MET794  SER795  GLU796  ALA797  LYS798  CYS799  TRP800  GLU811  SER814 

> <Gold.Protein.RotatedAtoms>
  150.8732  134.8109  159.7169 H   0  0  0  0  0  0  0  0  0  0  0  0  # atno 6907 bound_to 6896
  152.4728  134.4914  159.9706 H   0  0  0  0  0  0  0  0  0  0  0  0  # atno 6908 bound_to 6896
  151.4999  133.3468  159.2903 H   0  0  0  0  0  0  0  0  0  0  0  0  # atno 6909 bound_to 6896
  145.9611  140.7478  142.9457 H   0  0  0  0  0  0  0  0  0  0  0  0  # atno 7974 bound_to 7965
  156.0476  140.3312  155.7314 H   0  0  0  0  0  0  0  0  0  0  0  0  # atno 8008 bound_to 7997
  155.5650  140.0622  157.2837 H   0  0  0  0  0  0  0  0  0  0  0  0  # atno 8009 bound_to 7997
  154.4421  140.1871  156.0809 H   0  0  0  0  0  0  0  0  0  0  0  0  # atno 8010 bound_to 7997
  139.5085  144.3342  152.0082 H   0  0  0  0  0  0  0  0  0  0  0  0  # atno 10167 bound_to 10162
  156.4207  130.4426  149.7186 H   0  0  0  0  0  0  0  0  0  0  0  0  # atno 10718 bound_to 10713
  153.2257  135.6886  153.7948 H   0  0  0  0  0  0  0  0  0  0  0  0  # atno 10763 bound_to 10752
  153.7130  135.3279  155.3251 H   0  0  0  0  0  0  0  0  0  0  0  0  # atno 10764 bound_to 10752
  154.8291  135.4595  154.1123 H   0  0  0  0  0  0  0  0  0  0  0  0  # atno 10765 bound_to 10752
  140.1528  134.4440  155.8370 H   0  0  0  0  0  0  0  0  0  0  0  0  # atno 11005 bound_to 11000
  144.6815  140.2592  143.7321 LP  0  0  0  0  0  0  0  0  0  0  0  0  # atno 17320 bound_to 7965
  145.8039  139.1975  143.2032 LP  0  0  0  0  0  0  0  0  0  0  0  0  # atno 17321 bound_to 7965
  140.2781  144.3890  150.6128 LP  0  0  0  0  0  0  0  0  0  0  0  0  # atno 17342 bound_to 10162
  140.6039  143.2167  151.7019 LP  0  0  0  0  0  0  0  0  0  0  0  0  # atno 17343 bound_to 10162
  156.4128  130.7730  151.2744 LP  0  0  0  0  0  0  0  0  0  0  0  0  # atno 17370 bound_to 10713
  157.7508  131.0206  150.3716 LP  0  0  0  0  0  0  0  0  0  0  0  0  # atno 17371 bound_to 10713
  141.2201  133.6879  156.7452 LP  0  0  0  0  0  0  0  0  0  0  0  0  # atno 17394 bound_to 11000
  140.2584  134.8486  157.3735 LP  0  0  0  0  0  0  0  0  0  0  0  0  # atno 17395 bound_to 11000

$$$$
