AV-unprocessed.smi:1698|AV-procd|sdf|6813|dock5
  -GOLD-   22720 7593D 1   1.00000     0.00000
 Structure written by MMmdl.
 28 29  0  0  0  0  0  0  0  0  1 V2000
  146.5518  133.2106  154.3327 O   0  0  0  0  0  0  0  0  0  0  0  0
  147.2000  133.9290  153.5743 C   0  0  0  0  0  0  0  0  0  0  0  0
  146.7510  134.3895  152.3912 N   0  0  0  0  0  0  0  0  0  0  0  0
  145.4857  134.1565  151.7964 C   0  0  0  0  0  0  0  0  0  0  0  0
  144.4983  133.2760  152.3161 C   0  0  0  0  0  0  0  0  0  0  0  0
  143.4162  133.2577  151.5511 N   0  0  0  0  0  0  0  0  0  0  0  0
  143.7034  134.1184  150.5485 N   0  0  0  0  0  0  0  0  0  0  0  0
  144.9524  134.6891  150.6564 C   0  0  0  0  0  0  0  0  0  0  0  0
  148.4476  134.3246  153.8857 N   0  0  0  0  0  0  0  0  0  0  0  0
  149.2274  134.0075  155.0832 C   0  0  2  0  0  0  0  0  0  0  0  0
  150.5649  134.7712  155.0863 C   0  0  0  0  0  0  0  0  0  0  0  0
  151.4850  134.1525  156.1466 C   0  0  0  0  0  0  0  0  0  0  0  0
  151.0275  132.3802  156.2470 S   0  0  0  0  0  0  0  0  0  0  0  0
  152.0453  131.5664  155.5655 O   0  0  0  0  0  0  0  0  0  0  0  0
  150.6101  132.0744  157.6237 O   0  0  0  0  0  0  0  0  0  0  0  0
  149.5460  132.5064  155.1773 C   0  0  0  0  0  0  0  0  0  0  0  0
  143.0443  134.3035  149.8058 H   0  0  0  0  0  0  0  0  0  0  0  0
  147.3828  134.9737  151.8636 H   0  0  0  0  0  0  0  0  0  0  0  0
  144.5305  132.6618  153.2039 H   0  0  0  0  0  0  0  0  0  0  0  0
  145.3290  135.3973  149.9334 H   0  0  0  0  0  0  0  0  0  0  0  0
  148.9035  134.9275  153.2159 H   0  0  0  0  0  0  0  0  0  0  0  0
  148.6786  134.3088  155.9773 H   0  0  0  0  0  0  0  0  0  0  0  0
  151.0406  134.6656  154.1098 H   0  0  0  0  0  0  0  0  0  0  0  0
  150.4224  135.8389  155.2552 H   0  0  0  0  0  0  0  0  0  0  0  0
  152.5428  134.2562  155.9045 H   0  0  0  0  0  0  0  0  0  0  0  0
  151.3059  134.6007  157.1241 H   0  0  0  0  0  0  0  0  0  0  0  0
  148.7307  131.9162  155.5960 H   0  0  0  0  0  0  0  0  0  0  0  0
  149.8058  132.0962  154.2008 H   0  0  0  0  0  0  0  0  0  0  0  0
  1  2  2  0  0  0  0
  2  3  1  0  0  0  0
  2  9  1  0  0  0  0
  3  4  1  0  0  0  0
  3 18  1  0  0  0  0
  4  8  2  0  0  0  0
  4  5  1  0  0  0  0
  5  6  2  0  0  0  0
  5 19  1  0  0  0  0
  6  7  1  0  0  0  0
  7 17  1  0  0  0  0
  7  8  1  0  0  0  0
  8 20  1  0  0  0  0
  9 10  1  0  0  0  0
  9 21  1  0  0  0  0
 10 16  1  0  0  0  0
 10 11  1  0  0  0  0
 10 22  1  0  0  0  0
 11 12  1  0  0  0  0
 11 23  1  0  0  0  0
 11 24  1  0  0  0  0
 12 13  1  0  0  0  0
 12 25  1  0  0  0  0
 12 26  1  0  0  0  0
 13 14  2  0  0  0  0
 13 15  2  0  0  0  0
 13 16  1  0  0  0  0
 16 27  1  0  0  0  0
 16 28  1  0  0  0  0
M  END
> <s_m_source_file>
AV-unprocessed.smi

> <i_m_source_file_index>
1698

> <i_lp_mmshare_version>
43012

> <i_f3d_flags>
0

> <s_epik_input>
Tz1TMSg9TylbQ0gyXVtDSDJdW0NASF0oW0NIMl0xKVtOSF1DKD1PKVtOSF1jMltjSF1uW25IXVtjSF0y

> <s_epik_cmdline>
J2VwaWtfcHl0aG9uJywgJy1waCcsICc3LjAnLCAnLXRuJywgJzgnLCAnLW1hJywgJzIwMCcsICctbWV0YWxfYmluZGluZycsICctaW1hZScsICc8aW5maWxlLm1hZT4nLCAnLW9tYWUnLCAnPG91dGZpbGUubWFlPic=

> <r_lp_tautomer_probability>
1

> <r_epik_Ionization_Penalty>
3.85517e-05

> <r_epik_Ionization_Penalty_Charging>
0

> <r_epik_Ionization_Penalty_Neutral>
3.85517e-05

> <r_epik_State_Penalty>
-0

> <r_epik_Charging_Adjusted_Penalty>
0

> <i_epik_Tot_Q>
0

> <i_epik_Tot_abs_Q>
0

> <r_epik_Metal_State_Penalty>
-0

> <b_epik_Metal_Only>
0

> <s_lp_Force_Field>
OPLS_2005

> <r_lp_Energy>
17.454

> <b_lp_Chiralities_Consistent>
1

> <s_lp_Variant>
AV-unprocessed.smi:1698-1

> <Gold.Version>
5.8.1

> <Gold.Id.Protein>
6NUR|6NUR_protein|mol2

> <Gold.PLP.Fitness>
36.6721

> <Gold.PLP.PLP>
-19.7426

> <Gold.PLP.part.hbond>
-4.0000

> <Gold.PLP.part.metal>
0.0000

> <Gold.PLP.part.buried>
-2.9364

> <Gold.PLP.part.nonpolar>
-13.4420

> <Gold.PLP.part.repulsive>
0.3070

> <Gold.PLP.ligand.clash>
0.0000

> <Gold.PLP.ligand.torsion>
0.0311

> <Gold.PLP.Chemscore.Hbond>
3.6800

> <Gold.PLP.Chemscore.CHOScore>
1.9839

> <Gold.PLP.Chemscore.Metal>
0.0000

> <Gold.Chemscore.Hbonds>
donor molecule, donor type, donor heavy atom, donor atom, acceptor molecule, acceptor atom, score
      L1  H     3    18       P1  7948  0.99
      L1  H     7    17       P1 10186  0.72
      L1  H     9    21       P1  7948  1.00
      P1  H  6896  6907       L1    15  0.62
      L1  C     5    19       P1 10957  0.86
      L1  C     8    20       P1  7921  0.91

> <Gold.PLP.Chemscore.Internal.Correction>
0.0003

> <Gold.Rescore>
     Score         DG    S(hbond)    S(metal)    S(lipo)     H(rot)  DE(clash)    DE(int)     intcor
     17.16     -18.47       3.48        0.00      33.59       1.00       0.02       1.29       ----

> <Gold.Chemscore.Fitness>
17.1633

> <Gold.Chemscore.DG>
-18.4735

> <Gold.Chemscore.ZeroCoef>
-5.4800

> <Gold.Chemscore.Hbond>
3.4802

> <Gold.Chemscore.Metal>
0.0000

> <Gold.Chemscore.Lipo>
33.5861

> <Gold.Chemscore.Internal_Hbond>
0.0000

> <Gold.Chemscore.DEClash>
0.0174

> <Gold.Chemscore.DEInternal>
1.2928

> <Gold.Chemscore.Rot>
1.0000

> <Gold.Chemscore.Internal.Correction>
   9.000000E+99

> <Gold.Chemscore.Hbonds>
donor molecule, donor type, donor heavy atom, donor atom, acceptor molecule, acceptor atom, score
      L1  H     3    18       P1  7948  0.82
      L1  H     7    17       P1 10186  0.69
      L1  H     9    21       P1  7948  0.25
      P1  H  6896  6907       L1    15  0.58

> <Gold.Chemscore.Hbond.Weighted>
-11.6239

> <Gold.Chemscore.Metal.Weighted>
-0.0000

> <Gold.Chemscore.Lipo.Weighted>
-3.9296

> <Gold.Chemscore.Internal_Hbond.Weighted>
0.0000

> <Gold.Chemscore.DEClash.Weighted>
0.0174

> <Gold.Chemscore.DEInternal.Weighted>
1.2928

> <Gold.Chemscore.Rot.Weighted>
2.5600

> <Gold.Chemscore.Internal.Correction.Weighted>
   9.000000E+99

> <Gold.Protein.RotatedTorsions>
[ 6907 6896 6895 6894 ] final -140.29 input  -60.11 | X-H torsion
[ 7974 7965 7964 7962 ] final -162.85 input  175.53 | X-H torsion
[ 8008 7997 7996 7995 ] final -141.03 input   59.86 | X-H torsion
[ 10167 10162 10161 10158 ] final   79.73 input  -65.29 | X-H torsion
[ 10718 10713 10712 10709 ] final  -81.86 input   66.30 | X-H torsion
[ 10763 10752 10751 10750 ] final  -55.63 input  -60.55 | X-H torsion
[ 11005 11000 10999 10996 ] final    9.73 input  -57.11 | X-H torsion

> <Gold.Protein.ActiveResidues>
 VAL166  LYS551  ARG553  GLY616  TRP617  ASP618  TYR619  PRO620  LYS621  CYS622 
 ASP623  PHE694  ASN695  SER759  ASP760  ASP761  ALA762  ILE779  LEU786  VAL792 
 PHE793  MET794  SER795  GLU796  ALA797  LYS798  CYS799  TRP800  GLU811  SER814 

> <Gold.Protein.RotatedAtoms>
  151.0588  133.5561  159.2635 H   0  0  0  0  0  0  0  0  0  0  0  0  # atno 6907 bound_to 6896
  151.2544  135.0632  159.9084 H   0  0  0  0  0  0  0  0  0  0  0  0  # atno 6908 bound_to 6896
  152.5394  134.0344  159.8093 H   0  0  0  0  0  0  0  0  0  0  0  0  # atno 6909 bound_to 6896
  144.7344  140.3193  143.6174 H   0  0  0  0  0  0  0  0  0  0  0  0  # atno 7974 bound_to 7965
  155.4710  140.0553  157.2979 H   0  0  0  0  0  0  0  0  0  0  0  0  # atno 8008 bound_to 7997
  154.4698  140.2035  155.9977 H   0  0  0  0  0  0  0  0  0  0  0  0  # atno 8009 bound_to 7997
  156.1037  140.3215  155.7981 H   0  0  0  0  0  0  0  0  0  0  0  0  # atno 8010 bound_to 7997
  139.9572  144.5985  150.8105 H   0  0  0  0  0  0  0  0  0  0  0  0  # atno 10167 bound_to 10162
  156.0043  130.4617  150.4018 H   0  0  0  0  0  0  0  0  0  0  0  0  # atno 10718 bound_to 10713
  154.1938  135.6422  153.5067 H   0  0  0  0  0  0  0  0  0  0  0  0  # atno 10763 bound_to 10752
  153.0028  135.5435  154.6387 H   0  0  0  0  0  0  0  0  0  0  0  0  # atno 10764 bound_to 10752
  154.5782  135.2923  155.0732 H   0  0  0  0  0  0  0  0  0  0  0  0  # atno 10765 bound_to 10752
  140.5224  134.0546  155.7849 H   0  0  0  0  0  0  0  0  0  0  0  0  # atno 11005 bound_to 11000
  145.7585  139.1817  143.2280 LP  0  0  0  0  0  0  0  0  0  0  0  0  # atno 17320 bound_to 7965
  146.1005  140.7549  142.9551 LP  0  0  0  0  0  0  0  0  0  0  0  0  # atno 17321 bound_to 7965
  140.7564  143.3066  151.2947 LP  0  0  0  0  0  0  0  0  0  0  0  0  # atno 17342 bound_to 10162
  139.6582  144.0238  152.2674 LP  0  0  0  0  0  0  0  0  0  0  0  0  # atno 17343 bound_to 10162
  157.2086  131.0455  151.2611 LP  0  0  0  0  0  0  0  0  0  0  0  0  # atno 17370 bound_to 10713
  157.3910  130.7282  149.6697 LP  0  0  0  0  0  0  0  0  0  0  0  0  # atno 17371 bound_to 10713
  141.1327  133.9275  157.2501 LP  0  0  0  0  0  0  0  0  0  0  0  0  # atno 17394 bound_to 11000
  139.9598  135.0157  156.9230 LP  0  0  0  0  0  0  0  0  0  0  0  0  # atno 17395 bound_to 11000

$$$$
