AV-unprocessed.smi:3057|AV-procd|sdf|11668|dock1
  -GOLD-   2272017 73D 1   1.00000     0.00000
 Structure written by MMmdl.
 41 43  0  0  0  0  0  0  0  0  2 V2000
  147.8175  137.4725  156.7907 C   0  0  0  0  0  0  0  0  0  0  0  0
  148.1609  136.9990  155.3653 C   0  0  2  0  0  0  0  0  0  0  0  0
  148.1628  135.4628  155.2649 C   0  0  0  0  0  0  0  0  0  0  0  0
  149.6339  135.0670  155.4608 C   0  0  0  0  0  0  0  0  0  0  0  0
  150.3696  136.3345  155.0570 C   0  0  0  0  0  0  0  0  0  0  0  0
  151.5648  136.3610  154.7677 O   0  0  0  0  0  0  0  0  0  0  0  0
  149.5166  137.3652  155.0030 N   0  0  0  0  0  0  0  0  0  0  0  0
  149.7275  138.6515  154.3333 C   0  0  2  0  0  0  0  0  0  0  0  0
  150.4993  139.6296  155.2357 C   0  0  0  0  0  0  0  0  0  0  0  0
  151.5919  140.0850  154.8955 O   0  0  0  0  0  0  0  0  0  0  0  0
  149.9166  139.9241  156.4077 N   0  0  0  0  0  0  0  0  0  0  0  0
  150.4663  140.8158  157.4249 C   0  0  0  0  0  0  0  0  0  0  0  0
  150.8980  142.1885  156.8680 C   0  0  0  0  0  0  0  0  0  0  0  0
  151.3739  143.1614  157.9332 C   0  0  0  0  0  0  0  0  0  0  0  0
  152.4115  142.8368  158.8341 C   0  0  0  0  0  0  0  0  0  0  0  0
  152.8015  143.7808  159.8064 C   0  0  0  0  0  0  0  0  0  0  0  0
  152.1484  145.0296  159.8557 C   0  0  0  0  0  0  0  0  0  0  0  0
  151.1206  145.3029  158.9301 C   0  0  0  0  0  0  0  0  0  0  0  0
  150.7748  144.3715  158.0139 N   0  3  0  0  0  0  0  0  0  0  0  0
  148.3200  139.2234  154.0289 C   0  0  0  0  0  0  0  0  0  0  0  0
  147.1521  137.8397  154.1331 S   0  0  0  0  0  0  0  0  0  0  0  0
  148.4906  137.0358  157.5294 H   0  0  0  0  0  0  0  0  0  0  0  0
  146.8011  137.1854  157.0612 H   0  0  0  0  0  0  0  0  0  0  0  0
  147.8850  138.5563  156.8846 H   0  0  0  0  0  0  0  0  0  0  0  0
  147.5059  134.9912  155.9968 H   0  0  0  0  0  0  0  0  0  0  0  0
  147.8303  135.1420  154.2765 H   0  0  0  0  0  0  0  0  0  0  0  0
  149.8519  134.8414  156.5052 H   0  0  0  0  0  0  0  0  0  0  0  0
  149.9209  134.2135  154.8461 H   0  0  0  0  0  0  0  0  0  0  0  0
  150.2709  138.4816  153.4018 H   0  0  0  0  0  0  0  0  0  0  0  0
  149.0176  139.5084  156.6047 H   0  0  0  0  0  0  0  0  0  0  0  0
  149.7506  140.9431  158.2386 H   0  0  0  0  0  0  0  0  0  0  0  0
  151.3328  140.3132  157.8552 H   0  0  0  0  0  0  0  0  0  0  0  0
  151.6967  142.0531  156.1376 H   0  0  0  0  0  0  0  0  0  0  0  0
  150.0694  142.6390  156.3202 H   0  0  0  0  0  0  0  0  0  0  0  0
  152.8995  141.8739  158.7859 H   0  0  0  0  0  0  0  0  0  0  0  0
  153.5916  143.5493  160.5058 H   0  0  0  0  0  0  0  0  0  0  0  0
  152.4323  145.7673  160.5921 H   0  0  0  0  0  0  0  0  0  0  0  0
  150.5692  146.2312  158.8958 H   0  0  0  0  0  0  0  0  0  0  0  0
  148.0100  139.9644  154.7673 H   0  0  0  0  0  0  0  0  0  0  0  0
  148.2713  139.6969  153.0482 H   0  0  0  0  0  0  0  0  0  0  0  0
  150.0282  144.5914  157.3543 H   0  0  0  0  0  0  0  0  0  0  0  0
  1  2  1  0  0  0  0
  1 22  1  0  0  0  0
  1 23  1  0  0  0  0
  1 24  1  0  0  0  0
  2  7  1  0  0  0  0
  2 21  1  0  0  0  0
  2  3  1  0  0  0  0
  3  4  1  0  0  0  0
  3 25  1  0  0  0  0
  3 26  1  0  0  0  0
  4  5  1  0  0  0  0
  4 27  1  0  0  0  0
  4 28  1  0  0  0  0
  5  6  2  0  0  0  0
  5  7  1  0  0  0  0
  7  8  1  0  0  0  0
  8  9  1  0  0  0  0
  8 20  1  0  0  0  0
  8 29  1  0  0  0  0
  9 10  2  0  0  0  0
  9 11  1  0  0  0  0
 11 12  1  0  0  0  0
 11 30  1  0  0  0  0
 12 13  1  0  0  0  0
 12 31  1  0  0  0  0
 12 32  1  0  0  0  0
 13 14  1  0  0  0  0
 13 33  1  0  0  0  0
 13 34  1  0  0  0  0
 14 19  1  0  0  0  0
 14 15  2  0  0  0  0
 15 16  1  0  0  0  0
 15 35  1  0  0  0  0
 16 17  2  0  0  0  0
 16 36  1  0  0  0  0
 17 18  1  0  0  0  0
 17 37  1  0  0  0  0
 18 19  2  0  0  0  0
 18 38  1  0  0  0  0
 19 41  1  0  0  0  0
 20 21  1  0  0  0  0
 20 39  1  0  0  0  0
 20 40  1  0  0  0  0
M  CHG  1  19   1
M  END
> <s_m_source_file>
AV-unprocessed.smi

> <i_m_source_file_index>
3057

> <i_lp_mmshare_version>
43012

> <i_f3d_flags>
0

> <s_epik_input>
W0NIMl0xW0NIMl1DKD1PKU4oW0NAQF0xMltDSDNdKVtDQEhdKFtDSDJdUzIpQyg9TylbTkhdW0NIMl1bQ0gyXWMzW2NIXVtjSF1bY0hdW2NIXW4z

> <s_epik_cmdline>
J2VwaWtfcHl0aG9uJywgJy1waCcsICc3LjAnLCAnLXRuJywgJzgnLCAnLW1hJywgJzIwMCcsICctbWV0YWxfYmluZGluZycsICctaW1hZScsICc8aW5maWxlLm1hZT4nLCAnLW9tYWUnLCAnPG91dGZpbGUubWFlPic=

> <r_epik_Ionization_Penalty>
1.8888

> <r_epik_Ionization_Penalty_Charging>
1.8888

> <r_epik_Ionization_Penalty_Neutral>
1.66252e-07

> <r_epik_State_Penalty>
2.00916

> <r_epik_Charging_Adjusted_Penalty>
3.89796

> <i_epik_Tot_Q>
1

> <i_epik_Tot_abs_Q>
1

> <r_epik_Metal_State_Penalty>
2.03343

> <b_epik_Metal_Only>
0

> <s_lp_Force_Field>
OPLS_2005

> <r_lp_Energy>
33.0381

> <b_lp_Chiralities_Consistent>
1

> <s_lp_Variant>
AV-unprocessed.smi:3057-8

> <Gold.Version>
5.8.1

> <Gold.Id.Protein>
6NUR|6NUR_protein|mol2

> <Gold.PLP.Fitness>
49.5338

> <Gold.PLP.PLP>
-37.6586

> <Gold.PLP.part.hbond>
-2.9517

> <Gold.PLP.part.metal>
0.0000

> <Gold.PLP.part.buried>
-5.6254

> <Gold.PLP.part.nonpolar>
-29.9289

> <Gold.PLP.part.repulsive>
0.3053

> <Gold.PLP.ligand.clash>
0.0000

> <Gold.PLP.ligand.torsion>
0.0753

> <Gold.PLP.Chemscore.Hbond>
4.0000

> <Gold.PLP.Chemscore.CHOScore>
0.0000

> <Gold.PLP.Chemscore.Metal>
0.0000

> <Gold.Chemscore.Hbonds>
donor molecule, donor type, donor heavy atom, donor atom, acceptor molecule, acceptor atom, score
      L1  H    19    41       P1  8028  2.00
      P1  H  7989  7998       L1    10  1.00
      P1  H 10752 10763       L1     6  1.00

> <Gold.PLP.Chemscore.Internal.Correction>
0.0258

> <Gold.Rescore>
     Score         DG    S(hbond)    S(metal)    S(lipo)     H(rot)  DE(clash)    DE(int)     intcor
     20.14     -21.43       2.66        0.00      95.99       1.62       0.02       1.26       ----

> <Gold.Chemscore.Fitness>
20.1430

> <Gold.Chemscore.DG>
-21.4256

> <Gold.Chemscore.ZeroCoef>
-5.4800

> <Gold.Chemscore.Hbond>
2.6559

> <Gold.Chemscore.Metal>
0.0000

> <Gold.Chemscore.Lipo>
95.9890

> <Gold.Chemscore.Internal_Hbond>
0.0000

> <Gold.Chemscore.DEClash>
0.0234

> <Gold.Chemscore.DEInternal>
1.2593

> <Gold.Chemscore.Rot>
1.6234

> <Gold.Chemscore.Internal.Correction>
   9.000000E+99

> <Gold.Chemscore.Hbonds>
donor molecule, donor type, donor heavy atom, donor atom, acceptor molecule, acceptor atom, score
      L1  H    19    41       P1  8028  0.24
      P1  H  7989  7998       L1    10  0.90
      P1  H 10752 10763       L1     6  0.98

> <Gold.Chemscore.Hbond.Weighted>
-8.8707

> <Gold.Chemscore.Metal.Weighted>
-0.0000

> <Gold.Chemscore.Lipo.Weighted>
-11.2307

> <Gold.Chemscore.Internal_Hbond.Weighted>
0.0000

> <Gold.Chemscore.DEClash.Weighted>
0.0234

> <Gold.Chemscore.DEInternal.Weighted>
1.2593

> <Gold.Chemscore.Rot.Weighted>
4.1558

> <Gold.Chemscore.Internal.Correction.Weighted>
   9.000000E+99

> <Gold.Protein.RotatedTorsions>
[ 6907 6896 6895 6894 ] final   19.62 input  -60.11 | X-H torsion
[ 7974 7965 7964 7962 ] final -123.45 input  175.53 | X-H torsion
[ 8008 7997 7996 7995 ] final   85.73 input   59.86 | X-H torsion
[ 10167 10162 10161 10158 ] final    0.15 input  -65.29 | X-H torsion
[ 10718 10713 10712 10709 ] final  -78.16 input   66.30 | X-H torsion
[ 10763 10752 10751 10750 ] final   40.12 input  -60.55 | X-H torsion
[ 11005 11000 10999 10996 ] final   52.87 input  -57.11 | X-H torsion

> <Gold.Protein.ActiveResidues>
 VAL166  LYS551  ARG553  GLY616  TRP617  ASP618  TYR619  PRO620  LYS621  CYS622 
 ASP623  PHE694  ASN695  SER759  ASP760  ASP761  ALA762  ILE779  LEU786  VAL792 
 PHE793  MET794  SER795  GLU796  ALA797  LYS798  CYS799  TRP800  GLU811  SER814 

> <Gold.Protein.RotatedAtoms>
  151.8837  135.0444  160.0490 H   0  0  0  0  0  0  0  0  0  0  0  0  # atno 6907 bound_to 6896
  152.2492  133.5196  159.5324 H   0  0  0  0  0  0  0  0  0  0  0  0  # atno 6908 bound_to 6896
  150.7078  134.0899  159.3970 H   0  0  0  0  0  0  0  0  0  0  0  0  # atno 6909 bound_to 6896
  145.0186  140.7968  143.4395 H   0  0  0  0  0  0  0  0  0  0  0  0  # atno 7974 bound_to 7965
  155.9538  140.3399  155.6431 H   0  0  0  0  0  0  0  0  0  0  0  0  # atno 8008 bound_to 7997
  155.6886  140.0746  157.2475 H   0  0  0  0  0  0  0  0  0  0  0  0  # atno 8009 bound_to 7997
  154.4128  140.1661  156.2048 H   0  0  0  0  0  0  0  0  0  0  0  0  # atno 8010 bound_to 7997
  140.6742  143.6964  150.7986 H   0  0  0  0  0  0  0  0  0  0  0  0  # atno 10167 bound_to 10162
  156.0125  130.4510  150.3454 H   0  0  0  0  0  0  0  0  0  0  0  0  # atno 10718 bound_to 10713
  152.9946  135.6201  154.2575 H   0  0  0  0  0  0  0  0  0  0  0  0  # atno 10763 bound_to 10752
  154.2311  135.2792  155.2891 H   0  0  0  0  0  0  0  0  0  0  0  0  # atno 10764 bound_to 10752
  154.5448  135.5750  153.6929 H   0  0  0  0  0  0  0  0  0  0  0  0  # atno 10765 bound_to 10752
  140.0814  134.5334  155.8943 H   0  0  0  0  0  0  0  0  0  0  0  0  # atno 11005 bound_to 11000
  145.1926  139.2293  143.5234 LP  0  0  0  0  0  0  0  0  0  0  0  0  # atno 17320 bound_to 7965
  146.3482  140.1726  142.8589 LP  0  0  0  0  0  0  0  0  0  0  0  0  # atno 17321 bound_to 7965
  140.0655  143.5113  152.2606 LP  0  0  0  0  0  0  0  0  0  0  0  0  # atno 17342 bound_to 10162
  139.6025  144.7587  151.3139 LP  0  0  0  0  0  0  0  0  0  0  0  0  # atno 17343 bound_to 10162
  157.1548  131.0330  151.2868 LP  0  0  0  0  0  0  0  0  0  0  0  0  # atno 17370 bound_to 10713
  157.4361  130.7518  149.7030 LP  0  0  0  0  0  0  0  0  0  0  0  0  # atno 17371 bound_to 10713
  141.2048  133.6642  156.6140 LP  0  0  0  0  0  0  0  0  0  0  0  0  # atno 17394 bound_to 11000
  140.3483  134.7790  157.4448 LP  0  0  0  0  0  0  0  0  0  0  0  0  # atno 17395 bound_to 11000

$$$$
