AV-unprocessed.smi:205|AV-procd|sdf|1600|dock5
  -GOLD-   2262019513D 1   1.00000     0.00000
 Structure written by MMmdl.
 54 56  0  0  0  0  0  0  0  0  1 V2000
  148.4283  142.8324  154.2385 O   0  0  0  0  0  0  0  0  0  0  0  0
  147.8551  141.5657  153.9929 C   0  0  0  0  0  0  0  0  0  0  0  0
  146.4907  141.4624  154.6850 C   0  0  0  0  0  0  0  0  0  0  0  0
  146.4273  140.2437  155.4070 O   0  0  0  0  0  0  0  0  0  0  0  0
  145.1782  140.0528  156.0495 C   0  0  0  0  0  0  0  0  0  0  0  0
  144.0644  140.0054  154.9878 C   0  0  0  0  0  0  0  0  0  0  0  0
  143.0397  138.9928  155.2469 N   0  0  0  0  0  0  0  0  0  0  0  0
  141.7240  139.4525  155.6902 C   0  0  0  0  0  0  0  0  0  0  0  0
  141.0326  140.3871  154.6803 C   0  0  0  0  0  0  0  0  0  0  0  0
  141.0842  139.8350  153.3820 O   0  0  0  0  0  0  0  0  0  0  0  0
  143.0284  137.8504  154.5155 C   0  0  0  0  0  0  0  0  0  0  0  0
  141.8624  137.1573  154.4674 N   0  0  0  0  0  0  0  0  0  0  0  0
  141.7848  136.0158  153.7784 C   0  0  0  0  0  0  0  0  0  0  0  0
  142.7374  135.3984  153.0777 N   0  0  0  0  0  0  0  0  0  0  0  0
  143.9100  136.0944  153.1131 C   0  0  0  0  0  0  0  0  0  0  0  0
  144.1387  137.3259  153.7910 C   0  0  0  0  0  0  0  0  0  0  0  0
  145.4445  137.7481  153.5680 N   0  0  0  0  0  0  0  0  0  0  0  0
  145.9603  136.8148  152.8168 C   0  0  0  0  0  0  0  0  0  0  0  0
  145.1193  135.7653  152.5250 N   0  0  0  0  0  0  0  0  0  0  0  0
  145.4221  134.6320  151.7007 C   0  0  0  0  0  0  0  0  0  0  0  0
  144.6318  134.3534  150.4188 C   0  0  0  0  0  0  0  0  0  0  0  0
  144.6996  132.8343  150.6876 C   0  0  0  0  0  0  0  0  0  0  0  0
  143.3680  132.0855  150.5237 C   0  0  0  0  0  0  0  0  0  0  0  0
  142.8889  132.1751  149.1972 O   0  0  0  0  0  0  0  0  0  0  0  0
  145.7716  132.0293  149.9201 C   0  0  0  0  0  0  0  0  0  0  0  0
  147.0710  132.5708  150.0448 O   0  0  0  0  0  0  0  0  0  0  0  0
  145.0436  133.2150  152.1449 C   0  0  0  0  0  0  0  0  0  0  0  0
  148.6287  142.8983  155.1596 H   0  0  0  0  0  0  0  0  0  0  0  0
  147.7722  141.3838  152.9209 H   0  0  0  0  0  0  0  0  0  0  0  0
  148.5326  140.8134  154.3974 H   0  0  0  0  0  0  0  0  0  0  0  0
  146.3807  142.2876  155.3902 H   0  0  0  0  0  0  0  0  0  0  0  0
  145.6779  141.5440  153.9608 H   0  0  0  0  0  0  0  0  0  0  0  0
  145.1938  139.1088  156.5959 H   0  0  0  0  0  0  0  0  0  0  0  0
  145.0015  140.8392  156.7835 H   0  0  0  0  0  0  0  0  0  0  0  0
  143.5813  140.9819  154.9403 H   0  0  0  0  0  0  0  0  0  0  0  0
  144.4962  139.8381  154.0012 H   0  0  0  0  0  0  0  0  0  0  0  0
  141.0863  138.5836  155.8563 H   0  0  0  0  0  0  0  0  0  0  0  0
  141.8112  139.9361  156.6638 H   0  0  0  0  0  0  0  0  0  0  0  0
  140.0033  140.6124  154.9605 H   0  0  0  0  0  0  0  0  0  0  0  0
  141.5658  141.3373  154.6453 H   0  0  0  0  0  0  0  0  0  0  0  0
  140.6415  140.4215  152.7877 H   0  0  0  0  0  0  0  0  0  0  0  0
  140.8235  135.5237  153.7961 H   0  0  0  0  0  0  0  0  0  0  0  0
  146.9792  136.8635  152.4607 H   0  0  0  0  0  0  0  0  0  0  0  0
  146.4896  134.6974  151.4866 H   0  0  0  0  0  0  0  0  0  0  0  0
  143.6144  134.7454  150.4672 H   0  0  0  0  0  0  0  0  0  0  0  0
  145.1304  134.6792  149.5051 H   0  0  0  0  0  0  0  0  0  0  0  0
  143.4686  131.0339  150.7947 H   0  0  0  0  0  0  0  0  0  0  0  0
  142.6027  132.5011  151.1802 H   0  0  0  0  0  0  0  0  0  0  0  0
  142.2480  132.8688  149.1573 H   0  0  0  0  0  0  0  0  0  0  0  0
  145.8084  130.9990  150.2756 H   0  0  0  0  0  0  0  0  0  0  0  0
  145.5386  131.9836  148.8560 H   0  0  0  0  0  0  0  0  0  0  0  0
  147.6677  131.8714  150.2638 H   0  0  0  0  0  0  0  0  0  0  0  0
  145.8648  132.6493  152.5860 H   0  0  0  0  0  0  0  0  0  0  0  0
  144.1725  133.2073  152.8023 H   0  0  0  0  0  0  0  0  0  0  0  0
  1  2  1  0  0  0  0
  1 28  1  0  0  0  0
  2  3  1  0  0  0  0
  2 29  1  0  0  0  0
  2 30  1  0  0  0  0
  3  4  1  0  0  0  0
  3 31  1  0  0  0  0
  3 32  1  0  0  0  0
  4  5  1  0  0  0  0
  5  6  1  0  0  0  0
  5 33  1  0  0  0  0
  5 34  1  0  0  0  0
  6  7  1  0  0  0  0
  6 35  1  0  0  0  0
  6 36  1  0  0  0  0
  7  8  1  0  0  0  0
  7 11  1  0  0  0  0
  8  9  1  0  0  0  0
  8 37  1  0  0  0  0
  8 38  1  0  0  0  0
  9 10  1  0  0  0  0
  9 39  1  0  0  0  0
  9 40  1  0  0  0  0
 10 41  1  0  0  0  0
 11 16  1  0  0  0  0
 11 12  2  0  0  0  0
 12 13  1  0  0  0  0
 13 14  2  0  0  0  0
 13 42  1  0  0  0  0
 14 15  1  0  0  0  0
 15 19  1  0  0  0  0
 15 16  2  0  0  0  0
 16 17  1  0  0  0  0
 17 18  2  0  0  0  0
 18 19  1  0  0  0  0
 18 43  1  0  0  0  0
 19 20  1  0  0  0  0
 20 27  1  0  0  0  0
 20 21  1  0  0  0  0
 20 44  1  0  0  0  0
 21 22  1  0  0  0  0
 21 45  1  0  0  0  0
 21 46  1  0  0  0  0
 22 23  1  0  0  0  0
 22 25  1  0  0  0  0
 22 27  1  0  0  0  0
 23 24  1  0  0  0  0
 23 47  1  0  0  0  0
 23 48  1  0  0  0  0
 24 49  1  0  0  0  0
 25 26  1  0  0  0  0
 25 50  1  0  0  0  0
 25 51  1  0  0  0  0
 26 52  1  0  0  0  0
 27 53  1  0  0  0  0
 27 54  1  0  0  0  0
M  END
> <s_m_source_file>
AV-unprocessed.smi

> <i_m_source_file_index>
205

> <i_lp_mmshare_version>
43012

> <i_f3d_flags>
0

> <s_epik_input>
W09IXVtDSDJdW0NIMl1PW0NIMl1bQ0gyXU4oW0NIMl1bQ0gyXVtPSF0pYyhuW2NIXW4xKWMoYzEyKW5bY0hdbjJbQ0hdKFtDSDJdMylbQ0gyXUMzKFtDSDJdW09IXSlbQ0gyXVtPSF0=

> <s_epik_cmdline>
J2VwaWtfcHl0aG9uJywgJy1waCcsICc3LjAnLCAnLXRuJywgJzgnLCAnLW1hJywgJzIwMCcsICctbWV0YWxfYmluZGluZycsICctaW1hZScsICc8aW5maWxlLm1hZT4nLCAnLW9tYWUnLCAnPG91dGZpbGUubWFlPic=

> <r_lp_tautomer_probability>
1

> <r_epik_Ionization_Penalty>
0.00545557

> <r_epik_Ionization_Penalty_Charging>
0

> <r_epik_Ionization_Penalty_Neutral>
0.00545557

> <r_epik_State_Penalty>
0.00384469

> <r_epik_Charging_Adjusted_Penalty>
0.00384469

> <i_epik_Tot_Q>
0

> <i_epik_Tot_abs_Q>
0

> <r_epik_Metal_State_Penalty>
-0

> <b_epik_Metal_Only>
0

> <s_lp_Force_Field>
OPLS_2005

> <r_lp_Energy>
40.5801

> <b_lp_Chiralities_Consistent>
1

> <s_lp_Variant>
AV-unprocessed.smi:205-1

> <Gold.Version>
5.8.1

> <Gold.Id.Protein>
6NUR|6NUR_protein|mol2

> <Gold.PLP.Fitness>
51.7670

> <Gold.PLP.PLP>
-35.9516

> <Gold.PLP.part.hbond>
-9.2065

> <Gold.PLP.part.metal>
0.0000

> <Gold.PLP.part.buried>
-0.5271

> <Gold.PLP.part.nonpolar>
-25.6156

> <Gold.PLP.part.repulsive>
0.4166

> <Gold.PLP.ligand.clash>
0.0000

> <Gold.PLP.ligand.torsion>
1.4636

> <Gold.PLP.Chemscore.Hbond>
4.7524

> <Gold.PLP.Chemscore.CHOScore>
1.0000

> <Gold.PLP.Chemscore.Metal>
0.0000

> <Gold.Chemscore.Hbonds>
donor molecule, donor type, donor heavy atom, donor atom, acceptor molecule, acceptor atom, score
      L1  H     1    28       P1  8028  0.19
      L1  H    10    41       P1 10160  0.69
      L1  H    24    49       P1 10186  1.00
      L1  H    26    52       P1 10747  1.00
      P1  H  8022  8030       L1     1  1.00
      P1  H 10785 10796       L1    24  0.65
      L1  C    18    43       P1  7948  1.00

> <Gold.PLP.Chemscore.Internal.Correction>
1.4855

> <Gold.Rescore>
     Score         DG    S(hbond)    S(metal)    S(lipo)     H(rot)  DE(clash)    DE(int)     intcor
      2.73      -7.71       3.61        0.00      63.89       6.76       1.78       3.20       ----

> <Gold.Chemscore.Fitness>
2.7330

> <Gold.Chemscore.DG>
-7.7133

> <Gold.Chemscore.ZeroCoef>
-5.4800

> <Gold.Chemscore.Hbond>
3.6121

> <Gold.Chemscore.Metal>
0.0000

> <Gold.Chemscore.Lipo>
63.8850

> <Gold.Chemscore.Internal_Hbond>
0.0000

> <Gold.Chemscore.DEClash>
1.7786

> <Gold.Chemscore.DEInternal>
3.2017

> <Gold.Chemscore.Rot>
6.7600

> <Gold.Chemscore.Internal.Correction>
   9.000000E+99

> <Gold.Chemscore.Hbonds>
donor molecule, donor type, donor heavy atom, donor atom, acceptor molecule, acceptor atom, score
      L1  H     1    28       P1  8028  0.19
      L1  H    10    41       P1 10160  0.70
      L1  H    24    49       P1 10186  0.95
      L1  H    26    52       P1 10747  0.99
      P1  H  8022  8030       L1     1  0.37
      P1  H 10785 10796       L1    24  0.09

> <Gold.Chemscore.Hbond.Weighted>
-12.0643

> <Gold.Chemscore.Metal.Weighted>
-0.0000

> <Gold.Chemscore.Lipo.Weighted>
-7.4745

> <Gold.Chemscore.Internal_Hbond.Weighted>
0.0000

> <Gold.Chemscore.DEClash.Weighted>
1.7786

> <Gold.Chemscore.DEInternal.Weighted>
3.2017

> <Gold.Chemscore.Rot.Weighted>
17.3055

> <Gold.Chemscore.Internal.Correction.Weighted>
   9.000000E+99

> <Gold.Protein.RotatedTorsions>
[ 6907 6896 6895 6894 ] final   45.41 input  -60.11 | X-H torsion
[ 7974 7965 7964 7962 ] final -172.78 input  175.53 | X-H torsion
[ 8008 7997 7996 7995 ] final  -96.54 input   59.86 | X-H torsion
[ 10167 10162 10161 10158 ] final -145.07 input  -65.29 | X-H torsion
[ 10718 10713 10712 10709 ] final -150.48 input   66.30 | X-H torsion
[ 10763 10752 10751 10750 ] final  167.70 input  -60.55 | X-H torsion
[ 11005 11000 10999 10996 ] final  158.24 input  -57.11 | X-H torsion

> <Gold.Protein.ActiveResidues>
 VAL166  LYS551  ARG553  GLY616  TRP617  ASP618  TYR619  PRO620  LYS621  CYS622 
 ASP623  PHE694  ASN695  SER759  ASP760  ASP761  ALA762  ILE779  LEU786  VAL792 
 PHE793  MET794  SER795  GLU796  ALA797  LYS798  CYS799  TRP800  GLU811  SER814 

> <Gold.Protein.RotatedAtoms>
  152.2443  134.8197  160.0455 H   0  0  0  0  0  0  0  0  0  0  0  0  # atno 6907 bound_to 6896
  151.8901  133.3509  159.3803 H   0  0  0  0  0  0  0  0  0  0  0  0  # atno 6908 bound_to 6896
  150.7063  134.4859  159.5536 H   0  0  0  0  0  0  0  0  0  0  0  0  # atno 6909 bound_to 6896
  144.7143  140.1721  143.6366 H   0  0  0  0  0  0  0  0  0  0  0  0  # atno 7974 bound_to 7965
  154.7758  140.0470  157.1088 H   0  0  0  0  0  0  0  0  0  0  0  0  # atno 8008 bound_to 7997
  154.9765  140.3096  155.4945 H   0  0  0  0  0  0  0  0  0  0  0  0  # atno 8009 bound_to 7997
  156.2928  140.2244  156.4861 H   0  0  0  0  0  0  0  0  0  0  0  0  # atno 8010 bound_to 7997
  139.7840  143.8061  152.2642 H   0  0  0  0  0  0  0  0  0  0  0  0  # atno 10167 bound_to 10162
  156.4467  130.8148  151.2379 H   0  0  0  0  0  0  0  0  0  0  0  0  # atno 10718 bound_to 10713
  154.3577  135.2753  155.2337 H   0  0  0  0  0  0  0  0  0  0  0  0  # atno 10763 bound_to 10752
  154.4539  135.5924  153.6214 H   0  0  0  0  0  0  0  0  0  0  0  0  # atno 10764 bound_to 10752
  152.9845  135.6048  154.3794 H   0  0  0  0  0  0  0  0  0  0  0  0  # atno 10765 bound_to 10752
  140.1846  134.8451  157.2842 H   0  0  0  0  0  0  0  0  0  0  0  0  # atno 11005 bound_to 11000
  145.8934  139.2389  143.1536 LP  0  0  0  0  0  0  0  0  0  0  0  0  # atno 17320 bound_to 7965
  145.9881  140.8626  143.0080 LP  0  0  0  0  0  0  0  0  0  0  0  0  # atno 17321 bound_to 7965
  139.8132  144.7327  150.9670 LP  0  0  0  0  0  0  0  0  0  0  0  0  # atno 17342 bound_to 10162
  140.7819  143.4230  151.0811 LP  0  0  0  0  0  0  0  0  0  0  0  0  # atno 17343 bound_to 10162
  157.7504  131.0151  150.3490 LP  0  0  0  0  0  0  0  0  0  0  0  0  # atno 17370 bound_to 10713
  156.3859  130.3889  149.7066 LP  0  0  0  0  0  0  0  0  0  0  0  0  # atno 17371 bound_to 10713
  140.2229  134.4002  155.7557 LP  0  0  0  0  0  0  0  0  0  0  0  0  # atno 17394 bound_to 11000
  141.2224  133.7175  156.8518 LP  0  0  0  0  0  0  0  0  0  0  0  0  # atno 17395 bound_to 11000

$$$$
