AV-unprocessed.smi:365|AV-procd|sdf|2427|dock7
  -GOLD-   2262022363D 1   1.00000     0.00000
 Structure written by MMmdl.
 53 54  0  0  0  0  0  0  0  0  1 V2000
  157.5178  134.5552  160.9593 C   0  0  0  0  0  0  0  0  0  0  0  0
  156.4761  135.4000  161.7110 C   0  0  2  0  0  0  0  0  0  0  0  0
  156.1238  134.6975  162.9431 N   0  0  0  0  0  0  0  0  0  0  0  0
  155.6437  133.4432  163.0161 C   0  0  0  0  0  0  0  0  0  0  0  0
  155.4265  132.7663  162.0096 O   0  0  0  0  0  0  0  0  0  0  0  0
  155.3713  132.8425  164.4162 C   0  0  0  0  0  0  0  0  0  0  0  0
  154.7582  131.4393  164.2339 C   0  0  0  0  0  0  0  0  0  0  0  0
  154.3601  133.7425  165.1565 C   0  0  0  0  0  0  0  0  0  0  0  0
  156.6553  132.7260  165.2718 C   0  0  0  0  0  0  0  0  0  0  0  0
  155.2357  135.5548  160.8172 C   0  0  0  0  0  0  0  0  0  0  0  0
  154.5676  134.5707  160.4955 O   0  0  0  0  0  0  0  0  0  0  0  0
  154.9395  136.8038  160.4273 N   0  0  0  0  0  0  0  0  0  0  0  0
  153.7829  137.1753  159.6187 C   0  0  0  0  0  0  0  0  0  0  0  0
  153.4287  138.6571  159.6526 C   0  0  0  0  0  0  0  0  0  0  0  0
  152.4000  139.1507  158.8281 C   0  0  0  0  0  0  0  0  0  0  0  0
  152.0909  140.5241  158.8583 C   0  0  0  0  0  0  0  0  0  0  0  0
  152.8265  141.3821  159.7158 C   0  0  0  0  0  0  0  0  0  0  0  0
  152.5656  142.7704  159.7988 N   0  0  0  0  0  0  0  0  0  0  0  0
  151.9063  143.3850  158.6455 C   0  0  0  0  0  0  0  0  0  0  0  0
  151.9922  144.9186  158.7220 C   0  0  0  0  0  0  0  0  0  0  0  0
  151.4721  145.3692  159.9673 O   0  0  0  0  0  0  0  0  0  0  0  0
  152.2289  144.8658  161.0615 C   0  0  0  0  0  0  0  0  0  0  0  0
  152.1552  143.3296  161.0849 C   0  0  0  0  0  0  0  0  0  0  0  0
  153.8169  140.9000  160.5059 N   0  0  0  0  0  0  0  0  0  0  0  0
  154.1092  139.5833  160.4728 C   0  0  0  0  0  0  0  0  0  0  0  0
  157.8123  135.0310  160.0231 H   0  0  0  0  0  0  0  0  0  0  0  0
  157.1413  133.5588  160.7228 H   0  0  0  0  0  0  0  0  0  0  0  0
  158.4213  134.4313  161.5574 H   0  0  0  0  0  0  0  0  0  0  0  0
  156.9011  136.3777  161.9476 H   0  0  0  0  0  0  0  0  0  0  0  0
  156.2858  135.1908  163.8088 H   0  0  0  0  0  0  0  0  0  0  0  0
  154.5343  130.9787  165.1967 H   0  0  0  0  0  0  0  0  0  0  0  0
  155.4401  130.7723  163.7041 H   0  0  0  0  0  0  0  0  0  0  0  0
  153.8262  131.4728  163.6675 H   0  0  0  0  0  0  0  0  0  0  0  0
  153.4103  133.8119  164.6240 H   0  0  0  0  0  0  0  0  0  0  0  0
  154.7431  134.7566  165.2800 H   0  0  0  0  0  0  0  0  0  0  0  0
  154.1418  133.3538  166.1517 H   0  0  0  0  0  0  0  0  0  0  0  0
  156.4329  132.3125  166.2562 H   0  0  0  0  0  0  0  0  0  0  0  0
  157.1249  133.6977  165.4315 H   0  0  0  0  0  0  0  0  0  0  0  0
  157.3927  132.0681  164.8095 H   0  0  0  0  0  0  0  0  0  0  0  0
  155.5418  137.5531  160.7359 H   0  0  0  0  0  0  0  0  0  0  0  0
  153.9926  136.8998  158.5851 H   0  0  0  0  0  0  0  0  0  0  0  0
  152.9167  136.5859  159.9244 H   0  0  0  0  0  0  0  0  0  0  0  0
  151.8515  138.4862  158.1764 H   0  0  0  0  0  0  0  0  0  0  0  0
  151.3039  140.8861  158.2149 H   0  0  0  0  0  0  0  0  0  0  0  0
  152.3526  143.0620  157.7050 H   0  0  0  0  0  0  0  0  0  0  0  0
  150.8625  143.0693  158.6292 H   0  0  0  0  0  0  0  0  0  0  0  0
  153.0228  145.2567  158.6010 H   0  0  0  0  0  0  0  0  0  0  0  0
  151.4146  145.3667  157.9133 H   0  0  0  0  0  0  0  0  0  0  0  0
  153.2637  145.2043  160.9885 H   0  0  0  0  0  0  0  0  0  0  0  0
  151.8267  145.2735  161.9888 H   0  0  0  0  0  0  0  0  0  0  0  0
  151.1386  143.0054  161.3101 H   0  0  0  0  0  0  0  0  0  0  0  0
  152.8040  142.9660  161.8820 H   0  0  0  0  0  0  0  0  0  0  0  0
  154.9149  139.2716  161.1208 H   0  0  0  0  0  0  0  0  0  0  0  0
  1  2  1  0  0  0  0
  1 26  1  0  0  0  0
  1 27  1  0  0  0  0
  1 28  1  0  0  0  0
  2  3  1  0  0  0  0
  2 10  1  0  0  0  0
  2 29  1  0  0  0  0
  3  4  1  0  0  0  0
  3 30  1  0  0  0  0
  4  5  2  0  0  0  0
  4  6  1  0  0  0  0
  6  7  1  0  0  0  0
  6  8  1  0  0  0  0
  6  9  1  0  0  0  0
  7 31  1  0  0  0  0
  7 32  1  0  0  0  0
  7 33  1  0  0  0  0
  8 34  1  0  0  0  0
  8 35  1  0  0  0  0
  8 36  1  0  0  0  0
  9 37  1  0  0  0  0
  9 38  1  0  0  0  0
  9 39  1  0  0  0  0
 10 11  2  0  0  0  0
 10 12  1  0  0  0  0
 12 13  1  0  0  0  0
 12 40  1  0  0  0  0
 13 14  1  0  0  0  0
 13 41  1  0  0  0  0
 13 42  1  0  0  0  0
 14 25  1  0  0  0  0
 14 15  2  0  0  0  0
 15 16  1  0  0  0  0
 15 43  1  0  0  0  0
 16 17  2  0  0  0  0
 16 44  1  0  0  0  0
 17 18  1  0  0  0  0
 17 24  1  0  0  0  0
 18 23  1  0  0  0  0
 18 19  1  0  0  0  0
 19 20  1  0  0  0  0
 19 45  1  0  0  0  0
 19 46  1  0  0  0  0
 20 21  1  0  0  0  0
 20 47  1  0  0  0  0
 20 48  1  0  0  0  0
 21 22  1  0  0  0  0
 22 23  1  0  0  0  0
 22 49  1  0  0  0  0
 22 50  1  0  0  0  0
 23 51  1  0  0  0  0
 23 52  1  0  0  0  0
 24 25  2  0  0  0  0
 25 53  1  0  0  0  0
M  END
> <s_m_source_file>
AV-unprocessed.smi

> <i_m_source_file_index>
365

> <i_lp_mmshare_version>
43012

> <i_f3d_flags>
0

> <s_epik_input>
W0NIM11DKFtDSDNdKShbQ0gzXSlDKD1PKVtOSF1bQ0BASF0oW0NIM10pQyg9TylbTkhdW0NIMl1jMVtjSF1bY0hdYyhuW2NIXTEpTjJbQ0gyXVtDSDJdT1tDSDJdW0NIMl0y

> <s_epik_cmdline>
J2VwaWtfcHl0aG9uJywgJy1waCcsICc3LjAnLCAnLXRuJywgJzgnLCAnLW1hJywgJzIwMCcsICctbWV0YWxfYmluZGluZycsICctaW1hZScsICc8aW5maWxlLm1hZT4nLCAnLW9tYWUnLCAnPG91dGZpbGUubWFlPic=

> <r_lp_tautomer_probability>
1

> <r_epik_Ionization_Penalty>
0.00484327

> <r_epik_Ionization_Penalty_Charging>
0

> <r_epik_Ionization_Penalty_Neutral>
0.00484327

> <r_epik_State_Penalty>
0.0035131

> <r_epik_Charging_Adjusted_Penalty>
0.0035131

> <i_epik_Tot_Q>
0

> <i_epik_Tot_abs_Q>
0

> <r_epik_Metal_State_Penalty>
-0

> <b_epik_Metal_Only>
0

> <s_lp_Force_Field>
OPLS_2005

> <r_lp_Energy>
21.7768

> <b_lp_Chiralities_Consistent>
1

> <s_lp_Variant>
AV-unprocessed.smi:365-1

> <Gold.Version>
5.8.1

> <Gold.Id.Protein>
6NUR|6NUR_protein|mol2

> <Gold.PLP.Fitness>
41.3156

> <Gold.PLP.PLP>
-38.8740

> <Gold.PLP.part.hbond>
-1.0000

> <Gold.PLP.part.metal>
0.0000

> <Gold.PLP.part.buried>
-6.4911

> <Gold.PLP.part.nonpolar>
-31.5305

> <Gold.PLP.part.repulsive>
0.1812

> <Gold.PLP.ligand.clash>
0.0000

> <Gold.PLP.ligand.torsion>
0.5396

> <Gold.PLP.Chemscore.Hbond>
1.0000

> <Gold.PLP.Chemscore.CHOScore>
0.0000

> <Gold.PLP.Chemscore.Metal>
0.0000

> <Gold.Chemscore.Hbonds>
donor molecule, donor type, donor heavy atom, donor atom, acceptor molecule, acceptor atom, score
      P1  H  6896  6909       L1    11  0.88

> <Gold.PLP.Chemscore.Internal.Correction>
0.5209

> <Gold.Rescore>
     Score         DG    S(hbond)    S(metal)    S(lipo)     H(rot)  DE(clash)    DE(int)     intcor
     12.78     -16.15       0.96        0.00     108.32       2.04       0.01       3.36       ----

> <Gold.Chemscore.Fitness>
12.7781

> <Gold.Chemscore.DG>
-16.1513

> <Gold.Chemscore.ZeroCoef>
-5.4800

> <Gold.Chemscore.Hbond>
0.9616

> <Gold.Chemscore.Metal>
0.0000

> <Gold.Chemscore.Lipo>
108.3203

> <Gold.Chemscore.Internal_Hbond>
0.0000

> <Gold.Chemscore.DEClash>
0.0144

> <Gold.Chemscore.DEInternal>
3.3588

> <Gold.Chemscore.Rot>
2.0367

> <Gold.Chemscore.Internal.Correction>
   9.000000E+99

> <Gold.Chemscore.Hbonds>
donor molecule, donor type, donor heavy atom, donor atom, acceptor molecule, acceptor atom, score
      P1  H  6896  6909       L1    11  0.85

> <Gold.Chemscore.Hbond.Weighted>
-3.2118

> <Gold.Chemscore.Metal.Weighted>
-0.0000

> <Gold.Chemscore.Lipo.Weighted>
-12.6735

> <Gold.Chemscore.Internal_Hbond.Weighted>
0.0000

> <Gold.Chemscore.DEClash.Weighted>
0.0144

> <Gold.Chemscore.DEInternal.Weighted>
3.3588

> <Gold.Chemscore.Rot.Weighted>
5.2140

> <Gold.Chemscore.Internal.Correction.Weighted>
   9.000000E+99

> <Gold.Protein.RotatedTorsions>
[ 6907 6896 6895 6894 ] final -166.58 input  -60.11 | X-H torsion
[ 7974 7965 7964 7962 ] final   73.22 input  175.53 | X-H torsion
[ 8008 7997 7996 7995 ] final   23.53 input   59.86 | X-H torsion
[ 10167 10162 10161 10158 ] final  -80.65 input  -65.29 | X-H torsion
[ 10718 10713 10712 10709 ] final  -51.43 input   66.30 | X-H torsion
[ 10763 10752 10751 10750 ] final   95.68 input  -60.55 | X-H torsion
[ 11005 11000 10999 10996 ] final    6.04 input  -57.11 | X-H torsion

> <Gold.Protein.ActiveResidues>
 VAL166  LYS551  ARG553  GLY616  TRP617  ASP618  TYR619  PRO620  LYS621  CYS622 
 ASP623  PHE694  ASN695  SER759  ASP760  ASP761  ALA762  ILE779  LEU786  VAL792 
 PHE793  MET794  SER795  GLU796  ALA797  LYS798  CYS799  TRP800  GLU811  SER814 

> <Gold.Protein.RotatedAtoms>
  151.4459  133.3630  159.2788 H   0  0  0  0  0  0  0  0  0  0  0  0  # atno 6907 bound_to 6896
  150.9125  134.8543  159.7445 H   0  0  0  0  0  0  0  0  0  0  0  0  # atno 6908 bound_to 6896
  152.4940  134.4390  159.9589 H   0  0  0  0  0  0  0  0  0  0  0  0  # atno 6909 bound_to 6896
  145.7435  139.2731  143.1472 H   0  0  0  0  0  0  0  0  0  0  0  0  # atno 7974 bound_to 7965
  154.9824  140.3103  155.4941 H   0  0  0  0  0  0  0  0  0  0  0  0  # atno 8008 bound_to 7997
  156.2951  140.2264  156.4864 H   0  0  0  0  0  0  0  0  0  0  0  0  # atno 8009 bound_to 7997
  154.7777  140.0448  157.1090 H   0  0  0  0  0  0  0  0  0  0  0  0  # atno 8010 bound_to 7997
  140.4484  143.2491  151.8525 H   0  0  0  0  0  0  0  0  0  0  0  0  # atno 10167 bound_to 10162
  156.1711  130.4149  149.9646 H   0  0  0  0  0  0  0  0  0  0  0  0  # atno 10718 bound_to 10713
  153.2560  135.4245  155.0846 H   0  0  0  0  0  0  0  0  0  0  0  0  # atno 10763 bound_to 10752
  154.8401  135.3437  154.6445 H   0  0  0  0  0  0  0  0  0  0  0  0  # atno 10764 bound_to 10752
  153.6866  135.7036  153.5159 H   0  0  0  0  0  0  0  0  0  0  0  0  # atno 10765 bound_to 10752
  140.5639  134.0166  155.7982 H   0  0  0  0  0  0  0  0  0  0  0  0  # atno 11005 bound_to 11000
  146.0425  140.8151  142.9822 LP  0  0  0  0  0  0  0  0  0  0  0  0  # atno 17320 bound_to 7965
  144.6865  140.2931  143.7275 LP  0  0  0  0  0  0  0  0  0  0  0  0  # atno 17321 bound_to 7965
  139.4794  144.5149  151.8882 LP  0  0  0  0  0  0  0  0  0  0  0  0  # atno 17342 bound_to 10162
  140.4236  144.2210  150.5887 LP  0  0  0  0  0  0  0  0  0  0  0  0  # atno 17343 bound_to 10162
  156.7446  130.9092  151.3634 LP  0  0  0  0  0  0  0  0  0  0  0  0  # atno 17370 bound_to 10713
  157.6803  130.9133  150.0251 LP  0  0  0  0  0  0  0  0  0  0  0  0  # atno 17371 bound_to 10713
  141.1097  133.9636  157.2932 LP  0  0  0  0  0  0  0  0  0  0  0  0  # atno 17394 bound_to 11000
  139.9394  135.0193  156.8660 LP  0  0  0  0  0  0  0  0  0  0  0  0  # atno 17395 bound_to 11000

$$$$
