AV-unprocessed.smi:1488|AV-procd|sdf|6023|dock6
  -GOLD-   22720 6123D 1   1.00000     0.00000
 Structure written by MMmdl.
 36 37  0  0  0  0  0  0  0  0  1 V2000
  146.2773  134.8988  160.1919 C   0  0  0  0  0  0  0  0  0  0  0  0
  147.5256  135.1995  159.4357 C   0  0  0  0  0  0  0  0  0  0  0  0
  148.2271  136.3520  159.2182 C   0  0  0  0  0  0  0  0  0  0  0  0
  149.3146  135.9176  158.4144 C   0  0  0  0  0  0  0  0  0  0  0  0
  150.2981  136.8343  157.9634 N   0  0  0  0  0  0  0  0  0  0  0  0
  150.3969  138.1411  158.2619 C   0  0  0  0  0  0  0  0  0  0  0  0
  149.6231  138.7620  158.9911 O   0  0  0  0  0  0  0  0  0  0  0  0
  151.4534  138.7017  157.6549 N   0  0  0  0  0  0  0  0  0  0  0  0
  151.8331  140.1077  157.7566 C   0  0  2  0  0  0  0  0  0  0  0  0
  152.3184  140.4367  159.1821 C   0  0  0  0  0  0  0  0  0  0  0  0
  152.6542  141.9292  159.3312 C   0  0  0  0  0  0  0  0  0  0  0  0
  151.4585  142.8276  158.9499 C   0  0  1  0  0  0  0  0  0  0  0  0
  151.7866  144.3265  159.1106 C   0  0  0  0  0  0  0  0  0  0  0  0
  152.7708  144.6879  158.2868 F   0  0  0  0  0  0  0  0  0  0  0  0
  150.7076  145.0614  158.8417 F   0  0  0  0  0  0  0  0  0  0  0  0
  152.1598  144.5801  160.3650 F   0  0  0  0  0  0  0  0  0  0  0  0
  150.9787  142.4896  157.5223 C   0  0  0  0  0  0  0  0  0  0  0  0
  150.6375  140.9980  157.3743 C   0  0  0  0  0  0  0  0  0  0  0  0
  149.2786  134.6180  158.1620 N   0  0  0  0  0  0  0  0  0  0  0  0
  148.1315  134.1513  158.8146 O   0  0  0  0  0  0  0  0  0  0  0  0
  145.9945  135.7387  160.8266 H   0  0  0  0  0  0  0  0  0  0  0  0
  146.4111  134.0245  160.8291 H   0  0  0  0  0  0  0  0  0  0  0  0
  145.4521  134.6975  159.5089 H   0  0  0  0  0  0  0  0  0  0  0  0
  147.9977  137.3437  159.5792 H   0  0  0  0  0  0  0  0  0  0  0  0
  150.9973  136.4557  157.3420 H   0  0  0  0  0  0  0  0  0  0  0  0
  152.0356  138.1153  157.0751 H   0  0  0  0  0  0  0  0  0  0  0  0
  152.6429  140.3096  157.0525 H   0  0  0  0  0  0  0  0  0  0  0  0
  151.5499  140.1646  159.9072 H   0  0  0  0  0  0  0  0  0  0  0  0
  153.1981  139.8404  159.4272 H   0  0  0  0  0  0  0  0  0  0  0  0
  152.9603  142.1282  160.3585 H   0  0  0  0  0  0  0  0  0  0  0  0
  153.5126  142.1701  158.7030 H   0  0  0  0  0  0  0  0  0  0  0  0
  150.6414  142.5984  159.6358 H   0  0  0  0  0  0  0  0  0  0  0  0
  150.1020  143.0865  157.2697 H   0  0  0  0  0  0  0  0  0  0  0  0
  151.7508  142.7571  156.7998 H   0  0  0  0  0  0  0  0  0  0  0  0
  150.3324  140.7925  156.3473 H   0  0  0  0  0  0  0  0  0  0  0  0
  149.7798  140.7596  158.0050 H   0  0  0  0  0  0  0  0  0  0  0  0
  1  2  1  0  0  0  0
  1 21  1  0  0  0  0
  1 22  1  0  0  0  0
  1 23  1  0  0  0  0
  2 20  1  0  0  0  0
  2  3  2  0  0  0  0
  3  4  1  0  0  0  0
  3 24  1  0  0  0  0
  4  5  1  0  0  0  0
  4 19  2  0  0  0  0
  5  6  1  0  0  0  0
  5 25  1  0  0  0  0
  6  7  2  0  0  0  0
  6  8  1  0  0  0  0
  8  9  1  0  0  0  0
  8 26  1  0  0  0  0
  9 18  1  0  0  0  0
  9 10  1  0  0  0  0
  9 27  1  0  0  0  0
 10 11  1  0  0  0  0
 10 28  1  0  0  0  0
 10 29  1  0  0  0  0
 11 12  1  0  0  0  0
 11 30  1  0  0  0  0
 11 31  1  0  0  0  0
 12 13  1  0  0  0  0
 12 17  1  0  0  0  0
 12 32  1  0  0  0  0
 13 14  1  0  0  0  0
 13 15  1  0  0  0  0
 13 16  1  0  0  0  0
 17 18  1  0  0  0  0
 17 33  1  0  0  0  0
 17 34  1  0  0  0  0
 18 35  1  0  0  0  0
 18 36  1  0  0  0  0
 19 20  1  0  0  0  0
M  END
> <s_m_source_file>
AV-unprocessed.smi

> <i_m_source_file_index>
1488

> <i_lp_mmshare_version>
43012

> <i_f3d_flags>
0

> <s_epik_input>
W0NIM11jMVtjSF1jKG5vMSlbTkhdQyg9TylbTkhdW0NAQEhdMltDSDJdW0NIMl1bQ0BASF0oQyhGKShGKUYpW0NIMl1bQ0gyXTI=

> <s_epik_cmdline>
J2VwaWtfcHl0aG9uJywgJy1waCcsICc3LjAnLCAnLXRuJywgJzgnLCAnLW1hJywgJzIwMCcsICctbWV0YWxfYmluZGluZycsICctaW1hZScsICc8aW5maWxlLm1hZT4nLCAnLW9tYWUnLCAnPG91dGZpbGUubWFlPic=

> <r_lp_tautomer_probability>
1

> <r_epik_Ionization_Penalty>
2.30349e-05

> <r_epik_Ionization_Penalty_Charging>
0

> <r_epik_Ionization_Penalty_Neutral>
2.30349e-05

> <r_epik_State_Penalty>
-0

> <r_epik_Charging_Adjusted_Penalty>
0

> <i_epik_Tot_Q>
0

> <i_epik_Tot_abs_Q>
0

> <r_epik_Metal_State_Penalty>
-0

> <b_epik_Metal_Only>
0

> <s_lp_Force_Field>
OPLS_2005

> <r_lp_Energy>
8.97319

> <b_lp_Chiralities_Consistent>
1

> <s_lp_Variant>
AV-unprocessed.smi:1488-1

> <Gold.Version>
5.8.1

> <Gold.Id.Protein>
6NUR|6NUR_protein|mol2

> <Gold.PLP.Fitness>
37.6240

> <Gold.PLP.PLP>
-34.7303

> <Gold.PLP.part.hbond>
-2.7755

> <Gold.PLP.part.metal>
0.0000

> <Gold.PLP.part.buried>
-3.5993

> <Gold.PLP.part.nonpolar>
-29.4192

> <Gold.PLP.part.repulsive>
0.1308

> <Gold.PLP.ligand.clash>
0.0000

> <Gold.PLP.ligand.torsion>
0.0615

> <Gold.PLP.Chemscore.Hbond>
1.0000

> <Gold.PLP.Chemscore.CHOScore>
0.0000

> <Gold.PLP.Chemscore.Metal>
0.0000

> <Gold.Chemscore.Hbonds>
donor molecule, donor type, donor heavy atom, donor atom, acceptor molecule, acceptor atom, score
      P1  H  6896  6908       L1    19  1.00

> <Gold.PLP.Chemscore.Internal.Correction>
0.0167

> <Gold.Rescore>
     Score         DG    S(hbond)    S(metal)    S(lipo)     H(rot)  DE(clash)    DE(int)     intcor
      9.56     -14.04       0.68        0.00      75.61       1.00       1.73       2.75       ----

> <Gold.Chemscore.Fitness>
9.5602

> <Gold.Chemscore.DG>
-14.0389

> <Gold.Chemscore.ZeroCoef>
-5.4800

> <Gold.Chemscore.Hbond>
0.6802

> <Gold.Chemscore.Metal>
0.0000

> <Gold.Chemscore.Lipo>
75.6150

> <Gold.Chemscore.Internal_Hbond>
0.0000

> <Gold.Chemscore.DEClash>
1.7305

> <Gold.Chemscore.DEInternal>
2.7482

> <Gold.Chemscore.Rot>
1.0000

> <Gold.Chemscore.Internal.Correction>
   9.000000E+99

> <Gold.Chemscore.Hbonds>
donor molecule, donor type, donor heavy atom, donor atom, acceptor molecule, acceptor atom, score
      P1  H  6896  6908       L1    19  0.09

> <Gold.Chemscore.Hbond.Weighted>
-2.2720

> <Gold.Chemscore.Metal.Weighted>
-0.0000

> <Gold.Chemscore.Lipo.Weighted>
-8.8470

> <Gold.Chemscore.Internal_Hbond.Weighted>
0.0000

> <Gold.Chemscore.DEClash.Weighted>
1.7305

> <Gold.Chemscore.DEInternal.Weighted>
2.7482

> <Gold.Chemscore.Rot.Weighted>
2.5600

> <Gold.Chemscore.Internal.Correction.Weighted>
   9.000000E+99

> <Gold.Protein.RotatedTorsions>
[ 6907 6896 6895 6894 ] final  132.35 input  -60.11 | X-H torsion
[ 7974 7965 7964 7962 ] final  -14.69 input  175.53 | X-H torsion
[ 8008 7997 7996 7995 ] final  -97.19 input   59.86 | X-H torsion
[ 10167 10162 10161 10158 ] final   72.18 input  -65.29 | X-H torsion
[ 10718 10713 10712 10709 ] final -132.14 input   66.30 | X-H torsion
[ 10763 10752 10751 10750 ] final -116.65 input  -60.55 | X-H torsion
[ 11005 11000 10999 10996 ] final  -42.34 input  -57.11 | X-H torsion

> <Gold.Protein.ActiveResidues>
 VAL166  LYS551  ARG553  GLY616  TRP617  ASP618  TYR619  PRO620  LYS621  CYS622 
 ASP623  PHE694  ASN695  SER759  ASP760  ASP761  ALA762  ILE779  LEU786  VAL792 
 PHE793  MET794  SER795  GLU796  ALA797  LYS798  CYS799  TRP800  GLU811  SER814 

> <Gold.Protein.RotatedAtoms>
  152.3332  133.5982  159.5824 H   0  0  0  0  0  0  0  0  0  0  0  0  # atno 6907 bound_to 6896
  150.7435  133.9835  159.3593 H   0  0  0  0  0  0  0  0  0  0  0  0  # atno 6908 bound_to 6896
  151.7708  135.0787  160.0410 H   0  0  0  0  0  0  0  0  0  0  0  0  # atno 6909 bound_to 6896
  146.2064  140.3384  142.8406 H   0  0  0  0  0  0  0  0  0  0  0  0  # atno 7974 bound_to 7965
  154.7845  140.0465  157.1153 H   0  0  0  0  0  0  0  0  0  0  0  0  # atno 8008 bound_to 7997
  154.9665  140.3084  155.4987 H   0  0  0  0  0  0  0  0  0  0  0  0  # atno 8009 bound_to 7997
  156.2941  140.2261  156.4754 H   0  0  0  0  0  0  0  0  0  0  0  0  # atno 8010 bound_to 7997
  140.0381  144.5412  150.7455 H   0  0  0  0  0  0  0  0  0  0  0  0  # atno 10167 bound_to 10162
  156.2316  130.7041  151.0864 H   0  0  0  0  0  0  0  0  0  0  0  0  # atno 10718 bound_to 10713
  154.8527  135.4338  154.1855 H   0  0  0  0  0  0  0  0  0  0  0  0  # atno 10763 bound_to 10752
  153.2935  135.6963  153.7276 H   0  0  0  0  0  0  0  0  0  0  0  0  # atno 10764 bound_to 10752
  153.6434  135.3464  155.3053 H   0  0  0  0  0  0  0  0  0  0  0  0  # atno 10765 bound_to 10752
  141.0309  133.6820  156.2582 H   0  0  0  0  0  0  0  0  0  0  0  0  # atno 11005 bound_to 11000
  144.8803  140.7391  143.5991 LP  0  0  0  0  0  0  0  0  0  0  0  0  # atno 17320 bound_to 7965
  145.3304  139.1761  143.4540 LP  0  0  0  0  0  0  0  0  0  0  0  0  # atno 17321 bound_to 7965
  140.7272  143.2649  151.4077 LP  0  0  0  0  0  0  0  0  0  0  0  0  # atno 17342 bound_to 10162
  139.6032  144.1252  152.2221 LP  0  0  0  0  0  0  0  0  0  0  0  0  # atno 17343 bound_to 10162
  157.7135  131.0722  150.6412 LP  0  0  0  0  0  0  0  0  0  0  0  0  # atno 17370 bound_to 10713
  156.6480  130.4477  149.5729 LP  0  0  0  0  0  0  0  0  0  0  0  0  # atno 17371 bound_to 10713
  140.6408  134.5168  157.5569 LP  0  0  0  0  0  0  0  0  0  0  0  0  # atno 17394 bound_to 11000
  139.9207  134.8154  156.1220 LP  0  0  0  0  0  0  0  0  0  0  0  0  # atno 17395 bound_to 11000

$$$$
