AV-unprocessed.smi:101|AV-procd|sdf|942|dock1
  -GOLD-   2262017463D 1   1.00000     0.00000
 Structure written by MMmdl.
 43 45  0  0  0  0  0  0  0  0  2 V2000
  147.3639  133.6938  154.2608 C   0  0  0  0  0  0  0  0  0  0  0  0
  148.6035  134.3991  154.7826 C   0  0  0  0  0  0  0  0  0  0  0  0
  148.6762  135.7442  154.8903 C   0  0  0  0  0  0  0  0  0  0  0  0
  149.8075  136.3819  155.3688 N   0  0  0  0  0  0  0  0  0  0  0  0
  149.8557  137.8883  155.4933 C   0  0  1  0  0  0  0  0  0  0  0  0
  150.3467  138.2269  156.7590 O   0  0  0  0  0  0  0  0  0  0  0  0
  151.4602  139.1055  156.6398 C   0  0  1  0  0  0  0  0  0  0  0  0
  152.4162  138.8744  157.8169 C   0  0  0  0  0  0  0  0  0  0  0  0
  152.3260  139.9608  158.7238 O   0  0  0  0  0  0  0  0  0  0  0  0
  153.4320  140.4232  159.3371 C   0  0  0  0  0  0  0  0  0  0  0  0
  154.5567  139.9486  159.1654 O   0  0  0  0  0  0  0  0  0  0  0  0
  153.1526  141.5709  160.2475 C   0  0  0  0  0  0  0  0  0  0  0  0
  152.2736  142.5945  159.8229 C   0  0  0  0  0  0  0  0  0  0  0  0
  151.9907  143.6905  160.6611 C   0  0  0  0  0  0  0  0  0  0  0  0
  152.5817  143.7752  161.9352 C   0  0  0  0  0  0  0  0  0  0  0  0
  153.4567  142.7626  162.3701 C   0  0  0  0  0  0  0  0  0  0  0  0
  153.7420  141.6664  161.5327 C   0  0  0  0  0  0  0  0  0  0  0  0
  152.0488  138.7705  155.2692 C   0  0  2  0  0  0  0  0  0  0  0  0
  152.8388  139.8100  154.7235 O   0  0  0  0  0  0  0  0  0  0  0  0
  150.8068  138.4751  154.4387 C   0  0  2  0  0  0  0  0  0  0  0  0
  150.2476  139.6356  153.8504 O   0  0  0  0  0  0  0  0  0  0  0  0
  150.9194  135.6113  155.7973 C   0  0  0  0  0  0  0  0  0  0  0  0
  151.8904  136.2066  156.2654 O   0  0  0  0  0  0  0  0  0  0  0  0
  150.8594  134.2539  155.6828 N   0  5  0  0  0  0  0  0  0  0  0  0
  149.7659  133.6018  155.1929 C   0  0  0  0  0  0  0  0  0  0  0  0
  149.7272  132.3760  155.0900 O   0  0  0  0  0  0  0  0  0  0  0  0
  146.5842  134.4076  153.9947 H   0  0  0  0  0  0  0  0  0  0  0  0
  146.9619  133.0207  155.0183 H   0  0  0  0  0  0  0  0  0  0  0  0
  147.6038  133.1092  153.3723 H   0  0  0  0  0  0  0  0  0  0  0  0
  147.8190  136.3320  154.5986 H   0  0  0  0  0  0  0  0  0  0  0  0
  148.8237  138.2333  155.4103 H   0  0  0  0  0  0  0  0  0  0  0  0
  151.0760  140.1271  156.6503 H   0  0  0  0  0  0  0  0  0  0  0  0
  152.1470  137.9546  158.3375 H   0  0  0  0  0  0  0  0  0  0  0  0
  153.4398  138.7591  157.4572 H   0  0  0  0  0  0  0  0  0  0  0  0
  151.8072  142.5510  158.8492 H   0  0  0  0  0  0  0  0  0  0  0  0
  151.3186  144.4665  160.3254 H   0  0  0  0  0  0  0  0  0  0  0  0
  152.3639  144.6153  162.5782 H   0  0  0  0  0  0  0  0  0  0  0  0
  153.9105  142.8260  163.3480 H   0  0  0  0  0  0  0  0  0  0  0  0
  154.4172  140.9063  161.8978 H   0  0  0  0  0  0  0  0  0  0  0  0
  152.6539  137.8657  155.3435 H   0  0  0  0  0  0  0  0  0  0  0  0
  152.3249  140.6034  154.7296 H   0  0  0  0  0  0  0  0  0  0  0  0
  151.0126  137.7553  153.6447 H   0  0  0  0  0  0  0  0  0  0  0  0
  149.8839  139.3949  153.0114 H   0  0  0  0  0  0  0  0  0  0  0  0
  1  2  1  0  0  0  0
  1 27  1  0  0  0  0
  1 28  1  0  0  0  0
  1 29  1  0  0  0  0
  2 25  1  0  0  0  0
  2  3  2  0  0  0  0
  3  4  1  0  0  0  0
  3 30  1  0  0  0  0
  4  5  1  0  0  0  0
  4 22  1  0  0  0  0
  5 20  1  0  0  0  0
  5  6  1  0  0  0  0
  5 31  1  0  0  0  0
  6  7  1  0  0  0  0
  7  8  1  0  0  0  0
  7 18  1  0  0  0  0
  7 32  1  0  0  0  0
  8  9  1  0  0  0  0
  8 33  1  0  0  0  0
  8 34  1  0  0  0  0
  9 10  1  0  0  0  0
 10 11  2  0  0  0  0
 10 12  1  0  0  0  0
 12 17  1  0  0  0  0
 12 13  2  0  0  0  0
 13 14  1  0  0  0  0
 13 35  1  0  0  0  0
 14 15  2  0  0  0  0
 14 36  1  0  0  0  0
 15 16  1  0  0  0  0
 15 37  1  0  0  0  0
 16 17  2  0  0  0  0
 16 38  1  0  0  0  0
 17 39  1  0  0  0  0
 18 19  1  0  0  0  0
 18 20  1  0  0  0  0
 18 40  1  0  0  0  0
 19 41  1  0  0  0  0
 20 21  1  0  0  0  0
 20 42  1  0  0  0  0
 21 43  1  0  0  0  0
 22 23  2  0  0  0  0
 22 24  1  0  0  0  0
 24 25  1  0  0  0  0
 25 26  2  0  0  0  0
M  CHG  1  24  -1
M  END
> <s_m_source_file>
AV-unprocessed.smi

> <i_m_source_file_index>
101

> <i_lp_mmshare_version>
43012

> <i_f3d_flags>
0

> <s_epik_input>
Tz1jMVtuSF1jKD1PKW4oW2NIXWMxW0NIM10pW0NAQEhdMk9bQ0BIXShbQ0BASF0oW09IXSlbQ0BIXTJbT0hdKVtDSDJdT0MoPU8pYzNbY0hdW2NIXVtjSF1bY0hdW2NIXTM=

> <s_epik_cmdline>
J2VwaWtfcHl0aG9uJywgJy1waCcsICc3LjAnLCAnLXRuJywgJzgnLCAnLW1hJywgJzIwMCcsICctbWV0YWxfYmluZGluZycsICctaW1hZScsICc8aW5maWxlLm1hZT4nLCAnLW9tYWUnLCAnPG91dGZpbGUubWFlPic=

> <r_lp_tautomer_probability>
0.999537

> <r_epik_Ionization_Penalty>
3.21006

> <r_epik_Ionization_Penalty_Charging>
5.75142e-08

> <r_epik_Ionization_Penalty_Neutral>
3.21006

> <r_epik_State_Penalty>
3.20925

> <r_epik_Charging_Adjusted_Penalty>
3.20925

> <i_epik_Tot_Q>
-1

> <i_epik_Tot_abs_Q>
1

> <r_epik_Metal_State_Penalty>
0.119957

> <b_epik_Metal_Only>
1

> <s_epik_Chemistry_Notes>
This compound has an ester and may undergo hydrolysis at high or low pH. This compound contains an acetal/aminal-like group ( X-CH(R)-Y where X, Y are N, S, or O) that may be acid/base labile, releasing an aldehyde.

> <s_lp_Force_Field>
OPLS_2005

> <r_lp_Energy>
44.5591

> <b_lp_Chiralities_Consistent>
1

> <s_lp_Variant>
AV-unprocessed.smi:101-30

> <Gold.Version>
5.8.1

> <Gold.Id.Protein>
6NUR|6NUR_protein|mol2

> <Gold.PLP.Fitness>
58.2536

> <Gold.PLP.PLP>
-47.1691

> <Gold.PLP.part.hbond>
-6.0672

> <Gold.PLP.part.metal>
0.0000

> <Gold.PLP.part.buried>
-2.5103

> <Gold.PLP.part.nonpolar>
-36.5646

> <Gold.PLP.part.repulsive>
0.0540

> <Gold.PLP.ligand.clash>
0.0000

> <Gold.PLP.ligand.torsion>
1.8821

> <Gold.PLP.Chemscore.Hbond>
4.8640

> <Gold.PLP.Chemscore.CHOScore>
0.0102

> <Gold.PLP.Chemscore.Metal>
0.0000

> <Gold.Chemscore.Hbonds>
donor molecule, donor type, donor heavy atom, donor atom, acceptor molecule, acceptor atom, score
      L1  H    21    43       P1  7957  0.86
      P1  H  7989  7998       L1    21  0.98
      P1  H  7997  8008       L1    19  1.00
      P1  H  7997  8010       L1    11  0.93
      P1  H 10752 10765       L1    23  1.00

> <Gold.PLP.Chemscore.Internal.Correction>
0.2258

> <Gold.Rescore>
     Score         DG    S(hbond)    S(metal)    S(lipo)     H(rot)  DE(clash)    DE(int)     intcor
     14.39     -21.35       3.75        0.00      99.96       3.27       0.07       6.89       ----

> <Gold.Chemscore.Fitness>
14.3858

> <Gold.Chemscore.DG>
-21.3451

> <Gold.Chemscore.ZeroCoef>
-5.4800

> <Gold.Chemscore.Hbond>
3.7513

> <Gold.Chemscore.Metal>
0.0000

> <Gold.Chemscore.Lipo>
99.9636

> <Gold.Chemscore.Internal_Hbond>
0.0000

> <Gold.Chemscore.DEClash>
0.0688

> <Gold.Chemscore.DEInternal>
6.8906

> <Gold.Chemscore.Rot>
3.2656

> <Gold.Chemscore.Internal.Correction>
   9.000000E+99

> <Gold.Chemscore.Hbonds>
donor molecule, donor type, donor heavy atom, donor atom, acceptor molecule, acceptor atom, score
      L1  H    21    43       P1  7957  0.82
      P1  H  7989  7998       L1    21  0.33
      P1  H  7997  8008       L1    19  0.45
      P1  H  7997  8010       L1    11  0.85
      P1  H 10752 10765       L1    23  0.29

> <Gold.Chemscore.Hbond.Weighted>
-12.5292

> <Gold.Chemscore.Metal.Weighted>
-0.0000

> <Gold.Chemscore.Lipo.Weighted>
-11.6957

> <Gold.Chemscore.Internal_Hbond.Weighted>
0.0000

> <Gold.Chemscore.DEClash.Weighted>
0.0688

> <Gold.Chemscore.DEInternal.Weighted>
6.8906

> <Gold.Chemscore.Rot.Weighted>
8.3598

> <Gold.Chemscore.Internal.Correction.Weighted>
   9.000000E+99

> <Gold.Protein.RotatedTorsions>
[ 6907 6896 6895 6894 ] final  -20.64 input  -60.11 | X-H torsion
[ 7974 7965 7964 7962 ] final   85.40 input  175.53 | X-H torsion
[ 8008 7997 7996 7995 ] final  -12.08 input   59.86 | X-H torsion
[ 10167 10162 10161 10158 ] final  152.22 input  -65.29 | X-H torsion
[ 10718 10713 10712 10709 ] final -174.93 input   66.30 | X-H torsion
[ 10763 10752 10751 10750 ] final -133.60 input  -60.55 | X-H torsion
[ 11005 11000 10999 10996 ] final  162.15 input  -57.11 | X-H torsion

> <Gold.Protein.ActiveResidues>
 VAL166  LYS551  ARG553  GLY616  TRP617  ASP618  TYR619  PRO620  LYS621  CYS622 
 ASP623  PHE694  ASN695  SER759  ASP760  ASP761  ALA762  ILE779  LEU786  VAL792 
 PHE793  MET794  SER795  GLU796  ALA797  LYS798  CYS799  TRP800  GLU811  SER814 

> <Gold.Protein.RotatedAtoms>
  151.2451  135.0603  159.9039 H   0  0  0  0  0  0  0  0  0  0  0  0  # atno 6907 bound_to 6896
  152.5388  134.0392  159.8070 H   0  0  0  0  0  0  0  0  0  0  0  0  # atno 6908 bound_to 6896
  151.0592  133.5510  159.2667 H   0  0  0  0  0  0  0  0  0  0  0  0  # atno 6909 bound_to 6896
  145.5860  139.2331  143.2326 H   0  0  0  0  0  0  0  0  0  0  0  0  # atno 7974 bound_to 7965
  154.5409  140.2285  155.8644 H   0  0  0  0  0  0  0  0  0  0  0  0  # atno 8008 bound_to 7997
  156.1857  140.3089  155.9196 H   0  0  0  0  0  0  0  0  0  0  0  0  # atno 8009 bound_to 7997
  155.3261  140.0443  157.3031 H   0  0  0  0  0  0  0  0  0  0  0  0  # atno 8010 bound_to 7997
  139.4834  144.5376  151.7619 H   0  0  0  0  0  0  0  0  0  0  0  0  # atno 10167 bound_to 10162
  156.7924  130.9522  151.3120 H   0  0  0  0  0  0  0  0  0  0  0  0  # atno 10718 bound_to 10713
  154.8730  135.3761  154.4600 H   0  0  0  0  0  0  0  0  0  0  0  0  # atno 10763 bound_to 10752
  153.5269  135.7028  153.5708 H   0  0  0  0  0  0  0  0  0  0  0  0  # atno 10764 bound_to 10752
  153.3930  135.3967  155.1901 H   0  0  0  0  0  0  0  0  0  0  0  0  # atno 10765 bound_to 10752
  140.2229  134.8183  157.3238 H   0  0  0  0  0  0  0  0  0  0  0  0  # atno 11005 bound_to 11000
  146.1681  140.6687  142.9246 LP  0  0  0  0  0  0  0  0  0  0  0  0  # atno 17320 bound_to 7965
  144.7372  140.4842  143.6895 LP  0  0  0  0  0  0  0  0  0  0  0  0  # atno 17321 bound_to 7965
  140.4910  144.1310  150.5950 LP  0  0  0  0  0  0  0  0  0  0  0  0  # atno 17342 bound_to 10162
  140.4171  143.2629  151.9762 LP  0  0  0  0  0  0  0  0  0  0  0  0  # atno 17343 bound_to 10162
  157.6594  130.8953  149.9798 LP  0  0  0  0  0  0  0  0  0  0  0  0  # atno 17370 bound_to 10713
  156.1151  130.3648  149.9982 LP  0  0  0  0  0  0  0  0  0  0  0  0  # atno 17371 bound_to 10713
  140.1831  134.4465  155.7760 LP  0  0  0  0  0  0  0  0  0  0  0  0  # atno 17394 bound_to 11000
  141.2222  133.6993  156.7902 LP  0  0  0  0  0  0  0  0  0  0  0  0  # atno 17395 bound_to 11000

$$$$
