AV-unprocessed.smi:2067|AV-procd|sdf|8425|dock1
  -GOLD-   2272011113D 1   1.00000     0.00000
 Structure written by MMmdl.
 47 48  0  0  0  0  0  0  0  0  1 V2000
  142.6913  137.4413  152.7491 C   0  0  0  0  0  0  0  0  0  0  0  0
  143.4208  136.2741  152.0684 C   0  0  2  0  0  0  0  0  0  0  0  0
  143.6783  135.1052  153.0400 C   0  0  0  0  0  0  0  0  0  0  0  0
  144.3597  133.9257  152.3269 C   0  0  0  0  0  0  0  0  0  0  0  0
  145.6575  134.3645  151.6303 C   0  0  0  0  0  0  0  0  0  0  0  0
  145.4090  135.5408  150.6700 C   0  0  0  0  0  0  0  0  0  0  0  0
  144.7311  136.7266  151.3876 C   0  0  2  0  0  0  0  0  0  0  0  0
  145.6128  137.2414  152.3791 O   0  0  0  0  0  0  0  0  0  0  0  0
  146.5729  138.1649  151.8894 C   0  0  0  0  0  0  0  0  0  0  0  0
  147.0279  139.0580  153.0466 C   0  0  0  0  0  0  0  0  0  0  0  0
  148.3794  138.7324  153.4750 N   0  0  0  0  0  0  0  0  0  0  0  0
  149.1228  139.4197  154.4299 C   0  0  0  0  0  0  0  0  0  0  0  0
  148.6165  140.5045  155.0825 C   0  0  0  0  0  0  0  0  0  0  0  0
  147.2869  140.9910  154.8838 C   0  0  0  0  0  0  0  0  0  0  0  0
  146.2174  141.4035  154.7187 N   0  0  0  0  0  0  0  0  0  0  0  0
  149.3890  141.2449  156.0792 C   0  0  0  0  0  0  0  0  0  0  0  0
  148.9497  142.2220  156.6893 O   0  0  0  0  0  0  0  0  0  0  0  0
  150.6924  140.7482  156.2985 N   0  0  0  0  0  0  0  0  0  0  0  0
  151.5482  141.4108  157.2628 C   0  0  0  0  0  0  0  0  0  0  0  0
  151.2312  139.6194  155.6520 C   0  0  0  0  0  0  0  0  0  0  0  0
  152.3747  139.2258  155.9045 O   0  0  0  0  0  0  0  0  0  0  0  0
  150.4107  138.9546  154.7095 N   0  0  0  0  0  0  0  0  0  0  0  0
  151.0242  137.7982  154.0912 C   0  0  0  0  0  0  0  0  0  0  0  0
  143.2876  137.8654  153.5552 H   0  0  0  0  0  0  0  0  0  0  0  0
  141.7414  137.1161  153.1743 H   0  0  0  0  0  0  0  0  0  0  0  0
  142.4785  138.2399  152.0381 H   0  0  0  0  0  0  0  0  0  0  0  0
  142.7574  135.9052  151.2847 H   0  0  0  0  0  0  0  0  0  0  0  0
  144.3014  135.4414  153.8702 H   0  0  0  0  0  0  0  0  0  0  0  0
  142.7377  134.7707  153.4788 H   0  0  0  0  0  0  0  0  0  0  0  0
  144.5724  133.1314  153.0428 H   0  0  0  0  0  0  0  0  0  0  0  0
  143.6767  133.5018  151.5897 H   0  0  0  0  0  0  0  0  0  0  0  0
  146.3945  134.6531  152.3809 H   0  0  0  0  0  0  0  0  0  0  0  0
  146.0878  133.5243  151.0847 H   0  0  0  0  0  0  0  0  0  0  0  0
  146.3492  135.8519  150.2152 H   0  0  0  0  0  0  0  0  0  0  0  0
  144.7731  135.2063  149.8494 H   0  0  0  0  0  0  0  0  0  0  0  0
  144.4895  137.5047  150.6606 H   0  0  0  0  0  0  0  0  0  0  0  0
  147.4393  137.6387  151.4879 H   0  0  0  0  0  0  0  0  0  0  0  0
  146.1467  138.7580  151.0789 H   0  0  0  0  0  0  0  0  0  0  0  0
  146.9647  140.1002  152.7341 H   0  0  0  0  0  0  0  0  0  0  0  0
  146.3580  138.9354  153.8978 H   0  0  0  0  0  0  0  0  0  0  0  0
  148.9307  138.3332  152.7286 H   0  0  0  0  0  0  0  0  0  0  0  0
  152.4974  141.6271  156.7692 H   0  0  0  0  0  0  0  0  0  0  0  0
  151.6816  140.7215  158.0982 H   0  0  0  0  0  0  0  0  0  0  0  0
  151.1100  142.3466  157.6080 H   0  0  0  0  0  0  0  0  0  0  0  0
  151.9031  138.1480  153.5469 H   0  0  0  0  0  0  0  0  0  0  0  0
  150.3305  137.3143  153.4075 H   0  0  0  0  0  0  0  0  0  0  0  0
  151.2938  137.1024  154.8881 H   0  0  0  0  0  0  0  0  0  0  0  0
  1  2  1  0  0  0  0
  1 24  1  0  0  0  0
  1 25  1  0  0  0  0
  1 26  1  0  0  0  0
  2  7  1  0  0  0  0
  2  3  1  0  0  0  0
  2 27  1  0  0  0  0
  3  4  1  0  0  0  0
  3 28  1  0  0  0  0
  3 29  1  0  0  0  0
  4  5  1  0  0  0  0
  4 30  1  0  0  0  0
  4 31  1  0  0  0  0
  5  6  1  0  0  0  0
  5 32  1  0  0  0  0
  5 33  1  0  0  0  0
  6  7  1  0  0  0  0
  6 34  1  0  0  0  0
  6 35  1  0  0  0  0
  7  8  1  0  0  0  0
  7 36  1  0  0  0  0
  8  9  1  0  0  0  0
  9 10  1  0  0  0  0
  9 37  1  0  0  0  0
  9 38  1  0  0  0  0
 10 11  1  0  0  0  0
 10 39  1  0  0  0  0
 10 40  1  0  0  0  0
 11 12  1  0  0  0  0
 11 41  1  0  0  0  0
 12 22  1  0  0  0  0
 12 13  2  0  0  0  0
 13 14  1  0  0  0  0
 13 16  1  0  0  0  0
 14 15  3  0  0  0  0
 16 17  2  0  0  0  0
 16 18  1  0  0  0  0
 18 19  1  0  0  0  0
 18 20  1  0  0  0  0
 19 42  1  0  0  0  0
 19 43  1  0  0  0  0
 19 44  1  0  0  0  0
 20 21  2  0  0  0  0
 20 22  1  0  0  0  0
 22 23  1  0  0  0  0
 23 45  1  0  0  0  0
 23 46  1  0  0  0  0
 23 47  1  0  0  0  0
M  END
> <s_m_source_file>
AV-unprocessed.smi

> <i_m_source_file_index>
2067

> <i_lp_mmshare_version>
43012

> <i_f3d_flags>
0

> <s_epik_input>
W0NIM11bQ0BASF0xW0NIMl1bQ0gyXVtDSDJdW0NIMl1bQ0BIXTFPW0NIMl1bQ0gyXVtOSF1jMmMoQyNOKWMoPU8pbihbQ0gzXSljKD1PKW4yW0NIM10=

> <s_epik_cmdline>
J2VwaWtfcHl0aG9uJywgJy1waCcsICc3LjAnLCAnLXRuJywgJzgnLCAnLW1hJywgJzIwMCcsICctbWV0YWxfYmluZGluZycsICctaW1hZScsICc8aW5maWxlLm1hZT4nLCAnLW9tYWUnLCAnPG91dGZpbGUubWFlPic=

> <r_epik_Ionization_Penalty>
0.00056529

> <r_epik_Ionization_Penalty_Charging>
3.94678e-10

> <r_epik_Ionization_Penalty_Neutral>
0.000565289

> <r_epik_State_Penalty>
0.000354611

> <r_epik_Charging_Adjusted_Penalty>
0.000354611

> <i_epik_Tot_Q>
0

> <i_epik_Tot_abs_Q>
0

> <r_epik_Metal_State_Penalty>
-0

> <b_epik_Metal_Only>
0

> <s_lp_Force_Field>
OPLS_2005

> <r_lp_Energy>
32.9241

> <b_lp_Chiralities_Consistent>
1

> <s_lp_Variant>
AV-unprocessed.smi:2067-3

> <Gold.Version>
5.8.1

> <Gold.Id.Protein>
6NUR|6NUR_protein|mol2

> <Gold.PLP.Fitness>
38.4339

> <Gold.PLP.PLP>
-35.9169

> <Gold.PLP.part.hbond>
-3.0000

> <Gold.PLP.part.metal>
0.0000

> <Gold.PLP.part.buried>
-2.9366

> <Gold.PLP.part.nonpolar>
-34.0561

> <Gold.PLP.part.repulsive>
3.3479

> <Gold.PLP.ligand.clash>
10.1185

> <Gold.PLP.ligand.torsion>
0.7409

> <Gold.PLP.Chemscore.Hbond>
1.3175

> <Gold.PLP.Chemscore.CHOScore>
0.0000

> <Gold.PLP.Chemscore.Metal>
0.0000

> <Gold.Chemscore.Hbonds>
donor molecule, donor type, donor heavy atom, donor atom, acceptor molecule, acceptor atom, score
      L1  H    11    41       P1  7948  0.30
      P1  H  7997  8010       L1    21  0.59

> <Gold.PLP.Chemscore.Internal.Correction>
10.1648

> <Gold.Rescore>
     Score         DG    S(hbond)    S(metal)    S(lipo)     H(rot)  DE(clash)    DE(int)     intcor
      7.48     -13.69       1.24        0.00      73.11       1.76       2.93       3.28       ----

> <Gold.Chemscore.Fitness>
7.4793

> <Gold.Chemscore.DG>
-13.6883

> <Gold.Chemscore.ZeroCoef>
-5.4800

> <Gold.Chemscore.Hbond>
1.2441

> <Gold.Chemscore.Metal>
0.0000

> <Gold.Chemscore.Lipo>
73.1135

> <Gold.Chemscore.Internal_Hbond>
0.0000

> <Gold.Chemscore.DEClash>
2.9335

> <Gold.Chemscore.DEInternal>
3.2755

> <Gold.Chemscore.Rot>
1.7583

> <Gold.Chemscore.Internal.Correction>
   9.000000E+99

> <Gold.Chemscore.Hbonds>
donor molecule, donor type, donor heavy atom, donor atom, acceptor molecule, acceptor atom, score
      L1  H    11    41       P1  7948  0.30
      P1  H  7997  8010       L1    21  0.58

> <Gold.Chemscore.Hbond.Weighted>
-4.1552

> <Gold.Chemscore.Metal.Weighted>
-0.0000

> <Gold.Chemscore.Lipo.Weighted>
-8.5543

> <Gold.Chemscore.Internal_Hbond.Weighted>
0.0000

> <Gold.Chemscore.DEClash.Weighted>
2.9335

> <Gold.Chemscore.DEInternal.Weighted>
3.2755

> <Gold.Chemscore.Rot.Weighted>
4.5012

> <Gold.Chemscore.Internal.Correction.Weighted>
   9.000000E+99

> <Gold.Protein.RotatedTorsions>
[ 6907 6896 6895 6894 ] final    9.29 input  -60.11 | X-H torsion
[ 7974 7965 7964 7962 ] final -102.18 input  175.53 | X-H torsion
[ 8008 7997 7996 7995 ] final   85.76 input   59.86 | X-H torsion
[ 10167 10162 10161 10158 ] final -127.66 input  -65.29 | X-H torsion
[ 10718 10713 10712 10709 ] final  -92.39 input   66.30 | X-H torsion
[ 10763 10752 10751 10750 ] final   81.16 input  -60.55 | X-H torsion
[ 11005 11000 10999 10996 ] final  154.19 input  -57.11 | X-H torsion

> <Gold.Protein.ActiveResidues>
 VAL166  LYS551  ARG553  GLY616  TRP617  ASP618  TYR619  PRO620  LYS621  CYS622 
 ASP623  PHE694  ASN695  SER759  ASP760  ASP761  ALA762  ILE779  LEU786  VAL792 
 PHE793  MET794  SER795  GLU796  ALA797  LYS798  CYS799  TRP800  GLU811  SER814 

> <Gold.Protein.RotatedAtoms>
  151.7198  135.0896  160.0281 H   0  0  0  0  0  0  0  0  0  0  0  0  # atno 6907 bound_to 6896
  152.3609  133.6292  159.6023 H   0  0  0  0  0  0  0  0  0  0  0  0  # atno 6908 bound_to 6896
  150.7604  133.9341  159.3477 H   0  0  0  0  0  0  0  0  0  0  0  0  # atno 6909 bound_to 6896
  145.2720  140.9301  143.2981 H   0  0  0  0  0  0  0  0  0  0  0  0  # atno 7974 bound_to 7965
  155.9542  140.3398  155.6434 H   0  0  0  0  0  0  0  0  0  0  0  0  # atno 8008 bound_to 7997
  155.6881  140.0745  157.2477 H   0  0  0  0  0  0  0  0  0  0  0  0  # atno 8009 bound_to 7997
  154.4128  140.1662  156.2044 H   0  0  0  0  0  0  0  0  0  0  0  0  # atno 8010 bound_to 7997
  139.9585  143.5976  152.2453 H   0  0  0  0  0  0  0  0  0  0  0  0  # atno 10167 bound_to 10162
  156.0002  130.4985  150.5618 H   0  0  0  0  0  0  0  0  0  0  0  0  # atno 10718 bound_to 10713
  153.1093  135.4776  154.9008 H   0  0  0  0  0  0  0  0  0  0  0  0  # atno 10763 bound_to 10752
  154.7464  135.3095  154.8639 H   0  0  0  0  0  0  0  0  0  0  0  0  # atno 10764 bound_to 10752
  153.9233  135.6852  153.4800 H   0  0  0  0  0  0  0  0  0  0  0  0  # atno 10765 bound_to 10752
  140.1467  134.8703  157.2401 H   0  0  0  0  0  0  0  0  0  0  0  0  # atno 11005 bound_to 11000
  144.9327  139.4280  143.6487 LP  0  0  0  0  0  0  0  0  0  0  0  0  # atno 17320 bound_to 7965
  146.3243  139.8246  142.8920 LP  0  0  0  0  0  0  0  0  0  0  0  0  # atno 17321 bound_to 7965
  139.6572  144.7662  151.2032 LP  0  0  0  0  0  0  0  0  0  0  0  0  # atno 17342 bound_to 10162
  140.7561  143.6066  150.8646 LP  0  0  0  0  0  0  0  0  0  0  0  0  # atno 17343 bound_to 10162
  157.3526  131.0736  151.1701 LP  0  0  0  0  0  0  0  0  0  0  0  0  # atno 17370 bound_to 10713
  157.2512  130.6615  149.5932 LP  0  0  0  0  0  0  0  0  0  0  0  0  # atno 17371 bound_to 10713
  140.2655  134.3521  155.7391 LP  0  0  0  0  0  0  0  0  0  0  0  0  # atno 17394 bound_to 11000
  141.2193  133.7394  156.9145 LP  0  0  0  0  0  0  0  0  0  0  0  0  # atno 17395 bound_to 11000

$$$$
