#       Name:                AV-unprocessed.smi:2706
#       Creating user name   scv26
#       Creation time:       Fri Mar 27 14:49:12 2020


#       File generated by GOLD software.
#

@<TRIPOS>MOLECULE
AV-unprocessed.smi:2706
    46    49     1
SMALL
NO_CHARGES


@<TRIPOS>ATOM
      1 ****        -5.0592  -1.1165  -2.0129 C.3            1 S1                 0.0000
      2 ****        -4.6236  -0.4153  -3.2159 N.pl3          1 S1                 0.0000
      3 ****        -5.5564  -0.1944  -4.3137 C.3            1 S1                 0.0000
      4 ****        -3.3340   0.1550  -3.2683 C.ar           1 S1                 0.0000
      5 ****        -2.8542   0.8853  -4.3813 C.ar           1 S1                 0.0000
      6 ****        -1.5543   1.4255  -4.3503 C.ar           1 S1                 0.0000
      7 ****        -0.7467   1.2306  -3.2131 C.ar           1 S1                 0.0000
      8 ****        -1.2545   0.4887  -2.1174 C.ar           1 S1                 0.0000
      9 ****        -0.5503   0.2230  -0.9097 N.am           1 S1                 0.0000
     10 ****         0.7267   0.4939  -0.5842 C.2            1 S1                 0.0000
     11 ****         1.5546   1.0289  -1.3207 O.2            1 S1                 0.0000
     12 ****         0.9992   0.0978   0.6671 N.am           1 S1                 0.0000
     13 ****         2.2546   0.2489   1.3295 C.3            1 S1                 0.0000
     14 ****         2.6734  -0.8572   2.2860 C.3            1 S1                 0.0000
     15 ****         4.0635  -1.0355   2.8897 C.3            1 S1                 0.0000
     16 ****         3.8908  -1.3426   4.3918 C.3            1 S1                 0.0000
     17 ****         3.4190   0.0188   4.9596 C.3            1 S1                 0.0000
     18 ****         3.3896   0.9123   3.7021 C.3            1 S1                 0.0000
     19 ****         4.6256   0.3849   2.9714 C.3            1 S1                 0.0000
     20 ****         2.2178   0.4608   2.8354 C.3            1 S1                 0.0000
     21 ****        -2.5123  -0.0031  -2.2018 N.pl3          1 S1                 1.0000
     22 ****        -5.0623  -0.4420  -1.1559 H              1 S1                 0.0000
     23 ****        -4.3964  -1.9549  -1.7950 H              1 S1                 0.0000
     24 ****        -6.0675  -1.5140  -2.1293 H              1 S1                 0.0000
     25 ****        -5.7316   0.8721  -4.4602 H              1 S1                 0.0000
     26 ****        -6.5196  -0.6660  -4.1170 H              1 S1                 0.0000
     27 ****        -5.1642  -0.6147  -5.2404 H              1 S1                 0.0000
     28 ****        -3.4625   1.0419  -5.2596 H              1 S1                 0.0000
     29 ****        -1.1796   1.9876  -5.1932 H              1 S1                 0.0000
     30 ****         0.2415   1.6620  -3.2128 H              1 S1                 0.0000
     31 ****        -1.0893  -0.2461  -0.1969 H              1 S1                 0.0000
     32 ****         0.2611  -0.3384   1.2003 H              1 S1                 0.0000
     33 ****         3.0392   0.7551   0.7712 H              1 S1                 0.0000
     34 ****         2.0023  -1.7085   2.3890 H              1 S1                 0.0000
     35 ****         4.6748  -1.7528   2.3417 H              1 S1                 0.0000
     36 ****         3.1694  -2.1407   4.5713 H              1 S1                 0.0000
     37 ****         4.8389  -1.6404   4.8418 H              1 S1                 0.0000
     38 ****         2.4435  -0.0473   5.4429 H              1 S1                 0.0000
     39 ****         4.1315   0.3983   5.6933 H              1 S1                 0.0000
     40 ****         3.3814   1.9844   3.9002 H              1 S1                 0.0000
     41 ****         5.5421   0.4570   3.5605 H              1 S1                 0.0000
     42 ****         4.8102   0.8520   2.0046 H              1 S1                 0.0000
     43 ****         1.2387   0.5000   3.3099 H              1 S1                 0.0000
     44 ****        -2.8729  -0.5326  -1.4084 H              1 S1                 0.0000
     45 ****         1.2971   1.3010  -2.2479 LP             1 S1                 0.0000
     46 ****         2.4850   1.1915  -0.9921 LP             1 S1                 0.0000
@<TRIPOS>BOND
    1    1    2 1     
    2    1   22 1     
    3    1   23 1     
    4    1   24 1     
    5    2    3 1     
    6    2    4 1     
    7    3   25 1     
    8    3   26 1     
    9    3   27 1     
   10    4   21 ar    
   11    4    5 ar    
   12    5    6 ar    
   13    5   28 1     
   14    6    7 ar    
   15    6   29 1     
   16    7    8 ar    
   17    7   30 1     
   18    8    9 1     
   19    8   21 ar    
   20    9   10 am    
   21    9   31 1     
   22   10   11 2     
   23   10   12 am    
   24   12   13 1     
   25   12   32 1     
   26   13   20 1     
   27   13   14 1     
   28   13   33 1     
   29   14   20 1     
   30   14   15 1     
   31   14   34 1     
   32   15   19 1     
   33   15   16 1     
   34   15   35 1     
   35   16   17 1     
   36   16   36 1     
   37   16   37 1     
   38   17   18 1     
   39   17   38 1     
   40   17   39 1     
   41   18   19 1     
   42   18   20 1     
   43   18   40 1     
   44   19   41 1     
   45   19   42 1     
   46   20   43 1     
   47   21   44 1     
   48   11   45 1     
   49   11   46 1     
@<TRIPOS>SUBSTRUCTURE
      1 S1             1
@<TRIPOS>SET
LONE_PAIRS      STATIC     ATOMS    <user>   **** ""
2 45 46
DONOR_HYDROGENS      STATIC     ATOMS    <user>   **** ""
3 31 32 44
ATOM$BLUE        STATIC     ATOMS    COLORGROUP SYSTEM
2 45 46
ATOM$RED        STATIC     ATOMS    COLORGROUP SYSTEM
3 31 32 44
