AV-unprocessed.smi:527|AV-procd|sdf|2818|dock4
  -GOLD-   2262023303D 1   1.00000     0.00000
 Structure written by MMmdl.
 42 43  0  0  0  0  0  0  0  0  1 V2000
  150.5292  140.3485  157.2802 C   0  0  0  0  0  0  0  0  0  0  0  0
  150.9005  140.2841  155.7843 C   0  0  1  0  0  0  0  0  0  0  0  0
  152.0317  139.2686  155.5243 C   0  0  0  0  0  0  0  0  0  0  0  0
  151.5475  137.8152  155.6462 C   0  0  0  0  0  0  0  0  0  0  0  0
  150.3569  137.5472  154.7155 C   0  0  0  0  0  0  0  0  0  0  0  0
  149.2032  138.5436  154.9542 C   0  0  2  0  0  0  0  0  0  0  0  0
  148.1322  138.2897  153.9922 N   0  0  0  0  0  0  0  0  0  0  0  0
  147.0381  137.5494  154.2255 C   0  0  0  0  0  0  0  0  0  0  0  0
  146.6282  137.2852  155.3579 O   0  0  0  0  0  0  0  0  0  0  0  0
  146.4703  137.1495  153.0710 N   0  0  0  0  0  0  0  0  0  0  0  0
  145.4636  136.2659  152.9125 C   0  0  0  0  0  0  0  0  0  0  0  0
  144.8945  135.6734  153.8332 O   0  0  0  0  0  0  0  0  0  0  0  0
  145.0417  136.0297  151.4561 C   0  0  0  0  0  0  0  0  0  0  0  0
  145.2357  134.6564  151.0217 N   0  0  0  0  0  0  0  0  0  0  0  0
  146.3924  133.8958  151.1362 C   0  0  0  0  0  0  0  0  0  0  0  0
  146.1070  132.6622  150.5960 C   0  0  0  0  0  0  0  0  0  0  0  0
  144.7896  132.6414  150.1443 N   0  0  0  0  0  0  0  0  0  0  0  0
  144.3374  133.8553  150.4313 C   0  0  0  0  0  0  0  0  0  0  0  0
  149.6984  140.0088  154.8414 C   0  0  1  0  0  0  0  0  0  0  0  0
  148.5671  141.0417  155.0153 C   0  0  0  0  0  0  0  0  0  0  0  0
  150.0691  139.4255  157.6313 H   0  0  0  0  0  0  0  0  0  0  0  0
  149.8351  141.1630  157.4862 H   0  0  0  0  0  0  0  0  0  0  0  0
  151.4141  140.5254  157.8919 H   0  0  0  0  0  0  0  0  0  0  0  0
  151.2972  141.2673  155.5272 H   0  0  0  0  0  0  0  0  0  0  0  0
  152.4314  139.4258  154.5216 H   0  0  0  0  0  0  0  0  0  0  0  0
  152.8621  139.4434  156.2095 H   0  0  0  0  0  0  0  0  0  0  0  0
  152.3632  137.1327  155.4062 H   0  0  0  0  0  0  0  0  0  0  0  0
  151.2644  137.5999  156.6767 H   0  0  0  0  0  0  0  0  0  0  0  0
  150.6915  137.6135  153.6791 H   0  0  0  0  0  0  0  0  0  0  0  0
  150.0066  136.5244  154.8600 H   0  0  0  0  0  0  0  0  0  0  0  0
  148.8120  138.3921  155.9617 H   0  0  0  0  0  0  0  0  0  0  0  0
  148.2325  138.7181  153.0836 H   0  0  0  0  0  0  0  0  0  0  0  0
  146.8399  137.5590  152.2260 H   0  0  0  0  0  0  0  0  0  0  0  0
  143.9890  136.2893  151.3368 H   0  0  0  0  0  0  0  0  0  0  0  0
  145.6135  136.6866  150.7994 H   0  0  0  0  0  0  0  0  0  0  0  0
  147.2970  134.2829  151.5819 H   0  0  0  0  0  0  0  0  0  0  0  0
  146.7431  131.7948  150.4991 H   0  0  0  0  0  0  0  0  0  0  0  0
  143.3277  134.1685  150.2088 H   0  0  0  0  0  0  0  0  0  0  0  0
  150.0721  140.1400  153.8243 H   0  0  0  0  0  0  0  0  0  0  0  0
  148.0416  140.9067  155.9608 H   0  0  0  0  0  0  0  0  0  0  0  0
  147.8280  140.9635  154.2180 H   0  0  0  0  0  0  0  0  0  0  0  0
  148.9573  142.0595  154.9910 H   0  0  0  0  0  0  0  0  0  0  0  0
  1  2  1  0  0  0  0
  1 21  1  0  0  0  0
  1 22  1  0  0  0  0
  1 23  1  0  0  0  0
  2 19  1  0  0  0  0
  2  3  1  0  0  0  0
  2 24  1  0  0  0  0
  3  4  1  0  0  0  0
  3 25  1  0  0  0  0
  3 26  1  0  0  0  0
  4  5  1  0  0  0  0
  4 27  1  0  0  0  0
  4 28  1  0  0  0  0
  5  6  1  0  0  0  0
  5 29  1  0  0  0  0
  5 30  1  0  0  0  0
  6  7  1  0  0  0  0
  6 19  1  0  0  0  0
  6 31  1  0  0  0  0
  7  8  1  0  0  0  0
  7 32  1  0  0  0  0
  8  9  2  0  0  0  0
  8 10  1  0  0  0  0
 10 11  1  0  0  0  0
 10 33  1  0  0  0  0
 11 12  2  0  0  0  0
 11 13  1  0  0  0  0
 13 14  1  0  0  0  0
 13 34  1  0  0  0  0
 13 35  1  0  0  0  0
 14 18  1  0  0  0  0
 14 15  1  0  0  0  0
 15 16  2  0  0  0  0
 15 36  1  0  0  0  0
 16 17  1  0  0  0  0
 16 37  1  0  0  0  0
 17 18  2  0  0  0  0
 18 38  1  0  0  0  0
 19 20  1  0  0  0  0
 19 39  1  0  0  0  0
 20 40  1  0  0  0  0
 20 41  1  0  0  0  0
 20 42  1  0  0  0  0
M  END
> <s_m_source_file>
AV-unprocessed.smi

> <i_m_source_file_index>
527

> <i_lp_mmshare_version>
43012

> <i_f3d_flags>
0

> <s_epik_input>
W0NIM11bQ0BASF0xW0NIMl1bQ0gyXVtDSDJdW0NASF0oW0NASF0xW0NIM10pW05IXUMoPU8pW05IXUMoPU8pW0NIMl1uMltjSF1bY0hdbltjSF0y

> <s_epik_cmdline>
J2VwaWtfcHl0aG9uJywgJy1waCcsICc3LjAnLCAnLXRuJywgJzgnLCAnLW1hJywgJzIwMCcsICctbWV0YWxfYmluZGluZycsICctaW1hZScsICc8aW5maWxlLm1hZT4nLCAnLW9tYWUnLCAnPG91dGZpbGUubWFlPic=

> <r_lp_tautomer_probability>
1

> <r_epik_Ionization_Penalty>
0.172132

> <r_epik_Ionization_Penalty_Charging>
0.172105

> <r_epik_Ionization_Penalty_Neutral>
2.71747e-05

> <r_epik_State_Penalty>
0.161503

> <r_epik_Charging_Adjusted_Penalty>
0.333607

> <i_epik_Tot_Q>
0

> <i_epik_Tot_abs_Q>
0

> <r_epik_Metal_State_Penalty>
0.124763

> <b_epik_Metal_Only>
0

> <s_lp_Force_Field>
OPLS_2005

> <r_lp_Energy>
17.6389

> <b_lp_Chiralities_Consistent>
1

> <s_lp_Variant>
AV-unprocessed.smi:527-4

> <Gold.Version>
5.8.1

> <Gold.Id.Protein>
6NUR|6NUR_protein|mol2

> <Gold.PLP.Fitness>
42.0716

> <Gold.PLP.PLP>
-34.0439

> <Gold.PLP.part.hbond>
-2.0000

> <Gold.PLP.part.metal>
0.0000

> <Gold.PLP.part.buried>
-2.2612

> <Gold.PLP.part.nonpolar>
-30.0794

> <Gold.PLP.part.repulsive>
0.2614

> <Gold.PLP.ligand.clash>
0.0000

> <Gold.PLP.ligand.torsion>
0.4928

> <Gold.PLP.Chemscore.Hbond>
0.0000

> <Gold.PLP.Chemscore.CHOScore>
2.9960

> <Gold.PLP.Chemscore.Metal>
0.0000

> <Gold.Chemscore.Hbonds>
donor molecule, donor type, donor heavy atom, donor atom, acceptor molecule, acceptor atom, score
      L1  C    15    36       P1  7948  1.00
      L1  C    16    37       P1 10747  1.00
      L1  C    18    38       P1 10186  1.00

> <Gold.PLP.Chemscore.Internal.Correction>
0.0251

> <Gold.Rescore>
     Score         DG    S(hbond)    S(metal)    S(lipo)     H(rot)  DE(clash)    DE(int)     intcor
      7.92      -9.78       0.02        0.00      72.50       1.66       0.00       1.86       ----

> <Gold.Chemscore.Fitness>
7.9229

> <Gold.Chemscore.DG>
-9.7802

> <Gold.Chemscore.ZeroCoef>
-5.4800

> <Gold.Chemscore.Hbond>
0.0224

> <Gold.Chemscore.Metal>
0.0000

> <Gold.Chemscore.Lipo>
72.4971

> <Gold.Chemscore.Internal_Hbond>
0.0000

> <Gold.Chemscore.DEClash>
0.0017

> <Gold.Chemscore.DEInternal>
1.8555

> <Gold.Chemscore.Rot>
1.6629

> <Gold.Chemscore.Internal.Correction>
   9.000000E+99

> <Gold.Chemscore.Hbond.Weighted>
-0.0749

> <Gold.Chemscore.Metal.Weighted>
-0.0000

> <Gold.Chemscore.Lipo.Weighted>
-8.4822

> <Gold.Chemscore.Internal_Hbond.Weighted>
0.0000

> <Gold.Chemscore.DEClash.Weighted>
0.0017

> <Gold.Chemscore.DEInternal.Weighted>
1.8555

> <Gold.Chemscore.Rot.Weighted>
4.2569

> <Gold.Chemscore.Internal.Correction.Weighted>
   9.000000E+99

> <Gold.Protein.RotatedTorsions>
[ 6907 6896 6895 6894 ] final  103.00 input  -60.11 | X-H torsion
[ 7974 7965 7964 7962 ] final -107.10 input  175.53 | X-H torsion
[ 8008 7997 7996 7995 ] final   31.01 input   59.86 | X-H torsion
[ 10167 10162 10161 10158 ] final   77.73 input  -65.29 | X-H torsion
[ 10718 10713 10712 10709 ] final  159.50 input   66.30 | X-H torsion
[ 10763 10752 10751 10750 ] final   -9.55 input  -60.55 | X-H torsion
[ 11005 11000 10999 10996 ] final   84.00 input  -57.11 | X-H torsion

> <Gold.Protein.ActiveResidues>
 VAL166  LYS551  ARG553  GLY616  TRP617  ASP618  TYR619  PRO620  LYS621  CYS622 
 ASP623  PHE694  ASN695  SER759  ASP760  ASP761  ALA762  ILE779  LEU786  VAL792 
 PHE793  MET794  SER795  GLU796  ALA797  LYS798  CYS799  TRP800  GLU811  SER814 

> <Gold.Protein.RotatedAtoms>
  152.5308  133.9891  159.7842 H   0  0  0  0  0  0  0  0  0  0  0  0  # atno 6907 bound_to 6896
  151.0131  133.5939  159.2687 H   0  0  0  0  0  0  0  0  0  0  0  0  # atno 6908 bound_to 6896
  151.3006  135.0774  159.9290 H   0  0  0  0  0  0  0  0  0  0  0  0  # atno 6909 bound_to 6896
  145.2095  140.9090  143.3322 H   0  0  0  0  0  0  0  0  0  0  0  0  # atno 7974 bound_to 7965
  155.0995  140.3228  155.4551 H   0  0  0  0  0  0  0  0  0  0  0  0  # atno 8008 bound_to 7997
  156.2721  140.2063  156.6068 H   0  0  0  0  0  0  0  0  0  0  0  0  # atno 8009 bound_to 7997
  154.6840  140.0523  157.0282 H   0  0  0  0  0  0  0  0  0  0  0  0  # atno 8010 bound_to 7997
  139.9785  144.5844  150.7922 H   0  0  0  0  0  0  0  0  0  0  0  0  # atno 10167 bound_to 10162
  157.1634  131.0592  151.2221 H   0  0  0  0  0  0  0  0  0  0  0  0  # atno 10718 bound_to 10713
  153.4564  135.7015  153.6077 H   0  0  0  0  0  0  0  0  0  0  0  0  # atno 10763 bound_to 10752
  153.4390  135.3785  155.2216 H   0  0  0  0  0  0  0  0  0  0  0  0  # atno 10764 bound_to 10752
  154.8728  135.3969  154.3984 H   0  0  0  0  0  0  0  0  0  0  0  0  # atno 10765 bound_to 10752
  139.9013  134.8185  156.2386 H   0  0  0  0  0  0  0  0  0  0  0  0  # atno 11005 bound_to 11000
  144.9869  139.3727  143.6234 LP  0  0  0  0  0  0  0  0  0  0  0  0  # atno 17320 bound_to 7965
  146.3400  139.9035  142.8791 LP  0  0  0  0  0  0  0  0  0  0  0  0  # atno 17321 bound_to 7965
  140.7497  143.2944  151.3245 LP  0  0  0  0  0  0  0  0  0  0  0  0  # atno 17342 bound_to 10162
  139.6428  144.0508  152.2567 LP  0  0  0  0  0  0  0  0  0  0  0  0  # atno 17343 bound_to 10162
  157.4111  130.7386  149.6840 LP  0  0  0  0  0  0  0  0  0  0  0  0  # atno 17370 bound_to 10713
  155.9750  130.4095  150.3881 LP  0  0  0  0  0  0  0  0  0  0  0  0  # atno 17371 bound_to 10713
  141.0299  133.6994  156.1412 LP  0  0  0  0  0  0  0  0  0  0  0  0  # atno 17394 bound_to 11000
  140.7111  134.4460  157.5581 LP  0  0  0  0  0  0  0  0  0  0  0  0  # atno 17395 bound_to 11000

$$$$
