AV-unprocessed.smi:1254|AV-procd|sdf|5278|dock5
  -GOLD-   22720 4393D 1   1.00000     0.00000
 Structure written by MMmdl.
 45 46  0  0  0  0  0  0  0  0  3 V2000
  153.1081  142.3036  160.8998 C   0  0  0  0  0  0  0  0  0  0  0  0
  152.3080  142.1185  159.6559 C   0  0  0  0  0  0  0  0  0  0  0  0
  151.7870  142.9972  158.7490 C   0  0  0  0  0  0  0  0  0  0  0  0
  151.1313  142.1495  157.8150 C   0  0  0  0  0  0  0  0  0  0  0  0
  150.4691  142.5491  156.7182 N   0  5  0  0  0  0  0  0  0  0  0  0
  150.0938  141.6468  155.7831 C   0  0  0  0  0  0  0  0  0  0  0  0
  150.6737  140.5952  155.5030 O   0  0  0  0  0  0  0  0  0  0  0  0
  148.9742  141.9836  155.1311 N   0  0  0  0  0  0  0  0  0  0  0  0
  148.3479  141.1953  154.0787 C   0  0  0  0  0  0  0  0  0  0  0  0
  146.8913  141.6313  153.8721 C   0  0  1  0  0  0  0  0  0  0  0  0
  145.9681  141.0967  154.9846 C   0  0  0  0  0  0  0  0  0  0  0  0
  144.5825  141.5938  154.7967 N   0  3  1  0  0  0  0  0  0  0  0  0
  143.6213  141.0805  155.8063 C   0  0  0  0  0  0  0  0  0  0  0  0
  142.2231  141.7265  155.6985 C   0  0  0  0  0  0  0  0  0  0  0  0
  141.4694  141.6924  157.0388 C   0  0  0  0  0  0  0  0  0  0  0  0
  141.3959  141.0397  154.6016 C   0  0  0  0  0  0  0  0  0  0  0  0
  144.5727  143.0731  154.7091 C   0  0  0  0  0  0  0  0  0  0  0  0
  145.5392  143.5526  153.6146 C   0  0  0  0  0  0  0  0  0  0  0  0
  146.8424  143.0548  153.8844 O   0  0  0  0  0  0  0  0  0  0  0  0
  151.2591  140.8682  158.1181 N   0  0  0  0  0  0  0  0  0  0  0  0
  152.0062  140.8401  159.3018 O   0  0  0  0  0  0  0  0  0  0  0  0
  153.9583  142.9606  160.7172 H   0  0  0  0  0  0  0  0  0  0  0  0
  153.4902  141.3511  161.2672 H   0  0  0  0  0  0  0  0  0  0  0  0
  152.4986  142.7495  161.6859 H   0  0  0  0  0  0  0  0  0  0  0  0
  151.8591  144.0745  158.7539 H   0  0  0  0  0  0  0  0  0  0  0  0
  148.5257  142.8499  155.3904 H   0  0  0  0  0  0  0  0  0  0  0  0
  148.9145  141.3324  153.1564 H   0  0  0  0  0  0  0  0  0  0  0  0
  148.3925  140.1344  154.3308 H   0  0  0  0  0  0  0  0  0  0  0  0
  146.5449  141.2622  152.9043 H   0  0  0  0  0  0  0  0  0  0  0  0
  145.9850  140.0076  154.9705 H   0  0  0  0  0  0  0  0  0  0  0  0
  146.3387  141.4089  155.9625 H   0  0  0  0  0  0  0  0  0  0  0  0
  143.5523  139.9954  155.7150 H   0  0  0  0  0  0  0  0  0  0  0  0
  144.0107  141.2755  156.8070 H   0  0  0  0  0  0  0  0  0  0  0  0
  142.3319  142.7690  155.4010 H   0  0  0  0  0  0  0  0  0  0  0  0
  141.3354  140.6697  157.3930 H   0  0  0  0  0  0  0  0  0  0  0  0
  140.4803  142.1418  156.9438 H   0  0  0  0  0  0  0  0  0  0  0  0
  142.0030  142.2457  157.8119 H   0  0  0  0  0  0  0  0  0  0  0  0
  141.2327  139.9853  154.8278 H   0  0  0  0  0  0  0  0  0  0  0  0
  141.8972  141.0988  153.6349 H   0  0  0  0  0  0  0  0  0  0  0  0
  140.4185  141.5107  154.4919 H   0  0  0  0  0  0  0  0  0  0  0  0
  143.5650  143.4261  154.4863 H   0  0  0  0  0  0  0  0  0  0  0  0
  144.8573  143.4990  155.6726 H   0  0  0  0  0  0  0  0  0  0  0  0
  145.2066  143.2267  152.6276 H   0  0  0  0  0  0  0  0  0  0  0  0
  145.5747  144.6420  153.5948 H   0  0  0  0  0  0  0  0  0  0  0  0
  144.2655  141.2559  153.8991 H   0  0  0  0  0  0  0  0  0  0  0  0
  1  2  1  0  0  0  0
  1 22  1  0  0  0  0
  1 23  1  0  0  0  0
  1 24  1  0  0  0  0
  2 21  1  0  0  0  0
  2  3  2  0  0  0  0
  3  4  1  0  0  0  0
  3 25  1  0  0  0  0
  4  5  1  0  0  0  0
  4 20  2  0  0  0  0
  5  6  1  0  0  0  0
  6  7  2  0  0  0  0
  6  8  1  0  0  0  0
  8  9  1  0  0  0  0
  8 26  1  0  0  0  0
  9 10  1  0  0  0  0
  9 27  1  0  0  0  0
  9 28  1  0  0  0  0
 10 19  1  0  0  0  0
 10 11  1  0  0  0  0
 10 29  1  0  0  0  0
 11 12  1  0  0  0  0
 11 30  1  0  0  0  0
 11 31  1  0  0  0  0
 12 13  1  0  0  0  0
 12 17  1  0  0  0  0
 12 45  1  0  0  0  0
 13 14  1  0  0  0  0
 13 32  1  0  0  0  0
 13 33  1  0  0  0  0
 14 15  1  0  0  0  0
 14 16  1  0  0  0  0
 14 34  1  0  0  0  0
 15 35  1  0  0  0  0
 15 36  1  0  0  0  0
 15 37  1  0  0  0  0
 16 38  1  0  0  0  0
 16 39  1  0  0  0  0
 16 40  1  0  0  0  0
 17 18  1  0  0  0  0
 17 41  1  0  0  0  0
 17 42  1  0  0  0  0
 18 19  1  0  0  0  0
 18 43  1  0  0  0  0
 18 44  1  0  0  0  0
 20 21  1  0  0  0  0
M  CHG  1   5  -1
M  CHG  1  12   1
M  END
> <s_m_source_file>
AV-unprocessed.smi

> <i_m_source_file_index>
1254

> <i_lp_mmshare_version>
43012

> <i_f3d_flags>
0

> <s_epik_input>
W0NIM11jMVtjSF1jKG5vMSlbTkhdQyg9TylbTkhdW0NIMl1bQ0BASF0yW0NIMl1OKFtDSDJdW0NIMl1PMilbQ0gyXVtDSF0oW0NIM10pW0NIM10=

> <s_epik_cmdline>
J2VwaWtfcHl0aG9uJywgJy1waCcsICc3LjAnLCAnLXRuJywgJzgnLCAnLW1hJywgJzIwMCcsICctbWV0YWxfYmluZGluZycsICctaW1hZScsICc8aW5maWxlLm1hZT4nLCAnLW9tYWUnLCAnPG91dGZpbGUubWFlPic=

> <r_epik_Ionization_Penalty>
6.33139

> <r_epik_Ionization_Penalty_Charging>
6.33128

> <r_epik_Ionization_Penalty_Neutral>
0.000104968

> <r_epik_State_Penalty>
6.32522

> <r_epik_Charging_Adjusted_Penalty>
12.6565

> <i_epik_Tot_Q>
0

> <i_epik_Tot_abs_Q>
2

> <r_epik_Metal_State_Penalty>
2.26285

> <b_epik_Metal_Only>
1

> <s_lp_Force_Field>
OPLS_2005

> <r_lp_Energy>
6.3285

> <b_lp_Chiralities_Consistent>
1

> <s_lp_Variant>
AV-unprocessed.smi:1254-10

> <Gold.Version>
5.8.1

> <Gold.Id.Protein>
6NUR|6NUR_protein|mol2

> <Gold.PLP.Fitness>
44.6943

> <Gold.PLP.PLP>
-33.9625

> <Gold.PLP.part.hbond>
-3.8984

> <Gold.PLP.part.metal>
0.0000

> <Gold.PLP.part.buried>
-6.6481

> <Gold.PLP.part.nonpolar>
-25.8199

> <Gold.PLP.part.repulsive>
1.4475

> <Gold.PLP.ligand.clash>
0.0000

> <Gold.PLP.ligand.torsion>
0.7731

> <Gold.PLP.Chemscore.Hbond>
4.0368

> <Gold.PLP.Chemscore.CHOScore>
0.0000

> <Gold.PLP.Chemscore.Metal>
0.0000

> <Gold.Chemscore.Hbonds>
donor molecule, donor type, donor heavy atom, donor atom, acceptor molecule, acceptor atom, score
      L1  H     8    26       P1  8028  0.85
      L1  H    12    45       P1 10175  2.00
      P1  H  7989  7998       L1     7  0.44

> <Gold.PLP.Chemscore.Internal.Correction>
0.1676

> <Gold.Rescore>
     Score         DG    S(hbond)    S(metal)    S(lipo)     H(rot)  DE(clash)    DE(int)     intcor
     13.55     -16.56       2.38        0.00      63.82       1.69       0.76       2.25       ----

> <Gold.Chemscore.Fitness>
13.5505

> <Gold.Chemscore.DG>
-16.5581

> <Gold.Chemscore.ZeroCoef>
-5.4800

> <Gold.Chemscore.Hbond>
2.3785

> <Gold.Chemscore.Metal>
0.0000

> <Gold.Chemscore.Lipo>
63.8187

> <Gold.Chemscore.Internal_Hbond>
0.0000

> <Gold.Chemscore.DEClash>
0.7589

> <Gold.Chemscore.DEInternal>
2.2486

> <Gold.Chemscore.Rot>
1.6926

> <Gold.Chemscore.Internal.Correction>
   9.000000E+99

> <Gold.Chemscore.Hbonds>
donor molecule, donor type, donor heavy atom, donor atom, acceptor molecule, acceptor atom, score
      L1  H     8    26       P1  8028  0.85
      L1  H    12    45       P1 10175  0.40
      P1  H  7989  7998       L1     7  0.27
      P1  H  8022  8030       L1    19  0.02

> <Gold.Chemscore.Hbond.Weighted>
-7.9443

> <Gold.Chemscore.Metal.Weighted>
-0.0000

> <Gold.Chemscore.Lipo.Weighted>
-7.4668

> <Gold.Chemscore.Internal_Hbond.Weighted>
0.0000

> <Gold.Chemscore.DEClash.Weighted>
0.7589

> <Gold.Chemscore.DEInternal.Weighted>
2.2486

> <Gold.Chemscore.Rot.Weighted>
4.3330

> <Gold.Chemscore.Internal.Correction.Weighted>
   9.000000E+99

> <Gold.Protein.RotatedTorsions>
[ 6907 6896 6895 6894 ] final   80.16 input  -60.11 | X-H torsion
[ 7974 7965 7964 7962 ] final   61.58 input  175.53 | X-H torsion
[ 8008 7997 7996 7995 ] final  101.49 input   59.86 | X-H torsion
[ 10167 10162 10161 10158 ] final -166.05 input  -65.29 | X-H torsion
[ 10718 10713 10712 10709 ] final  107.93 input   66.30 | X-H torsion
[ 10763 10752 10751 10750 ] final   48.56 input  -60.55 | X-H torsion
[ 11005 11000 10999 10996 ] final    2.21 input  -57.11 | X-H torsion

> <Gold.Protein.ActiveResidues>
 VAL166  LYS551  ARG553  GLY616  TRP617  ASP618  TYR619  PRO620  LYS621  CYS622 
 ASP623  PHE694  ASN695  SER759  ASP760  ASP761  ALA762  ILE779  LEU786  VAL792 
 PHE793  MET794  SER795  GLU796  ALA797  LYS798  CYS799  TRP800  GLU811  SER814 

> <Gold.Protein.RotatedAtoms>
  152.5225  134.3400  159.9213 H   0  0  0  0  0  0  0  0  0  0  0  0  # atno 6907 bound_to 6896
  151.3350  133.3979  159.2673 H   0  0  0  0  0  0  0  0  0  0  0  0  # atno 6908 bound_to 6896
  150.9850  134.9215  159.7924 H   0  0  0  0  0  0  0  0  0  0  0  0  # atno 6909 bound_to 6896
  145.8831  139.3458  143.0694 H   0  0  0  0  0  0  0  0  0  0  0  0  # atno 7974 bound_to 7965
  156.1304  140.3196  155.8341 H   0  0  0  0  0  0  0  0  0  0  0  0  # atno 8008 bound_to 7997
  155.4342  140.0521  157.3033 H   0  0  0  0  0  0  0  0  0  0  0  0  # atno 8009 bound_to 7997
  154.4895  140.2086  155.9593 H   0  0  0  0  0  0  0  0  0  0  0  0  # atno 8010 bound_to 7997
  139.6141  144.0756  152.1870 H   0  0  0  0  0  0  0  0  0  0  0  0  # atno 10167 bound_to 10162
  157.6607  131.0883  150.6230 H   0  0  0  0  0  0  0  0  0  0  0  0  # atno 10718 bound_to 10713
  152.9791  135.5940  154.3946 H   0  0  0  0  0  0  0  0  0  0  0  0  # atno 10763 bound_to 10752
  154.3598  135.2767  155.2328 H   0  0  0  0  0  0  0  0  0  0  0  0  # atno 10764 bound_to 10752
  154.4330  135.6031  153.6136 H   0  0  0  0  0  0  0  0  0  0  0  0  # atno 10765 bound_to 10752
  140.6068  133.9785  155.8158 H   0  0  0  0  0  0  0  0  0  0  0  0  # atno 11005 bound_to 11000
  145.8999  140.9250  143.0508 LP  0  0  0  0  0  0  0  0  0  0  0  0  # atno 17320 bound_to 7965
  144.6728  140.1018  143.7460 LP  0  0  0  0  0  0  0  0  0  0  0  0  # atno 17321 bound_to 7965
  140.0382  144.6028  150.7433 LP  0  0  0  0  0  0  0  0  0  0  0  0  # atno 17342 bound_to 10162
  140.7339  143.2722  151.3852 LP  0  0  0  0  0  0  0  0  0  0  0  0  # atno 17343 bound_to 10162
  156.6533  130.4491  149.5712 LP  0  0  0  0  0  0  0  0  0  0  0  0  # atno 17370 bound_to 10713
  156.2121  130.6685  151.1280 LP  0  0  0  0  0  0  0  0  0  0  0  0  # atno 17371 bound_to 10713
  141.0835  134.0026  157.3349 LP  0  0  0  0  0  0  0  0  0  0  0  0  # atno 17394 bound_to 11000
  139.9209  135.0200  156.8059 LP  0  0  0  0  0  0  0  0  0  0  0  0  # atno 17395 bound_to 11000

$$$$
