AV-unprocessed.smi:2724|AV-procd|sdf|10509|dock4
  -GOLD-   2272014553D 1   1.00000     0.00000
 Structure written by MMmdl.
 25 26  0  0  0  0  0  0  0  0  1 V2000
  151.2967  144.0880  156.5049 O   0  0  0  0  0  0  0  0  0  0  0  0
  151.2685  143.6567  157.8520 C   0  0  2  0  0  0  0  0  0  0  0  0
  152.5622  144.0844  158.5638 C   0  0  0  0  0  0  0  0  0  0  0  0
  152.8889  142.9424  159.5251 C   0  0  0  0  0  0  0  0  0  0  0  0
  152.4533  141.6936  158.7623 C   0  0  0  0  0  0  0  0  0  0  0  0
  151.1642  142.1214  158.0416 C   0  0  2  0  0  0  0  0  0  0  0  0
  150.8297  141.3057  156.7945 C   0  0  0  0  0  0  0  0  0  0  0  0
  151.6475  140.2386  156.3598 C   0  0  0  0  0  0  0  0  0  0  0  0
  151.2830  139.5267  155.2010 C   0  0  0  0  0  0  0  0  0  0  0  0
  150.1116  139.9104  154.5195 C   0  0  0  0  0  0  0  0  0  0  0  0
  149.3212  140.9284  154.9212 N   0  0  0  0  0  0  0  0  0  0  0  0
  149.6783  141.6055  156.0335 C   0  0  0  0  0  0  0  0  0  0  0  0
  150.4113  144.2746  156.2320 H   0  0  0  0  0  0  0  0  0  0  0  0
  150.4099  144.1304  158.3296 H   0  0  0  0  0  0  0  0  0  0  0  0
  153.3780  144.1786  157.8448 H   0  0  0  0  0  0  0  0  0  0  0  0
  152.4622  145.0441  159.0715 H   0  0  0  0  0  0  0  0  0  0  0  0
  153.9424  142.9183  159.8054 H   0  0  0  0  0  0  0  0  0  0  0  0
  152.3003  143.0446  160.4377 H   0  0  0  0  0  0  0  0  0  0  0  0
  153.2376  141.4398  158.0492 H   0  0  0  0  0  0  0  0  0  0  0  0
  152.3065  140.8279  159.4088 H   0  0  0  0  0  0  0  0  0  0  0  0
  150.3543  141.9570  158.7547 H   0  0  0  0  0  0  0  0  0  0  0  0
  152.5457  139.9716  156.8964 H   0  0  0  0  0  0  0  0  0  0  0  0
  151.8881  138.7074  154.8419 H   0  0  0  0  0  0  0  0  0  0  0  0
  149.8027  139.3869  153.6270 H   0  0  0  0  0  0  0  0  0  0  0  0
  149.0219  142.4132  156.3222 H   0  0  0  0  0  0  0  0  0  0  0  0
  1  2  1  0  0  0  0
  1 13  1  0  0  0  0
  2  6  1  0  0  0  0
  2  3  1  0  0  0  0
  2 14  1  0  0  0  0
  3  4  1  0  0  0  0
  3 15  1  0  0  0  0
  3 16  1  0  0  0  0
  4  5  1  0  0  0  0
  4 17  1  0  0  0  0
  4 18  1  0  0  0  0
  5  6  1  0  0  0  0
  5 19  1  0  0  0  0
  5 20  1  0  0  0  0
  6  7  1  0  0  0  0
  6 21  1  0  0  0  0
  7 12  1  0  0  0  0
  7  8  2  0  0  0  0
  8  9  1  0  0  0  0
  8 22  1  0  0  0  0
  9 10  2  0  0  0  0
  9 23  1  0  0  0  0
 10 11  1  0  0  0  0
 10 24  1  0  0  0  0
 11 12  2  0  0  0  0
 12 25  1  0  0  0  0
M  END
> <s_m_source_file>
AV-unprocessed.smi

> <i_m_source_file_index>
2724

> <i_lp_mmshare_version>
43012

> <i_f3d_flags>
0

> <s_epik_input>
W09IXVtDQEBIXTFbQ0gyXVtDSDJdW0NIMl1bQ0BIXTFjMltjSF1bY0hdW2NIXW5bY0hdMg==

> <s_epik_cmdline>
J2VwaWtfcHl0aG9uJywgJy1waCcsICc3LjAnLCAnLXRuJywgJzgnLCAnLW1hJywgJzIwMCcsICctbWV0YWxfYmluZGluZycsICctaW1hZScsICc8aW5maWxlLm1hZT4nLCAnLW9tYWUnLCAnPG91dGZpbGUubWFlPic=

> <r_epik_Ionization_Penalty>
0.0175299

> <r_epik_Ionization_Penalty_Charging>
0

> <r_epik_Ionization_Penalty_Neutral>
0.0175299

> <r_epik_State_Penalty>
0.0138989

> <r_epik_Charging_Adjusted_Penalty>
0.0138989

> <i_epik_Tot_Q>
0

> <i_epik_Tot_abs_Q>
0

> <r_epik_Metal_State_Penalty>
1.40631e-05

> <b_epik_Metal_Only>
0

> <s_lp_Force_Field>
OPLS_2005

> <r_lp_Energy>
24.0212

> <b_lp_Chiralities_Consistent>
1

> <s_lp_Variant>
AV-unprocessed.smi:2724-3

> <Gold.Version>
5.8.1

> <Gold.Id.Protein>
6NUR|6NUR_protein|mol2

> <Gold.PLP.Fitness>
37.8514

> <Gold.PLP.PLP>
-28.8822

> <Gold.PLP.part.hbond>
-1.0000

> <Gold.PLP.part.metal>
0.0000

> <Gold.PLP.part.buried>
-0.4109

> <Gold.PLP.part.nonpolar>
-27.3288

> <Gold.PLP.part.repulsive>
0.1184

> <Gold.PLP.ligand.clash>
0.0000

> <Gold.PLP.ligand.torsion>
0.0260

> <Gold.PLP.Chemscore.Hbond>
1.0000

> <Gold.PLP.Chemscore.CHOScore>
2.0000

> <Gold.PLP.Chemscore.Metal>
0.0000

> <Gold.Chemscore.Hbonds>
donor molecule, donor type, donor heavy atom, donor atom, acceptor molecule, acceptor atom, score
      L1  H     1    13       P1  8028  1.00
      L1  C    10    24       P1  7957  0.94
      L1  C    12    25       P1  8028  1.00

> <Gold.PLP.Chemscore.Internal.Correction>
0.0212

> <Gold.Rescore>
     Score         DG    S(hbond)    S(metal)    S(lipo)     H(rot)  DE(clash)    DE(int)     intcor
     16.22     -16.28       1.00        0.00      92.65       1.32       0.02       0.04       ----

> <Gold.Chemscore.Fitness>
16.2166

> <Gold.Chemscore.DG>
-16.2821

> <Gold.Chemscore.ZeroCoef>
-5.4800

> <Gold.Chemscore.Hbond>
0.9997

> <Gold.Chemscore.Metal>
0.0000

> <Gold.Chemscore.Lipo>
92.6512

> <Gold.Chemscore.Internal_Hbond>
0.0000

> <Gold.Chemscore.DEClash>
0.0231

> <Gold.Chemscore.DEInternal>
0.0423

> <Gold.Chemscore.Rot>
1.3192

> <Gold.Chemscore.Internal.Correction>
   9.000000E+99

> <Gold.Chemscore.Hbonds>
donor molecule, donor type, donor heavy atom, donor atom, acceptor molecule, acceptor atom, score
      L1  H     1    13       P1  8028  1.00

> <Gold.Chemscore.Hbond.Weighted>
-3.3391

> <Gold.Chemscore.Metal.Weighted>
-0.0000

> <Gold.Chemscore.Lipo.Weighted>
-10.8402

> <Gold.Chemscore.Internal_Hbond.Weighted>
0.0000

> <Gold.Chemscore.DEClash.Weighted>
0.0231

> <Gold.Chemscore.DEInternal.Weighted>
0.0423

> <Gold.Chemscore.Rot.Weighted>
3.3772

> <Gold.Chemscore.Internal.Correction.Weighted>
   9.000000E+99

> <Gold.Protein.RotatedTorsions>
[ 6907 6896 6895 6894 ] final  163.45 input  -60.11 | X-H torsion
[ 7974 7965 7964 7962 ] final -154.00 input  175.53 | X-H torsion
[ 8008 7997 7996 7995 ] final   63.68 input   59.86 | X-H torsion
[ 10167 10162 10161 10158 ] final  -86.09 input  -65.29 | X-H torsion
[ 10718 10713 10712 10709 ] final -162.11 input   66.30 | X-H torsion
[ 10763 10752 10751 10750 ] final -119.05 input  -60.55 | X-H torsion
[ 11005 11000 10999 10996 ] final -164.71 input  -57.11 | X-H torsion

> <Gold.Protein.ActiveResidues>
 VAL166  LYS551  ARG553  GLY616  TRP617  ASP618  TYR619  PRO620  LYS621  CYS622 
 ASP623  PHE694  ASN695  SER759  ASP760  ASP761  ALA762  ILE779  LEU786  VAL792 
 PHE793  MET794  SER795  GLU796  ALA797  LYS798  CYS799  TRP800  GLU811  SER814 

> <Gold.Protein.RotatedAtoms>
  151.9250  133.3595  159.3910 H   0  0  0  0  0  0  0  0  0  0  0  0  # atno 6907 bound_to 6896
  150.7029  134.4596  159.5384 H   0  0  0  0  0  0  0  0  0  0  0  0  # atno 6908 bound_to 6896
  152.2226  134.8398  160.0535 H   0  0  0  0  0  0  0  0  0  0  0  0  # atno 6909 bound_to 6896
  144.7712  140.4448  143.5906 H   0  0  0  0  0  0  0  0  0  0  0  0  # atno 7974 bound_to 7965
  155.6340  140.3496  155.4692 H   0  0  0  0  0  0  0  0  0  0  0  0  # atno 8008 bound_to 7997
  155.9980  140.1207  157.0598 H   0  0  0  0  0  0  0  0  0  0  0  0  # atno 8009 bound_to 7997
  154.4239  140.1106  156.5643 H   0  0  0  0  0  0  0  0  0  0  0  0  # atno 8010 bound_to 7997
  140.3975  143.2677  151.9185 H   0  0  0  0  0  0  0  0  0  0  0  0  # atno 10167 bound_to 10162
  156.6058  130.8830  151.2925 H   0  0  0  0  0  0  0  0  0  0  0  0  # atno 10718 bound_to 10713
  154.8606  135.4252  154.2237 H   0  0  0  0  0  0  0  0  0  0  0  0  # atno 10763 bound_to 10752
  153.3236  135.6984  153.7014 H   0  0  0  0  0  0  0  0  0  0  0  0  # atno 10764 bound_to 10752
  153.6059  135.3528  155.2935 H   0  0  0  0  0  0  0  0  0  0  0  0  # atno 10765 bound_to 10752
  140.5839  134.5113  157.5183 H   0  0  0  0  0  0  0  0  0  0  0  0  # atno 11005 bound_to 11000
  145.6320  139.1537  143.2964 LP  0  0  0  0  0  0  0  0  0  0  0  0  # atno 17320 bound_to 7965
  146.1859  140.6423  142.9168 LP  0  0  0  0  0  0  0  0  0  0  0  0  # atno 17321 bound_to 7965
  139.4786  144.5666  151.8154 LP  0  0  0  0  0  0  0  0  0  0  0  0  # atno 17342 bound_to 10162
  140.4775  144.1498  150.5927 LP  0  0  0  0  0  0  0  0  0  0  0  0  # atno 17343 bound_to 10162
  157.7267  130.9633  150.1669 LP  0  0  0  0  0  0  0  0  0  0  0  0  # atno 17370 bound_to 10713
  156.2431  130.3693  149.8315 LP  0  0  0  0  0  0  0  0  0  0  0  0  # atno 17371 bound_to 10713
  139.9304  134.7974  156.0946 LP  0  0  0  0  0  0  0  0  0  0  0  0  # atno 17394 bound_to 11000
  141.0978  133.6688  156.2686 LP  0  0  0  0  0  0  0  0  0  0  0  0  # atno 17395 bound_to 11000

$$$$
