AV-unprocessed.smi:3335|AV-procd|sdf|12842|dock7
  -GOLD-   2272019223D 1   1.00000     0.00000
 Structure written by MMmdl.
 47 48  0  0  0  0  0  0  0  0  2 V2000
  141.7056  136.7600  153.4193 C   0  0  0  0  0  0  0  0  0  0  0  0
  143.1269  137.1944  153.6341 C   0  0  0  0  0  0  0  0  0  0  0  0
  143.7299  137.6459  154.8418 C   0  0  0  0  0  0  0  0  0  0  0  0
  145.0061  137.9593  154.6918 N   0  0  0  0  0  0  0  0  0  0  0  0
  145.2683  137.7099  153.3894 N   0  0  0  0  0  0  0  0  0  0  0  0
  146.5987  137.9549  152.8428 C   0  0  1  0  0  0  0  0  0  0  0  0
  146.4725  138.4234  151.3810 C   0  0  0  0  0  0  0  0  0  0  0  0
  147.4170  138.9318  153.7309 C   0  0  2  0  0  0  0  0  0  0  0  0
  146.9517  140.3925  153.5772 C   0  0  0  0  0  0  0  0  0  0  0  0
  148.8585  138.8315  153.3948 N   0  3  0  0  0  0  0  0  0  0  0  0
  149.8116  139.0226  154.5139 C   0  0  1  0  0  0  0  0  0  0  0  0
  151.2038  138.4800  154.1382 C   0  0  0  0  0  0  0  0  0  0  0  0
  149.9134  140.5170  154.8753 C   0  0  0  0  0  0  0  0  0  0  0  0
  149.4829  141.3511  154.0764 O   0  0  0  0  0  0  0  0  0  0  0  0
  150.4879  140.8838  156.0426 N   0  0  0  0  0  0  0  0  0  0  0  0
  150.9809  139.9184  157.0245 C   0  0  0  0  0  0  0  0  0  0  0  0
  151.2420  140.7177  158.3005 C   0  0  0  0  0  0  0  0  0  0  0  0
  151.5256  142.1265  157.8017 C   0  0  0  0  0  0  0  0  0  0  0  0
  150.6921  142.2512  156.5253 C   0  0  0  0  0  0  0  0  0  0  0  0
  144.1462  137.2576  152.7269 C   0  0  0  0  0  0  0  0  0  0  0  0
  141.0246  137.2443  154.1194 H   0  0  0  0  0  0  0  0  0  0  0  0
  141.5907  135.6840  153.5507 H   0  0  0  0  0  0  0  0  0  0  0  0
  141.3564  137.0011  152.4150 H   0  0  0  0  0  0  0  0  0  0  0  0
  143.2798  137.7567  155.8174 H   0  0  0  0  0  0  0  0  0  0  0  0
  147.1157  136.9938  152.8355 H   0  0  0  0  0  0  0  0  0  0  0  0
  147.4396  138.4525  150.8802 H   0  0  0  0  0  0  0  0  0  0  0  0
  146.0318  139.4189  151.3173 H   0  0  0  0  0  0  0  0  0  0  0  0
  145.8396  137.7452  150.8076 H   0  0  0  0  0  0  0  0  0  0  0  0
  147.2759  138.6400  154.7717 H   0  0  0  0  0  0  0  0  0  0  0  0
  145.9212  140.5229  153.9060 H   0  0  0  0  0  0  0  0  0  0  0  0
  147.0150  140.7214  152.5396 H   0  0  0  0  0  0  0  0  0  0  0  0
  147.5568  141.0733  154.1754 H   0  0  0  0  0  0  0  0  0  0  0  0
  149.0331  137.9135  153.0109 H   0  0  0  0  0  0  0  0  0  0  0  0
  149.4289  138.4702  155.3695 H   0  0  0  0  0  0  0  0  0  0  0  0
  151.9283  138.6480  154.9352 H   0  0  0  0  0  0  0  0  0  0  0  0
  151.5881  138.9608  153.2374 H   0  0  0  0  0  0  0  0  0  0  0  0
  151.1821  137.4064  153.9517 H   0  0  0  0  0  0  0  0  0  0  0  0
  150.2703  139.1102  157.2052 H   0  0  0  0  0  0  0  0  0  0  0  0
  151.9074  139.4781  156.6526 H   0  0  0  0  0  0  0  0  0  0  0  0
  150.3438  140.7236  158.9197 H   0  0  0  0  0  0  0  0  0  0  0  0
  152.0569  140.3072  158.8977 H   0  0  0  0  0  0  0  0  0  0  0  0
  151.2867  142.8929  158.5398 H   0  0  0  0  0  0  0  0  0  0  0  0
  152.5849  142.2182  157.5570 H   0  0  0  0  0  0  0  0  0  0  0  0
  151.2103  142.8771  155.7983 H   0  0  0  0  0  0  0  0  0  0  0  0
  149.7264  142.7070  156.7463 H   0  0  0  0  0  0  0  0  0  0  0  0
  144.1647  137.0182  151.6736 H   0  0  0  0  0  0  0  0  0  0  0  0
  149.0600  139.5147  152.6787 H   0  0  0  0  0  0  0  0  0  0  0  0
  1  2  1  0  0  0  0
  1 21  1  0  0  0  0
  1 22  1  0  0  0  0
  1 23  1  0  0  0  0
  2 20  2  0  0  0  0
  2  3  1  0  0  0  0
  3  4  2  0  0  0  0
  3 24  1  0  0  0  0
  4  5  1  0  0  0  0
  5  6  1  0  0  0  0
  5 20  1  0  0  0  0
  6  7  1  0  0  0  0
  6  8  1  0  0  0  0
  6 25  1  0  0  0  0
  7 26  1  0  0  0  0
  7 27  1  0  0  0  0
  7 28  1  0  0  0  0
  8  9  1  0  0  0  0
  8 10  1  0  0  0  0
  8 29  1  0  0  0  0
  9 30  1  0  0  0  0
  9 31  1  0  0  0  0
  9 32  1  0  0  0  0
 10 11  1  0  0  0  0
 10 33  1  0  0  0  0
 10 47  1  0  0  0  0
 11 12  1  0  0  0  0
 11 13  1  0  0  0  0
 11 34  1  0  0  0  0
 12 35  1  0  0  0  0
 12 36  1  0  0  0  0
 12 37  1  0  0  0  0
 13 14  2  0  0  0  0
 13 15  1  0  0  0  0
 15 19  1  0  0  0  0
 15 16  1  0  0  0  0
 16 17  1  0  0  0  0
 16 38  1  0  0  0  0
 16 39  1  0  0  0  0
 17 18  1  0  0  0  0
 17 40  1  0  0  0  0
 17 41  1  0  0  0  0
 18 19  1  0  0  0  0
 18 42  1  0  0  0  0
 18 43  1  0  0  0  0
 19 44  1  0  0  0  0
 19 45  1  0  0  0  0
 20 46  1  0  0  0  0
M  CHG  1  10   1
M  END
> <s_m_source_file>
AV-unprocessed.smi

> <i_m_source_file_index>
3335

> <i_lp_mmshare_version>
43012

> <i_f3d_flags>
0

> <s_epik_input>
W0NIM11jMVtjSF1ubihbY0hdMSlbQ0BIXShbQ0gzXSlbQ0BIXShbQ0gzXSlbTkhdW0NASF0oW0NIM10pQyg9TylOMltDSDJdW0NIMl1bQ0gyXVtDSDJdMg==

> <s_epik_cmdline>
J2VwaWtfcHl0aG9uJywgJy1waCcsICc3LjAnLCAnLXRuJywgJzgnLCAnLW1hJywgJzIwMCcsICctbWV0YWxfYmluZGluZycsICctaW1hZScsICc8aW5maWxlLm1hZT4nLCAnLW9tYWUnLCAnPG91dGZpbGUubWFlPic=

> <r_lp_tautomer_probability>
1

> <r_epik_Ionization_Penalty>
0.14175

> <r_epik_Ionization_Penalty_Charging>
0.141731

> <r_epik_Ionization_Penalty_Neutral>
1.91261e-05

> <r_epik_State_Penalty>
0.131043

> <r_epik_Charging_Adjusted_Penalty>
0.272773

> <i_epik_Tot_Q>
1

> <i_epik_Tot_abs_Q>
1

> <r_epik_Metal_State_Penalty>
0.131408

> <b_epik_Metal_Only>
0

> <s_lp_Force_Field>
OPLS_2005

> <r_lp_Energy>
36.2431

> <b_lp_Chiralities_Consistent>
1

> <s_lp_Variant>
AV-unprocessed.smi:3335-6

> <Gold.Version>
5.8.1

> <Gold.Id.Protein>
6NUR|6NUR_protein|mol2

> <Gold.PLP.Fitness>
44.8303

> <Gold.PLP.PLP>
-34.2426

> <Gold.PLP.part.hbond>
-4.0000

> <Gold.PLP.part.metal>
0.0000

> <Gold.PLP.part.buried>
0.7731

> <Gold.PLP.part.nonpolar>
-30.8885

> <Gold.PLP.part.repulsive>
0.3421

> <Gold.PLP.ligand.clash>
0.0000

> <Gold.PLP.ligand.torsion>
1.7423

> <Gold.PLP.Chemscore.Hbond>
3.7176

> <Gold.PLP.Chemscore.CHOScore>
0.9374

> <Gold.PLP.Chemscore.Metal>
0.0000

> <Gold.Chemscore.Hbonds>
donor molecule, donor type, donor heavy atom, donor atom, acceptor molecule, acceptor atom, score
      L1  H    10    33       P1  7948  2.00
      L1  H    10    47       P1  7957  1.00
      P1  H  8011  8017       L1    14  0.66
      L1  C    20    46       P1 10171  0.93

> <Gold.PLP.Chemscore.Internal.Correction>
0.1073

> <Gold.Rescore>
     Score         DG    S(hbond)    S(metal)    S(lipo)     H(rot)  DE(clash)    DE(int)     intcor
     16.42     -19.96       2.77        0.00      81.44       1.68       0.49       3.05       ----

> <Gold.Chemscore.Fitness>
16.4228

> <Gold.Chemscore.DG>
-19.9618

> <Gold.Chemscore.ZeroCoef>
-5.4800

> <Gold.Chemscore.Hbond>
2.7690

> <Gold.Chemscore.Metal>
0.0000

> <Gold.Chemscore.Lipo>
81.4413

> <Gold.Chemscore.Internal_Hbond>
0.0000

> <Gold.Chemscore.DEClash>
0.4920

> <Gold.Chemscore.DEInternal>
3.0469

> <Gold.Chemscore.Rot>
1.6778

> <Gold.Chemscore.Internal.Correction>
   9.000000E+99

> <Gold.Chemscore.Hbonds>
donor molecule, donor type, donor heavy atom, donor atom, acceptor molecule, acceptor atom, score
      L1  H    10    33       P1  7948  0.95
      L1  H    10    47       P1  7957  0.98
      P1  H  8011  8017       L1    14  0.64

> <Gold.Chemscore.Hbond.Weighted>
-9.2483

> <Gold.Chemscore.Metal.Weighted>
-0.0000

> <Gold.Chemscore.Lipo.Weighted>
-9.5286

> <Gold.Chemscore.Internal_Hbond.Weighted>
0.0000

> <Gold.Chemscore.DEClash.Weighted>
0.4920

> <Gold.Chemscore.DEInternal.Weighted>
3.0469

> <Gold.Chemscore.Rot.Weighted>
4.2952

> <Gold.Chemscore.Internal.Correction.Weighted>
   9.000000E+99

> <Gold.Protein.RotatedTorsions>
[ 6907 6896 6895 6894 ] final -151.40 input  -60.11 | X-H torsion
[ 7974 7965 7964 7962 ] final  152.63 input  175.53 | X-H torsion
[ 8008 7997 7996 7995 ] final  105.97 input   59.86 | X-H torsion
[ 10167 10162 10161 10158 ] final -159.34 input  -65.29 | X-H torsion
[ 10718 10713 10712 10709 ] final -138.50 input   66.30 | X-H torsion
[ 10763 10752 10751 10750 ] final -171.43 input  -60.55 | X-H torsion
[ 11005 11000 10999 10996 ] final  151.66 input  -57.11 | X-H torsion

> <Gold.Protein.ActiveResidues>
 VAL166  LYS551  ARG553  GLY616  TRP617  ASP618  TYR619  PRO620  LYS621  CYS622 
 ASP623  PHE694  ASN695  SER759  ASP760  ASP761  ALA762  ILE779  LEU786  VAL792 
 PHE793  MET794  SER795  GLU796  ALA797  LYS798  CYS799  TRP800  GLU811  SER814 

> <Gold.Protein.RotatedAtoms>
  151.2125  133.4547  159.2598 H   0  0  0  0  0  0  0  0  0  0  0  0  # atno 6907 bound_to 6896
  151.0962  134.9945  159.8437 H   0  0  0  0  0  0  0  0  0  0  0  0  # atno 6908 bound_to 6896
  152.5439  134.2055  159.8782 H   0  0  0  0  0  0  0  0  0  0  0  0  # atno 6909 bound_to 6896
  144.8209  139.6694  143.6101 H   0  0  0  0  0  0  0  0  0  0  0  0  # atno 7974 bound_to 7965
  156.1704  140.3121  155.8963 H   0  0  0  0  0  0  0  0  0  0  0  0  # atno 8008 bound_to 7997
  155.3599  140.0476  157.3063 H   0  0  0  0  0  0  0  0  0  0  0  0  # atno 8009 bound_to 7997
  154.5235  140.2206  155.8943 H   0  0  0  0  0  0  0  0  0  0  0  0  # atno 8010 bound_to 7997
  139.6622  143.9892  152.2233 H   0  0  0  0  0  0  0  0  0  0  0  0  # atno 10167 bound_to 10162
  156.3001  130.7424  151.1473 H   0  0  0  0  0  0  0  0  0  0  0  0  # atno 10718 bound_to 10713
  154.6306  135.2886  155.0220 H   0  0  0  0  0  0  0  0  0  0  0  0  # atno 10763 bound_to 10752
  154.1382  135.6522  153.4940 H   0  0  0  0  0  0  0  0  0  0  0  0  # atno 10764 bound_to 10752
  153.0278  135.5326  154.7132 H   0  0  0  0  0  0  0  0  0  0  0  0  # atno 10765 bound_to 10752
  140.1239  134.8846  157.2110 H   0  0  0  0  0  0  0  0  0  0  0  0  # atno 11005 bound_to 11000
  146.2514  139.6208  142.9424 LP  0  0  0  0  0  0  0  0  0  0  0  0  # atno 17320 bound_to 7965
  145.5108  141.0435  143.2489 LP  0  0  0  0  0  0  0  0  0  0  0  0  # atno 17321 bound_to 7965
  139.9634  144.6542  150.8058 LP  0  0  0  0  0  0  0  0  0  0  0  0  # atno 17342 bound_to 10162
  140.7585  143.3108  151.2850 LP  0  0  0  0  0  0  0  0  0  0  0  0  # atno 17343 bound_to 10162
  157.7365  131.0561  150.5407 LP  0  0  0  0  0  0  0  0  0  0  0  0  # atno 17370 bound_to 10713
  156.5533  130.4237  149.6097 LP  0  0  0  0  0  0  0  0  0  0  0  0  # atno 17371 bound_to 10713
  140.2929  134.3219  155.7310 LP  0  0  0  0  0  0  0  0  0  0  0  0  # atno 17394 bound_to 11000
  141.2157  133.7545  156.9530 LP  0  0  0  0  0  0  0  0  0  0  0  0  # atno 17395 bound_to 11000

$$$$
