AV-unprocessed.smi:54|AV-procd|sdf|539|dock4
  -GOLD-   2262016423D 1   1.00000     0.00000
 Structure written by MMmdl.
 44 46  0  0  0  0  0  0  0  0  1 V2000
  145.6143  137.1816  162.0762 C   0  0  0  0  0  0  0  0  0  0  0  0
  146.2749  136.2980  161.0054 C   0  0  0  0  0  0  0  0  0  0  0  0
  146.3214  134.8264  161.4471 C   0  0  0  0  0  0  0  0  0  0  0  0
  147.6835  136.8067  160.6779 C   0  0  0  0  0  0  0  0  0  0  0  0
  148.6088  136.7311  161.4872 O   0  0  0  0  0  0  0  0  0  0  0  0
  147.8464  137.3751  159.3515 N   0  0  0  0  0  0  0  0  0  0  0  0
  148.9738  137.8911  158.8089 C   0  0  0  0  0  0  0  0  0  0  0  0
  148.9853  138.9843  158.0597 N   0  0  0  0  0  0  0  0  0  0  0  0
  150.2213  139.3473  157.6029 C   0  0  0  0  0  0  0  0  0  0  0  0
  151.4119  138.6942  157.8409 C   0  0  0  0  0  0  0  0  0  0  0  0
  152.4573  139.3599  157.2105 N   0  0  0  0  0  0  0  0  0  0  0  0
  151.8813  140.3743  156.6275 C   0  0  0  0  0  0  0  0  0  0  0  0
  150.5217  140.4451  156.8267 N   0  0  0  0  0  0  0  0  0  0  0  0
  149.5293  141.4529  156.3290 C   0  0  2  0  0  0  0  0  0  0  0  0
  148.2674  141.1042  156.8148 O   0  0  0  0  0  0  0  0  0  0  0  0
  147.5101  140.4917  155.7798 C   0  0  1  0  0  0  0  0  0  0  0  0
  146.0083  140.5016  156.1119 C   0  0  0  0  0  0  0  0  0  0  0  0
  145.2581  140.0853  154.9912 O   0  0  0  0  0  0  0  0  0  0  0  0
  147.9540  141.2566  154.5263 C   0  0  1  0  0  0  0  0  0  0  0  0
  147.2757  142.4939  154.4139 O   0  0  0  0  0  0  0  0  0  0  0  0
  149.4393  141.4842  154.7814 C   0  0  2  0  0  0  0  0  0  0  0  0
  150.1967  140.4741  154.1352 O   0  0  0  0  0  0  0  0  0  0  0  0
  151.4158  137.5061  158.6443 C   0  0  0  0  0  0  0  0  0  0  0  0
  152.3726  136.8006  158.9564 O   0  0  0  0  0  0  0  0  0  0  0  0
  150.1327  137.1694  159.0957 N   0  0  0  0  0  0  0  0  0  0  0  0
  149.8526  142.3976  156.7681 H   0  0  0  0  0  0  0  0  0  0  0  0
  147.8467  139.4570  155.6938 H   0  0  0  0  0  0  0  0  0  0  0  0
  147.7653  140.6872  153.6150 H   0  0  0  0  0  0  0  0  0  0  0  0
  149.7773  142.4540  154.4133 H   0  0  0  0  0  0  0  0  0  0  0  0
  145.5877  138.2275  161.7674 H   0  0  0  0  0  0  0  0  0  0  0  0
  146.1473  137.1280  163.0265 H   0  0  0  0  0  0  0  0  0  0  0  0
  144.5858  136.8688  162.2575 H   0  0  0  0  0  0  0  0  0  0  0  0
  145.6709  136.3595  160.0989 H   0  0  0  0  0  0  0  0  0  0  0  0
  146.7889  134.1988  160.6873 H   0  0  0  0  0  0  0  0  0  0  0  0
  145.3166  134.4389  161.6177 H   0  0  0  0  0  0  0  0  0  0  0  0
  146.8838  134.7030  162.3735 H   0  0  0  0  0  0  0  0  0  0  0  0
  147.0243  137.3698  158.7663 H   0  0  0  0  0  0  0  0  0  0  0  0
  152.4370  141.0918  156.0419 H   0  0  0  0  0  0  0  0  0  0  0  0
  145.8074  139.8139  156.9336 H   0  0  0  0  0  0  0  0  0  0  0  0
  145.6724  141.4871  156.4354 H   0  0  0  0  0  0  0  0  0  0  0  0
  144.3769  139.8934  155.2742 H   0  0  0  0  0  0  0  0  0  0  0  0
  147.8248  143.1692  154.7824 H   0  0  0  0  0  0  0  0  0  0  0  0
  149.7236  140.1903  153.3680 H   0  0  0  0  0  0  0  0  0  0  0  0
  150.0602  136.3431  159.6707 H   0  0  0  0  0  0  0  0  0  0  0  0
  1  2  1  0  0  0  0
  1 30  1  0  0  0  0
  1 31  1  0  0  0  0
  1 32  1  0  0  0  0
  2  3  1  0  0  0  0
  2  4  1  0  0  0  0
  2 33  1  0  0  0  0
  3 34  1  0  0  0  0
  3 35  1  0  0  0  0
  3 36  1  0  0  0  0
  4  5  2  0  0  0  0
  4  6  1  0  0  0  0
  6 37  1  0  0  0  0
  6  7  1  0  0  0  0
  7 25  1  0  0  0  0
  7  8  2  0  0  0  0
  8  9  1  0  0  0  0
  9 13  1  0  0  0  0
  9 10  2  0  0  0  0
 10 11  1  0  0  0  0
 10 23  1  0  0  0  0
 11 12  2  0  0  0  0
 12 13  1  0  0  0  0
 12 38  1  0  0  0  0
 13 14  1  0  0  0  0
 14 26  1  0  0  0  0
 14 21  1  0  0  0  0
 14 15  1  0  0  0  0
 15 16  1  0  0  0  0
 16 27  1  0  0  0  0
 16 17  1  0  0  0  0
 16 19  1  0  0  0  0
 17 18  1  0  0  0  0
 17 39  1  0  0  0  0
 17 40  1  0  0  0  0
 18 41  1  0  0  0  0
 19 28  1  0  0  0  0
 19 20  1  0  0  0  0
 19 21  1  0  0  0  0
 20 42  1  0  0  0  0
 21 29  1  0  0  0  0
 21 22  1  0  0  0  0
 22 43  1  0  0  0  0
 23 24  2  0  0  0  0
 23 25  1  0  0  0  0
 25 44  1  0  0  0  0
M  END
> <s_m_source_file>
AV-unprocessed.smi

> <i_m_source_file_index>
54

> <i_lp_mmshare_version>
43012

> <i_f3d_flags>
0

> <s_epik_input>
W0NIM11bQ0hdKFtDSDNdKUMoPU8pW05IXWMobjEpW25IXWMoPU8pYyhjMTIpbltjSF1uMltDQEBIXTNPW0NASF0oW0NIMl1bT0hdKVtDQEBIXShbT0hdKVtDQEhdM1tPSF0=

> <s_epik_cmdline>
J2VwaWtfcHl0aG9uJywgJy1waCcsICc3LjAnLCAnLXRuJywgJzgnLCAnLW1hJywgJzIwMCcsICctbWV0YWxfYmluZGluZycsICctaW1hZScsICc8aW5maWxlLm1hZT4nLCAnLW9tYWUnLCAnPG91dGZpbGUubWFlPic=

> <r_lp_tautomer_probability>
0.85571

> <r_epik_Ionization_Penalty>
0.0316551

> <r_epik_Ionization_Penalty_Charging>
0.0316043

> <r_epik_Ionization_Penalty_Neutral>
5.07097e-05

> <r_epik_State_Penalty>
3.15494e-07

> <r_epik_Charging_Adjusted_Penalty>
0.0316047

> <i_epik_Tot_Q>
0

> <i_epik_Tot_abs_Q>
0

> <r_epik_Metal_State_Penalty>
0.421206

> <b_epik_Metal_Only>
0

> <s_epik_Chemistry_Notes>
This compound contains an acetal/aminal-like group ( X-CH(R)-Y where X, Y are N, S, or O) that may be acid/base labile, releasing an aldehyde.

> <s_lp_Force_Field>
OPLS_2005

> <r_lp_Energy>
38.2372

> <b_lp_Chiralities_Consistent>
1

> <s_lp_Variant>
AV-unprocessed.smi:54-11

> <Gold.Version>
5.8.1

> <Gold.Id.Protein>
6NUR|6NUR_protein|mol2

> <Gold.PLP.Fitness>
41.9697

> <Gold.PLP.PLP>
-28.4799

> <Gold.PLP.part.hbond>
-6.3637

> <Gold.PLP.part.metal>
0.0000

> <Gold.PLP.part.buried>
-4.4804

> <Gold.PLP.part.nonpolar>
-18.4759

> <Gold.PLP.part.repulsive>
0.4287

> <Gold.PLP.ligand.clash>
0.0000

> <Gold.PLP.ligand.torsion>
0.4576

> <Gold.PLP.Chemscore.Hbond>
4.7840

> <Gold.PLP.Chemscore.CHOScore>
0.0000

> <Gold.PLP.Chemscore.Metal>
0.0000

> <Gold.Chemscore.Hbonds>
donor molecule, donor type, donor heavy atom, donor atom, acceptor molecule, acceptor atom, score
      L1  H    20    42       P1  8028  0.99
      L1  H    22    43       P1  7957  0.51
      P1  H  6896  6908       L1    24  0.84
      P1  H  6931  6943       L1     5  1.00
      P1  H  7989  7998       L1    22  0.83
      P1  H  7997  8010       L1    11  0.51

> <Gold.PLP.Chemscore.Internal.Correction>
0.0529

> <Gold.Rescore>
     Score         DG    S(hbond)    S(metal)    S(lipo)     H(rot)  DE(clash)    DE(int)     intcor
      8.94     -12.07       3.76        0.00      37.45       4.05       0.04       3.09       ----

> <Gold.Chemscore.Fitness>
8.9396

> <Gold.Chemscore.DG>
-12.0686

> <Gold.Chemscore.ZeroCoef>
-5.4800

> <Gold.Chemscore.Hbond>
3.7645

> <Gold.Chemscore.Metal>
0.0000

> <Gold.Chemscore.Lipo>
37.4473

> <Gold.Chemscore.Internal_Hbond>
0.0000

> <Gold.Chemscore.DEClash>
0.0358

> <Gold.Chemscore.DEInternal>
3.0932

> <Gold.Chemscore.Rot>
4.0493

> <Gold.Chemscore.Internal.Correction>
   9.000000E+99

> <Gold.Chemscore.Hbonds>
donor molecule, donor type, donor heavy atom, donor atom, acceptor molecule, acceptor atom, score
      L1  H    20    42       P1  8028  0.69
      L1  H    22    43       P1  7957  0.50
      P1  H  6896  6908       L1    24  0.68
      P1  H  6931  6943       L1     5  0.70
      P1  H  7989  7998       L1    22  0.20
      P1  H  7997  8010       L1    11  0.05

> <Gold.Chemscore.Hbond.Weighted>
-12.5735

> <Gold.Chemscore.Metal.Weighted>
-0.0000

> <Gold.Chemscore.Lipo.Weighted>
-4.3813

> <Gold.Chemscore.Internal_Hbond.Weighted>
0.0000

> <Gold.Chemscore.DEClash.Weighted>
0.0358

> <Gold.Chemscore.DEInternal.Weighted>
3.0932

> <Gold.Chemscore.Rot.Weighted>
10.3662

> <Gold.Chemscore.Internal.Correction.Weighted>
   9.000000E+99

> <Gold.Protein.RotatedTorsions>
[ 6907 6896 6895 6894 ] final -106.30 input  -60.11 | X-H torsion
[ 7974 7965 7964 7962 ] final  106.99 input  175.53 | X-H torsion
[ 8008 7997 7996 7995 ] final   50.77 input   59.86 | X-H torsion
[ 10167 10162 10161 10158 ] final  114.05 input  -65.29 | X-H torsion
[ 10718 10713 10712 10709 ] final  -49.22 input   66.30 | X-H torsion
[ 10763 10752 10751 10750 ] final  -54.09 input  -60.55 | X-H torsion
[ 11005 11000 10999 10996 ] final  120.50 input  -57.11 | X-H torsion

> <Gold.Protein.ActiveResidues>
 VAL166  LYS551  ARG553  GLY616  TRP617  ASP618  TYR619  PRO620  LYS621  CYS622 
 ASP623  PHE694  ASN695  SER759  ASP760  ASP761  ALA762  ILE779  LEU786  VAL792 
 PHE793  MET794  SER795  GLU796  ALA797  LYS798  CYS799  TRP800  GLU811  SER814 

> <Gold.Protein.RotatedAtoms>
  150.7382  133.9997  159.3633 H   0  0  0  0  0  0  0  0  0  0  0  0  # atno 6907 bound_to 6896
  151.7950  135.0723  160.0402 H   0  0  0  0  0  0  0  0  0  0  0  0  # atno 6908 bound_to 6896
  152.3181  133.5788  159.5762 H   0  0  0  0  0  0  0  0  0  0  0  0  # atno 6909 bound_to 6896
  145.2995  139.2574  143.3821 H   0  0  0  0  0  0  0  0  0  0  0  0  # atno 7974 bound_to 7965
  155.4243  140.3448  155.4274 H   0  0  0  0  0  0  0  0  0  0  0  0  # atno 8008 bound_to 7997
  156.1374  140.1532  156.9004 H   0  0  0  0  0  0  0  0  0  0  0  0  # atno 8009 bound_to 7997
  154.4943  140.0832  156.7643 H   0  0  0  0  0  0  0  0  0  0  0  0  # atno 8010 bound_to 7997
  139.6416  144.7124  151.2225 H   0  0  0  0  0  0  0  0  0  0  0  0  # atno 10167 bound_to 10162
  156.1914  130.4153  149.9366 H   0  0  0  0  0  0  0  0  0  0  0  0  # atno 10718 bound_to 10713
  154.1693  135.6462  153.5005 H   0  0  0  0  0  0  0  0  0  0  0  0  # atno 10763 bound_to 10752
  153.0089  135.5379  154.6629 H   0  0  0  0  0  0  0  0  0  0  0  0  # atno 10764 bound_to 10752
  154.5964  135.2939  155.0554 H   0  0  0  0  0  0  0  0  0  0  0  0  # atno 10765 bound_to 10752
  139.9188  134.9635  156.7816 H   0  0  0  0  0  0  0  0  0  0  0  0  # atno 11005 bound_to 11000
  146.3157  140.3505  142.8656 LP  0  0  0  0  0  0  0  0  0  0  0  0  # atno 17320 bound_to 7965
  144.9105  140.7752  143.5810 LP  0  0  0  0  0  0  0  0  0  0  0  0  # atno 17321 bound_to 7965
  140.7494  143.6302  150.8431 LP  0  0  0  0  0  0  0  0  0  0  0  0  # atno 17342 bound_to 10162
  139.9939  143.5816  152.2900 LP  0  0  0  0  0  0  0  0  0  0  0  0  # atno 17343 bound_to 10162
  156.7105  130.8968  151.3609 LP  0  0  0  0  0  0  0  0  0  0  0  0  # atno 17370 bound_to 10713
  157.6931  130.9254  150.0569 LP  0  0  0  0  0  0  0  0  0  0  0  0  # atno 17371 bound_to 10713
  140.6539  133.9706  155.7769 LP  0  0  0  0  0  0  0  0  0  0  0  0  # atno 17394 bound_to 11000
  141.0689  134.0235  157.3554 LP  0  0  0  0  0  0  0  0  0  0  0  0  # atno 17395 bound_to 11000

$$$$
