#       Name:                AV-unprocessed.smi:3134
#       Creating user name   scv26
#       Creation time:       Fri Mar 27 17:33:18 2020


#       File generated by GOLD software.
#

@<TRIPOS>MOLECULE
AV-unprocessed.smi:3134
    40    40     1
SMALL
NO_CHARGES


@<TRIPOS>ATOM
      1 ****        -2.3654   2.4223   0.3878 C.3            1 S1                 0.0000
      2 ****        -2.1724   1.5838   1.6616 C.3            1 S1                 0.0000
      3 ****        -2.5127   2.3846   2.9252 C.3            1 S1                 0.0000
      4 ****        -0.7980   1.0986   1.7490 N.am           1 S1                 0.0000
      5 ****        -0.3188   0.0142   1.1202 C.2            1 S1                 0.0000
      6 ****        -1.0082  -0.7104   0.4012 O.2            1 S1                 0.0000
      7 ****         1.1665  -0.3058   1.3390 C.3            1 S1                 0.0000
      8 ****         1.3259  -1.2902   2.5074 C.3            1 S1                 0.0000
      9 ****         1.7689  -0.8766   0.1144 N.4            1 S1                 1.0000
     10 ****         2.1271   0.1136  -0.9249 C.3            1 S1                 0.0000
     11 ****         2.2926  -0.5572  -2.2981 C.3            1 S1                 0.0000
     12 ****         1.0558  -1.1588  -2.7674 N.pl3          1 S1                 0.0000
     13 ****         0.8121  -2.4765  -3.0936 C.2            1 S1                 0.0000
     14 ****        -0.4945  -2.5645  -3.4804 C.2            1 S1                 0.0000
     15 ****        -0.9719  -1.2289  -3.3680 C.2            1 S1                 0.0000
     16 ****        -0.0397  -0.3892  -2.9480 N.2            1 S1                 0.0000
     17 ****        -3.3906   2.7856   0.3114 H              1 S1                 0.0000
     18 ****        -2.1593   1.8368  -0.5090 H              1 S1                 0.0000
     19 ****        -1.7043   3.2895   0.3785 H              1 S1                 0.0000
     20 ****        -2.8496   0.7288   1.6197 H              1 S1                 0.0000
     21 ****        -3.5457   2.7326   2.9010 H              1 S1                 0.0000
     22 ****        -1.8700   3.2597   3.0278 H              1 S1                 0.0000
     23 ****        -2.3927   1.7750   3.8215 H              1 S1                 0.0000
     24 ****        -0.1649   1.6334   2.3261 H              1 S1                 0.0000
     25 ****         1.7020   0.6117   1.5904 H              1 S1                 0.0000
     26 ****         0.9106  -0.8812   3.4296 H              1 S1                 0.0000
     27 ****         2.3778  -1.5086   2.6940 H              1 S1                 0.0000
     28 ****         0.8220  -2.2370   2.3070 H              1 S1                 0.0000
     29 ****         2.6053  -1.3837   0.3652 H              1 S1                 0.0000
     30 ****         1.3665   0.8930  -0.9885 H              1 S1                 0.0000
     31 ****         3.0533   0.6089  -0.6318 H              1 S1                 0.0000
     32 ****         2.6154   0.1770  -3.0372 H              1 S1                 0.0000
     33 ****         3.0665  -1.3249  -2.2573 H              1 S1                 0.0000
     34 ****         1.5771  -3.2355  -3.0201 H              1 S1                 0.0000
     35 ****        -1.0281  -3.4479  -3.7983 H              1 S1                 0.0000
     36 ****        -1.9600  -0.8471  -3.5789 H              1 S1                 0.0000
     37 ****         1.1005  -1.5265  -0.2755 H              1 S1                 0.0000
     38 ****        -1.9764  -0.5019   0.2628 LP             1 S1                 0.0000
     39 ****        -0.5997  -1.5071  -0.0441 LP             1 S1                 0.0000
     40 ****        -0.1266   0.5957  -2.7978 LP             1 S1                 0.0000
@<TRIPOS>BOND
    1    1    2 1     
    2    1   17 1     
    3    1   18 1     
    4    1   19 1     
    5    2    3 1     
    6    2    4 1     
    7    2   20 1     
    8    3   21 1     
    9    3   22 1     
   10    3   23 1     
   11    4    5 am    
   12    4   24 1     
   13    5    6 2     
   14    5    7 1     
   15    7    8 1     
   16    7    9 1     
   17    7   25 1     
   18    8   26 1     
   19    8   27 1     
   20    8   28 1     
   21    9   10 1     
   22    9   29 1     
   23    9   37 1     
   24   10   11 1     
   25   10   30 1     
   26   10   31 1     
   27   11   12 1     
   28   11   32 1     
   29   11   33 1     
   30   12   16 1     
   31   12   13 1     
   32   13   14 2     
   33   13   34 1     
   34   14   15 1     
   35   14   35 1     
   36   15   16 2     
   37   15   36 1     
   38    6   38 1     
   39    6   39 1     
   40   16   40 1     
@<TRIPOS>SUBSTRUCTURE
      1 S1             1
@<TRIPOS>SET
LONE_PAIRS      STATIC     ATOMS    <user>   **** ""
3 38 39 40
DONOR_HYDROGENS      STATIC     ATOMS    <user>   **** ""
3 24 29 37
ATOM$BLUE        STATIC     ATOMS    COLORGROUP SYSTEM
3 38 39 40
ATOM$RED        STATIC     ATOMS    COLORGROUP SYSTEM
3 24 29 37
