AV-unprocessed.smi:747|AV-procd|sdf|3581|dock6
  -GOLD-   22720 0573D 1   1.00000     0.00000
 Structure written by MMmdl.
 48 49  0  0  0  0  0  0  0  0  1 V2000
  150.8874  141.9110  156.4555 C   0  0  0  0  0  0  0  0  0  0  0  0
  150.7211  140.7254  155.6409 N   0  0  0  0  0  0  0  0  0  0  0  0
  151.7879  139.7997  155.5387 C   0  0  0  0  0  0  0  0  0  0  0  0
  152.8654  139.9599  156.1127 O   0  0  0  0  0  0  0  0  0  0  0  0
  151.5029  138.6425  154.6983 C   0  0  0  0  0  0  0  0  0  0  0  0
  150.3055  138.5046  154.0879 C   0  0  0  0  0  0  0  0  0  0  0  0
  149.2798  139.4249  154.2058 N   0  0  0  0  0  0  0  0  0  0  0  0
  148.0017  139.1859  153.5250 C   0  0  0  0  0  0  0  0  0  0  0  0
  147.0849  138.2638  154.3362 C   0  0  0  0  0  0  0  0  0  0  0  0
  146.4417  138.7101  155.2865 O   0  0  0  0  0  0  0  0  0  0  0  0
  147.0449  136.9794  153.9477 N   0  0  0  0  0  0  0  0  0  0  0  0
  146.1899  135.9304  154.5137 C   0  0  1  0  0  0  0  0  0  0  0  0
  144.7469  136.0964  153.9641 C   0  0  0  0  0  0  0  0  0  0  0  0
  144.6745  136.4920  152.4820 C   0  0  0  0  0  0  0  0  0  0  0  0
  144.5067  137.7872  152.2045 N   0  0  0  0  0  0  0  0  0  0  0  0
  144.7710  135.6416  151.5995 O   0  0  0  0  0  0  0  0  0  0  0  0
  146.8064  134.5318  154.2219 C   0  0  0  0  0  0  0  0  0  0  0  0
  148.2267  134.3725  154.8185 C   0  0  0  0  0  0  0  0  0  0  0  0
  148.8404  132.9963  154.5137 C   0  0  0  0  0  0  0  0  0  0  0  0
  148.8717  132.7184  153.0060 C   0  0  0  0  0  0  0  0  0  0  0  0
  147.4665  132.8427  152.4048 C   0  0  0  0  0  0  0  0  0  0  0  0
  146.8521  134.2193  152.7037 C   0  0  0  0  0  0  0  0  0  0  0  0
  149.4723  140.5762  154.9996 C   0  0  0  0  0  0  0  0  0  0  0  0
  148.5754  141.4147  155.1234 O   0  0  0  0  0  0  0  0  0  0  0  0
  151.8827  141.9552  156.8960 H   0  0  0  0  0  0  0  0  0  0  0  0
  150.1340  141.8676  157.2442 H   0  0  0  0  0  0  0  0  0  0  0  0
  150.7344  142.7744  155.8055 H   0  0  0  0  0  0  0  0  0  0  0  0
  152.2605  137.8841  154.5652 H   0  0  0  0  0  0  0  0  0  0  0  0
  150.1424  137.6263  153.4803 H   0  0  0  0  0  0  0  0  0  0  0  0
  147.5038  140.1358  153.3202 H   0  0  0  0  0  0  0  0  0  0  0  0
  148.1728  138.7257  152.5510 H   0  0  0  0  0  0  0  0  0  0  0  0
  147.6225  136.7125  153.1637 H   0  0  0  0  0  0  0  0  0  0  0  0
  146.1438  136.0406  155.5989 H   0  0  0  0  0  0  0  0  0  0  0  0
  144.1851  135.1748  154.1242 H   0  0  0  0  0  0  0  0  0  0  0  0
  144.2183  136.8774  154.5083 H   0  0  0  0  0  0  0  0  0  0  0  0
  144.4615  138.0981  151.2452 H   0  0  0  0  0  0  0  0  0  0  0  0
  144.4340  138.4538  152.9597 H   0  0  0  0  0  0  0  0  0  0  0  0
  146.1662  133.7829  154.6911 H   0  0  0  0  0  0  0  0  0  0  0  0
  148.8787  135.1558  154.4294 H   0  0  0  0  0  0  0  0  0  0  0  0
  148.2083  134.4944  155.9004 H   0  0  0  0  0  0  0  0  0  0  0  0
  149.8505  132.9425  154.9208 H   0  0  0  0  0  0  0  0  0  0  0  0
  148.2630  132.2199  155.0172 H   0  0  0  0  0  0  0  0  0  0  0  0
  149.5457  133.4220  152.5159 H   0  0  0  0  0  0  0  0  0  0  0  0
  149.2715  131.7216  152.8186 H   0  0  0  0  0  0  0  0  0  0  0  0
  147.5090  132.6820  151.3272 H   0  0  0  0  0  0  0  0  0  0  0  0
  146.8239  132.0596  152.8094 H   0  0  0  0  0  0  0  0  0  0  0  0
  145.8517  134.2434  152.2718 H   0  0  0  0  0  0  0  0  0  0  0  0
  147.4254  134.9917  152.1892 H   0  0  0  0  0  0  0  0  0  0  0  0
  1  2  1  0  0  0  0
  1 25  1  0  0  0  0
  1 26  1  0  0  0  0
  1 27  1  0  0  0  0
  2 23  1  0  0  0  0
  2  3  1  0  0  0  0
  3  4  2  0  0  0  0
  3  5  1  0  0  0  0
  5  6  2  0  0  0  0
  5 28  1  0  0  0  0
  6  7  1  0  0  0  0
  6 29  1  0  0  0  0
  7  8  1  0  0  0  0
  7 23  1  0  0  0  0
  8  9  1  0  0  0  0
  8 30  1  0  0  0  0
  8 31  1  0  0  0  0
  9 10  2  0  0  0  0
  9 11  1  0  0  0  0
 11 12  1  0  0  0  0
 11 32  1  0  0  0  0
 12 13  1  0  0  0  0
 12 17  1  0  0  0  0
 12 33  1  0  0  0  0
 13 14  1  0  0  0  0
 13 34  1  0  0  0  0
 13 35  1  0  0  0  0
 14 15  1  0  0  0  0
 14 16  2  0  0  0  0
 15 36  1  0  0  0  0
 15 37  1  0  0  0  0
 17 22  1  0  0  0  0
 17 18  1  0  0  0  0
 17 38  1  0  0  0  0
 18 19  1  0  0  0  0
 18 39  1  0  0  0  0
 18 40  1  0  0  0  0
 19 20  1  0  0  0  0
 19 41  1  0  0  0  0
 19 42  1  0  0  0  0
 20 21  1  0  0  0  0
 20 43  1  0  0  0  0
 20 44  1  0  0  0  0
 21 22  1  0  0  0  0
 21 45  1  0  0  0  0
 21 46  1  0  0  0  0
 22 47  1  0  0  0  0
 22 48  1  0  0  0  0
 23 24  2  0  0  0  0
M  END
> <s_m_source_file>
AV-unprocessed.smi

> <i_m_source_file_index>
747

> <i_lp_mmshare_version>
43012

> <i_f3d_flags>
0

> <s_epik_input>
W0NIM11uMWMoPU8pW2NIXVtjSF1uKGMxPU8pW0NIMl1DKD1PKVtOSF1bQ0BIXShbQ0gyXUMoPU8pW05IMl0pW0NIXTJbQ0gyXVtDSDJdW0NIMl1bQ0gyXVtDSDJdMg==

> <s_epik_cmdline>
J2VwaWtfcHl0aG9uJywgJy1waCcsICc3LjAnLCAnLXRuJywgJzgnLCAnLW1hJywgJzIwMCcsICctbWV0YWxfYmluZGluZycsICctaW1hZScsICc8aW5maWxlLm1hZT4nLCAnLW9tYWUnLCAnPG91dGZpbGUubWFlPic=

> <r_lp_tautomer_probability>
1

> <r_epik_Ionization_Penalty>
6.11221e-08

> <r_epik_Ionization_Penalty_Charging>
1.14855e-08

> <r_epik_Ionization_Penalty_Neutral>
4.96365e-08

> <r_epik_State_Penalty>
-0

> <r_epik_Charging_Adjusted_Penalty>
1.14855e-08

> <i_epik_Tot_Q>
0

> <i_epik_Tot_abs_Q>
0

> <r_epik_Metal_State_Penalty>
-0

> <b_epik_Metal_Only>
0

> <s_lp_Force_Field>
OPLS_2005

> <r_lp_Energy>
16.3445

> <b_lp_Chiralities_Consistent>
1

> <s_lp_Variant>
AV-unprocessed.smi:747-2

> <Gold.Version>
5.8.1

> <Gold.Id.Protein>
6NUR|6NUR_protein|mol2

> <Gold.PLP.Fitness>
45.9555

> <Gold.PLP.PLP>
-35.4688

> <Gold.PLP.part.hbond>
-3.8651

> <Gold.PLP.part.metal>
0.0000

> <Gold.PLP.part.buried>
0.7693

> <Gold.PLP.part.nonpolar>
-31.8666

> <Gold.PLP.part.repulsive>
0.3860

> <Gold.PLP.ligand.clash>
0.0000

> <Gold.PLP.ligand.torsion>
1.4339

> <Gold.PLP.Chemscore.Hbond>
3.3510

> <Gold.PLP.Chemscore.CHOScore>
1.0579

> <Gold.PLP.Chemscore.Metal>
0.0000

> <Gold.Chemscore.Hbonds>
donor molecule, donor type, donor heavy atom, donor atom, acceptor molecule, acceptor atom, score
      L1  H    11    32       P1  7948  1.00
      L1  H    15    36       P1 10171  1.00
      L1  H    15    37       P1 10175  0.20
      P1  H  7997  8010       L1     4  0.89
      L1  C     6    29       P1  7948  1.00
      L1  C     6    29       P1  7949  0.08

> <Gold.PLP.Chemscore.Internal.Correction>
0.1277

> <Gold.Rescore>
     Score         DG    S(hbond)    S(metal)    S(lipo)     H(rot)  DE(clash)    DE(int)     intcor
     12.18     -15.35       3.20        0.00      56.68       2.91       0.29       2.88       ----

> <Gold.Chemscore.Fitness>
12.1841

> <Gold.Chemscore.DG>
-15.3492

> <Gold.Chemscore.ZeroCoef>
-5.4800

> <Gold.Chemscore.Hbond>
3.2015

> <Gold.Chemscore.Metal>
0.0000

> <Gold.Chemscore.Lipo>
56.6779

> <Gold.Chemscore.Internal_Hbond>
0.0000

> <Gold.Chemscore.DEClash>
0.2879

> <Gold.Chemscore.DEInternal>
2.8771

> <Gold.Chemscore.Rot>
2.9122

> <Gold.Chemscore.Internal.Correction>
   9.000000E+99

> <Gold.Chemscore.Hbonds>
donor molecule, donor type, donor heavy atom, donor atom, acceptor molecule, acceptor atom, score
      L1  H    11    32       P1  7948  1.00
      L1  H    15    36       P1 10171  0.99
      L1  H    15    37       P1 10175  0.21
      P1  H  7997  8010       L1     4  0.87

> <Gold.Chemscore.Hbond.Weighted>
-10.6932

> <Gold.Chemscore.Metal.Weighted>
-0.0000

> <Gold.Chemscore.Lipo.Weighted>
-6.6313

> <Gold.Chemscore.Internal_Hbond.Weighted>
0.0000

> <Gold.Chemscore.DEClash.Weighted>
0.2879

> <Gold.Chemscore.DEInternal.Weighted>
2.8771

> <Gold.Chemscore.Rot.Weighted>
7.4553

> <Gold.Chemscore.Internal.Correction.Weighted>
   9.000000E+99

> <Gold.Protein.RotatedTorsions>
[ 6907 6896 6895 6894 ] final   66.66 input  -60.11 | X-H torsion
[ 7974 7965 7964 7962 ] final   60.02 input  175.53 | X-H torsion
[ 8008 7997 7996 7995 ] final   83.84 input   59.86 | X-H torsion
[ 10167 10162 10161 10158 ] final  -26.90 input  -65.29 | X-H torsion
[ 10718 10713 10712 10709 ] final  101.79 input   66.30 | X-H torsion
[ 10763 10752 10751 10750 ] final  155.30 input  -60.55 | X-H torsion
[ 11005 11000 10999 10996 ] final  -71.36 input  -57.11 | X-H torsion

> <Gold.Protein.ActiveResidues>
 VAL166  LYS551  ARG553  GLY616  TRP617  ASP618  TYR619  PRO620  LYS621  CYS622 
 ASP623  PHE694  ASN695  SER759  ASP760  ASP761  ALA762  ILE779  LEU786  VAL792 
 PHE793  MET794  SER795  GLU796  ALA797  LYS798  CYS799  TRP800  GLU811  SER814 

> <Gold.Protein.RotatedAtoms>
  152.4497  134.5420  159.9841 H   0  0  0  0  0  0  0  0  0  0  0  0  # atno 6907 bound_to 6896
  151.5496  133.3414  159.2958 H   0  0  0  0  0  0  0  0  0  0  0  0  # atno 6908 bound_to 6896
  150.8422  134.7750  159.7005 H   0  0  0  0  0  0  0  0  0  0  0  0  # atno 6909 bound_to 6896
  145.9007  139.3579  143.0594 H   0  0  0  0  0  0  0  0  0  0  0  0  # atno 7974 bound_to 7965
  155.9292  140.3416  155.6235 H   0  0  0  0  0  0  0  0  0  0  0  0  # atno 8008 bound_to 7997
  155.7178  140.0780  157.2362 H   0  0  0  0  0  0  0  0  0  0  0  0  # atno 8009 bound_to 7997
  154.4082  140.1611  156.2356 H   0  0  0  0  0  0  0  0  0  0  0  0  # atno 8010 bound_to 7997
  140.7280  143.4138  151.1061 H   0  0  0  0  0  0  0  0  0  0  0  0  # atno 10167 bound_to 10162
  157.6820  131.0735  150.5305 H   0  0  0  0  0  0  0  0  0  0  0  0  # atno 10718 bound_to 10713
  154.1661  135.2807  155.3094 H   0  0  0  0  0  0  0  0  0  0  0  0  # atno 10763 bound_to 10752
  154.6110  135.5498  153.7477 H   0  0  0  0  0  0  0  0  0  0  0  0  # atno 10764 bound_to 10752
  153.0178  135.6415  154.1802 H   0  0  0  0  0  0  0  0  0  0  0  0  # atno 10765 bound_to 10752
  141.1591  133.6815  156.6894 H   0  0  0  0  0  0  0  0  0  0  0  0  # atno 11005 bound_to 11000
  145.8795  140.9371  143.0609 LP  0  0  0  0  0  0  0  0  0  0  0  0  # atno 17320 bound_to 7965
  144.6735  140.0760  143.7471 LP  0  0  0  0  0  0  0  0  0  0  0  0  # atno 17321 bound_to 7965
  139.7775  143.8403  152.3132 LP  0  0  0  0  0  0  0  0  0  0  0  0  # atno 17342 bound_to 10162
  139.8343  144.7239  150.9411 LP  0  0  0  0  0  0  0  0  0  0  0  0  # atno 17343 bound_to 10162
  156.5615  130.4257  149.6060 LP  0  0  0  0  0  0  0  0  0  0  0  0  # atno 17370 bound_to 10713
  156.2817  130.7074  151.1900 LP  0  0  0  0  0  0  0  0  0  0  0  0  # atno 17371 bound_to 10713
  140.3042  134.8139  157.4123 LP  0  0  0  0  0  0  0  0  0  0  0  0  # atno 17394 bound_to 11000
  140.1235  134.5188  155.8164 LP  0  0  0  0  0  0  0  0  0  0  0  0  # atno 17395 bound_to 11000

$$$$
