AV-unprocessed.smi:44|AV-procd|sdf|397|dock10
  -GOLD-   2262016253D 1   1.00000     0.00000
 Structure written by MMmdl.
 29 31  0  0  0  0  0  0  0  0  1 V2000
  151.1142  138.1684  154.0441 O   0  0  0  0  0  0  0  0  0  0  0  0
  151.3855  138.4385  155.2122 C   0  0  0  0  0  0  0  0  0  0  0  0
  151.9066  137.5459  156.0888 N   0  0  0  0  0  0  0  0  0  0  0  0
  152.2178  137.8499  157.4377 C   0  0  0  0  0  0  0  0  0  0  0  0
  152.0477  139.0175  158.0019 N   0  0  0  0  0  0  0  0  0  0  0  0
  151.5222  139.9494  157.1292 C   0  0  0  0  0  0  0  0  0  0  0  0
  151.1803  139.7768  155.8144 C   0  0  0  0  0  0  0  0  0  0  0  0
  150.6839  140.9501  155.2608 N   0  0  0  0  0  0  0  0  0  0  0  0
  150.7530  141.7968  156.2860 C   0  0  0  0  0  0  0  0  0  0  0  0
  151.2374  141.2797  157.4317 N   0  0  0  0  0  0  0  0  0  0  0  0
  151.4291  142.0115  158.7204 C   0  0  1  0  0  0  0  0  0  0  0  0
  152.9049  142.0340  159.1303 C   0  0  0  0  0  0  0  0  0  0  0  0
  152.9851  143.3671  159.8398 C   0  0  0  0  0  0  0  0  0  0  0  0
  152.0631  144.2118  158.9574 C   0  0  2  0  0  0  0  0  0  0  0  0
  151.5046  145.5082  159.5684 C   0  0  0  0  0  0  0  0  0  0  0  0
  150.7561  145.2606  160.7404 O   0  0  0  0  0  0  0  0  0  0  0  0
  151.0151  143.3357  158.5516 O   0  0  0  0  0  0  0  0  0  0  0  0
  152.0813  136.6100  155.7530 H   0  0  0  0  0  0  0  0  0  0  0  0
  150.7864  141.5096  159.4453 H   0  0  0  0  0  0  0  0  0  0  0  0
  152.6085  144.4764  158.0503 H   0  0  0  0  0  0  0  0  0  0  0  0
  152.6247  136.9968  157.9825 H   0  0  0  0  0  0  0  0  0  0  0  0
  150.4417  142.8276  156.2006 H   0  0  0  0  0  0  0  0  0  0  0  0
  153.1538  141.1803  159.7609 H   0  0  0  0  0  0  0  0  0  0  0  0
  153.5470  142.0300  158.2483 H   0  0  0  0  0  0  0  0  0  0  0  0
  152.5951  143.2670  160.8531 H   0  0  0  0  0  0  0  0  0  0  0  0
  153.9999  143.7614  159.8976 H   0  0  0  0  0  0  0  0  0  0  0  0
  152.3268  146.1735  159.8327 H   0  0  0  0  0  0  0  0  0  0  0  0
  150.8858  146.0375  158.8434 H   0  0  0  0  0  0  0  0  0  0  0  0
  150.8479  144.3480  160.9674 H   0  0  0  0  0  0  0  0  0  0  0  0
  1  2  2  0  0  0  0
  2  7  1  0  0  0  0
  2  3  1  0  0  0  0
  3 18  1  0  0  0  0
  3  4  1  0  0  0  0
  4  5  2  0  0  0  0
  4 21  1  0  0  0  0
  5  6  1  0  0  0  0
  6 10  1  0  0  0  0
  6  7  2  0  0  0  0
  7  8  1  0  0  0  0
  8  9  2  0  0  0  0
  9 10  1  0  0  0  0
  9 22  1  0  0  0  0
 10 11  1  0  0  0  0
 11 19  1  0  0  0  0
 11 17  1  0  0  0  0
 11 12  1  0  0  0  0
 12 13  1  0  0  0  0
 12 23  1  0  0  0  0
 12 24  1  0  0  0  0
 13 14  1  0  0  0  0
 13 25  1  0  0  0  0
 13 26  1  0  0  0  0
 14 20  1  0  0  0  0
 14 15  1  0  0  0  0
 14 17  1  0  0  0  0
 15 16  1  0  0  0  0
 15 27  1  0  0  0  0
 15 28  1  0  0  0  0
 16 29  1  0  0  0  0
M  END
> <s_m_source_file>
AV-unprocessed.smi

> <i_m_source_file_index>
44

> <i_lp_mmshare_version>
43012

> <i_f3d_flags>
0

> <s_epik_input>
bjFbY0hdW25IXWMoPU8pYyhjMTIpbltjSF1uMltDQEhdM1tDSDJdW0NIMl1bQ0BIXShPMylbQ0gyXVtPSF0=

> <s_epik_cmdline>
J2VwaWtfcHl0aG9uJywgJy1waCcsICc3LjAnLCAnLXRuJywgJzgnLCAnLW1hJywgJzIwMCcsICctbWV0YWxfYmluZGluZycsICctaW1hZScsICc8aW5maWxlLm1hZT4nLCAnLW9tYWUnLCAnPG91dGZpbGUubWFlPic=

> <r_lp_tautomer_probability>
0.85571

> <r_epik_Ionization_Penalty>
0.00801444

> <r_epik_Ionization_Penalty_Charging>
0.00794574

> <r_epik_Ionization_Penalty_Neutral>
6.87072e-05

> <r_epik_State_Penalty>
0.0826172

> <r_epik_Charging_Adjusted_Penalty>
0.090563

> <i_epik_Tot_Q>
0

> <i_epik_Tot_abs_Q>
0

> <r_epik_Metal_State_Penalty>
0.440697

> <b_epik_Metal_Only>
0

> <s_epik_Chemistry_Notes>
This compound contains an acetal/aminal-like group ( X-CH(R)-Y where X, Y are N, S, or O) that may be acid/base labile, releasing an aldehyde.

> <s_lp_Force_Field>
OPLS_2005

> <r_lp_Energy>
42.4933

> <b_lp_Chiralities_Consistent>
1

> <s_lp_Variant>
AV-unprocessed.smi:44-3

> <Gold.Version>
5.8.1

> <Gold.Id.Protein>
6NUR|6NUR_protein|mol2

> <Gold.PLP.Fitness>
37.8822

> <Gold.PLP.PLP>
-32.6310

> <Gold.PLP.part.hbond>
-2.0000

> <Gold.PLP.part.metal>
0.0000

> <Gold.PLP.part.buried>
-4.2722

> <Gold.PLP.part.nonpolar>
-26.5992

> <Gold.PLP.part.repulsive>
0.5011

> <Gold.PLP.ligand.clash>
0.0000

> <Gold.PLP.ligand.torsion>
0.0044

> <Gold.PLP.Chemscore.Hbond>
0.7520

> <Gold.PLP.Chemscore.CHOScore>
1.0000

> <Gold.PLP.Chemscore.Metal>
0.0000

> <Gold.Chemscore.Hbonds>
donor molecule, donor type, donor heavy atom, donor atom, acceptor molecule, acceptor atom, score
      P1  H  7989  7998       L1     8  0.71
      L1  C     9    22       P1  8028  1.00

> <Gold.PLP.Chemscore.Internal.Correction>
0.0040

> <Gold.Rescore>
     Score         DG    S(hbond)    S(metal)    S(lipo)     H(rot)  DE(clash)    DE(int)     intcor
     10.86     -10.90       1.50        0.00      53.12       2.27       0.03       0.00       ----

> <Gold.Chemscore.Fitness>
10.8644

> <Gold.Chemscore.DG>
-10.9013

> <Gold.Chemscore.ZeroCoef>
-5.4800

> <Gold.Chemscore.Hbond>
1.5039

> <Gold.Chemscore.Metal>
0.0000

> <Gold.Chemscore.Lipo>
53.1178

> <Gold.Chemscore.Internal_Hbond>
0.0000

> <Gold.Chemscore.DEClash>
0.0339

> <Gold.Chemscore.DEInternal>
0.0031

> <Gold.Chemscore.Rot>
2.2720

> <Gold.Chemscore.Internal.Correction>
   9.000000E+99

> <Gold.Chemscore.Hbonds>
donor molecule, donor type, donor heavy atom, donor atom, acceptor molecule, acceptor atom, score
      P1  H  7989  7998       L1     8  0.15

> <Gold.Chemscore.Hbond.Weighted>
-5.0230

> <Gold.Chemscore.Metal.Weighted>
-0.0000

> <Gold.Chemscore.Lipo.Weighted>
-6.2148

> <Gold.Chemscore.Internal_Hbond.Weighted>
0.0000

> <Gold.Chemscore.DEClash.Weighted>
0.0339

> <Gold.Chemscore.DEInternal.Weighted>
0.0031

> <Gold.Chemscore.Rot.Weighted>
5.8164

> <Gold.Chemscore.Internal.Correction.Weighted>
   9.000000E+99

> <Gold.Protein.RotatedTorsions>
[ 6907 6896 6895 6894 ] final  -64.71 input  -60.11 | X-H torsion
[ 7974 7965 7964 7962 ] final -175.85 input  175.53 | X-H torsion
[ 8008 7997 7996 7995 ] final   52.60 input   59.86 | X-H torsion
[ 10167 10162 10161 10158 ] final  -54.98 input  -65.29 | X-H torsion
[ 10718 10713 10712 10709 ] final  -78.81 input   66.30 | X-H torsion
[ 10763 10752 10751 10750 ] final -180.00 input  -60.55 | X-H torsion
[ 11005 11000 10999 10996 ] final   -8.87 input  -57.11 | X-H torsion

> <Gold.Protein.ActiveResidues>
 VAL166  LYS551  ARG553  GLY616  TRP617  ASP618  TYR619  PRO620  LYS621  CYS622 
 ASP623  PHE694  ASN695  SER759  ASP760  ASP761  ALA762  ILE779  LEU786  VAL792 
 PHE793  MET794  SER795  GLU796  ALA797  LYS798  CYS799  TRP800  GLU811  SER814 

> <Gold.Protein.RotatedAtoms>
  150.7568  134.6261  159.6161 H   0  0  0  0  0  0  0  0  0  0  0  0  # atno 6907 bound_to 6896
  152.3552  134.6946  160.0233 H   0  0  0  0  0  0  0  0  0  0  0  0  # atno 6908 bound_to 6896
  151.7354  133.3283  159.3388 H   0  0  0  0  0  0  0  0  0  0  0  0  # atno 6909 bound_to 6896
  144.7127  140.1258  143.6402 H   0  0  0  0  0  0  0  0  0  0  0  0  # atno 7974 bound_to 7965
  155.4545  140.3459  155.4305 H   0  0  0  0  0  0  0  0  0  0  0  0  # atno 8008 bound_to 7997
  156.1199  140.1484  156.9249 H   0  0  0  0  0  0  0  0  0  0  0  0  # atno 8009 bound_to 7997
  154.4816  140.0868  156.7369 H   0  0  0  0  0  0  0  0  0  0  0  0  # atno 8010 bound_to 7997
  140.6400  143.2502  151.5015 H   0  0  0  0  0  0  0  0  0  0  0  0  # atno 10167 bound_to 10162
  156.0108  130.4528  150.3553 H   0  0  0  0  0  0  0  0  0  0  0  0  # atno 10718 bound_to 10713
  154.5279  135.2798  155.1206 H   0  0  0  0  0  0  0  0  0  0  0  0  # atno 10763 bound_to 10752
  154.2737  135.6298  153.5324 H   0  0  0  0  0  0  0  0  0  0  0  0  # atno 10764 bound_to 10752
  152.9950  135.5634  154.5785 H   0  0  0  0  0  0  0  0  0  0  0  0  # atno 10765 bound_to 10752
  140.7281  133.8772  155.8872 H   0  0  0  0  0  0  0  0  0  0  0  0  # atno 11005 bound_to 11000
  145.9330  139.2619  143.1314 LP  0  0  0  0  0  0  0  0  0  0  0  0  # atno 17320 bound_to 7965
  145.9503  140.8914  143.0263 LP  0  0  0  0  0  0  0  0  0  0  0  0  # atno 17321 bound_to 7965
  139.5609  144.2158  152.1690 LP  0  0  0  0  0  0  0  0  0  0  0  0  # atno 17342 bound_to 10162
  140.1426  144.5188  150.6735 LP  0  0  0  0  0  0  0  0  0  0  0  0  # atno 17343 bound_to 10162
  157.1643  131.0353  151.2826 LP  0  0  0  0  0  0  0  0  0  0  0  0  # atno 17370 bound_to 10713
  157.4284  130.7476  149.6969 LP  0  0  0  0  0  0  0  0  0  0  0  0  # atno 17371 bound_to 10713
  140.9945  134.1234  157.4377 LP  0  0  0  0  0  0  0  0  0  0  0  0  # atno 17394 bound_to 11000
  139.8832  135.0050  156.6287 LP  0  0  0  0  0  0  0  0  0  0  0  0  # atno 17395 bound_to 11000

$$$$
