AV-unprocessed.smi:2051|AV-procd|sdf|8326|dock2
  -GOLD-   2272010593D 1   1.00000     0.00000
 Structure written by MMmdl.
 33 34  0  0  0  0  0  0  0  0  1 V2000
  150.4834  141.0791  158.4502 O   0  0  0  0  0  0  0  0  0  0  0  0
  150.4103  142.1290  157.8105 C   0  0  0  0  0  0  0  0  0  0  0  0
  151.1114  143.3992  158.3114 C   0  0  0  0  0  0  0  0  0  0  0  0
  151.7691  143.2152  159.6158 N   0  0  0  0  0  0  0  0  0  0  0  0
  151.4580  144.1425  160.6301 C   0  0  0  0  0  0  0  0  0  0  0  0
  152.0040  144.0659  161.8540 C   0  0  0  0  0  0  0  0  0  0  0  0
  152.9353  142.9954  162.1202 C   0  0  0  0  0  0  0  0  0  0  0  0
  153.2425  142.1048  161.1564 C   0  0  0  0  0  0  0  0  0  0  0  0
  152.6494  142.1857  159.8165 C   0  0  0  0  0  0  0  0  0  0  0  0
  152.9267  141.3780  158.9291 O   0  0  0  0  0  0  0  0  0  0  0  0
  149.7408  142.2422  156.6533 N   0  0  0  0  0  0  0  0  0  0  0  0
  148.9703  141.1806  156.0141 C   0  0  0  0  0  0  0  0  0  0  0  0
  149.7989  140.4397  154.9503 C   0  0  2  0  0  0  0  0  0  0  0  0
  149.3380  139.0146  154.6406 C   0  0  0  0  0  0  0  0  0  0  0  0
  150.6063  138.3987  154.0972 C   0  0  0  0  0  0  0  0  0  0  0  0
  151.6676  139.0316  154.9929 C   0  0  0  0  0  0  0  0  0  0  0  0
  151.1489  140.3008  155.3852 O   0  0  0  0  0  0  0  0  0  0  0  0
  151.8327  143.7088  157.5542 H   0  0  0  0  0  0  0  0  0  0  0  0
  150.3915  144.2178  158.3733 H   0  0  0  0  0  0  0  0  0  0  0  0
  150.7589  144.9166  160.3487 H   0  0  0  0  0  0  0  0  0  0  0  0
  151.7565  144.7880  162.6179 H   0  0  0  0  0  0  0  0  0  0  0  0
  153.3889  142.9091  163.0967 H   0  0  0  0  0  0  0  0  0  0  0  0
  153.9422  141.3110  161.3735 H   0  0  0  0  0  0  0  0  0  0  0  0
  149.7423  143.1407  156.1926 H   0  0  0  0  0  0  0  0  0  0  0  0
  148.6666  140.4782  156.7905 H   0  0  0  0  0  0  0  0  0  0  0  0
  148.0483  141.5696  155.5789 H   0  0  0  0  0  0  0  0  0  0  0  0
  149.8150  141.0177  154.0248 H   0  0  0  0  0  0  0  0  0  0  0  0
  149.0365  138.4998  155.5538 H   0  0  0  0  0  0  0  0  0  0  0  0
  148.5070  138.9774  153.9352 H   0  0  0  0  0  0  0  0  0  0  0  0
  150.6077  137.3092  154.1374 H   0  0  0  0  0  0  0  0  0  0  0  0
  150.7559  138.7042  153.0608 H   0  0  0  0  0  0  0  0  0  0  0  0
  151.8180  138.4294  155.8895 H   0  0  0  0  0  0  0  0  0  0  0  0
  152.6285  139.1328  154.4879 H   0  0  0  0  0  0  0  0  0  0  0  0
  1  2  2  0  0  0  0
  2  3  1  0  0  0  0
  2 11  1  0  0  0  0
  3  4  1  0  0  0  0
  3 18  1  0  0  0  0
  3 19  1  0  0  0  0
  4  9  1  0  0  0  0
  4  5  1  0  0  0  0
  5  6  2  0  0  0  0
  5 20  1  0  0  0  0
  6  7  1  0  0  0  0
  6 21  1  0  0  0  0
  7  8  2  0  0  0  0
  7 22  1  0  0  0  0
  8  9  1  0  0  0  0
  8 23  1  0  0  0  0
  9 10  2  0  0  0  0
 11 12  1  0  0  0  0
 11 24  1  0  0  0  0
 12 13  1  0  0  0  0
 12 25  1  0  0  0  0
 12 26  1  0  0  0  0
 13 17  1  0  0  0  0
 13 14  1  0  0  0  0
 13 27  1  0  0  0  0
 14 15  1  0  0  0  0
 14 28  1  0  0  0  0
 14 29  1  0  0  0  0
 15 16  1  0  0  0  0
 15 30  1  0  0  0  0
 15 31  1  0  0  0  0
 16 17  1  0  0  0  0
 16 32  1  0  0  0  0
 16 33  1  0  0  0  0
M  END
> <s_m_source_file>
AV-unprocessed.smi

> <i_m_source_file_index>
2051

> <i_lp_mmshare_version>
43012

> <i_f3d_flags>
0

> <s_epik_input>
TzFbQ0gyXVtDSDJdW0NIMl1bQ0BIXTFbQ0gyXVtOSF1DKD1PKVtDSDJdbjJbY0hdW2NIXVtjSF1bY0hdYzI9Tw==

> <s_epik_cmdline>
J2VwaWtfcHl0aG9uJywgJy1waCcsICc3LjAnLCAnLXRuJywgJzgnLCAnLW1hJywgJzIwMCcsICctbWV0YWxfYmluZGluZycsICctaW1hZScsICc8aW5maWxlLm1hZT4nLCAnLW9tYWUnLCAnPG91dGZpbGUubWFlPic=

> <r_lp_tautomer_probability>
1

> <r_epik_Ionization_Penalty>
3.94187e-07

> <r_epik_Ionization_Penalty_Charging>
3.67328e-07

> <r_epik_Ionization_Penalty_Neutral>
2.6859e-08

> <r_epik_State_Penalty>
-0

> <r_epik_Charging_Adjusted_Penalty>
3.67328e-07

> <i_epik_Tot_Q>
0

> <i_epik_Tot_abs_Q>
0

> <r_epik_Metal_State_Penalty>
-0

> <b_epik_Metal_Only>
0

> <s_lp_Force_Field>
OPLS_2005

> <r_lp_Energy>
26.4026

> <b_lp_Chiralities_Consistent>
1

> <s_lp_Variant>
AV-unprocessed.smi:2051-1

> <Gold.Version>
5.8.1

> <Gold.Id.Protein>
6NUR|6NUR_protein|mol2

> <Gold.PLP.Fitness>
43.4977

> <Gold.PLP.PLP>
-41.5006

> <Gold.PLP.part.hbond>
-2.0000

> <Gold.PLP.part.metal>
0.0000

> <Gold.PLP.part.buried>
-4.7362

> <Gold.PLP.part.nonpolar>
-35.2503

> <Gold.PLP.part.repulsive>
0.0830

> <Gold.PLP.ligand.clash>
0.0000

> <Gold.PLP.ligand.torsion>
0.4826

> <Gold.PLP.Chemscore.Hbond>
0.9835

> <Gold.PLP.Chemscore.CHOScore>
0.0000

> <Gold.PLP.Chemscore.Metal>
0.0000

> <Gold.Chemscore.Hbonds>
donor molecule, donor type, donor heavy atom, donor atom, acceptor molecule, acceptor atom, score
      L1  H    11    24       P1  8028  1.00
      P1  H  7989  7998       L1    17  0.08

> <Gold.PLP.Chemscore.Internal.Correction>
0.0118

> <Gold.Rescore>
     Score         DG    S(hbond)    S(metal)    S(lipo)     H(rot)  DE(clash)    DE(int)     intcor
     10.39     -14.70       0.97        0.00      88.08       1.69       0.01       4.30       ----

> <Gold.Chemscore.Fitness>
10.3921

> <Gold.Chemscore.DG>
-14.7029

> <Gold.Chemscore.ZeroCoef>
-5.4800

> <Gold.Chemscore.Hbond>
0.9739

> <Gold.Chemscore.Metal>
0.0000

> <Gold.Chemscore.Lipo>
88.0844

> <Gold.Chemscore.Internal_Hbond>
0.0000

> <Gold.Chemscore.DEClash>
0.0060

> <Gold.Chemscore.DEInternal>
4.3048

> <Gold.Chemscore.Rot>
1.6936

> <Gold.Chemscore.Internal.Correction>
   9.000000E+99

> <Gold.Chemscore.Hbonds>
donor molecule, donor type, donor heavy atom, donor atom, acceptor molecule, acceptor atom, score
      L1  H    11    24       P1  8028  0.96

> <Gold.Chemscore.Hbond.Weighted>
-3.2527

> <Gold.Chemscore.Metal.Weighted>
-0.0000

> <Gold.Chemscore.Lipo.Weighted>
-10.3059

> <Gold.Chemscore.Internal_Hbond.Weighted>
0.0000

> <Gold.Chemscore.DEClash.Weighted>
0.0060

> <Gold.Chemscore.DEInternal.Weighted>
4.3048

> <Gold.Chemscore.Rot.Weighted>
4.3357

> <Gold.Chemscore.Internal.Correction.Weighted>
   9.000000E+99

> <Gold.Protein.RotatedTorsions>
[ 6907 6896 6895 6894 ] final    5.47 input  -60.11 | X-H torsion
[ 7974 7965 7964 7962 ] final    5.42 input  175.53 | X-H torsion
[ 8008 7997 7996 7995 ] final  178.74 input   59.86 | X-H torsion
[ 10167 10162 10161 10158 ] final  103.15 input  -65.29 | X-H torsion
[ 10718 10713 10712 10709 ] final   15.78 input   66.30 | X-H torsion
[ 10763 10752 10751 10750 ] final   39.20 input  -60.55 | X-H torsion
[ 11005 11000 10999 10996 ] final   69.38 input  -57.11 | X-H torsion

> <Gold.Protein.ActiveResidues>
 VAL166  LYS551  ARG553  GLY616  TRP617  ASP618  TYR619  PRO620  LYS621  CYS622 
 ASP623  PHE694  ASN695  SER759  ASP760  ASP761  ALA762  ILE779  LEU786  VAL792 
 PHE793  MET794  SER795  GLU796  ALA797  LYS798  CYS799  TRP800  GLU811  SER814 

> <Gold.Protein.RotatedAtoms>
  151.6580  135.0993  160.0173 H   0  0  0  0  0  0  0  0  0  0  0  0  # atno 6907 bound_to 6896
  152.3963  133.6747  159.6287 H   0  0  0  0  0  0  0  0  0  0  0  0  # atno 6908 bound_to 6896
  150.7870  133.8785  159.3320 H   0  0  0  0  0  0  0  0  0  0  0  0  # atno 6909 bound_to 6896
  146.2440  140.0386  142.8384 H   0  0  0  0  0  0  0  0  0  0  0  0  # atno 7974 bound_to 7965
  156.0513  140.1326  157.0047 H   0  0  0  0  0  0  0  0  0  0  0  0  # atno 8008 bound_to 7997
  154.4436  140.1010  156.6450 H   0  0  0  0  0  0  0  0  0  0  0  0  # atno 8009 bound_to 7997
  155.5520  140.3463  155.4473 H   0  0  0  0  0  0  0  0  0  0  0  0  # atno 8010 bound_to 7997
  139.7287  144.7041  151.0756 H   0  0  0  0  0  0  0  0  0  0  0  0  # atno 10167 bound_to 10162
  157.0584  130.6299  149.5781 H   0  0  0  0  0  0  0  0  0  0  0  0  # atno 10718 bound_to 10713
  152.9975  135.6227  154.2427 H   0  0  0  0  0  0  0  0  0  0  0  0  # atno 10763 bound_to 10752
  154.2167  135.2797  155.2941 H   0  0  0  0  0  0  0  0  0  0  0  0  # atno 10764 bound_to 10752
  154.5562  135.5718  153.7025 H   0  0  0  0  0  0  0  0  0  0  0  0  # atno 10765 bound_to 10752
  139.9657  134.6985  156.0551 H   0  0  0  0  0  0  0  0  0  0  0  0  # atno 11005 bound_to 11000
  145.1089  140.9393  143.4668 LP  0  0  0  0  0  0  0  0  0  0  0  0  # atno 17320 bound_to 7965
  145.0596  139.3116  143.5887 LP  0  0  0  0  0  0  0  0  0  0  0  0  # atno 17321 bound_to 7965
  140.7767  143.5071  150.9699 LP  0  0  0  0  0  0  0  0  0  0  0  0  # atno 17342 bound_to 10162
  139.8759  143.7134  152.3162 LP  0  0  0  0  0  0  0  0  0  0  0  0  # atno 17343 bound_to 10162
  155.9986  130.5060  150.7576 LP  0  0  0  0  0  0  0  0  0  0  0  0  # atno 17370 bound_to 10713
  157.4974  131.0916  151.0355 LP  0  0  0  0  0  0  0  0  0  0  0  0  # atno 17371 bound_to 10713
  141.1336  133.6580  156.3532 LP  0  0  0  0  0  0  0  0  0  0  0  0  # atno 17394 bound_to 11000
  140.5402  134.6127  157.5377 LP  0  0  0  0  0  0  0  0  0  0  0  0  # atno 17395 bound_to 11000

$$$$
