AV-unprocessed.smi:1012|AV-procd|sdf|4423|dock6
  -GOLD-   22720 2373D 1   1.00000     0.00000
 Structure written by MMmdl.
 43 45  0  0  0  0  0  0  0  0  1 V2000
  145.2324  143.0396  157.8642 C   0  0  0  0  0  0  0  0  0  0  0  0
  145.7817  142.9160  156.5609 O   0  0  0  0  0  0  0  0  0  0  0  0
  145.2931  143.7351  155.5631 C   0  0  0  0  0  0  0  0  0  0  0  0
  144.2640  144.6901  155.7660 C   0  0  0  0  0  0  0  0  0  0  0  0
  143.8159  145.4975  154.7033 C   0  0  0  0  0  0  0  0  0  0  0  0
  144.3874  145.3633  153.4259 C   0  0  0  0  0  0  0  0  0  0  0  0
  145.4086  144.4201  153.2119 C   0  0  0  0  0  0  0  0  0  0  0  0
  145.8603  143.6062  154.2723 C   0  0  0  0  0  0  0  0  0  0  0  0
  146.9714  142.6015  154.0237 C   0  0  0  0  0  0  0  0  0  0  0  0
  146.8040  141.4336  154.8107 O   0  0  0  0  0  0  0  0  0  0  0  0
  147.4630  140.3026  154.2661 C   0  0  0  0  0  0  0  0  0  0  0  0
  148.9740  140.4435  154.5064 C   0  0  1  0  0  0  0  0  0  0  0  0
  149.5755  140.9046  153.3122 O   0  0  0  0  0  0  0  0  0  0  0  0
  149.2860  141.4356  155.6434 C   0  0  0  0  0  0  0  0  0  0  0  0
  150.4565  141.0505  156.4120 N   0  0  0  0  0  0  0  0  0  0  0  0
  151.2744  140.0082  156.1711 C   0  0  0  0  0  0  0  0  0  0  0  0
  152.2967  139.8302  157.0029 N   0  0  0  0  0  0  0  0  0  0  0  0
  152.1234  140.8812  157.8870 C   0  0  0  0  0  0  0  0  0  0  0  0
  152.8808  141.2625  159.0174 C   0  0  0  0  0  0  0  0  0  0  0  0
  152.5098  142.3899  159.7793 C   0  0  0  0  0  0  0  0  0  0  0  0
  153.2473  142.7421  160.8590 F   0  0  0  0  0  0  0  0  0  0  0  0
  151.3773  143.1519  159.4228 C   0  0  0  0  0  0  0  0  0  0  0  0
  151.0293  144.2341  160.1586 F   0  0  0  0  0  0  0  0  0  0  0  0
  150.6065  142.7905  158.3012 C   0  0  0  0  0  0  0  0  0  0  0  0
  150.9801  141.6647  157.5446 C   0  0  0  0  0  0  0  0  0  0  0  0
  145.7054  142.3117  158.5231 H   0  0  0  0  0  0  0  0  0  0  0  0
  144.1605  142.8370  157.8658 H   0  0  0  0  0  0  0  0  0  0  0  0
  145.4150  144.0304  158.2821 H   0  0  0  0  0  0  0  0  0  0  0  0
  143.8011  144.8257  156.7314 H   0  0  0  0  0  0  0  0  0  0  0  0
  143.0324  146.2219  154.8702 H   0  0  0  0  0  0  0  0  0  0  0  0
  144.0441  145.9837  152.6113 H   0  0  0  0  0  0  0  0  0  0  0  0
  145.8430  144.3237  152.2277 H   0  0  0  0  0  0  0  0  0  0  0  0
  147.0015  142.3291  152.9677 H   0  0  0  0  0  0  0  0  0  0  0  0
  147.9234  143.0806  154.2577 H   0  0  0  0  0  0  0  0  0  0  0  0
  147.0776  139.3724  154.6881 H   0  0  0  0  0  0  0  0  0  0  0  0
  147.2649  140.2770  153.1932 H   0  0  0  0  0  0  0  0  0  0  0  0
  149.3948  139.4696  154.7617 H   0  0  0  0  0  0  0  0  0  0  0  0
  149.4493  140.2489  152.6433 H   0  0  0  0  0  0  0  0  0  0  0  0
  149.4403  142.4396  155.2460 H   0  0  0  0  0  0  0  0  0  0  0  0
  148.4394  141.4998  156.3282 H   0  0  0  0  0  0  0  0  0  0  0  0
  151.1096  139.3426  155.3365 H   0  0  0  0  0  0  0  0  0  0  0  0
  153.7500  140.6872  159.2992 H   0  0  0  0  0  0  0  0  0  0  0  0
  149.7412  143.3737  158.0236 H   0  0  0  0  0  0  0  0  0  0  0  0
  1  2  1  0  0  0  0
  1 26  1  0  0  0  0
  1 27  1  0  0  0  0
  1 28  1  0  0  0  0
  2  3  1  0  0  0  0
  3  8  1  0  0  0  0
  3  4  2  0  0  0  0
  4  5  1  0  0  0  0
  4 29  1  0  0  0  0
  5  6  2  0  0  0  0
  5 30  1  0  0  0  0
  6  7  1  0  0  0  0
  6 31  1  0  0  0  0
  7  8  2  0  0  0  0
  7 32  1  0  0  0  0
  8  9  1  0  0  0  0
  9 10  1  0  0  0  0
  9 33  1  0  0  0  0
  9 34  1  0  0  0  0
 10 11  1  0  0  0  0
 11 12  1  0  0  0  0
 11 35  1  0  0  0  0
 11 36  1  0  0  0  0
 12 13  1  0  0  0  0
 12 14  1  0  0  0  0
 12 37  1  0  0  0  0
 13 38  1  0  0  0  0
 14 15  1  0  0  0  0
 14 39  1  0  0  0  0
 14 40  1  0  0  0  0
 15 25  1  0  0  0  0
 15 16  1  0  0  0  0
 16 17  2  0  0  0  0
 16 41  1  0  0  0  0
 17 18  1  0  0  0  0
 18 25  2  0  0  0  0
 18 19  1  0  0  0  0
 19 20  2  0  0  0  0
 19 42  1  0  0  0  0
 20 21  1  0  0  0  0
 20 22  1  0  0  0  0
 22 23  1  0  0  0  0
 22 24  2  0  0  0  0
 24 25  1  0  0  0  0
 24 43  1  0  0  0  0
M  END
> <s_m_source_file>
AV-unprocessed.smi

> <i_m_source_file_index>
1012

> <i_lp_mmshare_version>
43012

> <i_f3d_flags>
0

> <s_epik_input>
W0NIM11PYzFbY0hdW2NIXVtjSF1bY0hdYzFbQ0gyXU9bQ0gyXVtDQEhdKFtPSF0pW0NIMl1uKFtjSF1uMiljKGMyMylbY0hdYyhGKWMoRilbY0hdMw==

> <s_epik_cmdline>
J2VwaWtfcHl0aG9uJywgJy1waCcsICc3LjAnLCAnLXRuJywgJzgnLCAnLW1hJywgJzIwMCcsICctbWV0YWxfYmluZGluZycsICctaW1hZScsICc8aW5maWxlLm1hZT4nLCAnLW9tYWUnLCAnPG91dGZpbGUubWFlPic=

> <r_lp_tautomer_probability>
1

> <r_epik_Ionization_Penalty>
0.0160257

> <r_epik_Ionization_Penalty_Charging>
0

> <r_epik_Ionization_Penalty_Neutral>
0.0160257

> <r_epik_State_Penalty>
0.0126263

> <r_epik_Charging_Adjusted_Penalty>
0.0126263

> <i_epik_Tot_Q>
0

> <i_epik_Tot_abs_Q>
0

> <r_epik_Metal_State_Penalty>
1.27616e-05

> <b_epik_Metal_Only>
0

> <s_lp_Force_Field>
OPLS_2005

> <r_lp_Energy>
17.5925

> <b_lp_Chiralities_Consistent>
1

> <s_lp_Variant>
AV-unprocessed.smi:1012-2

> <Gold.Version>
5.8.1

> <Gold.Id.Protein>
6NUR|6NUR_protein|mol2

> <Gold.PLP.Fitness>
58.0542

> <Gold.PLP.PLP>
-52.0018

> <Gold.PLP.part.hbond>
-3.2948

> <Gold.PLP.part.metal>
0.0000

> <Gold.PLP.part.buried>
-8.6194

> <Gold.PLP.part.nonpolar>
-41.2926

> <Gold.PLP.part.repulsive>
0.2391

> <Gold.PLP.ligand.clash>
0.0000

> <Gold.PLP.ligand.torsion>
1.5704

> <Gold.PLP.Chemscore.Hbond>
3.0223

> <Gold.PLP.Chemscore.CHOScore>
0.0000

> <Gold.PLP.Chemscore.Metal>
0.0000

> <Gold.Chemscore.Hbonds>
donor molecule, donor type, donor heavy atom, donor atom, acceptor molecule, acceptor atom, score
      L1  H    13    38       P1  7957  0.77
      P1  H  7989  7998       L1    13  0.22
      P1  H  7997  8009       L1    17  0.74
      P1  H  8011  8017       L1    13  1.00

> <Gold.PLP.Chemscore.Internal.Correction>
0.1263

> <Gold.Rescore>
     Score         DG    S(hbond)    S(metal)    S(lipo)     H(rot)  DE(clash)    DE(int)     intcor
     14.15     -18.40       2.02        0.00     116.98       2.93       0.20       4.04       ----

> <Gold.Chemscore.Fitness>
14.1485

> <Gold.Chemscore.DG>
-18.3950

> <Gold.Chemscore.ZeroCoef>
-5.4800

> <Gold.Chemscore.Hbond>
2.0175

> <Gold.Chemscore.Metal>
0.0000

> <Gold.Chemscore.Lipo>
116.9780

> <Gold.Chemscore.Internal_Hbond>
0.0000

> <Gold.Chemscore.DEClash>
0.2030

> <Gold.Chemscore.DEInternal>
4.0435

> <Gold.Chemscore.Rot>
2.9335

> <Gold.Chemscore.Internal.Correction>
   9.000000E+99

> <Gold.Chemscore.Hbonds>
donor molecule, donor type, donor heavy atom, donor atom, acceptor molecule, acceptor atom, score
      L1  H    13    38       P1  7957  0.73
      P1  H  7989  7998       L1    13  0.04
      P1  H  7997  8009       L1    17  0.16
      P1  H  8011  8017       L1    13  0.35

> <Gold.Chemscore.Hbond.Weighted>
-6.7383

> <Gold.Chemscore.Metal.Weighted>
-0.0000

> <Gold.Chemscore.Lipo.Weighted>
-13.6864

> <Gold.Chemscore.Internal_Hbond.Weighted>
0.0000

> <Gold.Chemscore.DEClash.Weighted>
0.2030

> <Gold.Chemscore.DEInternal.Weighted>
4.0435

> <Gold.Chemscore.Rot.Weighted>
7.5097

> <Gold.Chemscore.Internal.Correction.Weighted>
   9.000000E+99

> <Gold.Protein.RotatedTorsions>
[ 6907 6896 6895 6894 ] final   70.50 input  -60.11 | X-H torsion
[ 7974 7965 7964 7962 ] final   82.07 input  175.53 | X-H torsion
[ 8008 7997 7996 7995 ] final -175.75 input   59.86 | X-H torsion
[ 10167 10162 10161 10158 ] final -125.91 input  -65.29 | X-H torsion
[ 10718 10713 10712 10709 ] final  -22.79 input   66.30 | X-H torsion
[ 10763 10752 10751 10750 ] final  173.82 input  -60.55 | X-H torsion
[ 11005 11000 10999 10996 ] final -108.92 input  -57.11 | X-H torsion

> <Gold.Protein.ActiveResidues>
 VAL166  LYS551  ARG553  GLY616  TRP617  ASP618  TYR619  PRO620  LYS621  CYS622 
 ASP623  PHE694  ASN695  SER759  ASP760  ASP761  ALA762  ILE779  LEU786  VAL792 
 PHE793  MET794  SER795  GLU796  ALA797  LYS798  CYS799  TRP800  GLU811  SER814 

> <Gold.Protein.RotatedAtoms>
  152.4753  134.4859  159.9679 H   0  0  0  0  0  0  0  0  0  0  0  0  # atno 6907 bound_to 6896
  151.4877  133.3526  159.2856 H   0  0  0  0  0  0  0  0  0  0  0  0  # atno 6908 bound_to 6896
  150.8788  134.8202  159.7271 H   0  0  0  0  0  0  0  0  0  0  0  0  # atno 6909 bound_to 6896
  145.6298  139.2402  143.2091 H   0  0  0  0  0  0  0  0  0  0  0  0  # atno 7974 bound_to 7965
  155.9864  140.1192  157.0679 H   0  0  0  0  0  0  0  0  0  0  0  0  # atno 8008 bound_to 7997
  154.4198  140.1134  156.5574 H   0  0  0  0  0  0  0  0  0  0  0  0  # atno 8009 bound_to 7997
  155.6402  140.3473  155.4714 H   0  0  0  0  0  0  0  0  0  0  0  0  # atno 8010 bound_to 7997
  139.9771  143.5783  152.2392 H   0  0  0  0  0  0  0  0  0  0  0  0  # atno 10167 bound_to 10162
  156.4998  130.4585  149.6708 H   0  0  0  0  0  0  0  0  0  0  0  0  # atno 10718 bound_to 10713
  154.4453  135.2763  155.1819 H   0  0  0  0  0  0  0  0  0  0  0  0  # atno 10763 bound_to 10752
  154.3668  135.6117  153.5723 H   0  0  0  0  0  0  0  0  0  0  0  0  # atno 10764 bound_to 10752
  152.9843  135.5848  154.4788 H   0  0  0  0  0  0  0  0  0  0  0  0  # atno 10765 bound_to 10752
  141.0876  133.9112  157.2150 H   0  0  0  0  0  0  0  0  0  0  0  0  # atno 11005 bound_to 11000
  146.1365  140.7115  142.9387 LP  0  0  0  0  0  0  0  0  0  0  0  0  # atno 17320 bound_to 7965
  144.7198  140.4334  143.7017 LP  0  0  0  0  0  0  0  0  0  0  0  0  # atno 17321 bound_to 7965
  139.6438  144.7656  151.2286 LP  0  0  0  0  0  0  0  0  0  0  0  0  # atno 17342 bound_to 10162
  140.7502  143.6273  150.8456 LP  0  0  0  0  0  0  0  0  0  0  0  0  # atno 17343 bound_to 10162
  156.3344  130.7349  151.2284 LP  0  0  0  0  0  0  0  0  0  0  0  0  # atno 17370 bound_to 10713
  157.7464  131.0421  150.4677 LP  0  0  0  0  0  0  0  0  0  0  0  0  # atno 17371 bound_to 10713
  139.9696  135.0132  156.9478 LP  0  0  0  0  0  0  0  0  0  0  0  0  # atno 17394 bound_to 11000
  140.5327  134.0797  155.7320 LP  0  0  0  0  0  0  0  0  0  0  0  0  # atno 17395 bound_to 11000

$$$$
