AV-unprocessed.smi:2703|AV-procd|sdf|10439|dock4
  -GOLD-   2272014483D 1   1.00000     0.00000
 Structure written by MMmdl.
 42 44  0  0  0  0  0  0  0  0  3 V2000
  151.7264  144.5429  160.6560 C   0  0  0  0  0  0  0  0  0  0  0  0
  151.7770  143.3961  159.6619 C   0  0  0  0  0  0  0  0  0  0  0  0
  151.0611  143.5066  158.4487 C   0  0  0  0  0  0  0  0  0  0  0  0
  151.0799  142.4621  157.4986 C   0  0  0  0  0  0  0  0  0  0  0  0
  150.4582  142.3590  156.2661 N   0  0  0  0  0  0  0  0  0  0  0  0
  150.8560  141.1550  155.8663 C   0  0  0  0  0  0  0  0  0  0  0  0
  151.6653  140.4655  156.6931 N   0  0  0  0  0  0  0  0  0  0  0  0
  152.2154  139.1405  156.4667 C   0  0  0  0  0  0  0  0  0  0  0  0
  152.4335  138.8392  154.9721 C   0  0  1  0  0  0  0  0  0  0  0  0
  153.7983  139.0189  154.6461 O   0  0  0  0  0  0  0  0  0  0  0  0
  152.0092  137.4076  154.6068 C   0  0  0  0  0  0  0  0  0  0  0  0
  150.4337  136.9426  155.3837 S   0  0  0  0  0  0  0  0  0  0  0  0
  150.2649  135.1770  155.2753 C   0  0  0  0  0  0  0  0  0  0  0  0
  149.2609  134.5656  154.4919 C   0  0  0  0  0  0  0  0  0  0  0  0
  149.1738  133.1658  154.4402 C   0  0  0  0  0  0  0  0  0  0  0  0
  150.0932  132.4026  155.1747 C   0  0  0  0  0  0  0  0  0  0  0  0
  151.0765  133.0543  155.9434 C   0  0  0  0  0  0  0  0  0  0  0  0
  151.1609  134.4193  155.9933 N   0  3  0  0  0  0  0  0  0  0  0  0
  152.0793  134.9674  156.7103 O   0  5  0  0  0  0  0  0  0  0  0  0
  151.8422  141.2944  157.7964 C   0  0  0  0  0  0  0  0  0  0  0  0
  152.5606  141.1742  158.9994 C   0  0  0  0  0  0  0  0  0  0  0  0
  152.5294  142.2264  159.9387 C   0  0  0  0  0  0  0  0  0  0  0  0
  153.3046  142.0846  161.2368 C   0  0  0  0  0  0  0  0  0  0  0  0
  151.0915  145.3536  160.2975 H   0  0  0  0  0  0  0  0  0  0  0  0
  152.7247  144.9485  160.8212 H   0  0  0  0  0  0  0  0  0  0  0  0
  151.3268  144.2030  161.6117 H   0  0  0  0  0  0  0  0  0  0  0  0
  150.4878  144.3973  158.2371 H   0  0  0  0  0  0  0  0  0  0  0  0
  150.5425  140.7493  154.9154 H   0  0  0  0  0  0  0  0  0  0  0  0
  153.1531  139.0477  157.0160 H   0  0  0  0  0  0  0  0  0  0  0  0
  151.5284  138.4124  156.8999 H   0  0  0  0  0  0  0  0  0  0  0  0
  151.8487  139.5442  154.3795 H   0  0  0  0  0  0  0  0  0  0  0  0
  153.9816  138.5380  153.8530 H   0  0  0  0  0  0  0  0  0  0  0  0
  151.9251  137.3004  153.5247 H   0  0  0  0  0  0  0  0  0  0  0  0
  152.7705  136.7033  154.9436 H   0  0  0  0  0  0  0  0  0  0  0  0
  148.5529  135.1543  153.9298 H   0  0  0  0  0  0  0  0  0  0  0  0
  148.4117  132.6841  153.8452 H   0  0  0  0  0  0  0  0  0  0  0  0
  150.0469  131.3239  155.1519 H   0  0  0  0  0  0  0  0  0  0  0  0
  151.8163  132.5338  156.5343 H   0  0  0  0  0  0  0  0  0  0  0  0
  153.1315  140.2794  159.1977 H   0  0  0  0  0  0  0  0  0  0  0  0
  153.8520  141.1422  161.2730 H   0  0  0  0  0  0  0  0  0  0  0  0
  152.6262  142.1110  162.0898 H   0  0  0  0  0  0  0  0  0  0  0  0
  154.0270  142.8940  161.3430 H   0  0  0  0  0  0  0  0  0  0  0  0
  1  2  1  0  0  0  0
  1 24  1  0  0  0  0
  1 25  1  0  0  0  0
  1 26  1  0  0  0  0
  2 22  1  0  0  0  0
  2  3  2  0  0  0  0
  3  4  1  0  0  0  0
  3 27  1  0  0  0  0
  4 20  2  0  0  0  0
  4  5  1  0  0  0  0
  5  6  2  0  0  0  0
  6  7  1  0  0  0  0
  6 28  1  0  0  0  0
  7  8  1  0  0  0  0
  7 20  1  0  0  0  0
  8  9  1  0  0  0  0
  8 29  1  0  0  0  0
  8 30  1  0  0  0  0
  9 10  1  0  0  0  0
  9 11  1  0  0  0  0
  9 31  1  0  0  0  0
 10 32  1  0  0  0  0
 11 12  1  0  0  0  0
 11 33  1  0  0  0  0
 11 34  1  0  0  0  0
 12 13  1  0  0  0  0
 13 18  1  0  0  0  0
 13 14  2  0  0  0  0
 14 15  1  0  0  0  0
 14 35  1  0  0  0  0
 15 16  2  0  0  0  0
 15 36  1  0  0  0  0
 16 17  1  0  0  0  0
 16 37  1  0  0  0  0
 17 18  2  0  0  0  0
 17 38  1  0  0  0  0
 18 19  1  0  0  0  0
 20 21  1  0  0  0  0
 21 22  2  0  0  0  0
 21 39  1  0  0  0  0
 22 23  1  0  0  0  0
 23 40  1  0  0  0  0
 23 41  1  0  0  0  0
 23 42  1  0  0  0  0
M  CHG  1  18   1
M  CHG  1  19  -1
M  END
> <s_m_source_file>
AV-unprocessed.smi

> <i_m_source_file_index>
2703

> <i_lp_mmshare_version>
43012

> <i_f3d_flags>
0

> <s_epik_input>
W0NIM11jKFtjSF0xKWMoW0NIM10pW2NIXWMoYzEyKW4oW2NIXW4yKVtDSDJdW0NASF0oW09IXSlbQ0gyXVNjM1tjSF1bY0hdW2NIXVtjSF1bbitdM1tPLV0=

> <s_epik_cmdline>
J2VwaWtfcHl0aG9uJywgJy1waCcsICc3LjAnLCAnLXRuJywgJzgnLCAnLW1hJywgJzIwMCcsICctbWV0YWxfYmluZGluZycsICctaW1hZScsICc8aW5maWxlLm1hZT4nLCAnLW9tYWUnLCAnPG91dGZpbGUubWFlPic=

> <r_epik_Ionization_Penalty>
0.106001

> <r_epik_Ionization_Penalty_Charging>
1.39204e-07

> <r_epik_Ionization_Penalty_Neutral>
0.106001

> <r_epik_State_Penalty>
0.0958598

> <r_epik_Charging_Adjusted_Penalty>
0.0958599

> <i_epik_Tot_Q>
0

> <i_epik_Tot_abs_Q>
2

> <r_epik_Metal_State_Penalty>
0.000104041

> <b_epik_Metal_Only>
0

> <s_lp_Force_Field>
OPLS_2005

> <r_lp_Energy>
17.7295

> <b_lp_Chiralities_Consistent>
1

> <s_lp_Variant>
AV-unprocessed.smi:2703-2

> <Gold.Version>
5.8.1

> <Gold.Id.Protein>
6NUR|6NUR_protein|mol2

> <Gold.PLP.Fitness>
52.1558

> <Gold.PLP.PLP>
-48.4757

> <Gold.PLP.part.hbond>
-2.2541

> <Gold.PLP.part.metal>
0.0000

> <Gold.PLP.part.buried>
-4.4801

> <Gold.PLP.part.nonpolar>
-43.4351

> <Gold.PLP.part.repulsive>
1.5628

> <Gold.PLP.ligand.clash>
0.0000

> <Gold.PLP.ligand.torsion>
1.1763

> <Gold.PLP.Chemscore.Hbond>
2.0000

> <Gold.PLP.Chemscore.CHOScore>
0.0000

> <Gold.PLP.Chemscore.Metal>
0.0000

> <Gold.Chemscore.Hbonds>
donor molecule, donor type, donor heavy atom, donor atom, acceptor molecule, acceptor atom, score
      P1  H  7997  8010       L1    10  1.00
      P1  H 10752 10763       L1    19  0.95

> <Gold.PLP.Chemscore.Internal.Correction>
0.0328

> <Gold.Rescore>
     Score         DG    S(hbond)    S(metal)    S(lipo)     H(rot)  DE(clash)    DE(int)     intcor
     18.67     -20.12       1.61        0.00     128.57       2.26       0.26       1.19       ----

> <Gold.Chemscore.Fitness>
18.6717

> <Gold.Chemscore.DG>
-20.1209

> <Gold.Chemscore.ZeroCoef>
-5.4800

> <Gold.Chemscore.Hbond>
1.6085

> <Gold.Chemscore.Metal>
0.0000

> <Gold.Chemscore.Lipo>
128.5739

> <Gold.Chemscore.Internal_Hbond>
0.0000

> <Gold.Chemscore.DEClash>
0.2563

> <Gold.Chemscore.DEInternal>
1.1929

> <Gold.Chemscore.Rot>
2.2558

> <Gold.Chemscore.Internal.Correction>
   9.000000E+99

> <Gold.Chemscore.Hbonds>
donor molecule, donor type, donor heavy atom, donor atom, acceptor molecule, acceptor atom, score
      P1  H  7997  8010       L1    10  0.90
      P1  H 10752 10763       L1    19  0.20

> <Gold.Chemscore.Hbond.Weighted>
-5.3725

> <Gold.Chemscore.Metal.Weighted>
-0.0000

> <Gold.Chemscore.Lipo.Weighted>
-15.0431

> <Gold.Chemscore.Internal_Hbond.Weighted>
0.0000

> <Gold.Chemscore.DEClash.Weighted>
0.2563

> <Gold.Chemscore.DEInternal.Weighted>
1.1929

> <Gold.Chemscore.Rot.Weighted>
5.7748

> <Gold.Chemscore.Internal.Correction.Weighted>
   9.000000E+99

> <Gold.Protein.RotatedTorsions>
[ 6907 6896 6895 6894 ] final  166.76 input  -60.11 | X-H torsion
[ 7974 7965 7964 7962 ] final  -33.48 input  175.53 | X-H torsion
[ 8008 7997 7996 7995 ] final  127.07 input   59.86 | X-H torsion
[ 10167 10162 10161 10158 ] final   72.03 input  -65.29 | X-H torsion
[ 10718 10713 10712 10709 ] final  -95.84 input   66.30 | X-H torsion
[ 10763 10752 10751 10750 ] final  110.52 input  -60.55 | X-H torsion
[ 11005 11000 10999 10996 ] final   91.86 input  -57.11 | X-H torsion

> <Gold.Protein.ActiveResidues>
 VAL166  LYS551  ARG553  GLY616  TRP617  ASP618  TYR619  PRO620  LYS621  CYS622 
 ASP623  PHE694  ASN695  SER759  ASP760  ASP761  ALA762  ILE779  LEU786  VAL792 
 PHE793  MET794  SER795  GLU796  ALA797  LYS798  CYS799  TRP800  GLU811  SER814 

> <Gold.Protein.RotatedAtoms>
  151.8738  133.3481  159.3743 H   0  0  0  0  0  0  0  0  0  0  0  0  # atno 6907 bound_to 6896
  150.7145  134.5086  159.5605 H   0  0  0  0  0  0  0  0  0  0  0  0  # atno 6908 bound_to 6896
  152.2624  134.8020  160.0479 H   0  0  0  0  0  0  0  0  0  0  0  0  # atno 6909 bound_to 6896
  146.0907  140.5921  142.8865 H   0  0  0  0  0  0  0  0  0  0  0  0  # atno 7974 bound_to 7965
  156.2881  140.2677  156.2214 H   0  0  0  0  0  0  0  0  0  0  0  0  # atno 8008 bound_to 7997
  155.0164  140.0387  157.2438 H   0  0  0  0  0  0  0  0  0  0  0  0  # atno 8009 bound_to 7997
  154.7473  140.2736  155.6327 H   0  0  0  0  0  0  0  0  0  0  0  0  # atno 8010 bound_to 7997
  140.0397  144.5399  150.7443 H   0  0  0  0  0  0  0  0  0  0  0  0  # atno 10167 bound_to 10162
  156.0051  130.5126  150.6137 H   0  0  0  0  0  0  0  0  0  0  0  0  # atno 10718 bound_to 10713
  153.4502  135.3746  155.2279 H   0  0  0  0  0  0  0  0  0  0  0  0  # atno 10763 bound_to 10752
  154.8756  135.3884  154.4048 H   0  0  0  0  0  0  0  0  0  0  0  0  # atno 10764 bound_to 10752
  153.4606  135.7086  153.6116 H   0  0  0  0  0  0  0  0  0  0  0  0  # atno 10765 bound_to 10752
  139.8832  134.8699  156.3489 H   0  0  0  0  0  0  0  0  0  0  0  0  # atno 11005 bound_to 11000
  144.7358  140.4805  143.6904 LP  0  0  0  0  0  0  0  0  0  0  0  0  # atno 17320 bound_to 7965
  145.6044  139.1507  143.3111 LP  0  0  0  0  0  0  0  0  0  0  0  0  # atno 17321 bound_to 7965
  140.7265  143.2642  151.4100 LP  0  0  0  0  0  0  0  0  0  0  0  0  # atno 17342 bound_to 10162
  139.6022  144.1272  152.2210 LP  0  0  0  0  0  0  0  0  0  0  0  0  # atno 17343 bound_to 10162
  157.3965  131.0803  151.1347 LP  0  0  0  0  0  0  0  0  0  0  0  0  # atno 17370 bound_to 10713
  157.2022  130.6400  149.5743 LP  0  0  0  0  0  0  0  0  0  0  0  0  # atno 17371 bound_to 10713
  140.9608  133.7390  156.0398 LP  0  0  0  0  0  0  0  0  0  0  0  0  # atno 17394 bound_to 11000
  140.7992  134.3528  157.5444 LP  0  0  0  0  0  0  0  0  0  0  0  0  # atno 17395 bound_to 11000

$$$$
