AV-unprocessed.smi:400|AV-procd|sdf|2493|dock4
  -GOLD-   2262022443D 1   1.00000     0.00000
 Structure written by MMmdl.
 40 41  0  0  0  0  0  0  0  0  1 V2000
  157.3615  144.7968  168.4650 C   0  0  0  0  0  0  0  0  0  0  0  0
  155.9536  144.3373  168.0539 C   0  0  0  0  0  0  0  0  0  0  0  0
  155.9356  143.1357  167.0828 C   0  0  1  0  0  0  0  0  0  0  0  0
  155.0870  141.9842  167.6497 C   0  0  0  0  0  0  0  0  0  0  0  0
  155.4263  143.5354  165.6889 C   0  0  0  0  0  0  0  0  0  0  0  0
  155.6149  144.6808  165.2771 O   0  0  0  0  0  0  0  0  0  0  0  0
  154.7904  142.5703  164.9976 N   0  0  0  0  0  0  0  0  0  0  0  0
  154.2590  142.6341  163.6824 C   0  0  0  0  0  0  0  0  0  0  0  0
  153.6218  143.8487  163.3517 C   0  0  0  0  0  0  0  0  0  0  0  0
  153.0476  144.0069  162.0761 C   0  0  0  0  0  0  0  0  0  0  0  0
  153.1131  142.9434  161.1445 C   0  0  0  0  0  0  0  0  0  0  0  0
  152.5564  143.0257  159.8494 N   0  0  0  0  0  0  0  0  0  0  0  0
  151.6917  141.9152  159.4577 C   0  0  0  0  0  0  0  0  0  0  0  0
  151.4190  141.9561  157.9440 C   0  0  0  0  0  0  0  0  0  0  0  0
  150.8869  143.2267  157.5841 O   0  0  0  0  0  0  0  0  0  0  0  0
  151.7989  144.2814  157.8706 C   0  0  0  0  0  0  0  0  0  0  0  0
  152.0831  144.3256  159.3818 C   0  0  0  0  0  0  0  0  0  0  0  0
  153.7794  141.7707  161.5691 C   0  0  0  0  0  0  0  0  0  0  0  0
  154.3323  141.6180  162.7903 N   0  0  0  0  0  0  0  0  0  0  0  0
  157.3052  145.5996  169.2004 H   0  0  0  0  0  0  0  0  0  0  0  0
  157.9282  145.1743  167.6137 H   0  0  0  0  0  0  0  0  0  0  0  0
  157.9284  143.9787  168.9103 H   0  0  0  0  0  0  0  0  0  0  0  0
  155.4051  144.0691  168.9575 H   0  0  0  0  0  0  0  0  0  0  0  0
  155.4131  145.1789  167.6181 H   0  0  0  0  0  0  0  0  0  0  0  0
  156.9587  142.7683  166.9843 H   0  0  0  0  0  0  0  0  0  0  0  0
  155.0585  141.1357  166.9647 H   0  0  0  0  0  0  0  0  0  0  0  0
  154.0588  142.2970  167.8365 H   0  0  0  0  0  0  0  0  0  0  0  0
  155.4980  141.6258  168.5938 H   0  0  0  0  0  0  0  0  0  0  0  0
  154.6886  141.6813  165.4649 H   0  0  0  0  0  0  0  0  0  0  0  0
  153.5666  144.6557  164.0681 H   0  0  0  0  0  0  0  0  0  0  0  0
  152.5568  144.9396  161.8424 H   0  0  0  0  0  0  0  0  0  0  0  0
  152.1294  140.9509  159.7121 H   0  0  0  0  0  0  0  0  0  0  0  0
  150.7521  141.9916  160.0065 H   0  0  0  0  0  0  0  0  0  0  0  0
  152.3314  141.7579  157.3791 H   0  0  0  0  0  0  0  0  0  0  0  0
  150.7021  141.1816  157.6714 H   0  0  0  0  0  0  0  0  0  0  0  0
  152.7215  144.1421  157.3053 H   0  0  0  0  0  0  0  0  0  0  0  0
  151.3641  145.2257  157.5426 H   0  0  0  0  0  0  0  0  0  0  0  0
  151.1751  144.5965  159.9223 H   0  0  0  0  0  0  0  0  0  0  0  0
  152.8299  145.0943  159.5846 H   0  0  0  0  0  0  0  0  0  0  0  0
  153.8937  140.9240  160.9087 H   0  0  0  0  0  0  0  0  0  0  0  0
  1  2  1  0  0  0  0
  1 20  1  0  0  0  0
  1 21  1  0  0  0  0
  1 22  1  0  0  0  0
  2  3  1  0  0  0  0
  2 23  1  0  0  0  0
  2 24  1  0  0  0  0
  3  4  1  0  0  0  0
  3  5  1  0  0  0  0
  3 25  1  0  0  0  0
  4 26  1  0  0  0  0
  4 27  1  0  0  0  0
  4 28  1  0  0  0  0
  5  6  2  0  0  0  0
  5  7  1  0  0  0  0
  7  8  1  0  0  0  0
  7 29  1  0  0  0  0
  8 19  1  0  0  0  0
  8  9  2  0  0  0  0
  9 10  1  0  0  0  0
  9 30  1  0  0  0  0
 10 11  2  0  0  0  0
 10 31  1  0  0  0  0
 11 12  1  0  0  0  0
 11 18  1  0  0  0  0
 12 17  1  0  0  0  0
 12 13  1  0  0  0  0
 13 14  1  0  0  0  0
 13 32  1  0  0  0  0
 13 33  1  0  0  0  0
 14 15  1  0  0  0  0
 14 34  1  0  0  0  0
 14 35  1  0  0  0  0
 15 16  1  0  0  0  0
 16 17  1  0  0  0  0
 16 36  1  0  0  0  0
 16 37  1  0  0  0  0
 17 38  1  0  0  0  0
 17 39  1  0  0  0  0
 18 19  2  0  0  0  0
 18 40  1  0  0  0  0
M  END
> <s_m_source_file>
AV-unprocessed.smi

> <i_m_source_file_index>
400

> <i_lp_mmshare_version>
43012

> <i_f3d_flags>
0

> <s_epik_input>
W0NIM11bQ0gyXVtDQEhdKFtDSDNdKUMoPU8pW05IXWMxW2NIXVtjSF1jKFtjSF1uMSlOMltDSDJdW0NIMl1PW0NIMl1bQ0gyXTI=

> <s_epik_cmdline>
J2VwaWtfcHl0aG9uJywgJy1waCcsICc3LjAnLCAnLXRuJywgJzgnLCAnLW1hJywgJzIwMCcsICctbWV0YWxfYmluZGluZycsICctaW1hZScsICc8aW5maWxlLm1hZT4nLCAnLW9tYWUnLCAnPG91dGZpbGUubWFlPic=

> <r_lp_tautomer_probability>
1

> <r_epik_Ionization_Penalty>
0.00393323

> <r_epik_Ionization_Penalty_Charging>
0

> <r_epik_Ionization_Penalty_Neutral>
0.00393323

> <r_epik_State_Penalty>
0.00357844

> <r_epik_Charging_Adjusted_Penalty>
0.00357844

> <i_epik_Tot_Q>
0

> <i_epik_Tot_abs_Q>
0

> <r_epik_Metal_State_Penalty>
-0

> <b_epik_Metal_Only>
0

> <s_lp_Force_Field>
OPLS_2005

> <r_lp_Energy>
25.3606

> <b_lp_Chiralities_Consistent>
1

> <s_lp_Variant>
AV-unprocessed.smi:400-2

> <Gold.Version>
5.8.1

> <Gold.Id.Protein>
6NUR|6NUR_protein|mol2

> <Gold.PLP.Fitness>
42.6981

> <Gold.PLP.PLP>
-46.8407

> <Gold.PLP.part.hbond>
-2.0000

> <Gold.PLP.part.metal>
0.0000

> <Gold.PLP.part.buried>
-8.1419

> <Gold.PLP.part.nonpolar>
-35.6710

> <Gold.PLP.part.repulsive>
0.3326

> <Gold.PLP.ligand.clash>
0.6449

> <Gold.PLP.ligand.torsion>
1.9453

> <Gold.PLP.Chemscore.Hbond>
0.0000

> <Gold.PLP.Chemscore.CHOScore>
0.0000

> <Gold.PLP.Chemscore.Metal>
0.0000

> <Gold.PLP.Chemscore.Internal.Correction>
0.3930

> <Gold.Rescore>
     Score         DG    S(hbond)    S(metal)    S(lipo)     H(rot)  DE(clash)    DE(int)     intcor
     11.74     -15.77       0.00        0.00     116.46       1.30       1.20       2.83       ----

> <Gold.Chemscore.Fitness>
11.7412

> <Gold.Chemscore.DG>
-15.7670

> <Gold.Chemscore.ZeroCoef>
-5.4800

> <Gold.Chemscore.Hbond>
0.0000

> <Gold.Chemscore.Metal>
0.0000

> <Gold.Chemscore.Lipo>
116.4578

> <Gold.Chemscore.Internal_Hbond>
0.0000

> <Gold.Chemscore.DEClash>
1.1977

> <Gold.Chemscore.DEInternal>
2.8282

> <Gold.Chemscore.Rot>
1.3041

> <Gold.Chemscore.Internal.Correction>
   9.000000E+99

> <Gold.Chemscore.Hbond.Weighted>
-0.0000

> <Gold.Chemscore.Metal.Weighted>
-0.0000

> <Gold.Chemscore.Lipo.Weighted>
-13.6256

> <Gold.Chemscore.Internal_Hbond.Weighted>
0.0000

> <Gold.Chemscore.DEClash.Weighted>
1.1977

> <Gold.Chemscore.DEInternal.Weighted>
2.8282

> <Gold.Chemscore.Rot.Weighted>
3.3385

> <Gold.Chemscore.Internal.Correction.Weighted>
   9.000000E+99

> <Gold.Protein.RotatedTorsions>
[ 6907 6896 6895 6894 ] final  -71.42 input  -60.11 | X-H torsion
[ 7974 7965 7964 7962 ] final  -60.23 input  175.53 | X-H torsion
[ 8008 7997 7996 7995 ] final  -90.39 input   59.86 | X-H torsion
[ 10167 10162 10161 10158 ] final   87.36 input  -65.29 | X-H torsion
[ 10718 10713 10712 10709 ] final  135.52 input   66.30 | X-H torsion
[ 10763 10752 10751 10750 ] final  118.57 input  -60.55 | X-H torsion
[ 11005 11000 10999 10996 ] final  -51.93 input  -57.11 | X-H torsion

> <Gold.Protein.ActiveResidues>
 VAL166  LYS551  ARG553  GLY616  TRP617  ASP618  TYR619  PRO620  LYS621  CYS622 
 ASP623  PHE694  ASN695  SER759  ASP760  ASP761  ALA762  ILE779  LEU786  VAL792 
 PHE793  MET794  SER795  GLU796  ALA797  LYS798  CYS799  TRP800  GLU811  SER814 

> <Gold.Protein.RotatedAtoms>
  150.7213  134.5310  159.5700 H   0  0  0  0  0  0  0  0  0  0  0  0  # atno 6907 bound_to 6896
  152.2843  134.7790  160.0399 H   0  0  0  0  0  0  0  0  0  0  0  0  # atno 6908 bound_to 6896
  151.8425  133.3391  159.3684 H   0  0  0  0  0  0  0  0  0  0  0  0  # atno 6909 bound_to 6896
  145.8180  140.8558  143.0147 H   0  0  0  0  0  0  0  0  0  0  0  0  # atno 7974 bound_to 7965
  154.6980  140.0531  157.0429 H   0  0  0  0  0  0  0  0  0  0  0  0  # atno 8008 bound_to 7997
  155.0725  140.3201  155.4607 H   0  0  0  0  0  0  0  0  0  0  0  0  # atno 8009 bound_to 7997
  156.2750  140.2079  156.5852 H   0  0  0  0  0  0  0  0  0  0  0  0  # atno 8010 bound_to 7997
  139.8781  144.6455  150.8873 H   0  0  0  0  0  0  0  0  0  0  0  0  # atno 10167 bound_to 10162
  157.4562  131.1070  150.9975 H   0  0  0  0  0  0  0  0  0  0  0  0  # atno 10718 bound_to 10713
  153.5696  135.3505  155.2832 H   0  0  0  0  0  0  0  0  0  0  0  0  # atno 10763 bound_to 10752
  154.8684  135.4156  154.2740 H   0  0  0  0  0  0  0  0  0  0  0  0  # atno 10764 bound_to 10752
  153.3503  135.7054  153.6864 H   0  0  0  0  0  0  0  0  0  0  0  0  # atno 10765 bound_to 10752
  141.0897  133.6635  156.3950 H   0  0  0  0  0  0  0  0  0  0  0  0  # atno 11005 bound_to 11000
  144.6750  140.0492  143.7479 LP  0  0  0  0  0  0  0  0  0  0  0  0  # atno 17320 bound_to 7965
  145.9705  139.2866  143.1101 LP  0  0  0  0  0  0  0  0  0  0  0  0  # atno 17321 bound_to 7965
  140.7749  143.3608  151.1832 LP  0  0  0  0  0  0  0  0  0  0  0  0  # atno 17342 bound_to 10162
  139.7221  143.9207  152.2989 LP  0  0  0  0  0  0  0  0  0  0  0  0  # atno 17343 bound_to 10162
  157.0787  130.5894  149.5416 LP  0  0  0  0  0  0  0  0  0  0  0  0  # atno 17370 bound_to 10713
  156.0008  130.5087  150.7656 LP  0  0  0  0  0  0  0  0  0  0  0  0  # atno 17371 bound_to 10713
  140.5280  134.6240  157.5340 LP  0  0  0  0  0  0  0  0  0  0  0  0  # atno 17394 bound_to 11000
  139.9721  134.7275  156.0020 LP  0  0  0  0  0  0  0  0  0  0  0  0  # atno 17395 bound_to 11000

$$$$
