AV-unprocessed.smi:2774|AV-procd|sdf|10681|dock8
  -GOLD-   2272015123D 1   1.00000     0.00000
 Structure written by MMmdl.
 35 36  0  0  0  0  0  0  0  0  2 V2000
  148.5469  141.0445  155.5471 O   0  0  0  0  0  0  0  0  0  0  0  0
  149.9340  141.3188  155.5170 C   0  0  1  0  0  0  0  0  0  0  0  0
  150.3396  141.9639  156.8536 C   0  0  0  0  0  0  0  0  0  0  0  0
  151.1888  143.1564  156.6410 N   0  3  0  0  0  0  0  0  0  0  0  0
  151.9319  143.6292  157.8303 C   0  0  2  0  0  0  0  0  0  0  0  0
  152.3393  142.4482  158.7396 C   0  0  0  0  0  0  0  0  0  0  0  0
  153.1593  142.8918  159.9627 C   0  0  0  0  0  0  0  0  0  0  0  0
  152.3894  143.8617  160.8691 C   0  0  0  0  0  0  0  0  0  0  0  0
  151.9690  145.3856  159.9833 S   0  0  0  0  0  0  0  0  0  0  0  0
  151.0663  144.6469  158.5948 C   0  0  0  0  0  0  0  0  0  0  0  0
  150.7495  140.0651  155.2418 C   0  0  0  0  0  0  0  0  0  0  0  0
  151.8593  139.7417  156.0505 C   0  0  0  0  0  0  0  0  0  0  0  0
  152.5834  138.5671  155.7628 C   0  0  0  0  0  0  0  0  0  0  0  0
  152.2681  137.7309  154.7510 N   0  0  0  0  0  0  0  0  0  0  0  0
  151.2043  138.0434  153.9810 C   0  0  0  0  0  0  0  0  0  0  0  0
  150.4138  139.1925  154.1837 C   0  0  0  0  0  0  0  0  0  0  0  0
  148.3780  140.2935  154.9977 H   0  0  0  0  0  0  0  0  0  0  0  0
  150.1081  142.0284  154.7066 H   0  0  0  0  0  0  0  0  0  0  0  0
  149.4499  142.2290  157.4249 H   0  0  0  0  0  0  0  0  0  0  0  0
  150.8991  141.2424  157.4506 H   0  0  0  0  0  0  0  0  0  0  0  0
  151.8667  142.9162  155.9321 H   0  0  0  0  0  0  0  0  0  0  0  0
  152.8295  144.1442  157.4837 H   0  0  0  0  0  0  0  0  0  0  0  0
  151.4487  141.9135  159.0729 H   0  0  0  0  0  0  0  0  0  0  0  0
  152.9334  141.7269  158.1789 H   0  0  0  0  0  0  0  0  0  0  0  0
  153.4449  142.0125  160.5409 H   0  0  0  0  0  0  0  0  0  0  0  0
  154.0907  143.3552  159.6345 H   0  0  0  0  0  0  0  0  0  0  0  0
  151.4732  143.3969  161.2350 H   0  0  0  0  0  0  0  0  0  0  0  0
  152.9887  144.1193  161.7427 H   0  0  0  0  0  0  0  0  0  0  0  0
  150.7505  145.4525  157.9311 H   0  0  0  0  0  0  0  0  0  0  0  0
  150.1602  144.1733  158.9750 H   0  0  0  0  0  0  0  0  0  0  0  0
  152.1546  140.3752  156.8741 H   0  0  0  0  0  0  0  0  0  0  0  0
  153.4380  138.2919  156.3631 H   0  0  0  0  0  0  0  0  0  0  0  0
  150.9746  137.3565  153.1799 H   0  0  0  0  0  0  0  0  0  0  0  0
  149.5705  139.3939  153.5391 H   0  0  0  0  0  0  0  0  0  0  0  0
  150.6153  143.9105  156.2902 H   0  0  0  0  0  0  0  0  0  0  0  0
  1  2  1  0  0  0  0
  1 17  1  0  0  0  0
  2  3  1  0  0  0  0
  2 11  1  0  0  0  0
  2 18  1  0  0  0  0
  3  4  1  0  0  0  0
  3 19  1  0  0  0  0
  3 20  1  0  0  0  0
  4  5  1  0  0  0  0
  4 21  1  0  0  0  0
  4 35  1  0  0  0  0
  5 10  1  0  0  0  0
  5  6  1  0  0  0  0
  5 22  1  0  0  0  0
  6  7  1  0  0  0  0
  6 23  1  0  0  0  0
  6 24  1  0  0  0  0
  7  8  1  0  0  0  0
  7 25  1  0  0  0  0
  7 26  1  0  0  0  0
  8  9  1  0  0  0  0
  8 27  1  0  0  0  0
  8 28  1  0  0  0  0
  9 10  1  0  0  0  0
 10 29  1  0  0  0  0
 10 30  1  0  0  0  0
 11 16  1  0  0  0  0
 11 12  2  0  0  0  0
 12 13  1  0  0  0  0
 12 31  1  0  0  0  0
 13 14  2  0  0  0  0
 13 32  1  0  0  0  0
 14 15  1  0  0  0  0
 15 16  2  0  0  0  0
 15 33  1  0  0  0  0
 16 34  1  0  0  0  0
M  CHG  1   4   1
M  END
> <s_m_source_file>
AV-unprocessed.smi

> <i_m_source_file_index>
2774

> <i_lp_mmshare_version>
43012

> <i_f3d_flags>
0

> <s_epik_input>
W2NIXTFbY0hdbltjSF1bY0hdYzFbQ0BIXShbT0hdKVtDSDJdW05IXVtDQEBIXTJbQ0gyXVtDSDJdW0NIMl1TW0NIMl0y

> <s_epik_cmdline>
J2VwaWtfcHl0aG9uJywgJy1waCcsICc3LjAnLCAnLXRuJywgJzgnLCAnLW1hJywgJzIwMCcsICctbWV0YWxfYmluZGluZycsICctaW1hZScsICc8aW5maWxlLm1hZT4nLCAnLW9tYWUnLCAnPG91dGZpbGUubWFlPic=

> <r_epik_Ionization_Penalty>
0.0205977

> <r_epik_Ionization_Penalty_Charging>
0.0185619

> <r_epik_Ionization_Penalty_Neutral>
0.00203589

> <r_epik_State_Penalty>
0.0147768

> <r_epik_Charging_Adjusted_Penalty>
0.0333386

> <i_epik_Tot_Q>
1

> <i_epik_Tot_abs_Q>
1

> <r_epik_Metal_State_Penalty>
0.0152254

> <b_epik_Metal_Only>
0

> <s_lp_Force_Field>
OPLS_2005

> <r_lp_Energy>
10.436

> <b_lp_Chiralities_Consistent>
1

> <s_lp_Variant>
AV-unprocessed.smi:2774-2

> <Gold.Version>
5.8.1

> <Gold.Id.Protein>
6NUR|6NUR_protein|mol2

> <Gold.PLP.Fitness>
49.3911

> <Gold.PLP.PLP>
-41.3516

> <Gold.PLP.part.hbond>
-2.0000

> <Gold.PLP.part.metal>
0.0000

> <Gold.PLP.part.buried>
-3.6143

> <Gold.PLP.part.nonpolar>
-36.7973

> <Gold.PLP.part.repulsive>
0.1128

> <Gold.PLP.ligand.clash>
0.0000

> <Gold.PLP.ligand.torsion>
1.2542

> <Gold.PLP.Chemscore.Hbond>
2.4904

> <Gold.PLP.Chemscore.CHOScore>
1.0167

> <Gold.PLP.Chemscore.Metal>
0.0000

> <Gold.Chemscore.Hbonds>
donor molecule, donor type, donor heavy atom, donor atom, acceptor molecule, acceptor atom, score
      L1  H     4    35       P1  8028  2.00
      P1  H 10752 10765       L1    14  0.34
      L1  C    15    33       P1  7948  0.05
      L1  C    15    33       P1  7949  1.00

> <Gold.PLP.Chemscore.Internal.Correction>
0.0266

> <Gold.Rescore>
     Score         DG    S(hbond)    S(metal)    S(lipo)     H(rot)  DE(clash)    DE(int)     intcor
     18.71     -19.83       1.70        0.00     117.25       1.97       0.02       1.10       ----

> <Gold.Chemscore.Fitness>
18.7132

> <Gold.Chemscore.DG>
-19.8304

> <Gold.Chemscore.ZeroCoef>
-5.4800

> <Gold.Chemscore.Hbond>
1.6981

> <Gold.Chemscore.Metal>
0.0000

> <Gold.Chemscore.Lipo>
117.2523

> <Gold.Chemscore.Internal_Hbond>
0.0000

> <Gold.Chemscore.DEClash>
0.0202

> <Gold.Chemscore.DEInternal>
1.0970

> <Gold.Chemscore.Rot>
1.9686

> <Gold.Chemscore.Internal.Correction>
   9.000000E+99

> <Gold.Chemscore.Hbonds>
donor molecule, donor type, donor heavy atom, donor atom, acceptor molecule, acceptor atom, score
      L1  H     4    35       P1  8028  0.95
      P1  H 10752 10765       L1    14  0.31

> <Gold.Chemscore.Hbond.Weighted>
-5.6715

> <Gold.Chemscore.Metal.Weighted>
-0.0000

> <Gold.Chemscore.Lipo.Weighted>
-13.7185

> <Gold.Chemscore.Internal_Hbond.Weighted>
0.0000

> <Gold.Chemscore.DEClash.Weighted>
0.0202

> <Gold.Chemscore.DEInternal.Weighted>
1.0970

> <Gold.Chemscore.Rot.Weighted>
5.0396

> <Gold.Chemscore.Internal.Correction.Weighted>
   9.000000E+99

> <Gold.Protein.RotatedTorsions>
[ 6907 6896 6895 6894 ] final  130.41 input  -60.11 | X-H torsion
[ 7974 7965 7964 7962 ] final   67.52 input  175.53 | X-H torsion
[ 8008 7997 7996 7995 ] final -133.38 input   59.86 | X-H torsion
[ 10167 10162 10161 10158 ] final   -2.48 input  -65.29 | X-H torsion
[ 10718 10713 10712 10709 ] final   76.38 input   66.30 | X-H torsion
[ 10763 10752 10751 10750 ] final  178.89 input  -60.55 | X-H torsion
[ 11005 11000 10999 10996 ] final  129.90 input  -57.11 | X-H torsion

> <Gold.Protein.ActiveResidues>
 VAL166  LYS551  ARG553  GLY616  TRP617  ASP618  TYR619  PRO620  LYS621  CYS622 
 ASP623  PHE694  ASN695  SER759  ASP760  ASP761  ALA762  ILE779  LEU786  VAL792 
 PHE793  MET794  SER795  GLU796  ALA797  LYS798  CYS799  TRP800  GLU811  SER814 

> <Gold.Protein.RotatedAtoms>
  152.3529  133.6201  159.5957 H   0  0  0  0  0  0  0  0  0  0  0  0  # atno 6907 bound_to 6896
  150.7549  133.9546  159.3505 H   0  0  0  0  0  0  0  0  0  0  0  0  # atno 6908 bound_to 6896
  151.7395  135.0858  160.0364 H   0  0  0  0  0  0  0  0  0  0  0  0  # atno 6909 bound_to 6896
  145.8137  139.3046  143.1084 H   0  0  0  0  0  0  0  0  0  0  0  0  # atno 7974 bound_to 7965
  155.3445  140.0474  157.3045 H   0  0  0  0  0  0  0  0  0  0  0  0  # atno 8008 bound_to 7997
  154.5260  140.2241  155.8854 H   0  0  0  0  0  0  0  0  0  0  0  0  # atno 8009 bound_to 7997
  156.1739  140.3089  155.9030 H   0  0  0  0  0  0  0  0  0  0  0  0  # atno 8010 bound_to 7997
  140.6852  143.6653  150.8232 H   0  0  0  0  0  0  0  0  0  0  0  0  # atno 10167 bound_to 10162
  157.6671  130.9772  150.1489 H   0  0  0  0  0  0  0  0  0  0  0  0  # atno 10718 bound_to 10713
  154.5136  135.2790  155.1322 H   0  0  0  0  0  0  0  0  0  0  0  0  # atno 10763 bound_to 10752
  154.2907  135.6267  153.5388 H   0  0  0  0  0  0  0  0  0  0  0  0  # atno 10764 bound_to 10752
  152.9923  135.5673  154.5607 H   0  0  0  0  0  0  0  0  0  0  0  0  # atno 10765 bound_to 10752
  139.9641  134.9595  156.9216 H   0  0  0  0  0  0  0  0  0  0  0  0  # atno 11005 bound_to 11000
  145.9750  140.8730  143.0143 LP  0  0  0  0  0  0  0  0  0  0  0  0  # atno 17320 bound_to 7965
  144.6754  140.1999  143.7388 LP  0  0  0  0  0  0  0  0  0  0  0  0  # atno 17321 bound_to 7965
  140.0359  143.5396  152.2740 LP  0  0  0  0  0  0  0  0  0  0  0  0  # atno 17342 bound_to 10162
  139.6205  144.7628  151.2750 LP  0  0  0  0  0  0  0  0  0  0  0  0  # atno 17343 bound_to 10162
  156.2293  130.3680  149.8463 LP  0  0  0  0  0  0  0  0  0  0  0  0  # atno 17370 bound_to 10713
  156.6294  130.8659  151.3492 LP  0  0  0  0  0  0  0  0  0  0  0  0  # atno 17371 bound_to 10713
  140.5434  134.0697  155.7348 LP  0  0  0  0  0  0  0  0  0  0  0  0  # atno 17394 bound_to 11000
  141.1320  133.9285  157.2514 LP  0  0  0  0  0  0  0  0  0  0  0  0  # atno 17395 bound_to 11000

$$$$
