AV-unprocessed.smi:3122|AV-procd|sdf|11898|dock5
  -GOLD-   2272017283D 1   1.00000     0.00000
 Structure written by MMmdl.
 29 30  0  0  0  0  0  0  0  0  1 V2000
  154.0645  141.0461  161.2145 C   0  0  0  0  0  0  0  0  0  0  0  0
  153.3759  142.3022  160.6601 C   0  0  0  0  0  0  0  0  0  0  0  0
  152.7167  143.1397  161.7649 C   0  0  0  0  0  0  0  0  0  0  0  0
  152.4063  141.9764  159.5680 C   0  0  0  0  0  0  0  0  0  0  0  0
  151.1153  142.3139  159.4976 N   0  0  0  0  0  0  0  0  0  0  0  0
  150.6805  141.8850  158.2640 N   0  0  0  0  0  0  0  0  0  0  0  0
  151.7449  141.3339  157.6735 C   0  0  0  0  0  0  0  0  0  0  0  0
  151.8389  140.7723  156.2914 C   0  0  2  0  0  0  0  0  0  0  0  0
  150.4640  140.6820  155.6019 C   0  0  0  0  0  0  0  0  0  0  0  0
  150.5962  140.0510  154.2895 N   0  0  0  0  0  0  0  0  0  0  0  0
  151.2489  138.7464  154.3931 C   0  0  0  0  0  0  0  0  0  0  0  0
  152.5998  138.8782  155.1194 C   0  0  0  0  0  0  0  0  0  0  0  0
  152.3984  139.4661  156.4002 O   0  0  0  0  0  0  0  0  0  0  0  0
  152.8711  141.3983  158.4299 O   0  0  0  0  0  0  0  0  0  0  0  0
  154.5729  140.4962  160.4219 H   0  0  0  0  0  0  0  0  0  0  0  0
  153.3464  140.3709  161.6814 H   0  0  0  0  0  0  0  0  0  0  0  0
  154.8110  141.3067  161.9652 H   0  0  0  0  0  0  0  0  0  0  0  0
  154.1570  142.9186  160.2135 H   0  0  0  0  0  0  0  0  0  0  0  0
  152.2979  144.0616  161.3598 H   0  0  0  0  0  0  0  0  0  0  0  0
  153.4388  143.4153  162.5338 H   0  0  0  0  0  0  0  0  0  0  0  0
  151.9076  142.5908  162.2483 H   0  0  0  0  0  0  0  0  0  0  0  0
  152.5106  141.4091  155.7128 H   0  0  0  0  0  0  0  0  0  0  0  0
  149.7782  140.1034  156.2222 H   0  0  0  0  0  0  0  0  0  0  0  0
  150.0298  141.6766  155.4969 H   0  0  0  0  0  0  0  0  0  0  0  0
  149.6778  139.9395  153.8717 H   0  0  0  0  0  0  0  0  0  0  0  0
  150.6074  138.0526  154.9378 H   0  0  0  0  0  0  0  0  0  0  0  0
  151.3972  138.3219  153.4001 H   0  0  0  0  0  0  0  0  0  0  0  0
  153.0518  137.8952  155.2510 H   0  0  0  0  0  0  0  0  0  0  0  0
  153.3018  139.4757  154.5354 H   0  0  0  0  0  0  0  0  0  0  0  0
  1  2  1  0  0  0  0
  1 15  1  0  0  0  0
  1 16  1  0  0  0  0
  1 17  1  0  0  0  0
  2  3  1  0  0  0  0
  2  4  1  0  0  0  0
  2 18  1  0  0  0  0
  3 19  1  0  0  0  0
  3 20  1  0  0  0  0
  3 21  1  0  0  0  0
  4 14  1  0  0  0  0
  4  5  2  0  0  0  0
  5  6  1  0  0  0  0
  6  7  2  0  0  0  0
  7  8  1  0  0  0  0
  7 14  1  0  0  0  0
  8 13  1  0  0  0  0
  8  9  1  0  0  0  0
  8 22  1  0  0  0  0
  9 10  1  0  0  0  0
  9 23  1  0  0  0  0
  9 24  1  0  0  0  0
 10 11  1  0  0  0  0
 10 25  1  0  0  0  0
 11 12  1  0  0  0  0
 11 26  1  0  0  0  0
 11 27  1  0  0  0  0
 12 13  1  0  0  0  0
 12 28  1  0  0  0  0
 12 29  1  0  0  0  0
M  END
> <s_m_source_file>
AV-unprocessed.smi

> <i_m_source_file_index>
3122

> <i_lp_mmshare_version>
43012

> <i_f3d_flags>
0

> <s_epik_input>
W0NIM11bQ0hdKFtDSDNdKWMxbm5jKG8xKVtDQEBIXTJbQ0gyXVtOSF1bQ0gyXVtDSDJdTzI=

> <s_epik_cmdline>
J2VwaWtfcHl0aG9uJywgJy1waCcsICc3LjAnLCAnLXRuJywgJzgnLCAnLW1hJywgJzIwMCcsICctbWV0YWxfYmluZGluZycsICctaW1hZScsICc8aW5maWxlLm1hZT4nLCAnLW9tYWUnLCAnPG91dGZpbGUubWFlPic=

> <r_lp_tautomer_probability>
1

> <r_epik_Ionization_Penalty>
1.64488

> <r_epik_Ionization_Penalty_Charging>
0

> <r_epik_Ionization_Penalty_Neutral>
1.64488

> <r_epik_State_Penalty>
1.74649

> <r_epik_Charging_Adjusted_Penalty>
1.74649

> <i_epik_Tot_Q>
0

> <i_epik_Tot_abs_Q>
0

> <r_epik_Metal_State_Penalty>
1.74649

> <b_epik_Metal_Only>
0

> <s_lp_Force_Field>
OPLS_2005

> <r_lp_Energy>
11.6401

> <b_lp_Chiralities_Consistent>
1

> <s_lp_Variant>
AV-unprocessed.smi:3122-3

> <Gold.Version>
5.8.1

> <Gold.Id.Protein>
6NUR|6NUR_protein|mol2

> <Gold.PLP.Fitness>
36.0464

> <Gold.PLP.PLP>
-30.7259

> <Gold.PLP.part.hbond>
-3.1982

> <Gold.PLP.part.metal>
0.0000

> <Gold.PLP.part.buried>
-2.3430

> <Gold.PLP.part.nonpolar>
-23.5553

> <Gold.PLP.part.repulsive>
0.0273

> <Gold.PLP.ligand.clash>
0.0000

> <Gold.PLP.ligand.torsion>
0.1481

> <Gold.PLP.Chemscore.Hbond>
1.8287

> <Gold.PLP.Chemscore.CHOScore>
0.0000

> <Gold.PLP.Chemscore.Metal>
0.0000

> <Gold.Chemscore.Hbonds>
donor molecule, donor type, donor heavy atom, donor atom, acceptor molecule, acceptor atom, score
      P1  H  7989  7998       L1    10  1.00
      P1  H  7997  8010       L1    13  0.54

> <Gold.PLP.Chemscore.Internal.Correction>
0.1306

> <Gold.Rescore>
     Score         DG    S(hbond)    S(metal)    S(lipo)     H(rot)  DE(clash)    DE(int)     intcor
     10.74     -10.85       0.35        0.00      63.07       1.24       0.04       0.07       ----

> <Gold.Chemscore.Fitness>
10.7368

> <Gold.Chemscore.DG>
-10.8508

> <Gold.Chemscore.ZeroCoef>
-5.4800

> <Gold.Chemscore.Hbond>
0.3509

> <Gold.Chemscore.Metal>
0.0000

> <Gold.Chemscore.Lipo>
63.0660

> <Gold.Chemscore.Internal_Hbond>
0.0000

> <Gold.Chemscore.DEClash>
0.0398

> <Gold.Chemscore.DEInternal>
0.0741

> <Gold.Chemscore.Rot>
1.2422

> <Gold.Chemscore.Internal.Correction>
   9.000000E+99

> <Gold.Chemscore.Hbonds>
donor molecule, donor type, donor heavy atom, donor atom, acceptor molecule, acceptor atom, score
      P1  H  7989  7998       L1    10  0.20
      P1  H  7997  8010       L1    13  0.02

> <Gold.Chemscore.Hbond.Weighted>
-1.1720

> <Gold.Chemscore.Metal.Weighted>
-0.0000

> <Gold.Chemscore.Lipo.Weighted>
-7.3787

> <Gold.Chemscore.Internal_Hbond.Weighted>
0.0000

> <Gold.Chemscore.DEClash.Weighted>
0.0398

> <Gold.Chemscore.DEInternal.Weighted>
0.0741

> <Gold.Chemscore.Rot.Weighted>
3.1799

> <Gold.Chemscore.Internal.Correction.Weighted>
   9.000000E+99

> <Gold.Protein.RotatedTorsions>
[ 6907 6896 6895 6894 ] final   -3.65 input  -60.11 | X-H torsion
[ 7974 7965 7964 7962 ] final  -49.29 input  175.53 | X-H torsion
[ 8008 7997 7996 7995 ] final   52.23 input   59.86 | X-H torsion
[ 10167 10162 10161 10158 ] final  -76.91 input  -65.29 | X-H torsion
[ 10718 10713 10712 10709 ] final   17.86 input   66.30 | X-H torsion
[ 10763 10752 10751 10750 ] final   50.18 input  -60.55 | X-H torsion
[ 11005 11000 10999 10996 ] final  -25.67 input  -57.11 | X-H torsion

> <Gold.Protein.ActiveResidues>
 VAL166  LYS551  ARG553  GLY616  TRP617  ASP618  TYR619  PRO620  LYS621  CYS622 
 ASP623  PHE694  ASN695  SER759  ASP760  ASP761  ALA762  ILE779  LEU786  VAL792 
 PHE793  MET794  SER795  GLU796  ALA797  LYS798  CYS799  TRP800  GLU811  SER814 

> <Gold.Protein.RotatedAtoms>
  151.5103  135.1065  159.9851 H   0  0  0  0  0  0  0  0  0  0  0  0  # atno 6907 bound_to 6896
  152.4664  133.7929  159.6922 H   0  0  0  0  0  0  0  0  0  0  0  0  # atno 6908 bound_to 6896
  150.8650  133.7524  159.3005 H   0  0  0  0  0  0  0  0  0  0  0  0  # atno 6909 bound_to 6896
  145.9421  140.7652  142.9547 H   0  0  0  0  0  0  0  0  0  0  0  0  # atno 7974 bound_to 7965
  155.4484  140.3457  155.4298 H   0  0  0  0  0  0  0  0  0  0  0  0  # atno 8008 bound_to 7997
  156.1235  140.1494  156.9200 H   0  0  0  0  0  0  0  0  0  0  0  0  # atno 8009 bound_to 7997
  154.4841  140.0861  156.7425 H   0  0  0  0  0  0  0  0  0  0  0  0  # atno 8010 bound_to 7997
  140.4816  143.2401  151.8049 H   0  0  0  0  0  0  0  0  0  0  0  0  # atno 10167 bound_to 10162
  157.0882  130.6416  149.5842 H   0  0  0  0  0  0  0  0  0  0  0  0  # atno 10718 bound_to 10713
  152.9785  135.5887  154.4210 H   0  0  0  0  0  0  0  0  0  0  0  0  # atno 10763 bound_to 10752
  154.3835  135.2767  155.2199 H   0  0  0  0  0  0  0  0  0  0  0  0  # atno 10764 bound_to 10752
  154.4103  135.6083  153.6003 H   0  0  0  0  0  0  0  0  0  0  0  0  # atno 10765 bound_to 10752
  140.8959  133.7557  156.0481 H   0  0  0  0  0  0  0  0  0  0  0  0  # atno 11005 bound_to 11000
  144.6781  140.2297  143.7357 LP  0  0  0  0  0  0  0  0  0  0  0  0  # atno 17320 bound_to 7965
  145.8285  139.2075  143.1896 LP  0  0  0  0  0  0  0  0  0  0  0  0  # atno 17321 bound_to 7965
  139.4834  144.4765  151.9360 LP  0  0  0  0  0  0  0  0  0  0  0  0  # atno 17342 bound_to 10162
  140.3851  144.2687  150.5905 LP  0  0  0  0  0  0  0  0  0  0  0  0  # atno 17343 bound_to 10162
  155.9905  130.4956  150.7260 LP  0  0  0  0  0  0  0  0  0  0  0  0  # atno 17370 bound_to 10713
  157.4743  131.0896  151.0607 LP  0  0  0  0  0  0  0  0  0  0  0  0  # atno 17371 bound_to 10713
  140.8290  134.3201  157.5355 LP  0  0  0  0  0  0  0  0  0  0  0  0  # atno 17394 bound_to 11000
  139.8735  134.9352  156.3628 LP  0  0  0  0  0  0  0  0  0  0  0  0  # atno 17395 bound_to 11000

$$$$
