AV-unprocessed.smi:2782|AV-procd|sdf|10722|dock2
  -GOLD-   2272015163D 1   1.00000     0.00000
 Structure written by MMmdl.
 38 39  0  0  0  0  0  0  0  0  1 V2000
  146.1288  142.5378  153.8585 C   0  0  0  0  0  0  0  0  0  0  0  0
  147.1563  141.4347  154.0078 C   0  0  0  0  0  0  0  0  0  0  0  0
  146.8885  140.1528  153.4902 C   0  0  0  0  0  0  0  0  0  0  0  0
  147.8439  139.1290  153.6214 C   0  0  0  0  0  0  0  0  0  0  0  0
  149.0669  139.3813  154.2722 C   0  0  0  0  0  0  0  0  0  0  0  0
  150.2245  138.1072  154.4112 Cl  0  0  0  0  0  0  0  0  0  0  0  0
  149.3475  140.6593  154.8049 C   0  0  0  0  0  0  0  0  0  0  0  0
  150.5589  140.8270  155.4419 O   0  0  0  0  0  0  0  0  0  0  0  0
  150.7581  141.9900  156.2355 C   0  0  0  0  0  0  0  0  0  0  0  0
  150.3563  141.6830  157.6899 C   0  0  1  0  0  0  0  0  0  0  0  0
  148.9679  141.4228  157.7234 O   0  0  0  0  0  0  0  0  0  0  0  0
  151.0872  140.4645  158.3001 C   0  0  0  0  0  0  0  0  0  0  0  0
  152.1829  140.8447  159.2001 N   0  0  0  0  0  0  0  0  0  0  0  0
  151.8729  141.8815  160.0652 N   0  0  0  0  0  0  0  0  0  0  0  0
  152.7310  142.3036  160.9345 C   0  0  0  0  0  0  0  0  0  0  0  0
  152.2986  143.4028  161.8580 C   0  0  0  0  0  0  0  0  0  0  0  0
  154.0503  141.7037  160.9847 C   0  0  0  0  0  0  0  0  0  0  0  0
  154.3505  140.6947  160.1389 C   0  0  0  0  0  0  0  0  0  0  0  0
  153.3805  140.1902  159.1694 C   0  0  0  0  0  0  0  0  0  0  0  0
  153.6172  139.2607  158.3985 O   0  0  0  0  0  0  0  0  0  0  0  0
  148.3817  141.6876  154.6585 C   0  0  0  0  0  0  0  0  0  0  0  0
  145.1240  142.1517  154.0325 H   0  0  0  0  0  0  0  0  0  0  0  0
  146.1679  142.9541  152.8517 H   0  0  0  0  0  0  0  0  0  0  0  0
  146.3082  143.3440  154.5705 H   0  0  0  0  0  0  0  0  0  0  0  0
  145.9528  139.9523  152.9890 H   0  0  0  0  0  0  0  0  0  0  0  0
  147.6378  138.1474  153.2201 H   0  0  0  0  0  0  0  0  0  0  0  0
  151.8141  142.2611  156.1835 H   0  0  0  0  0  0  0  0  0  0  0  0
  150.1743  142.8362  155.8697 H   0  0  0  0  0  0  0  0  0  0  0  0
  150.5249  142.5678  158.3048 H   0  0  0  0  0  0  0  0  0  0  0  0
  148.5421  141.9774  157.0878 H   0  0  0  0  0  0  0  0  0  0  0  0
  150.3748  139.8360  158.8379 H   0  0  0  0  0  0  0  0  0  0  0  0
  151.4742  139.8321  157.4985 H   0  0  0  0  0  0  0  0  0  0  0  0
  152.0846  144.3158  161.3017 H   0  0  0  0  0  0  0  0  0  0  0  0
  153.0735  143.6297  162.5906 H   0  0  0  0  0  0  0  0  0  0  0  0
  151.3982  143.1181  162.4037 H   0  0  0  0  0  0  0  0  0  0  0  0
  154.7778  142.0628  161.6976 H   0  0  0  0  0  0  0  0  0  0  0  0
  155.3320  140.2458  160.1800 H   0  0  0  0  0  0  0  0  0  0  0  0
  148.5619  142.6822  155.0369 H   0  0  0  0  0  0  0  0  0  0  0  0
  1  2  1  0  0  0  0
  1 22  1  0  0  0  0
  1 23  1  0  0  0  0
  1 24  1  0  0  0  0
  2 21  1  0  0  0  0
  2  3  2  0  0  0  0
  3  4  1  0  0  0  0
  3 25  1  0  0  0  0
  4  5  2  0  0  0  0
  4 26  1  0  0  0  0
  5  6  1  0  0  0  0
  5  7  1  0  0  0  0
  7  8  1  0  0  0  0
  7 21  2  0  0  0  0
  8  9  1  0  0  0  0
  9 10  1  0  0  0  0
  9 27  1  0  0  0  0
  9 28  1  0  0  0  0
 10 11  1  0  0  0  0
 10 12  1  0  0  0  0
 10 29  1  0  0  0  0
 11 30  1  0  0  0  0
 12 13  1  0  0  0  0
 12 31  1  0  0  0  0
 12 32  1  0  0  0  0
 13 19  1  0  0  0  0
 13 14  1  0  0  0  0
 14 15  2  0  0  0  0
 15 16  1  0  0  0  0
 15 17  1  0  0  0  0
 16 33  1  0  0  0  0
 16 34  1  0  0  0  0
 16 35  1  0  0  0  0
 17 18  2  0  0  0  0
 17 36  1  0  0  0  0
 18 19  1  0  0  0  0
 18 37  1  0  0  0  0
 19 20  2  0  0  0  0
 21 38  1  0  0  0  0
M  END
> <s_m_source_file>
AV-unprocessed.smi

> <i_m_source_file_index>
2782

> <i_lp_mmshare_version>
43012

> <i_f3d_flags>
0

> <s_epik_input>
W0NIM11jMVtjSF1bY0hdYyhDbCljKFtjSF0xKU9bQ0gyXVtDQEhdKFtPSF0pW0NIMl1uMm5jKFtDSDNdKVtjSF1bY0hdYzI9Tw==

> <s_epik_cmdline>
J2VwaWtfcHl0aG9uJywgJy1waCcsICc3LjAnLCAnLXRuJywgJzgnLCAnLW1hJywgJzIwMCcsICctbWV0YWxfYmluZGluZycsICctaW1hZScsICc8aW5maWxlLm1hZT4nLCAnLW9tYWUnLCAnPG91dGZpbGUubWFlPic=

> <r_lp_tautomer_probability>
1

> <r_epik_Ionization_Penalty>
2.96353e-07

> <r_epik_Ionization_Penalty_Charging>
1.79179e-07

> <r_epik_Ionization_Penalty_Neutral>
1.17174e-07

> <r_epik_State_Penalty>
-0

> <r_epik_Charging_Adjusted_Penalty>
1.79179e-07

> <i_epik_Tot_Q>
0

> <i_epik_Tot_abs_Q>
0

> <r_epik_Metal_State_Penalty>
-0

> <b_epik_Metal_Only>
0

> <s_lp_Force_Field>
OPLS_2005

> <r_lp_Energy>
25.2407

> <b_lp_Chiralities_Consistent>
1

> <s_lp_Variant>
AV-unprocessed.smi:2782-2

> <Gold.Version>
5.8.1

> <Gold.Id.Protein>
6NUR|6NUR_protein|mol2

> <Gold.PLP.Fitness>
48.6641

> <Gold.PLP.PLP>
-47.0902

> <Gold.PLP.part.hbond>
-2.1827

> <Gold.PLP.part.metal>
0.0000

> <Gold.PLP.part.buried>
-3.6432

> <Gold.PLP.part.nonpolar>
-41.0976

> <Gold.PLP.part.repulsive>
0.0637

> <Gold.PLP.ligand.clash>
0.0000

> <Gold.PLP.ligand.torsion>
1.2013

> <Gold.PLP.Chemscore.Hbond>
1.2917

> <Gold.PLP.Chemscore.CHOScore>
0.0000

> <Gold.PLP.Chemscore.Metal>
0.0000

> <Gold.Chemscore.Hbonds>
donor molecule, donor type, donor heavy atom, donor atom, acceptor molecule, acceptor atom, score
      P1  H  7989  7998       L1     8  0.25
      P1  H  7997  8009       L1    20  1.00

> <Gold.PLP.Chemscore.Internal.Correction>
0.1014

> <Gold.Rescore>
     Score         DG    S(hbond)    S(metal)    S(lipo)     H(rot)  DE(clash)    DE(int)     intcor
     14.87     -16.53       0.96        0.00     115.50       2.22       0.44       1.22       ----

> <Gold.Chemscore.Fitness>
14.8726

> <Gold.Chemscore.DG>
-16.5306

> <Gold.Chemscore.ZeroCoef>
-5.4800

> <Gold.Chemscore.Hbond>
0.9639

> <Gold.Chemscore.Metal>
0.0000

> <Gold.Chemscore.Lipo>
115.5044

> <Gold.Chemscore.Internal_Hbond>
0.0000

> <Gold.Chemscore.DEClash>
0.4386

> <Gold.Chemscore.DEInternal>
1.2193

> <Gold.Chemscore.Rot>
2.2199

> <Gold.Chemscore.Internal.Correction>
   9.000000E+99

> <Gold.Chemscore.Hbonds>
donor molecule, donor type, donor heavy atom, donor atom, acceptor molecule, acceptor atom, score
      P1  H  7989  7998       L1     8  0.01
      P1  H  7997  8009       L1    20  0.52

> <Gold.Chemscore.Hbond.Weighted>
-3.2194

> <Gold.Chemscore.Metal.Weighted>
-0.0000

> <Gold.Chemscore.Lipo.Weighted>
-13.5140

> <Gold.Chemscore.Internal_Hbond.Weighted>
0.0000

> <Gold.Chemscore.DEClash.Weighted>
0.4386

> <Gold.Chemscore.DEInternal.Weighted>
1.2193

> <Gold.Chemscore.Rot.Weighted>
5.6829

> <Gold.Chemscore.Internal.Correction.Weighted>
   9.000000E+99

> <Gold.Protein.RotatedTorsions>
[ 6907 6896 6895 6894 ] final   -7.64 input  -60.11 | X-H torsion
[ 7974 7965 7964 7962 ] final  138.71 input  175.53 | X-H torsion
[ 8008 7997 7996 7995 ] final  165.67 input   59.86 | X-H torsion
[ 10167 10162 10161 10158 ] final -123.16 input  -65.29 | X-H torsion
[ 10718 10713 10712 10709 ] final  -47.15 input   66.30 | X-H torsion
[ 10763 10752 10751 10750 ] final   41.03 input  -60.55 | X-H torsion
[ 11005 11000 10999 10996 ] final  143.87 input  -57.11 | X-H torsion

> <Gold.Protein.ActiveResidues>
 VAL166  LYS551  ARG553  GLY616  TRP617  ASP618  TYR619  PRO620  LYS621  CYS622 
 ASP623  PHE694  ASN695  SER759  ASP760  ASP761  ALA762  ILE779  LEU786  VAL792 
 PHE793  MET794  SER795  GLU796  ALA797  LYS798  CYS799  TRP800  GLU811  SER814 

> <Gold.Protein.RotatedAtoms>
  151.4464  135.1025  159.9684 H   0  0  0  0  0  0  0  0  0  0  0  0  # atno 6907 bound_to 6896
  152.4904  133.8481  159.7198 H   0  0  0  0  0  0  0  0  0  0  0  0  # atno 6908 bound_to 6896
  150.9052  133.7007  159.2896 H   0  0  0  0  0  0  0  0  0  0  0  0  # atno 6909 bound_to 6896
  144.9347  139.5003  143.5601 H   0  0  0  0  0  0  0  0  0  0  0  0  # atno 7974 bound_to 7965
  156.1781  140.1664  156.8325 H   0  0  0  0  0  0  0  0  0  0  0  0  # atno 8008 bound_to 7997
  154.5330  140.0753  156.8411 H   0  0  0  0  0  0  0  0  0  0  0  0  # atno 8009 bound_to 7997
  155.3369  140.3382  155.4241 H   0  0  0  0  0  0  0  0  0  0  0  0  # atno 8010 bound_to 7997
  140.0065  143.5486  152.2281 H   0  0  0  0  0  0  0  0  0  0  0  0  # atno 10167 bound_to 10162
  156.2113  130.4161  149.9111 H   0  0  0  0  0  0  0  0  0  0  0  0  # atno 10718 bound_to 10713
  152.9919  135.6174  154.2722 H   0  0  0  0  0  0  0  0  0  0  0  0  # atno 10763 bound_to 10752
  154.2455  135.2787  155.2839 H   0  0  0  0  0  0  0  0  0  0  0  0  # atno 10764 bound_to 10752
  154.5333  135.5782  153.6835 H   0  0  0  0  0  0  0  0  0  0  0  0  # atno 10765 bound_to 10752
  140.0587  134.9216  157.1146 H   0  0  0  0  0  0  0  0  0  0  0  0  # atno 11005 bound_to 11000
  146.3262  139.8323  142.8906 LP  0  0  0  0  0  0  0  0  0  0  0  0  # atno 17320 bound_to 7965
  145.3085  141.0213  143.3568 LP  0  0  0  0  0  0  0  0  0  0  0  0  # atno 17321 bound_to 7965
  139.6235  144.7633  151.2689 LP  0  0  0  0  0  0  0  0  0  0  0  0  # atno 17342 bound_to 10162
  140.7398  143.6606  150.8167 LP  0  0  0  0  0  0  0  0  0  0  0  0  # atno 17343 bound_to 10162
  156.6789  130.8850  151.3573 LP  0  0  0  0  0  0  0  0  0  0  0  0  # atno 17370 bound_to 10713
  157.7040  130.9364  150.0872 LP  0  0  0  0  0  0  0  0  0  0  0  0  # atno 17371 bound_to 10713
  140.3803  134.2294  155.7171 LP  0  0  0  0  0  0  0  0  0  0  0  0  # atno 17394 bound_to 11000
  141.1964  133.8084  157.0675 LP  0  0  0  0  0  0  0  0  0  0  0  0  # atno 17395 bound_to 11000

$$$$
