AV-unprocessed.smi:1824|AV-procd|sdf|7398|dock6
  -GOLD-   22720 9 73D 1   1.00000     0.00000
 Structure written by MMmdl.
 44 46  0  0  0  0  0  0  0  0  1 V2000
  144.0864  139.2639  155.5596 C   0  0  0  0  0  0  0  0  0  0  0  0
  144.9339  140.5400  155.5299 C   0  0  1  0  0  0  0  0  0  0  0  0
  146.2664  140.3334  154.7879 C   0  0  0  0  0  0  0  0  0  0  0  0
  147.0357  141.5675  154.6918 N   0  0  0  0  0  0  0  0  0  0  0  0
  148.3182  141.3334  154.0258 C   0  0  0  0  0  0  0  0  0  0  0  0
  149.4351  140.7511  154.9156 C   0  0  1  0  0  0  0  0  0  0  0  0
  150.3095  139.9868  154.1075 O   0  0  0  0  0  0  0  0  0  0  0  0
  150.2380  141.8646  155.6147 C   0  0  0  0  0  0  0  0  0  0  0  0
  151.0465  141.3601  156.7105 N   0  0  0  0  0  0  0  0  0  0  0  0
  151.7653  140.2213  156.7360 C   0  0  0  0  0  0  0  0  0  0  0  0
  152.4364  139.9494  157.8517 N   0  0  0  0  0  0  0  0  0  0  0  0
  152.1163  141.0390  158.6432 C   0  0  0  0  0  0  0  0  0  0  0  0
  152.5082  141.3622  159.9621 C   0  0  0  0  0  0  0  0  0  0  0  0
  152.0495  142.5471  160.5742 C   0  0  0  0  0  0  0  0  0  0  0  0
  152.4346  142.8415  161.8386 F   0  0  0  0  0  0  0  0  0  0  0  0
  151.1935  143.4261  159.8777 C   0  0  0  0  0  0  0  0  0  0  0  0
  150.7580  144.5617  160.4729 F   0  0  0  0  0  0  0  0  0  0  0  0
  150.7895  143.1253  158.5627 C   0  0  0  0  0  0  0  0  0  0  0  0
  151.2494  141.9418  157.9568 C   0  0  0  0  0  0  0  0  0  0  0  0
  146.2237  142.5796  154.0178 C   0  0  0  0  0  0  0  0  0  0  0  0
  144.8594  142.8020  154.7014 C   0  0  2  0  0  0  0  0  0  0  0  0
  144.9618  143.5830  156.0225 C   0  0  0  0  0  0  0  0  0  0  0  0
  144.1804  141.5570  154.8727 O   0  0  0  0  0  0  0  0  0  0  0  0
  144.6130  138.4548  156.0661 H   0  0  0  0  0  0  0  0  0  0  0  0
  143.8445  138.9272  154.5511 H   0  0  0  0  0  0  0  0  0  0  0  0
  143.1481  139.4321  156.0889 H   0  0  0  0  0  0  0  0  0  0  0  0
  145.1326  140.8434  156.5582 H   0  0  0  0  0  0  0  0  0  0  0  0
  146.8507  139.5749  155.3104 H   0  0  0  0  0  0  0  0  0  0  0  0
  146.0713  139.9416  153.7879 H   0  0  0  0  0  0  0  0  0  0  0  0
  148.1688  140.6525  153.1862 H   0  0  0  0  0  0  0  0  0  0  0  0
  148.6631  142.2701  153.5852 H   0  0  0  0  0  0  0  0  0  0  0  0
  149.0195  140.0986  155.6820 H   0  0  0  0  0  0  0  0  0  0  0  0
  149.8720  139.1850  153.8658 H   0  0  0  0  0  0  0  0  0  0  0  0
  150.8893  142.3735  154.9026 H   0  0  0  0  0  0  0  0  0  0  0  0
  149.5619  142.6211  156.0148 H   0  0  0  0  0  0  0  0  0  0  0  0
  151.7951  139.5525  155.8882 H   0  0  0  0  0  0  0  0  0  0  0  0
  153.1629  140.6970  160.5050 H   0  0  0  0  0  0  0  0  0  0  0  0
  150.1335  143.7949  158.0272 H   0  0  0  0  0  0  0  0  0  0  0  0
  146.7494  143.5324  153.9745 H   0  0  0  0  0  0  0  0  0  0  0  0
  146.0529  142.2756  152.9839 H   0  0  0  0  0  0  0  0  0  0  0  0
  144.2411  143.3967  154.0284 H   0  0  0  0  0  0  0  0  0  0  0  0
  145.3750  144.5776  155.8532 H   0  0  0  0  0  0  0  0  0  0  0  0
  145.6055  143.0832  156.7459 H   0  0  0  0  0  0  0  0  0  0  0  0
  143.9792  143.7070  156.4781 H   0  0  0  0  0  0  0  0  0  0  0  0
  1  2  1  0  0  0  0
  1 24  1  0  0  0  0
  1 25  1  0  0  0  0
  1 26  1  0  0  0  0
  2 23  1  0  0  0  0
  2  3  1  0  0  0  0
  2 27  1  0  0  0  0
  3  4  1  0  0  0  0
  3 28  1  0  0  0  0
  3 29  1  0  0  0  0
  4  5  1  0  0  0  0
  4 20  1  0  0  0  0
  5  6  1  0  0  0  0
  5 30  1  0  0  0  0
  5 31  1  0  0  0  0
  6  7  1  0  0  0  0
  6  8  1  0  0  0  0
  6 32  1  0  0  0  0
  7 33  1  0  0  0  0
  8  9  1  0  0  0  0
  8 34  1  0  0  0  0
  8 35  1  0  0  0  0
  9 19  1  0  0  0  0
  9 10  1  0  0  0  0
 10 11  2  0  0  0  0
 10 36  1  0  0  0  0
 11 12  1  0  0  0  0
 12 19  2  0  0  0  0
 12 13  1  0  0  0  0
 13 14  2  0  0  0  0
 13 37  1  0  0  0  0
 14 15  1  0  0  0  0
 14 16  1  0  0  0  0
 16 17  1  0  0  0  0
 16 18  2  0  0  0  0
 18 19  1  0  0  0  0
 18 38  1  0  0  0  0
 20 21  1  0  0  0  0
 20 39  1  0  0  0  0
 20 40  1  0  0  0  0
 21 22  1  0  0  0  0
 21 23  1  0  0  0  0
 21 41  1  0  0  0  0
 22 42  1  0  0  0  0
 22 43  1  0  0  0  0
 22 44  1  0  0  0  0
M  END
> <s_m_source_file>
AV-unprocessed.smi

> <i_m_source_file_index>
1824

> <i_lp_mmshare_version>
43012

> <i_f3d_flags>
0

> <s_epik_input>
W0NIM11bQ0BASF0xW0NIMl1OKFtDSDJdW0NASF0oTzEpW0NIM10pW0NIMl1bQ0BIXShbT0hdKVtDSDJdbihbY0hdbjIpYyhjMjMpW2NIXWMoRiljKEYpW2NIXTM=

> <s_epik_cmdline>
J2VwaWtfcHl0aG9uJywgJy1waCcsICc3LjAnLCAnLXRuJywgJzgnLCAnLW1hJywgJzIwMCcsICctbWV0YWxfYmluZGluZycsICctaW1hZScsICc8aW5maWxlLm1hZT4nLCAnLW9tYWUnLCAnPG91dGZpbGUubWFlPic=

> <r_epik_Ionization_Penalty>
0.273778

> <r_epik_Ionization_Penalty_Charging>
0

> <r_epik_Ionization_Penalty_Neutral>
0.273778

> <r_epik_State_Penalty>
0.246794

> <r_epik_Charging_Adjusted_Penalty>
0.246794

> <i_epik_Tot_Q>
0

> <i_epik_Tot_abs_Q>
0

> <r_epik_Metal_State_Penalty>
0.238234

> <b_epik_Metal_Only>
0

> <s_lp_Force_Field>
OPLS_2005

> <r_lp_Energy>
30.0542

> <b_lp_Chiralities_Consistent>
1

> <s_lp_Variant>
AV-unprocessed.smi:1824-6

> <Gold.Version>
5.8.1

> <Gold.Id.Protein>
6NUR|6NUR_protein|mol2

> <Gold.PLP.Fitness>
50.2948

> <Gold.PLP.PLP>
-46.2558

> <Gold.PLP.part.hbond>
-3.0000

> <Gold.PLP.part.metal>
0.0000

> <Gold.PLP.part.buried>
-6.3024

> <Gold.PLP.part.nonpolar>
-36.6958

> <Gold.PLP.part.repulsive>
0.2965

> <Gold.PLP.ligand.clash>
0.0000

> <Gold.PLP.ligand.torsion>
0.9522

> <Gold.PLP.Chemscore.Hbond>
1.9600

> <Gold.PLP.Chemscore.CHOScore>
0.0000

> <Gold.PLP.Chemscore.Metal>
0.0000

> <Gold.Chemscore.Hbonds>
donor molecule, donor type, donor heavy atom, donor atom, acceptor molecule, acceptor atom, score
      P1  H  7989  7998       L1     7  1.00
      P1  H  7997  8010       L1    11  0.20

> <Gold.PLP.Chemscore.Internal.Correction>
0.0634

> <Gold.Rescore>
     Score         DG    S(hbond)    S(metal)    S(lipo)     H(rot)  DE(clash)    DE(int)     intcor
     12.98     -14.02       0.96        0.00      95.15       2.26       0.18       0.87       ----

> <Gold.Chemscore.Fitness>
12.9777

> <Gold.Chemscore.DG>
-14.0249

> <Gold.Chemscore.ZeroCoef>
-5.4800

> <Gold.Chemscore.Hbond>
0.9590

> <Gold.Chemscore.Metal>
0.0000

> <Gold.Chemscore.Lipo>
95.1478

> <Gold.Chemscore.Internal_Hbond>
0.0000

> <Gold.Chemscore.DEClash>
0.1788

> <Gold.Chemscore.DEInternal>
0.8685

> <Gold.Chemscore.Rot>
2.2619

> <Gold.Chemscore.Internal.Correction>
   9.000000E+99

> <Gold.Chemscore.Hbonds>
donor molecule, donor type, donor heavy atom, donor atom, acceptor molecule, acceptor atom, score
      P1  H  7989  7998       L1     7  0.85
      P1  H  7997  8010       L1    11  0.01

> <Gold.Chemscore.Hbond.Weighted>
-3.2031

> <Gold.Chemscore.Metal.Weighted>
-0.0000

> <Gold.Chemscore.Lipo.Weighted>
-11.1323

> <Gold.Chemscore.Internal_Hbond.Weighted>
0.0000

> <Gold.Chemscore.DEClash.Weighted>
0.1788

> <Gold.Chemscore.DEInternal.Weighted>
0.8685

> <Gold.Chemscore.Rot.Weighted>
5.7904

> <Gold.Chemscore.Internal.Correction.Weighted>
   9.000000E+99

> <Gold.Protein.RotatedTorsions>
[ 6907 6896 6895 6894 ] final   32.33 input  -60.11 | X-H torsion
[ 7974 7965 7964 7962 ] final   96.90 input  175.53 | X-H torsion
[ 8008 7997 7996 7995 ] final   56.19 input   59.86 | X-H torsion
[ 10167 10162 10161 10158 ] final  156.36 input  -65.29 | X-H torsion
[ 10718 10713 10712 10709 ] final   95.18 input   66.30 | X-H torsion
[ 10763 10752 10751 10750 ] final  131.59 input  -60.55 | X-H torsion
[ 11005 11000 10999 10996 ] final  136.87 input  -57.11 | X-H torsion

> <Gold.Protein.ActiveResidues>
 VAL166  LYS551  ARG553  GLY616  TRP617  ASP618  TYR619  PRO620  LYS621  CYS622 
 ASP623  PHE694  ASN695  SER759  ASP760  ASP761  ALA762  ILE779  LEU786  VAL792 
 PHE793  MET794  SER795  GLU796  ALA797  LYS798  CYS799  TRP800  GLU811  SER814 

> <Gold.Protein.RotatedAtoms>
  152.0730  134.9521  160.0574 H   0  0  0  0  0  0  0  0  0  0  0  0  # atno 6907 bound_to 6896
  152.0840  133.4162  159.4522 H   0  0  0  0  0  0  0  0  0  0  0  0  # atno 6908 bound_to 6896
  150.6836  134.2869  159.4694 H   0  0  0  0  0  0  0  0  0  0  0  0  # atno 6909 bound_to 6896
  145.4326  139.2309  143.3135 H   0  0  0  0  0  0  0  0  0  0  0  0  # atno 7974 bound_to 7965
  155.5135  140.3478  155.4393 H   0  0  0  0  0  0  0  0  0  0  0  0  # atno 8008 bound_to 7997
  156.0833  140.1392  156.9712 H   0  0  0  0  0  0  0  0  0  0  0  0  # atno 8009 bound_to 7997
  154.4592  140.0941  156.6822 H   0  0  0  0  0  0  0  0  0  0  0  0  # atno 8010 bound_to 7997
  139.4821  144.5015  151.8161 H   0  0  0  0  0  0  0  0  0  0  0  0  # atno 10167 bound_to 10162
  157.6941  131.0537  150.4300 H   0  0  0  0  0  0  0  0  0  0  0  0  # atno 10718 bound_to 10713
  153.7769  135.3174  155.3360 H   0  0  0  0  0  0  0  0  0  0  0  0  # atno 10763 bound_to 10752
  154.8176  135.4625  154.0689 H   0  0  0  0  0  0  0  0  0  0  0  0  # atno 10764 bound_to 10752
  153.1966  135.6916  153.8369 H   0  0  0  0  0  0  0  0  0  0  0  0  # atno 10765 bound_to 10752
  140.0075  134.9453  157.0207 H   0  0  0  0  0  0  0  0  0  0  0  0  # atno 11005 bound_to 11000
  146.2599  140.5065  142.8858 LP  0  0  0  0  0  0  0  0  0  0  0  0  # atno 17320 bound_to 7965
  144.8173  140.6489  143.6376 LP  0  0  0  0  0  0  0  0  0  0  0  0  # atno 17321 bound_to 7965
  140.4509  144.1856  150.5897 LP  0  0  0  0  0  0  0  0  0  0  0  0  # atno 17342 bound_to 10162
  140.4586  143.2458  151.9251 LP  0  0  0  0  0  0  0  0  0  0  0  0  # atno 17343 bound_to 10162
  156.4668  130.4044  149.6542 LP  0  0  0  0  0  0  0  0  0  0  0  0  # atno 17370 bound_to 10713
  156.3638  130.7495  151.2470 LP  0  0  0  0  0  0  0  0  0  0  0  0  # atno 17371 bound_to 10713
  140.4614  134.1480  155.7192 LP  0  0  0  0  0  0  0  0  0  0  0  0  # atno 17394 bound_to 11000
  141.1687  133.8651  157.1636 LP  0  0  0  0  0  0  0  0  0  0  0  0  # atno 17395 bound_to 11000

$$$$
