AV-unprocessed.smi:1727|AV-procd|sdf|6965|dock8
  -GOLD-   22720 8183D 1   1.00000     0.00000
 Structure written by MMmdl.
 49 51  0  0  0  0  0  0  0  0  1 V2000
  153.3717  142.4191  162.5978 C   0  0  0  0  0  0  0  0  0  0  0  0
  153.1325  142.1783  161.1055 C   0  0  0  0  0  0  0  0  0  0  0  0
  153.2024  141.0222  160.6883 O   0  0  0  0  0  0  0  0  0  0  0  0
  152.8516  143.2315  160.3008 N   0  0  0  0  0  0  0  0  0  0  0  0
  152.5422  143.0794  158.8742 C   0  0  0  0  0  0  0  0  0  0  0  0
  151.0487  143.3798  158.6544 C   0  0  0  0  0  0  0  0  0  0  0  0
  150.6748  144.7816  159.1813 C   0  0  0  0  0  0  0  0  0  0  0  0
  149.2272  144.9576  159.1217 N   0  0  0  0  0  0  0  0  0  0  0  0
  148.3581  144.5359  160.0509 C   0  0  0  0  0  0  0  0  0  0  0  0
  148.6905  143.9442  161.0782 O   0  0  0  0  0  0  0  0  0  0  0  0
  147.0941  144.8237  159.6990 N   0  0  0  0  0  0  0  0  0  0  0  0
  145.8988  144.4920  160.3959 C   0  0  0  0  0  0  0  0  0  0  0  0
  145.9148  144.1867  161.7788 C   0  0  0  0  0  0  0  0  0  0  0  0
  144.7025  143.9360  162.4439 C   0  0  0  0  0  0  0  0  0  0  0  0
  143.5109  144.0155  161.7046 C   0  0  0  0  0  0  0  0  0  0  0  0
  143.4775  144.3179  160.3914 N   0  0  0  0  0  0  0  0  0  0  0  0
  144.6398  144.5479  159.7317 C   0  0  0  0  0  0  0  0  0  0  0  0
  144.5434  144.8422  158.3519 N   0  0  0  0  0  0  0  0  0  0  0  0
  144.0313  146.1331  157.9033 C   0  0  0  0  0  0  0  0  0  0  0  0
  143.7059  145.9379  156.4253 C   0  0  0  0  0  0  0  0  0  0  0  0
  143.2118  144.4954  156.3889 C   0  0  0  0  0  0  0  0  0  0  0  0
  144.0581  143.7954  157.4569 C   0  0  0  0  0  0  0  0  0  0  0  0
  151.1903  144.9981  160.6228 C   0  0  0  0  0  0  0  0  0  0  0  0
  152.6768  144.6194  160.7470 C   0  0  0  0  0  0  0  0  0  0  0  0
  152.4988  142.8806  163.0603 H   0  0  0  0  0  0  0  0  0  0  0  0
  154.2380  143.0629  162.7515 H   0  0  0  0  0  0  0  0  0  0  0  0
  153.5620  141.4770  163.1132 H   0  0  0  0  0  0  0  0  0  0  0  0
  153.1539  143.7727  158.2952 H   0  0  0  0  0  0  0  0  0  0  0  0
  152.7802  142.0852  158.4935 H   0  0  0  0  0  0  0  0  0  0  0  0
  150.8056  143.3008  157.5943 H   0  0  0  0  0  0  0  0  0  0  0  0
  150.4543  142.6204  159.1654 H   0  0  0  0  0  0  0  0  0  0  0  0
  151.1526  145.5163  158.5304 H   0  0  0  0  0  0  0  0  0  0  0  0
  148.8608  145.4318  158.3094 H   0  0  0  0  0  0  0  0  0  0  0  0
  146.9645  145.2216  158.7801 H   0  0  0  0  0  0  0  0  0  0  0  0
  146.8351  144.1645  162.3427 H   0  0  0  0  0  0  0  0  0  0  0  0
  144.6864  143.7016  163.4980 H   0  0  0  0  0  0  0  0  0  0  0  0
  142.5580  143.8375  162.1806 H   0  0  0  0  0  0  0  0  0  0  0  0
  143.1206  146.3980  158.4422 H   0  0  0  0  0  0  0  0  0  0  0  0
  144.7643  146.9259  158.0554 H   0  0  0  0  0  0  0  0  0  0  0  0
  142.9714  146.6524  156.0530 H   0  0  0  0  0  0  0  0  0  0  0  0
  144.6123  146.0370  155.8264 H   0  0  0  0  0  0  0  0  0  0  0  0
  142.1596  144.4621  156.6748 H   0  0  0  0  0  0  0  0  0  0  0  0
  143.3073  144.0364  155.4048 H   0  0  0  0  0  0  0  0  0  0  0  0
  144.9144  143.3080  156.9898 H   0  0  0  0  0  0  0  0  0  0  0  0
  143.4825  143.0347  157.9861 H   0  0  0  0  0  0  0  0  0  0  0  0
  151.0475  146.0372  160.9219 H   0  0  0  0  0  0  0  0  0  0  0  0
  150.6080  144.3933  161.3196 H   0  0  0  0  0  0  0  0  0  0  0  0
  153.0204  144.7987  161.7646 H   0  0  0  0  0  0  0  0  0  0  0  0
  153.2802  145.2757  160.1183 H   0  0  0  0  0  0  0  0  0  0  0  0
  1  2  1  0  0  0  0
  1 25  1  0  0  0  0
  1 26  1  0  0  0  0
  1 27  1  0  0  0  0
  2  3  2  0  0  0  0
  2  4  1  0  0  0  0
  4 24  1  0  0  0  0
  4  5  1  0  0  0  0
  5  6  1  0  0  0  0
  5 28  1  0  0  0  0
  5 29  1  0  0  0  0
  6  7  1  0  0  0  0
  6 30  1  0  0  0  0
  6 31  1  0  0  0  0
  7  8  1  0  0  0  0
  7 23  1  0  0  0  0
  7 32  1  0  0  0  0
  8  9  1  0  0  0  0
  8 33  1  0  0  0  0
  9 10  2  0  0  0  0
  9 11  1  0  0  0  0
 11 12  1  0  0  0  0
 11 34  1  0  0  0  0
 12 17  1  0  0  0  0
 12 13  2  0  0  0  0
 13 14  1  0  0  0  0
 13 35  1  0  0  0  0
 14 15  2  0  0  0  0
 14 36  1  0  0  0  0
 15 16  1  0  0  0  0
 15 37  1  0  0  0  0
 16 17  2  0  0  0  0
 17 18  1  0  0  0  0
 18 22  1  0  0  0  0
 18 19  1  0  0  0  0
 19 20  1  0  0  0  0
 19 38  1  0  0  0  0
 19 39  1  0  0  0  0
 20 21  1  0  0  0  0
 20 40  1  0  0  0  0
 20 41  1  0  0  0  0
 21 22  1  0  0  0  0
 21 42  1  0  0  0  0
 21 43  1  0  0  0  0
 22 44  1  0  0  0  0
 22 45  1  0  0  0  0
 23 24  1  0  0  0  0
 23 46  1  0  0  0  0
 23 47  1  0  0  0  0
 24 48  1  0  0  0  0
 24 49  1  0  0  0  0
M  END
> <s_m_source_file>
AV-unprocessed.smi

> <i_m_source_file_index>
1727

> <i_lp_mmshare_version>
43012

> <i_f3d_flags>
0

> <s_epik_input>
W0NIM11DKD1PKU4xW0NIMl1bQ0gyXVtDSF0oW0NIMl1bQ0gyXTEpW05IXUMoPU8pW05IXWMyW2NIXVtjSF1bY0hdbmMyTjNbQ0gyXVtDSDJdW0NIMl1bQ0gyXTM=

> <s_epik_cmdline>
J2VwaWtfcHl0aG9uJywgJy1waCcsICc3LjAnLCAnLXRuJywgJzgnLCAnLW1hJywgJzIwMCcsICctbWV0YWxfYmluZGluZycsICctaW1hZScsICc8aW5maWxlLm1hZT4nLCAnLW9tYWUnLCAnPG91dGZpbGUubWFlPic=

> <r_lp_tautomer_probability>
1

> <r_epik_Ionization_Penalty>
0.102256

> <r_epik_Ionization_Penalty_Charging>
0

> <r_epik_Ionization_Penalty_Neutral>
0.102256

> <r_epik_State_Penalty>
0.0916633

> <r_epik_Charging_Adjusted_Penalty>
0.0916633

> <i_epik_Tot_Q>
0

> <i_epik_Tot_abs_Q>
0

> <r_epik_Metal_State_Penalty>
0.0781079

> <b_epik_Metal_Only>
0

> <s_lp_Force_Field>
OPLS_2005

> <r_lp_Energy>
49.5361

> <b_lp_Chiralities_Consistent>
1

> <s_lp_Variant>
AV-unprocessed.smi:1727-1

> <Gold.Version>
5.8.1

> <Gold.Id.Protein>
6NUR|6NUR_protein|mol2

> <Gold.PLP.Fitness>
51.4003

> <Gold.PLP.PLP>
-44.1600

> <Gold.PLP.part.hbond>
-2.3977

> <Gold.PLP.part.metal>
0.0000

> <Gold.PLP.part.buried>
-7.8863

> <Gold.PLP.part.nonpolar>
-35.8032

> <Gold.PLP.part.repulsive>
0.6324

> <Gold.PLP.ligand.clash>
0.0000

> <Gold.PLP.ligand.torsion>
0.5712

> <Gold.PLP.Chemscore.Hbond>
2.6800

> <Gold.PLP.Chemscore.CHOScore>
0.0000

> <Gold.PLP.Chemscore.Metal>
0.0000

> <Gold.Chemscore.Hbonds>
donor molecule, donor type, donor heavy atom, donor atom, acceptor molecule, acceptor atom, score
      L1  H     8    33       P1  8029  0.93
      L1  H    11    34       P1  8029  0.90
      P1  H  6933  6944       L1    10  0.80

> <Gold.PLP.Chemscore.Internal.Correction>
0.3427

> <Gold.Rescore>
     Score         DG    S(hbond)    S(metal)    S(lipo)     H(rot)  DE(clash)    DE(int)     intcor
     19.03     -23.93       2.63        0.00     109.02       1.21       2.02       2.88       ----

> <Gold.Chemscore.Fitness>
19.0312

> <Gold.Chemscore.DG>
-23.9303

> <Gold.Chemscore.ZeroCoef>
-5.4800

> <Gold.Chemscore.Hbond>
2.6340

> <Gold.Chemscore.Metal>
0.0000

> <Gold.Chemscore.Lipo>
109.0155

> <Gold.Chemscore.Internal_Hbond>
0.0000

> <Gold.Chemscore.DEClash>
2.0217

> <Gold.Chemscore.DEInternal>
2.8773

> <Gold.Chemscore.Rot>
1.2117

> <Gold.Chemscore.Internal.Correction>
   9.000000E+99

> <Gold.Chemscore.Hbonds>
donor molecule, donor type, donor heavy atom, donor atom, acceptor molecule, acceptor atom, score
      L1  H     8    33       P1  8029  0.85
      L1  H    11    34       P1  8029  0.88
      P1  H  6933  6944       L1    10  0.79

> <Gold.Chemscore.Hbond.Weighted>
-8.7974

> <Gold.Chemscore.Metal.Weighted>
-0.0000

> <Gold.Chemscore.Lipo.Weighted>
-12.7548

> <Gold.Chemscore.Internal_Hbond.Weighted>
0.0000

> <Gold.Chemscore.DEClash.Weighted>
2.0217

> <Gold.Chemscore.DEInternal.Weighted>
2.8773

> <Gold.Chemscore.Rot.Weighted>
3.1019

> <Gold.Chemscore.Internal.Correction.Weighted>
   9.000000E+99

> <Gold.Protein.RotatedTorsions>
[ 6907 6896 6895 6894 ] final  113.83 input  -60.11 | X-H torsion
[ 7974 7965 7964 7962 ] final -111.68 input  175.53 | X-H torsion
[ 8008 7997 7996 7995 ] final -147.41 input   59.86 | X-H torsion
[ 10167 10162 10161 10158 ] final   17.57 input  -65.29 | X-H torsion
[ 10718 10713 10712 10709 ] final   -6.96 input   66.30 | X-H torsion
[ 10763 10752 10751 10750 ] final  108.04 input  -60.55 | X-H torsion
[ 11005 11000 10999 10996 ] final -111.29 input  -57.11 | X-H torsion

> <Gold.Protein.ActiveResidues>
 VAL166  LYS551  ARG553  GLY616  TRP617  ASP618  TYR619  PRO620  LYS621  CYS622 
 ASP623  PHE694  ASN695  SER759  ASP760  ASP761  ALA762  ILE779  LEU786  VAL792 
 PHE793  MET794  SER795  GLU796  ALA797  LYS798  CYS799  TRP800  GLU811  SER814 

> <Gold.Protein.RotatedAtoms>
  152.4838  133.8321  159.7108 H   0  0  0  0  0  0  0  0  0  0  0  0  # atno 6907 bound_to 6896
  150.8908  133.7236  159.2912 H   0  0  0  0  0  0  0  0  0  0  0  0  # atno 6908 bound_to 6896
  151.4709  135.1049  159.9803 H   0  0  0  0  0  0  0  0  0  0  0  0  # atno 6909 bound_to 6896
  145.1532  140.8840  143.3634 H   0  0  0  0  0  0  0  0  0  0  0  0  # atno 7974 bound_to 7965
  155.5752  140.0638  157.2797 H   0  0  0  0  0  0  0  0  0  0  0  0  # atno 8008 bound_to 7997
  154.4349  140.1862  156.0966 H   0  0  0  0  0  0  0  0  0  0  0  0  # atno 8009 bound_to 7997
  156.0347  140.3302  155.7181 H   0  0  0  0  0  0  0  0  0  0  0  0  # atno 8010 bound_to 7997
  140.5716  143.9150  150.6717 H   0  0  0  0  0  0  0  0  0  0  0  0  # atno 10167 bound_to 10162
  156.7242  130.5160  149.5861 H   0  0  0  0  0  0  0  0  0  0  0  0  # atno 10718 bound_to 10713
  153.4152  135.3825  155.2076 H   0  0  0  0  0  0  0  0  0  0  0  0  # atno 10763 bound_to 10752
  154.8741  135.3804  154.4452 H   0  0  0  0  0  0  0  0  0  0  0  0  # atno 10764 bound_to 10752
  153.4965  135.7088  153.5917 H   0  0  0  0  0  0  0  0  0  0  0  0  # atno 10765 bound_to 10752
  141.0743  133.9328  157.2422 H   0  0  0  0  0  0  0  0  0  0  0  0  # atno 11005 bound_to 11000
  145.0409  139.3261  143.5977 LP  0  0  0  0  0  0  0  0  0  0  0  0  # atno 17320 bound_to 7965
  146.3492  139.9782  142.8698 LP  0  0  0  0  0  0  0  0  0  0  0  0  # atno 17321 bound_to 7965
  140.2627  143.3512  152.1309 LP  0  0  0  0  0  0  0  0  0  0  0  0  # atno 17342 bound_to 10162
  139.5120  144.6911  151.5758 LP  0  0  0  0  0  0  0  0  0  0  0  0  # atno 17343 bound_to 10162
  156.1573  130.6350  151.0674 LP  0  0  0  0  0  0  0  0  0  0  0  0  # atno 17370 bound_to 10713
  157.6885  131.0817  150.7174 LP  0  0  0  0  0  0  0  0  0  0  0  0  # atno 17371 bound_to 10713
  139.9555  135.0166  156.9116 LP  0  0  0  0  0  0  0  0  0  0  0  0  # atno 17394 bound_to 11000
  140.5607  134.0537  155.7398 LP  0  0  0  0  0  0  0  0  0  0  0  0  # atno 17395 bound_to 11000

$$$$
