AV-unprocessed.smi:2066|AV-procd|sdf|8420|dock9
  -GOLD-   2272011113D 1   1.00000     0.00000
 Structure written by MMmdl.
 40 41  0  0  0  0  0  0  0  0  2 V2000
  148.3787  139.2147  153.7004 C   0  0  0  0  0  0  0  0  0  0  0  0
  146.8900  139.3072  153.2839 C   0  0  0  0  0  0  0  0  0  0  0  0
  146.8375  139.4203  151.7370 C   0  0  0  0  0  0  0  0  0  0  0  0
  146.1166  138.0137  153.6884 C   0  0  0  0  0  0  0  0  0  0  0  0
  146.4373  136.8404  152.8748 N   0  0  0  0  0  0  0  0  0  0  0  0
  145.5440  136.0152  152.3094 C   0  0  0  0  0  0  0  0  0  0  0  0
  144.3258  136.1506  152.4278 O   0  0  0  0  0  0  0  0  0  0  0  0
  146.1546  135.0394  151.6150 N   0  0  0  0  0  0  0  0  0  0  0  0
  145.5588  133.9714  150.8945 C   0  0  0  0  0  0  0  0  0  0  0  0
  146.2330  133.1196  150.1131 N   0  0  0  0  0  0  0  0  0  0  0  0
  145.3933  132.1693  149.5269 C   0  0  0  0  0  0  0  0  0  0  0  0
  144.0734  132.3139  149.8746 C   0  0  0  0  0  0  0  0  0  0  0  0
  143.8306  133.6587  150.9575 S   0  0  0  0  0  0  0  0  0  0  0  0
  146.2163  140.4894  153.9397 N   0  3  0  0  0  0  0  0  0  0  0  0
  145.9400  140.3374  155.3980 C   0  0  0  0  0  0  0  0  0  0  0  0
  145.0820  141.5023  155.9144 C   0  0  0  0  0  0  0  0  0  0  0  0
  145.7636  142.7252  155.6788 O   0  0  0  0  0  0  0  0  0  0  0  0
  145.9687  142.9488  154.2917 C   0  0  0  0  0  0  0  0  0  0  0  0
  146.8336  141.8248  153.6932 C   0  0  0  0  0  0  0  0  0  0  0  0
  148.9066  138.4504  153.1297 H   0  0  0  0  0  0  0  0  0  0  0  0
  148.4945  138.9547  154.7528 H   0  0  0  0  0  0  0  0  0  0  0  0
  148.9059  140.1532  153.5290 H   0  0  0  0  0  0  0  0  0  0  0  0
  147.2338  138.5308  151.2471 H   0  0  0  0  0  0  0  0  0  0  0  0
  147.4418  140.2468  151.3630 H   0  0  0  0  0  0  0  0  0  0  0  0
  145.8158  139.5569  151.3806 H   0  0  0  0  0  0  0  0  0  0  0  0
  146.2716  137.7587  154.7356 H   0  0  0  0  0  0  0  0  0  0  0  0
  145.0445  138.1875  153.5895 H   0  0  0  0  0  0  0  0  0  0  0  0
  147.4170  136.6494  152.7231 H   0  0  0  0  0  0  0  0  0  0  0  0
  147.1636  135.0608  151.6005 H   0  0  0  0  0  0  0  0  0  0  0  0
  145.8208  131.4236  148.8733 H   0  0  0  0  0  0  0  0  0  0  0  0
  143.2327  131.7135  149.5601 H   0  0  0  0  0  0  0  0  0  0  0  0
  145.4198  139.4079  155.6173 H   0  0  0  0  0  0  0  0  0  0  0  0
  146.8757  140.3172  155.9582 H   0  0  0  0  0  0  0  0  0  0  0  0
  144.1019  141.5123  155.4345 H   0  0  0  0  0  0  0  0  0  0  0  0
  144.9118  141.3960  156.9860 H   0  0  0  0  0  0  0  0  0  0  0  0
  145.0085  143.0140  153.7775 H   0  0  0  0  0  0  0  0  0  0  0  0
  146.4627  143.9118  154.1606 H   0  0  0  0  0  0  0  0  0  0  0  0
  147.8363  141.8575  154.1210 H   0  0  0  0  0  0  0  0  0  0  0  0
  146.9262  142.0354  152.6291 H   0  0  0  0  0  0  0  0  0  0  0  0
  145.3102  140.5424  153.4969 H   0  0  0  0  0  0  0  0  0  0  0  0
  1  2  1  0  0  0  0
  1 20  1  0  0  0  0
  1 21  1  0  0  0  0
  1 22  1  0  0  0  0
  2  3  1  0  0  0  0
  2  4  1  0  0  0  0
  2 14  1  0  0  0  0
  3 23  1  0  0  0  0
  3 24  1  0  0  0  0
  3 25  1  0  0  0  0
  4  5  1  0  0  0  0
  4 26  1  0  0  0  0
  4 27  1  0  0  0  0
  5  6  1  0  0  0  0
  5 28  1  0  0  0  0
  6  7  2  0  0  0  0
  6  8  1  0  0  0  0
  8  9  1  0  0  0  0
  8 29  1  0  0  0  0
  9 13  1  0  0  0  0
  9 10  2  0  0  0  0
 10 11  1  0  0  0  0
 11 12  2  0  0  0  0
 11 30  1  0  0  0  0
 12 13  1  0  0  0  0
 12 31  1  0  0  0  0
 14 19  1  0  0  0  0
 14 15  1  0  0  0  0
 14 40  1  0  0  0  0
 15 16  1  0  0  0  0
 15 32  1  0  0  0  0
 15 33  1  0  0  0  0
 16 17  1  0  0  0  0
 16 34  1  0  0  0  0
 16 35  1  0  0  0  0
 17 18  1  0  0  0  0
 18 19  1  0  0  0  0
 18 36  1  0  0  0  0
 18 37  1  0  0  0  0
 19 38  1  0  0  0  0
 19 39  1  0  0  0  0
M  CHG  1  14   1
M  END
> <s_m_source_file>
AV-unprocessed.smi

> <i_m_source_file_index>
2066

> <i_lp_mmshare_version>
43012

> <i_f3d_flags>
0

> <s_epik_input>
W0NIMl0xW0NIMl1PW0NIMl1bQ0gyXU4xQyhbQ0gzXSkoW0NIM10pW0NIMl1bTkhdQyg9TylbTkhdYzJuW2NIXVtjSF1zMg==

> <s_epik_cmdline>
J2VwaWtfcHl0aG9uJywgJy1waCcsICc3LjAnLCAnLXRuJywgJzgnLCAnLW1hJywgJzIwMCcsICctbWV0YWxfYmluZGluZycsICctaW1hZScsICc8aW5maWxlLm1hZT4nLCAnLW9tYWUnLCAnPG91dGZpbGUubWFlPic=

> <r_lp_tautomer_probability>
0.999

> <r_epik_Ionization_Penalty>
0.695839

> <r_epik_Ionization_Penalty_Charging>
0.695697

> <r_epik_Ionization_Penalty_Neutral>
0.000141498

> <r_epik_State_Penalty>
0.717972

> <r_epik_Charging_Adjusted_Penalty>
1.41367

> <i_epik_Tot_Q>
1

> <i_epik_Tot_abs_Q>
1

> <r_epik_Metal_State_Penalty>
0.756569

> <b_epik_Metal_Only>
0

> <s_lp_Force_Field>
OPLS_2005

> <r_lp_Energy>
24.1099

> <b_lp_Chiralities_Consistent>
1

> <s_lp_Variant>
AV-unprocessed.smi:2066-2

> <Gold.Version>
5.8.1

> <Gold.Id.Protein>
6NUR|6NUR_protein|mol2

> <Gold.PLP.Fitness>
43.8092

> <Gold.PLP.PLP>
-31.4272

> <Gold.PLP.part.hbond>
-3.0000

> <Gold.PLP.part.metal>
0.0000

> <Gold.PLP.part.buried>
-1.8212

> <Gold.PLP.part.nonpolar>
-27.6047

> <Gold.PLP.part.repulsive>
0.8451

> <Gold.PLP.ligand.clash>
0.0000

> <Gold.PLP.ligand.torsion>
0.3424

> <Gold.PLP.Chemscore.Hbond>
3.9040

> <Gold.PLP.Chemscore.CHOScore>
0.4218

> <Gold.PLP.Chemscore.Metal>
0.0000

> <Gold.Chemscore.Hbonds>
donor molecule, donor type, donor heavy atom, donor atom, acceptor molecule, acceptor atom, score
      L1  H     5    28       P1  7948  1.00
      L1  H     8    29       P1  7948  0.78
      L1  H    14    40       P1 10175  2.00
      L1  C    12    31       P1 10952  0.40

> <Gold.PLP.Chemscore.Internal.Correction>
0.0893

> <Gold.Rescore>
     Score         DG    S(hbond)    S(metal)    S(lipo)     H(rot)  DE(clash)    DE(int)     intcor
     17.12     -19.10       2.84        0.00      71.03       1.62       0.54       1.44       ----

> <Gold.Chemscore.Fitness>
17.1247

> <Gold.Chemscore.DG>
-19.1037

> <Gold.Chemscore.ZeroCoef>
-5.4800

> <Gold.Chemscore.Hbond>
2.8355

> <Gold.Chemscore.Metal>
0.0000

> <Gold.Chemscore.Lipo>
71.0278

> <Gold.Chemscore.Internal_Hbond>
0.0000

> <Gold.Chemscore.DEClash>
0.5366

> <Gold.Chemscore.DEInternal>
1.4424

> <Gold.Chemscore.Rot>
1.6238

> <Gold.Chemscore.Internal.Correction>
   9.000000E+99

> <Gold.Chemscore.Hbonds>
donor molecule, donor type, donor heavy atom, donor atom, acceptor molecule, acceptor atom, score
      L1  H     5    28       P1  7948  0.99
      L1  H     8    29       P1  7948  0.65
      L1  H    14    40       P1 10175  0.97

> <Gold.Chemscore.Hbond.Weighted>
-9.4705

> <Gold.Chemscore.Metal.Weighted>
-0.0000

> <Gold.Chemscore.Lipo.Weighted>
-8.3103

> <Gold.Chemscore.Internal_Hbond.Weighted>
0.0000

> <Gold.Chemscore.DEClash.Weighted>
0.5366

> <Gold.Chemscore.DEInternal.Weighted>
1.4424

> <Gold.Chemscore.Rot.Weighted>
4.1570

> <Gold.Chemscore.Internal.Correction.Weighted>
   9.000000E+99

> <Gold.Protein.RotatedTorsions>
[ 6907 6896 6895 6894 ] final  -39.82 input  -60.11 | X-H torsion
[ 7974 7965 7964 7962 ] final  -61.59 input  175.53 | X-H torsion
[ 8008 7997 7996 7995 ] final  -78.53 input   59.86 | X-H torsion
[ 10167 10162 10161 10158 ] final  132.75 input  -65.29 | X-H torsion
[ 10718 10713 10712 10709 ] final   53.47 input   66.30 | X-H torsion
[ 10763 10752 10751 10750 ] final   46.18 input  -60.55 | X-H torsion
[ 11005 11000 10999 10996 ] final   42.04 input  -57.11 | X-H torsion

> <Gold.Protein.ActiveResidues>
 VAL166  LYS551  ARG553  GLY616  TRP617  ASP618  TYR619  PRO620  LYS621  CYS622 
 ASP623  PHE694  ASN695  SER759  ASP760  ASP761  ALA762  ILE779  LEU786  VAL792 
 PHE793  MET794  SER795  GLU796  ALA797  LYS798  CYS799  TRP800  GLU811  SER814 

> <Gold.Protein.RotatedAtoms>
  150.9858  134.9203  159.7870 H   0  0  0  0  0  0  0  0  0  0  0  0  # atno 6907 bound_to 6896
  152.5236  134.3349  159.9206 H   0  0  0  0  0  0  0  0  0  0  0  0  # atno 6908 bound_to 6896
  151.3355  133.3942  159.2701 H   0  0  0  0  0  0  0  0  0  0  0  0  # atno 6909 bound_to 6896
  145.8016  140.8652  143.0228 H   0  0  0  0  0  0  0  0  0  0  0  0  # atno 7974 bound_to 7965
  154.5698  140.0693  156.8947 H   0  0  0  0  0  0  0  0  0  0  0  0  # atno 8008 bound_to 7997
  155.2656  140.3361  155.4251 H   0  0  0  0  0  0  0  0  0  0  0  0  # atno 8009 bound_to 7997
  156.2109  140.1759  156.7682 H   0  0  0  0  0  0  0  0  0  0  0  0  # atno 8010 bound_to 7997
  139.5326  144.6648  151.4896 H   0  0  0  0  0  0  0  0  0  0  0  0  # atno 10167 bound_to 10162
  157.5170  130.8539  149.8508 H   0  0  0  0  0  0  0  0  0  0  0  0  # atno 10718 bound_to 10713
  152.9814  135.6016  154.3558 H   0  0  0  0  0  0  0  0  0  0  0  0  # atno 10763 bound_to 10752
  154.3244  135.2769  155.2505 H   0  0  0  0  0  0  0  0  0  0  0  0  # atno 10764 bound_to 10752
  154.4657  135.5954  153.6342 H   0  0  0  0  0  0  0  0  0  0  0  0  # atno 10765 bound_to 10752
  140.1777  134.4143  155.8219 H   0  0  0  0  0  0  0  0  0  0  0  0  # atno 11005 bound_to 11000
  144.6768  140.0267  143.7483 LP  0  0  0  0  0  0  0  0  0  0  0  0  # atno 17320 bound_to 7965
  145.9872  139.2986  143.1006 LP  0  0  0  0  0  0  0  0  0  0  0  0  # atno 17321 bound_to 7965
  140.6514  143.8689  150.6789 LP  0  0  0  0  0  0  0  0  0  0  0  0  # atno 17342 bound_to 10162
  140.2055  143.3925  152.1759 LP  0  0  0  0  0  0  0  0  0  0  0  0  # atno 17343 bound_to 10162
  156.0327  130.3760  150.1644 LP  0  0  0  0  0  0  0  0  0  0  0  0  # atno 17370 bound_to 10713
  156.9833  130.9871  151.3432 LP  0  0  0  0  0  0  0  0  0  0  0  0  # atno 17371 bound_to 10713
  141.2221  133.6985  156.7875 LP  0  0  0  0  0  0  0  0  0  0  0  0  # atno 17394 bound_to 11000
  140.2304  134.8690  157.3470 LP  0  0  0  0  0  0  0  0  0  0  0  0  # atno 17395 bound_to 11000

$$$$
