AV-unprocessed.smi:2482|AV-procd|sdf|9775|dock5
  -GOLD-   2272013413D 1   1.00000     0.00000
 Structure written by MMmdl.
 35 36  0  0  0  0  0  0  0  0  2 V2000
  153.5093  143.6429  163.2990 C   0  0  0  0  0  0  0  0  0  0  0  0
  153.4751  142.6748  162.1312 C   0  0  0  0  0  0  0  0  0  0  0  0
  154.3469  141.6451  162.1993 N   0  0  0  0  0  0  0  0  0  0  0  0
  154.3547  140.7517  161.1890 C   0  0  0  0  0  0  0  0  0  0  0  0
  153.5069  140.8417  160.0686 C   0  0  0  0  0  0  0  0  0  0  0  0
  152.6028  141.9278  159.9864 C   0  0  0  0  0  0  0  0  0  0  0  0
  151.6867  142.1068  158.9132 N   0  0  0  0  0  0  0  0  0  0  0  0
  151.5083  141.3504  157.8139 C   0  0  0  0  0  0  0  0  0  0  0  0
  152.1393  140.3226  157.5676 O   0  0  0  0  0  0  0  0  0  0  0  0
  150.4323  141.8423  156.8328 C   0  0  2  0  0  0  0  0  0  0  0  0
  149.0323  141.9468  157.4826 C   0  0  0  0  0  0  0  0  0  0  0  0
  148.0203  142.3517  156.4801 N   0  3  2  0  0  0  0  0  0  0  0  0
  146.6698  142.5028  157.0624 C   0  0  0  0  0  0  0  0  0  0  0  0
  148.0396  141.4440  155.3114 C   0  0  0  0  0  0  0  0  0  0  0  0
  149.4578  141.3631  154.7254 C   0  0  0  0  0  0  0  0  0  0  0  0
  150.3646  140.9346  155.7334 O   0  0  0  0  0  0  0  0  0  0  0  0
  152.5795  142.8585  161.0516 C   0  0  0  0  0  0  0  0  0  0  0  0
  151.4825  144.1991  161.0313 Cl  0  0  0  0  0  0  0  0  0  0  0  0
  153.7495  144.6477  162.9508 H   0  0  0  0  0  0  0  0  0  0  0  0
  154.2588  143.3549  164.0375 H   0  0  0  0  0  0  0  0  0  0  0  0
  152.5398  143.6720  163.7972 H   0  0  0  0  0  0  0  0  0  0  0  0
  155.0545  139.9342  161.2793 H   0  0  0  0  0  0  0  0  0  0  0  0
  153.5589  140.0753  159.3114 H   0  0  0  0  0  0  0  0  0  0  0  0
  151.1552  142.9651  158.9445 H   0  0  0  0  0  0  0  0  0  0  0  0
  150.7458  142.8227  156.4699 H   0  0  0  0  0  0  0  0  0  0  0  0
  148.7447  140.9892  157.9215 H   0  0  0  0  0  0  0  0  0  0  0  0
  149.0444  142.6802  158.2903 H   0  0  0  0  0  0  0  0  0  0  0  0
  146.3034  141.5534  157.4553 H   0  0  0  0  0  0  0  0  0  0  0  0
  145.9644  142.8580  156.3108 H   0  0  0  0  0  0  0  0  0  0  0  0
  146.6820  143.2281  157.8766 H   0  0  0  0  0  0  0  0  0  0  0  0
  147.7018  140.4504  155.6111 H   0  0  0  0  0  0  0  0  0  0  0  0
  147.3446  141.8051  154.5525 H   0  0  0  0  0  0  0  0  0  0  0  0
  149.4840  140.6510  153.9006 H   0  0  0  0  0  0  0  0  0  0  0  0
  149.7706  142.3282  154.3237 H   0  0  0  0  0  0  0  0  0  0  0  0
  148.2938  143.2640  156.1430 H   0  0  0  0  0  0  0  0  0  0  0  0
  1  2  1  0  0  0  0
  1 19  1  0  0  0  0
  1 20  1  0  0  0  0
  1 21  1  0  0  0  0
  2 17  1  0  0  0  0
  2  3  2  0  0  0  0
  3  4  1  0  0  0  0
  4  5  2  0  0  0  0
  4 22  1  0  0  0  0
  5  6  1  0  0  0  0
  5 23  1  0  0  0  0
  6  7  1  0  0  0  0
  6 17  2  0  0  0  0
  7  8  1  0  0  0  0
  7 24  1  0  0  0  0
  8  9  2  0  0  0  0
  8 10  1  0  0  0  0
 10 16  1  0  0  0  0
 10 11  1  0  0  0  0
 10 25  1  0  0  0  0
 11 12  1  0  0  0  0
 11 26  1  0  0  0  0
 11 27  1  0  0  0  0
 12 13  1  0  0  0  0
 12 14  1  0  0  0  0
 12 35  1  0  0  0  0
 13 28  1  0  0  0  0
 13 29  1  0  0  0  0
 13 30  1  0  0  0  0
 14 15  1  0  0  0  0
 14 31  1  0  0  0  0
 14 32  1  0  0  0  0
 15 16  1  0  0  0  0
 15 33  1  0  0  0  0
 15 34  1  0  0  0  0
 17 18  1  0  0  0  0
M  CHG  1  12   1
M  END
> <s_m_source_file>
AV-unprocessed.smi

> <i_m_source_file_index>
2482

> <i_lp_mmshare_version>
43012

> <i_f3d_flags>
0

> <s_epik_input>
W0NIM11jMW5bY0hdW2NIXWMoYzFDbClbTkhdQyg9TylbQ0BASF0yW0NIMl1OKFtDSDNdKVtDSDJdW0NIMl1PMg==

> <s_epik_cmdline>
J2VwaWtfcHl0aG9uJywgJy1waCcsICc3LjAnLCAnLXRuJywgJzgnLCAnLW1hJywgJzIwMCcsICctbWV0YWxfYmluZGluZycsICctaW1hZScsICc8aW5maWxlLm1hZT4nLCAnLW9tYWUnLCAnPG91dGZpbGUubWFlPic=

> <r_epik_Ionization_Penalty>
0.314226

> <r_epik_Ionization_Penalty_Charging>
0.314023

> <r_epik_Ionization_Penalty_Neutral>
0.00020299

> <r_epik_State_Penalty>
0.308208

> <r_epik_Charging_Adjusted_Penalty>
0.62223

> <i_epik_Tot_Q>
1

> <i_epik_Tot_abs_Q>
1

> <r_epik_Metal_State_Penalty>
0.314444

> <b_epik_Metal_Only>
0

> <s_lp_Force_Field>
OPLS_2005

> <r_lp_Energy>
22.3098

> <b_lp_Chiralities_Consistent>
1

> <s_lp_Variant>
AV-unprocessed.smi:2482-1

> <Gold.Version>
5.8.1

> <Gold.Id.Protein>
6NUR|6NUR_protein|mol2

> <Gold.PLP.Fitness>
44.8886

> <Gold.PLP.PLP>
-38.8897

> <Gold.PLP.part.hbond>
-2.1603

> <Gold.PLP.part.metal>
0.0000

> <Gold.PLP.part.buried>
-5.3502

> <Gold.PLP.part.nonpolar>
-30.3925

> <Gold.PLP.part.repulsive>
0.1647

> <Gold.PLP.ligand.clash>
0.0000

> <Gold.PLP.ligand.torsion>
0.0013

> <Gold.PLP.Chemscore.Hbond>
2.0000

> <Gold.PLP.Chemscore.CHOScore>
0.0000

> <Gold.PLP.Chemscore.Metal>
0.0000

> <Gold.Chemscore.Hbonds>
donor molecule, donor type, donor heavy atom, donor atom, acceptor molecule, acceptor atom, score
      L1  H    12    35       P1  8028  2.00

> <Gold.PLP.Chemscore.Internal.Correction>
0.0014

> <Gold.Rescore>
     Score         DG    S(hbond)    S(metal)    S(lipo)     H(rot)  DE(clash)    DE(int)     intcor
     15.85     -17.80       0.89        0.00     101.70       1.00       0.64       1.31       ----

> <Gold.Chemscore.Fitness>
15.8521

> <Gold.Chemscore.DG>
-17.7967

> <Gold.Chemscore.ZeroCoef>
-5.4800

> <Gold.Chemscore.Hbond>
0.8916

> <Gold.Chemscore.Metal>
0.0000

> <Gold.Chemscore.Lipo>
101.6983

> <Gold.Chemscore.Internal_Hbond>
0.0000

> <Gold.Chemscore.DEClash>
0.6376

> <Gold.Chemscore.DEInternal>
1.3069

> <Gold.Chemscore.Rot>
1.0000

> <Gold.Chemscore.Internal.Correction>
   9.000000E+99

> <Gold.Chemscore.Hbonds>
donor molecule, donor type, donor heavy atom, donor atom, acceptor molecule, acceptor atom, score
      L1  H    12    35       P1  8028  0.70

> <Gold.Chemscore.Hbond.Weighted>
-2.9780

> <Gold.Chemscore.Metal.Weighted>
-0.0000

> <Gold.Chemscore.Lipo.Weighted>
-11.8987

> <Gold.Chemscore.Internal_Hbond.Weighted>
0.0000

> <Gold.Chemscore.DEClash.Weighted>
0.6376

> <Gold.Chemscore.DEInternal.Weighted>
1.3069

> <Gold.Chemscore.Rot.Weighted>
2.5600

> <Gold.Chemscore.Internal.Correction.Weighted>
   9.000000E+99

> <Gold.Protein.RotatedTorsions>
[ 6907 6896 6895 6894 ] final -177.58 input  -60.11 | X-H torsion
[ 7974 7965 7964 7962 ] final  142.09 input  175.53 | X-H torsion
[ 8008 7997 7996 7995 ] final -120.91 input   59.86 | X-H torsion
[ 10167 10162 10161 10158 ] final -179.61 input  -65.29 | X-H torsion
[ 10718 10713 10712 10709 ] final -179.39 input   66.30 | X-H torsion
[ 10763 10752 10751 10750 ] final   52.13 input  -60.55 | X-H torsion
[ 11005 11000 10999 10996 ] final -129.92 input  -57.11 | X-H torsion

> <Gold.Protein.ActiveResidues>
 VAL166  LYS551  ARG553  GLY616  TRP617  ASP618  TYR619  PRO620  LYS621  CYS622 
 ASP623  PHE694  ASN695  SER759  ASP760  ASP761  ALA762  ILE779  LEU786  VAL792 
 PHE793  MET794  SER795  GLU796  ALA797  LYS798  CYS799  TRP800  GLU811  SER814 

> <Gold.Protein.RotatedAtoms>
  151.6234  133.3337  159.3092 H   0  0  0  0  0  0  0  0  0  0  0  0  # atno 6907 bound_to 6896
  150.8094  134.7243  159.6686 H   0  0  0  0  0  0  0  0  0  0  0  0  # atno 6908 bound_to 6896
  152.4190  134.5994  160.0047 H   0  0  0  0  0  0  0  0  0  0  0  0  # atno 6909 bound_to 6896
  144.9038  139.5386  143.5741 H   0  0  0  0  0  0  0  0  0  0  0  0  # atno 7974 bound_to 7965
  155.1394  140.0401  157.2795 H   0  0  0  0  0  0  0  0  0  0  0  0  # atno 8008 bound_to 7997
  154.6484  140.2563  155.7215 H   0  0  0  0  0  0  0  0  0  0  0  0  # atno 8009 bound_to 7997
  156.2566  140.2841  156.0907 H   0  0  0  0  0  0  0  0  0  0  0  0  # atno 8010 bound_to 7997
  139.5378  144.2447  152.0832 H   0  0  0  0  0  0  0  0  0  0  0  0  # atno 10167 bound_to 10162
  156.8584  130.9743  151.3086 H   0  0  0  0  0  0  0  0  0  0  0  0  # atno 10718 bound_to 10713
  152.9787  135.5822  154.4529 H   0  0  0  0  0  0  0  0  0  0  0  0  # atno 10763 bound_to 10752
  154.4115  135.2770  155.2035 H   0  0  0  0  0  0  0  0  0  0  0  0  # atno 10764 bound_to 10752
  154.3823  135.6144  153.5852 H   0  0  0  0  0  0  0  0  0  0  0  0  # atno 10765 bound_to 10752
  140.9391  134.1218  157.4167 H   0  0  0  0  0  0  0  0  0  0  0  0  # atno 11005 bound_to 11000
  146.3123  139.7790  142.9010 LP  0  0  0  0  0  0  0  0  0  0  0  0  # atno 17320 bound_to 7965
  145.3570  141.0318  143.3306 LP  0  0  0  0  0  0  0  0  0  0  0  0  # atno 17321 bound_to 7965
  140.1921  144.4742  150.6474 LP  0  0  0  0  0  0  0  0  0  0  0  0  # atno 17342 bound_to 10162
  140.6594  143.2247  151.5892 LP  0  0  0  0  0  0  0  0  0  0  0  0  # atno 17343 bound_to 10162
  157.6264  130.8695  149.9197 LP  0  0  0  0  0  0  0  0  0  0  0  0  # atno 17370 bound_to 10713
  156.0790  130.3675  150.0618 LP  0  0  0  0  0  0  0  0  0  0  0  0  # atno 17371 bound_to 10713
  139.8815  135.0030  156.6163 LP  0  0  0  0  0  0  0  0  0  0  0  0  # atno 17394 bound_to 11000
  140.7759  133.8700  155.8529 LP  0  0  0  0  0  0  0  0  0  0  0  0  # atno 17395 bound_to 11000

$$$$
