#       Name:                AV-unprocessed.smi:181
#       Creating user name   scv26
#       Creation time:       Thu Mar 26 19:25:31 2020


#       File generated by GOLD software.
#

@<TRIPOS>MOLECULE
AV-unprocessed.smi:181
    59    62     1
SMALL
NO_CHARGES


@<TRIPOS>ATOM
      1 ****        -4.2158  -2.2194  -2.2915 C.3            1 S1                 0.0000
      2 ****        -3.6150  -1.6957  -0.9815 C.3            1 S1                 0.0000
      3 ****        -2.9566  -0.3960  -1.1333 N.pl3          1 S1                 0.0000
      4 ****        -1.6039  -0.3998  -1.2690 C.ar           1 S1                 0.0000
      5 ****        -1.0360   0.1506  -2.3730 N.ar           1 S1                 0.0000
      6 ****         0.2916   0.1535  -2.5212 C.ar           1 S1                 0.0000
      7 ****         1.2237  -0.3274  -1.6969 N.ar           1 S1                 0.0000
      8 ****         0.6622  -0.8696  -0.5790 C.ar           1 S1                 0.0000
      9 ****        -0.7295  -0.9496  -0.2892 C.ar           1 S1                 0.0000
     10 ****        -0.9205  -1.5597   0.9451 N.2            1 S1                 0.0000
     11 ****         0.2872  -1.8362   1.3544 C.2            1 S1                 0.0000
     12 ****         1.2989  -1.4463   0.5061 N.pl3          1 S1                 0.0000
     13 ****         2.7278  -1.6221   0.7171 C.3            1 S1                 0.0000
     14 ****         3.4129  -0.4327   1.4363 C.3            1 S1                 0.0000
     15 ****         3.3102   0.7016   0.5933 O.3            1 S1                 0.0000
     16 ****         2.7523  -0.0923   2.7906 C.3            1 S1                 0.0000
     17 ****         3.5661   0.9419   3.5891 C.3            1 S1                 0.0000
     18 ****         4.9036   0.4888   3.7587 O.3            1 S1                 0.0000
     19 ****         5.5941   0.3411   2.5241 C.3            1 S1                 0.0000
     20 ****         4.9079  -0.7347   1.6637 C.3            1 S1                 0.0000
     21 ****        -3.7592   0.8192  -1.3582 C.3            1 S1                 0.0000
     22 ****        -3.2287   2.0555  -0.6053 C.3            1 S1                 0.0000
     23 ****        -3.6176   3.2462  -1.4940 C.3            1 S1                 0.0000
     24 ****        -3.8129   2.6646  -2.8092 N.am           1 S1                 0.0000
     25 ****        -3.8722   1.3332  -2.7934 C.2            1 S1                 0.0000
     26 ****        -4.0113   0.6133  -3.7799 O.2            1 S1                 0.0000
     27 ****        -4.6327  -3.2168  -2.1523 H              1 S1                 0.0000
     28 ****        -3.4601  -2.2812  -3.0750 H              1 S1                 0.0000
     29 ****        -5.0220  -1.5774  -2.6453 H              1 S1                 0.0000
     30 ****        -4.3989  -1.6046  -0.2291 H              1 S1                 0.0000
     31 ****        -2.9259  -2.4480  -0.5985 H              1 S1                 0.0000
     32 ****         0.6592   0.6070  -3.4296 H              1 S1                 0.0000
     33 ****         0.4752  -2.3264   2.2984 H              1 S1                 0.0000
     34 ****         2.8681  -2.5362   1.2956 H              1 S1                 0.0000
     35 ****         3.1980  -1.8029  -0.2506 H              1 S1                 0.0000
     36 ****         3.7412   1.4297   1.0140 H              1 S1                 0.0000
     37 ****         1.7366   0.2777   2.6470 H              1 S1                 0.0000
     38 ****         2.6669  -1.0015   3.3872 H              1 S1                 0.0000
     39 ****         3.5598   1.9141   3.0940 H              1 S1                 0.0000
     40 ****         3.1185   1.0875   4.5723 H              1 S1                 0.0000
     41 ****         5.6368   1.2973   2.0002 H              1 S1                 0.0000
     42 ****         6.6238   0.0501   2.7318 H              1 S1                 0.0000
     43 ****         5.0087  -1.6952   2.1711 H              1 S1                 0.0000
     44 ****         5.4271  -0.8383   0.7098 H              1 S1                 0.0000
     45 ****        -4.7800   0.6254  -1.0250 H              1 S1                 0.0000
     46 ****        -3.6485   2.1375   0.3977 H              1 S1                 0.0000
     47 ****        -2.1437   2.0371  -0.4988 H              1 S1                 0.0000
     48 ****        -4.5527   3.6979  -1.1607 H              1 S1                 0.0000
     49 ****        -2.8470   4.0174  -1.5093 H              1 S1                 0.0000
     50 ****        -3.8656   3.2225  -3.6491 H              1 S1                 0.0000
     51 ****        -1.6156   0.5564  -3.0797 LP             1 S1                 0.0000
     52 ****         2.2070  -0.2945  -1.8757 LP             1 S1                 0.0000
     53 ****        -1.7852  -1.7444   1.4123 LP             1 S1                 0.0000
     54 ****         2.3467   0.9224   0.4414 LP             1 S1                 0.0000
     55 ****         3.7506   0.5104  -0.2839 LP             1 S1                 0.0000
     56 ****         4.8848  -0.3969   4.2227 LP             1 S1                 0.0000
     57 ****         5.3963   1.1507   4.3236 LP             1 S1                 0.0000
     58 ****        -4.0574  -0.3798  -3.6717 LP             1 S1                 0.0000
     59 ****        -4.0784   1.0207  -4.6907 LP             1 S1                 0.0000
@<TRIPOS>BOND
    1    1    2 1     
    2    1   27 1     
    3    1   28 1     
    4    1   29 1     
    5    2    3 1     
    6    2   30 1     
    7    2   31 1     
    8    3    4 1     
    9    3   21 1     
   10    4    9 ar    
   11    4    5 ar    
   12    5    6 ar    
   13    6    7 ar    
   14    6   32 1     
   15    7    8 ar    
   16    8   12 1     
   17    8    9 ar    
   18    9   10 1     
   19   10   11 2     
   20   11   12 1     
   21   11   33 1     
   22   12   13 1     
   23   13   14 1     
   24   13   34 1     
   25   13   35 1     
   26   14   20 1     
   27   14   15 1     
   28   14   16 1     
   29   15   36 1     
   30   16   17 1     
   31   16   37 1     
   32   16   38 1     
   33   17   18 1     
   34   17   39 1     
   35   17   40 1     
   36   18   19 1     
   37   19   20 1     
   38   19   41 1     
   39   19   42 1     
   40   20   43 1     
   41   20   44 1     
   42   21   25 1     
   43   21   22 1     
   44   21   45 1     
   45   22   23 1     
   46   22   46 1     
   47   22   47 1     
   48   23   24 1     
   49   23   48 1     
   50   23   49 1     
   51   24   25 am    
   52   24   50 1     
   53   25   26 2     
   54    5   51 1     
   55    7   52 1     
   56   10   53 1     
   57   15   54 1     
   58   15   55 1     
   59   18   56 1     
   60   18   57 1     
   61   26   58 1     
   62   26   59 1     
@<TRIPOS>SUBSTRUCTURE
      1 S1             1
@<TRIPOS>SET
LONE_PAIRS      STATIC     ATOMS    <user>   **** ""
9 51 52 53 54 55 56 57 58 59
DONOR_HYDROGENS      STATIC     ATOMS    <user>   **** ""
2 36 50
ATOM$BLUE        STATIC     ATOMS    COLORGROUP SYSTEM
9 51 52 53 54 55 56 57 58 59
ATOM$RED        STATIC     ATOMS    COLORGROUP SYSTEM
2 36 50
