AV-unprocessed.smi:944|AV-procd|sdf|4232|dock6
  -GOLD-   22720 2143D 1   1.00000     0.00000
 Structure written by MMmdl.
 28 28  0  0  0  0  0  0  0  0  1 V2000
  143.4615  140.3173  156.2421 C   0  0  0  0  0  0  0  0  0  0  0  0
  144.4352  140.8911  155.3262 N   0  0  0  0  0  0  0  0  0  0  0  0
  145.7091  141.1563  155.6483 C   0  0  0  0  0  0  0  0  0  0  0  0
  146.1779  140.9438  156.7680 O   0  0  0  0  0  0  0  0  0  0  0  0
  146.5767  141.7720  154.5377 C   0  0  1  0  0  0  0  0  0  0  0  0
  145.9414  143.1103  154.1253 C   0  0  0  0  0  0  0  0  0  0  0  0
  147.9266  142.0461  155.0287 N   0  0  0  0  0  0  0  0  0  0  0  0
  148.8797  141.1236  155.2344 C   0  0  0  0  0  0  0  0  0  0  0  0
  148.7173  139.9248  155.0020 O   0  0  0  0  0  0  0  0  0  0  0  0
  150.2120  141.6481  155.7821 C   0  0  0  0  0  0  0  0  0  0  0  0
  151.1953  140.5926  155.9592 N   0  0  0  0  0  0  0  0  0  0  0  0
  151.9509  140.2770  157.0132 C   0  0  0  0  0  0  0  0  0  0  0  0
  152.7488  139.2381  156.8085 N   0  0  0  0  0  0  0  0  0  0  0  0
  152.4107  138.9421  155.5181 C   0  0  0  0  0  0  0  0  0  0  0  0
  151.4875  139.7259  154.9608 N   0  0  0  0  0  0  0  0  0  0  0  0
  142.5043  140.1915  155.7362 H   0  0  0  0  0  0  0  0  0  0  0  0
  143.3085  140.9680  157.1042 H   0  0  0  0  0  0  0  0  0  0  0  0
  143.7910  139.3397  156.5969 H   0  0  0  0  0  0  0  0  0  0  0  0
  144.1234  141.0959  154.3877 H   0  0  0  0  0  0  0  0  0  0  0  0
  146.6185  141.1040  153.6749 H   0  0  0  0  0  0  0  0  0  0  0  0
  144.9258  142.9698  153.7525 H   0  0  0  0  0  0  0  0  0  0  0  0
  146.5156  143.5823  153.3276 H   0  0  0  0  0  0  0  0  0  0  0  0
  145.8958  143.8133  154.9588 H   0  0  0  0  0  0  0  0  0  0  0  0
  148.1417  143.0074  155.2498 H   0  0  0  0  0  0  0  0  0  0  0  0
  150.6083  142.4040  155.1025 H   0  0  0  0  0  0  0  0  0  0  0  0
  150.0537  142.1319  156.7471 H   0  0  0  0  0  0  0  0  0  0  0  0
  151.9146  140.8165  157.9485 H   0  0  0  0  0  0  0  0  0  0  0  0
  152.8611  138.1263  154.9718 H   0  0  0  0  0  0  0  0  0  0  0  0
  1  2  1  0  0  0  0
  1 16  1  0  0  0  0
  1 17  1  0  0  0  0
  1 18  1  0  0  0  0
  2  3  1  0  0  0  0
  2 19  1  0  0  0  0
  3  4  2  0  0  0  0
  3  5  1  0  0  0  0
  5  6  1  0  0  0  0
  5  7  1  0  0  0  0
  5 20  1  0  0  0  0
  6 21  1  0  0  0  0
  6 22  1  0  0  0  0
  6 23  1  0  0  0  0
  7  8  1  0  0  0  0
  7 24  1  0  0  0  0
  8  9  2  0  0  0  0
  8 10  1  0  0  0  0
 10 11  1  0  0  0  0
 10 25  1  0  0  0  0
 10 26  1  0  0  0  0
 11 15  1  0  0  0  0
 11 12  1  0  0  0  0
 12 13  2  0  0  0  0
 12 27  1  0  0  0  0
 13 14  1  0  0  0  0
 14 15  2  0  0  0  0
 14 28  1  0  0  0  0
M  END
> <s_m_source_file>
AV-unprocessed.smi

> <i_m_source_file_index>
944

> <i_lp_mmshare_version>
43012

> <i_f3d_flags>
0

> <s_epik_input>
W0NIM11bTkhdQyg9TylbQ0BIXShbQ0gzXSlbTkhdQyg9TylbQ0gyXW4xW2NIXW5bY0hdbjE=

> <s_epik_cmdline>
J2VwaWtfcHl0aG9uJywgJy1waCcsICc3LjAnLCAnLXRuJywgJzgnLCAnLW1hJywgJzIwMCcsICctbWV0YWxfYmluZGluZycsICctaW1hZScsICc8aW5maWxlLm1hZT4nLCAnLW9tYWUnLCAnPG91dGZpbGUubWFlPic=

> <r_lp_tautomer_probability>
1

> <r_epik_Ionization_Penalty>
7.54354e-06

> <r_epik_Ionization_Penalty_Charging>
0

> <r_epik_Ionization_Penalty_Neutral>
7.54354e-06

> <r_epik_State_Penalty>
-0

> <r_epik_Charging_Adjusted_Penalty>
0

> <i_epik_Tot_Q>
0

> <i_epik_Tot_abs_Q>
0

> <r_epik_Metal_State_Penalty>
-0

> <b_epik_Metal_Only>
0

> <s_lp_Force_Field>
OPLS_2005

> <r_lp_Energy>
4.79019

> <b_lp_Chiralities_Consistent>
1

> <s_lp_Variant>
AV-unprocessed.smi:944-2

> <Gold.Version>
5.8.1

> <Gold.Id.Protein>
6NUR|6NUR_protein|mol2

> <Gold.PLP.Fitness>
37.8741

> <Gold.PLP.PLP>
-26.5529

> <Gold.PLP.part.hbond>
-4.0000

> <Gold.PLP.part.metal>
0.0000

> <Gold.PLP.part.buried>
-4.6862

> <Gold.PLP.part.nonpolar>
-18.8452

> <Gold.PLP.part.repulsive>
0.2987

> <Gold.PLP.ligand.clash>
0.0000

> <Gold.PLP.ligand.torsion>
0.2634

> <Gold.PLP.Chemscore.Hbond>
3.9440

> <Gold.PLP.Chemscore.CHOScore>
0.0000

> <Gold.PLP.Chemscore.Metal>
0.0000

> <Gold.Chemscore.Hbonds>
donor molecule, donor type, donor heavy atom, donor atom, acceptor molecule, acceptor atom, score
      L1  H     2    19       P1 10175  1.00
      L1  H     7    24       P1  8028  1.00
      P1  H  7989  7998       L1    15  1.00
      P1  H  7997  8009       L1    13  1.00

> <Gold.PLP.Chemscore.Internal.Correction>
0.0160

> <Gold.Rescore>
     Score         DG    S(hbond)    S(metal)    S(lipo)     H(rot)  DE(clash)    DE(int)     intcor
      8.82     -11.53       3.22        0.00      19.83       2.74       0.11       2.60       ----

> <Gold.Chemscore.Fitness>
8.8220

> <Gold.Chemscore.DG>
-11.5332

> <Gold.Chemscore.ZeroCoef>
-5.4800

> <Gold.Chemscore.Hbond>
3.2199

> <Gold.Chemscore.Metal>
0.0000

> <Gold.Chemscore.Lipo>
19.8261

> <Gold.Chemscore.Internal_Hbond>
0.0000

> <Gold.Chemscore.DEClash>
0.1093

> <Gold.Chemscore.DEInternal>
2.6019

> <Gold.Chemscore.Rot>
2.7426

> <Gold.Chemscore.Internal.Correction>
   9.000000E+99

> <Gold.Chemscore.Hbonds>
donor molecule, donor type, donor heavy atom, donor atom, acceptor molecule, acceptor atom, score
      L1  H     2    19       P1 10175  0.74
      L1  H     7    24       P1  8028  0.94
      P1  H  7989  7998       L1    15  0.35
      P1  H  7997  8009       L1    13  0.10

> <Gold.Chemscore.Hbond.Weighted>
-10.7545

> <Gold.Chemscore.Metal.Weighted>
-0.0000

> <Gold.Chemscore.Lipo.Weighted>
-2.3197

> <Gold.Chemscore.Internal_Hbond.Weighted>
0.0000

> <Gold.Chemscore.DEClash.Weighted>
0.1093

> <Gold.Chemscore.DEInternal.Weighted>
2.6019

> <Gold.Chemscore.Rot.Weighted>
7.0210

> <Gold.Chemscore.Internal.Correction.Weighted>
   9.000000E+99

> <Gold.Protein.RotatedTorsions>
[ 6907 6896 6895 6894 ] final  179.93 input  -60.11 | X-H torsion
[ 7974 7965 7964 7962 ] final   26.84 input  175.53 | X-H torsion
[ 8008 7997 7996 7995 ] final -177.59 input   59.86 | X-H torsion
[ 10167 10162 10161 10158 ] final    5.51 input  -65.29 | X-H torsion
[ 10718 10713 10712 10709 ] final -175.92 input   66.30 | X-H torsion
[ 10763 10752 10751 10750 ] final  141.11 input  -60.55 | X-H torsion
[ 11005 11000 10999 10996 ] final -164.85 input  -57.11 | X-H torsion

> <Gold.Protein.ActiveResidues>
 VAL166  LYS551  ARG553  GLY616  TRP617  ASP618  TYR619  PRO620  LYS621  CYS622 
 ASP623  PHE694  ASN695  SER759  ASP760  ASP761  ALA762  ILE779  LEU786  VAL792 
 PHE793  MET794  SER795  GLU796  ALA797  LYS798  CYS799  TRP800  GLU811  SER814 

> <Gold.Protein.RotatedAtoms>
  151.6636  133.3316  159.3179 H   0  0  0  0  0  0  0  0  0  0  0  0  # atno 6907 bound_to 6896
  150.7901  134.6922  159.6513 H   0  0  0  0  0  0  0  0  0  0  0  0  # atno 6908 bound_to 6896
  152.3979  134.6338  160.0134 H   0  0  0  0  0  0  0  0  0  0  0  0  # atno 6909 bound_to 6896
  146.1816  139.7273  142.8896 H   0  0  0  0  0  0  0  0  0  0  0  0  # atno 7974 bound_to 7965
  156.0087  140.1236  157.0475 H   0  0  0  0  0  0  0  0  0  0  0  0  # atno 8008 bound_to 7997
  154.4268  140.1092  156.5868 H   0  0  0  0  0  0  0  0  0  0  0  0  # atno 8009 bound_to 7997
  155.6110  140.3471  155.4624 H   0  0  0  0  0  0  0  0  0  0  0  0  # atno 8010 bound_to 7997
  140.6478  143.7619  150.7526 H   0  0  0  0  0  0  0  0  0  0  0  0  # atno 10167 bound_to 10162
  156.8070  130.9572  151.3117 H   0  0  0  0  0  0  0  0  0  0  0  0  # atno 10718 bound_to 10713
  153.9338  135.2987  155.3445 H   0  0  0  0  0  0  0  0  0  0  0  0  # atno 10763 bound_to 10752
  154.7512  135.4979  153.9296 H   0  0  0  0  0  0  0  0  0  0  0  0  # atno 10764 bound_to 10752
  153.1077  135.6751  153.9661 H   0  0  0  0  0  0  0  0  0  0  0  0  # atno 10765 bound_to 10752
  140.5823  134.5129  157.5180 H   0  0  0  0  0  0  0  0  0  0  0  0  # atno 11005 bound_to 11000
  145.4059  141.0391  143.3044 LP  0  0  0  0  0  0  0  0  0  0  0  0  # atno 17320 bound_to 7965
  144.8325  139.5604  143.6937 LP  0  0  0  0  0  0  0  0  0  0  0  0  # atno 17321 bound_to 7965
  140.1264  143.4565  152.2281 LP  0  0  0  0  0  0  0  0  0  0  0  0  # atno 17342 bound_to 10162
  139.5690  144.7452  151.3943 LP  0  0  0  0  0  0  0  0  0  0  0  0  # atno 17343 bound_to 10162
  157.6525  130.8896  149.9662 LP  0  0  0  0  0  0  0  0  0  0  0  0  # atno 17370 bound_to 10713
  156.1067  130.3652  150.0121 LP  0  0  0  0  0  0  0  0  0  0  0  0  # atno 17371 bound_to 10713
  139.9311  134.7961  156.0928 LP  0  0  0  0  0  0  0  0  0  0  0  0  # atno 17394 bound_to 11000
  141.0988  133.6685  156.2706 LP  0  0  0  0  0  0  0  0  0  0  0  0  # atno 17395 bound_to 11000

$$$$
