AV-unprocessed.smi:2041|AV-procd|sdf|8292|dock1
  -GOLD-   2272010553D 1   1.00000     0.00000
 Structure written by MMmdl.
 30 31  0  0  0  0  0  0  0  0  2 V2000
  152.0390  140.4568  155.6959 O   0  0  0  0  0  0  0  0  0  0  0  0
  150.8855  140.1992  156.0483 C   0  0  0  0  0  0  0  0  0  0  0  0
  149.9546  139.5368  155.3239 N   0  5  0  0  0  0  0  0  0  0  0  0
  148.9257  140.2057  154.7786 C   0  0  0  0  0  0  0  0  0  0  0  0
  148.7898  141.5338  154.8684 N   0  0  0  0  0  0  0  0  0  0  0  0
  147.6526  142.0206  154.2211 C   0  0  0  0  0  0  0  0  0  0  0  0
  146.9091  141.0411  153.6181 C   0  0  0  0  0  0  0  0  0  0  0  0
  147.6194  139.4686  153.8465 S   0  0  0  0  0  0  0  0  0  0  0  0
  150.4523  140.5867  157.2578 N   0  0  0  0  0  0  0  0  0  0  0  0
  151.2232  141.3255  158.2604 C   0  0  2  0  0  0  0  0  0  0  0  0
  151.5028  142.7429  157.7001 C   0  0  0  0  0  0  0  0  0  0  0  0
  152.6195  143.5518  158.3981 C   0  0  0  0  0  0  0  0  0  0  0  0
  152.5978  143.5063  159.9396 C   0  0  0  0  0  0  0  0  0  0  0  0
  152.7615  142.1115  160.5980 C   0  0  0  0  0  0  0  0  0  0  0  0
  153.2162  141.0545  159.6945 N   0  0  0  0  0  0  0  0  0  0  0  0
  152.5561  140.6239  158.6056 C   0  0  0  0  0  0  0  0  0  0  0  0
  153.0103  139.7277  157.8952 O   0  0  0  0  0  0  0  0  0  0  0  0
  147.4502  143.0811  154.2394 H   0  0  0  0  0  0  0  0  0  0  0  0
  145.9938  141.1467  153.0559 H   0  0  0  0  0  0  0  0  0  0  0  0
  149.4990  140.3584  157.4980 H   0  0  0  0  0  0  0  0  0  0  0  0
  150.6138  141.4096  159.1611 H   0  0  0  0  0  0  0  0  0  0  0  0
  151.7512  142.6798  156.6394 H   0  0  0  0  0  0  0  0  0  0  0  0
  150.5749  143.3138  157.7490 H   0  0  0  0  0  0  0  0  0  0  0  0
  153.5933  143.2111  158.0438 H   0  0  0  0  0  0  0  0  0  0  0  0
  152.5502  144.5901  158.0729 H   0  0  0  0  0  0  0  0  0  0  0  0
  153.4023  144.1486  160.2999 H   0  0  0  0  0  0  0  0  0  0  0  0
  151.6778  143.9657  160.3024 H   0  0  0  0  0  0  0  0  0  0  0  0
  153.4705  142.1798  161.4234 H   0  0  0  0  0  0  0  0  0  0  0  0
  151.8200  141.8011  161.0528 H   0  0  0  0  0  0  0  0  0  0  0  0
  154.0934  140.6075  159.9182 H   0  0  0  0  0  0  0  0  0  0  0  0
  1  2  2  0  0  0  0
  2  3  1  0  0  0  0
  2  9  1  0  0  0  0
  3  4  1  0  0  0  0
  4  8  1  0  0  0  0
  4  5  2  0  0  0  0
  5  6  1  0  0  0  0
  6  7  2  0  0  0  0
  6 18  1  0  0  0  0
  7  8  1  0  0  0  0
  7 19  1  0  0  0  0
  9 10  1  0  0  0  0
  9 20  1  0  0  0  0
 10 16  1  0  0  0  0
 10 11  1  0  0  0  0
 10 21  1  0  0  0  0
 11 12  1  0  0  0  0
 11 22  1  0  0  0  0
 11 23  1  0  0  0  0
 12 13  1  0  0  0  0
 12 24  1  0  0  0  0
 12 25  1  0  0  0  0
 13 14  1  0  0  0  0
 13 26  1  0  0  0  0
 13 27  1  0  0  0  0
 14 15  1  0  0  0  0
 14 28  1  0  0  0  0
 14 29  1  0  0  0  0
 15 16  1  0  0  0  0
 15 30  1  0  0  0  0
 16 17  2  0  0  0  0
M  CHG  1   3  -1
M  END
> <s_m_source_file>
AV-unprocessed.smi

> <i_m_source_file_index>
2041

> <i_lp_mmshare_version>
43012

> <i_f3d_flags>
0

> <s_epik_input>
czFbY0hdW2NIXW5jMVtOSF1DKD1PKVtOSF1bQ0BASF0yW0NIMl1bQ0gyXVtDSDJdW0NIMl1bTkhdQzI9Tw==

> <s_epik_cmdline>
J2VwaWtfcHl0aG9uJywgJy1waCcsICc3LjAnLCAnLXRuJywgJzgnLCAnLW1hJywgJzIwMCcsICctbWV0YWxfYmluZGluZycsICctaW1hZScsICc8aW5maWxlLm1hZT4nLCAnLW9tYWUnLCAnPG91dGZpbGUubWFlPic=

> <r_lp_tautomer_probability>
1

> <r_epik_Ionization_Penalty>
7.83857

> <r_epik_Ionization_Penalty_Charging>
6.39911

> <r_epik_Ionization_Penalty_Neutral>
1.43945

> <r_epik_State_Penalty>
6.3991

> <r_epik_Charging_Adjusted_Penalty>
12.7982

> <i_epik_Tot_Q>
-1

> <i_epik_Tot_abs_Q>
1

> <r_epik_Metal_State_Penalty>
2.33024

> <b_epik_Metal_Only>
1

> <s_lp_Force_Field>
OPLS_2005

> <r_lp_Energy>
11.6521

> <b_lp_Chiralities_Consistent>
1

> <s_lp_Variant>
AV-unprocessed.smi:2041-3

> <Gold.Version>
5.8.1

> <Gold.Id.Protein>
6NUR|6NUR_protein|mol2

> <Gold.PLP.Fitness>
39.2047

> <Gold.PLP.PLP>
-31.6200

> <Gold.PLP.part.hbond>
-2.1187

> <Gold.PLP.part.metal>
0.0000

> <Gold.PLP.part.buried>
-3.2141

> <Gold.PLP.part.nonpolar>
-26.6463

> <Gold.PLP.part.repulsive>
0.3179

> <Gold.PLP.ligand.clash>
0.0000

> <Gold.PLP.ligand.torsion>
0.7269

> <Gold.PLP.Chemscore.Hbond>
1.3650

> <Gold.PLP.Chemscore.CHOScore>
1.6350

> <Gold.PLP.Chemscore.Metal>
0.0000

> <Gold.Chemscore.Hbonds>
donor molecule, donor type, donor heavy atom, donor atom, acceptor molecule, acceptor atom, score
      P1  H  7989  7998       L1     1  0.28
      P1  H  7997  8010       L1    17  1.00
      L1  C     6    18       P1  8028  0.82
      L1  C     7    19       P1 10175  0.98

> <Gold.PLP.Chemscore.Internal.Correction>
0.0385

> <Gold.Rescore>
     Score         DG    S(hbond)    S(metal)    S(lipo)     H(rot)  DE(clash)    DE(int)     intcor
     10.58     -15.82       1.48        0.00      68.11       1.00       0.17       5.07       ----

> <Gold.Chemscore.Fitness>
10.5813

> <Gold.Chemscore.DG>
-15.8211

> <Gold.Chemscore.ZeroCoef>
-5.4800

> <Gold.Chemscore.Hbond>
1.4769

> <Gold.Chemscore.Metal>
0.0000

> <Gold.Chemscore.Lipo>
68.1054

> <Gold.Chemscore.Internal_Hbond>
0.0000

> <Gold.Chemscore.DEClash>
0.1658

> <Gold.Chemscore.DEInternal>
5.0741

> <Gold.Chemscore.Rot>
1.0000

> <Gold.Chemscore.Internal.Correction>
   9.000000E+99

> <Gold.Chemscore.Hbonds>
donor molecule, donor type, donor heavy atom, donor atom, acceptor molecule, acceptor atom, score
      P1  H  7989  7998       L1     1  0.07
      P1  H  7997  8010       L1    17  0.95

> <Gold.Chemscore.Hbond.Weighted>
-4.9328

> <Gold.Chemscore.Metal.Weighted>
-0.0000

> <Gold.Chemscore.Lipo.Weighted>
-7.9683

> <Gold.Chemscore.Internal_Hbond.Weighted>
0.0000

> <Gold.Chemscore.DEClash.Weighted>
0.1658

> <Gold.Chemscore.DEInternal.Weighted>
5.0741

> <Gold.Chemscore.Rot.Weighted>
2.5600

> <Gold.Chemscore.Internal.Correction.Weighted>
   9.000000E+99

> <Gold.Protein.RotatedTorsions>
[ 6907 6896 6895 6894 ] final -145.17 input  -60.11 | X-H torsion
[ 7974 7965 7964 7962 ] final -130.23 input  175.53 | X-H torsion
[ 8008 7997 7996 7995 ] final   56.43 input   59.86 | X-H torsion
[ 10167 10162 10161 10158 ] final  179.11 input  -65.29 | X-H torsion
[ 10718 10713 10712 10709 ] final  159.80 input   66.30 | X-H torsion
[ 10763 10752 10751 10750 ] final   43.19 input  -60.55 | X-H torsion
[ 11005 11000 10999 10996 ] final   98.14 input  -57.11 | X-H torsion

> <Gold.Protein.ActiveResidues>
 VAL166  LYS551  ARG553  GLY616  TRP617  ASP618  TYR619  PRO620  LYS621  CYS622 
 ASP623  PHE694  ASN695  SER759  ASP760  ASP761  ALA762  ILE779  LEU786  VAL792 
 PHE793  MET794  SER795  GLU796  ALA797  LYS798  CYS799  TRP800  GLU811  SER814 

> <Gold.Protein.RotatedAtoms>
  151.1241  133.5083  159.2600 H   0  0  0  0  0  0  0  0  0  0  0  0  # atno 6907 bound_to 6896
  151.1829  135.0368  159.8810 H   0  0  0  0  0  0  0  0  0  0  0  0  # atno 6908 bound_to 6896
  152.5457  134.1091  159.8404 H   0  0  0  0  0  0  0  0  0  0  0  0  # atno 6909 bound_to 6896
  144.9495  140.7328  143.4797 H   0  0  0  0  0  0  0  0  0  0  0  0  # atno 7974 bound_to 7965
  155.5174  140.3479  155.4400 H   0  0  0  0  0  0  0  0  0  0  0  0  # atno 8008 bound_to 7997
  156.0808  140.1386  156.9742 H   0  0  0  0  0  0  0  0  0  0  0  0  # atno 8009 bound_to 7997
  154.4579  140.0946  156.6785 H   0  0  0  0  0  0  0  0  0  0  0  0  # atno 8010 bound_to 7997
  139.5322  144.2600  152.0715 H   0  0  0  0  0  0  0  0  0  0  0  0  # atno 10167 bound_to 10162
  157.1592  131.0583  151.2241 H   0  0  0  0  0  0  0  0  0  0  0  0  # atno 10718 bound_to 10713
  152.9866  135.6109  154.3071 H   0  0  0  0  0  0  0  0  0  0  0  0  # atno 10763 bound_to 10752
  154.2788  135.2777  155.2708 H   0  0  0  0  0  0  0  0  0  0  0  0  # atno 10764 bound_to 10752
  154.5056  135.5855  153.6621 H   0  0  0  0  0  0  0  0  0  0  0  0  # atno 10765 bound_to 10752
  139.8773  134.9035  156.4411 H   0  0  0  0  0  0  0  0  0  0  0  0  # atno 11005 bound_to 11000
  145.2866  139.1898  143.4762 LP  0  0  0  0  0  0  0  0  0  0  0  0  # atno 17320 bound_to 7965
  146.3316  140.2837  142.8611 LP  0  0  0  0  0  0  0  0  0  0  0  0  # atno 17321 bound_to 7965
  140.2065  144.4606  150.6406 LP  0  0  0  0  0  0  0  0  0  0  0  0  # atno 17342 bound_to 10162
  140.6508  143.2224  151.6082 LP  0  0  0  0  0  0  0  0  0  0  0  0  # atno 17343 bound_to 10162
  157.4148  130.7405  149.6867 LP  0  0  0  0  0  0  0  0  0  0  0  0  # atno 17370 bound_to 10713
  155.9757  130.4086  150.3833 LP  0  0  0  0  0  0  0  0  0  0  0  0  # atno 17371 bound_to 10713
  140.8998  133.7787  155.9667 LP  0  0  0  0  0  0  0  0  0  0  0  0  # atno 17394 bound_to 11000
  140.8663  134.2780  157.5211 LP  0  0  0  0  0  0  0  0  0  0  0  0  # atno 17395 bound_to 11000

$$$$
