AV-unprocessed.smi:1645|AV-procd|sdf|6602|dock4
  -GOLD-   22720 7303D 1   1.00000     0.00000
 Structure written by MMmdl.
 55 58  0  0  0  0  0  0  0  0  2 V2000
  147.9300  135.5730  155.7379 O   0  0  0  0  0  0  0  0  0  0  0  0
  148.5026  135.6691  154.6530 C   0  0  0  0  0  0  0  0  0  0  0  0
  149.3561  136.6481  154.3084 N   0  0  0  0  0  0  0  0  0  0  0  0
  149.8431  137.7154  155.1097 C   0  0  0  0  0  0  0  0  0  0  0  0
  149.9708  137.6595  156.5168 C   0  0  0  0  0  0  0  0  0  0  0  0
  150.4963  138.7740  157.1985 C   0  0  0  0  0  0  0  0  0  0  0  0
  150.8897  139.9155  156.4612 C   0  0  0  0  0  0  0  0  0  0  0  0
  151.4273  141.0389  157.1270 N   0  0  0  0  0  0  0  0  0  0  0  0
  151.8967  140.8536  158.5028 C   0  0  0  0  0  0  0  0  0  0  0  0
  152.7802  142.0297  158.9531 C   0  0  0  0  0  0  0  0  0  0  0  0
  152.0596  143.3705  158.7518 C   0  0  0  0  0  0  0  0  0  0  0  0
  151.5995  143.5058  157.2930 C   0  0  0  0  0  0  0  0  0  0  0  0
  150.7365  142.3047  156.8707 C   0  0  0  0  0  0  0  0  0  0  0  0
  150.7686  139.9636  155.1119 N   0  0  0  0  0  0  0  0  0  0  0  0
  150.2673  138.8925  154.4622 C   0  0  0  0  0  0  0  0  0  0  0  0
  148.3241  134.8033  153.6454 N   0  0  0  0  0  0  0  0  0  0  0  0
  147.4523  133.6328  153.6894 C   0  0  2  0  0  0  0  0  0  0  0  0
  148.2069  132.3218  153.9348 C   0  0  0  0  0  0  0  0  0  0  0  0
  147.3542  131.2875  153.2023 C   0  0  0  0  0  0  0  0  0  0  0  0
  146.9222  132.0051  151.9945 N   0  3  1  0  0  0  0  0  0  0  0  0
  145.9502  131.3201  151.1033 C   0  0  0  0  0  0  0  0  0  0  0  0
  144.4883  131.6339  151.4409 C   0  0  0  0  0  0  0  0  0  0  0  0
  144.2740  133.1474  151.4774 C   0  0  0  0  0  0  0  0  0  0  0  0
  145.1641  133.7392  152.5704 C   0  0  0  0  0  0  0  0  0  0  0  0
  146.6680  133.4247  152.3668 C   0  0  1  0  0  0  0  0  0  0  0  0
  149.6683  136.6523  153.3485 H   0  0  0  0  0  0  0  0  0  0  0  0
  149.6919  136.7848  157.0834 H   0  0  0  0  0  0  0  0  0  0  0  0
  150.5847  138.7435  158.2743 H   0  0  0  0  0  0  0  0  0  0  0  0
  151.0351  140.7598  159.1653 H   0  0  0  0  0  0  0  0  0  0  0  0
  152.4684  139.9281  158.5837 H   0  0  0  0  0  0  0  0  0  0  0  0
  153.0581  141.9075  160.0001 H   0  0  0  0  0  0  0  0  0  0  0  0
  153.7098  142.0260  158.3827 H   0  0  0  0  0  0  0  0  0  0  0  0
  151.1975  143.4284  159.4174 H   0  0  0  0  0  0  0  0  0  0  0  0
  152.7186  144.1971  159.0186 H   0  0  0  0  0  0  0  0  0  0  0  0
  151.0393  144.4320  157.1624 H   0  0  0  0  0  0  0  0  0  0  0  0
  152.4704  143.5758  156.6398 H   0  0  0  0  0  0  0  0  0  0  0  0
  150.4719  142.4148  155.8198 H   0  0  0  0  0  0  0  0  0  0  0  0
  149.7997  142.3068  157.4296 H   0  0  0  0  0  0  0  0  0  0  0  0
  150.2007  138.9822  153.3877 H   0  0  0  0  0  0  0  0  0  0  0  0
  148.8339  134.9616  152.7885 H   0  0  0  0  0  0  0  0  0  0  0  0
  146.7598  133.7531  154.5248 H   0  0  0  0  0  0  0  0  0  0  0  0
  149.2000  132.3619  153.4837 H   0  0  0  0  0  0  0  0  0  0  0  0
  148.3290  132.0946  154.9942 H   0  0  0  0  0  0  0  0  0  0  0  0
  147.9116  130.3819  152.9613 H   0  0  0  0  0  0  0  0  0  0  0  0
  146.4835  131.0119  153.7996 H   0  0  0  0  0  0  0  0  0  0  0  0
  146.1533  131.6533  150.0847 H   0  0  0  0  0  0  0  0  0  0  0  0
  146.1278  130.2440  151.1129 H   0  0  0  0  0  0  0  0  0  0  0  0
  143.8315  131.1819  150.6969 H   0  0  0  0  0  0  0  0  0  0  0  0
  144.2205  131.1920  152.4015 H   0  0  0  0  0  0  0  0  0  0  0  0
  144.5110  133.5916  150.5097 H   0  0  0  0  0  0  0  0  0  0  0  0
  143.2274  133.3745  151.6829 H   0  0  0  0  0  0  0  0  0  0  0  0
  145.0175  134.8182  152.6252 H   0  0  0  0  0  0  0  0  0  0  0  0
  144.8224  133.3399  153.5264 H   0  0  0  0  0  0  0  0  0  0  0  0
  147.0616  134.0436  151.5588 H   0  0  0  0  0  0  0  0  0  0  0  0
  147.7707  132.0452  151.4483 H   0  0  0  0  0  0  0  0  0  0  0  0
  1  2  2  0  0  0  0
  2  3  1  0  0  0  0
  2 16  1  0  0  0  0
  3  4  1  0  0  0  0
  3 26  1  0  0  0  0
  4 15  1  0  0  0  0
  4  5  2  0  0  0  0
  5  6  1  0  0  0  0
  5 27  1  0  0  0  0
  6  7  2  0  0  0  0
  6 28  1  0  0  0  0
  7  8  1  0  0  0  0
  7 14  1  0  0  0  0
  8 13  1  0  0  0  0
  8  9  1  0  0  0  0
  9 10  1  0  0  0  0
  9 29  1  0  0  0  0
  9 30  1  0  0  0  0
 10 11  1  0  0  0  0
 10 31  1  0  0  0  0
 10 32  1  0  0  0  0
 11 12  1  0  0  0  0
 11 33  1  0  0  0  0
 11 34  1  0  0  0  0
 12 13  1  0  0  0  0
 12 35  1  0  0  0  0
 12 36  1  0  0  0  0
 13 37  1  0  0  0  0
 13 38  1  0  0  0  0
 14 15  2  0  0  0  0
 15 39  1  0  0  0  0
 16 17  1  0  0  0  0
 16 40  1  0  0  0  0
 17 25  1  0  0  0  0
 17 18  1  0  0  0  0
 17 41  1  0  0  0  0
 18 19  1  0  0  0  0
 18 42  1  0  0  0  0
 18 43  1  0  0  0  0
 19 20  1  0  0  0  0
 19 44  1  0  0  0  0
 19 45  1  0  0  0  0
 20 25  1  0  0  0  0
 20 21  1  0  0  0  0
 20 55  1  0  0  0  0
 21 22  1  0  0  0  0
 21 46  1  0  0  0  0
 21 47  1  0  0  0  0
 22 23  1  0  0  0  0
 22 48  1  0  0  0  0
 22 49  1  0  0  0  0
 23 24  1  0  0  0  0
 23 50  1  0  0  0  0
 23 51  1  0  0  0  0
 24 25  1  0  0  0  0
 24 52  1  0  0  0  0
 24 53  1  0  0  0  0
 25 54  1  0  0  0  0
M  CHG  1  20   1
M  END
> <s_m_source_file>
AV-unprocessed.smi

> <i_m_source_file_index>
1645

> <i_lp_mmshare_version>
43012

> <i_f3d_flags>
0

> <s_epik_input>
W0NIMl0xW0NIMl1bQ0gyXVtDSDJdW0NASF0oTjEyKVtDQEBIXShbQ0gyXVtDSDJdMilbTkhdQyg9TylbTkhdYzNbY0hdW2NIXWMobltjSF0zKU40W0NIMl1bQ0gyXVtDSDJdW0NIMl1bQ0gyXTQ=

> <s_epik_cmdline>
J2VwaWtfcHl0aG9uJywgJy1waCcsICc3LjAnLCAnLXRuJywgJzgnLCAnLW1hJywgJzIwMCcsICctbWV0YWxfYmluZGluZycsICctaW1hZScsICc8aW5maWxlLm1hZT4nLCAnLW9tYWUnLCAnPG91dGZpbGUubWFlPic=

> <r_lp_tautomer_probability>
1

> <r_epik_Ionization_Penalty>
0.0808019

> <r_epik_Ionization_Penalty_Charging>
0.000974069

> <r_epik_Ionization_Penalty_Neutral>
0.0798278

> <r_epik_State_Penalty>
0.0653665

> <r_epik_Charging_Adjusted_Penalty>
0.0663406

> <i_epik_Tot_Q>
1

> <i_epik_Tot_abs_Q>
1

> <r_epik_Metal_State_Penalty>
0.0585673

> <b_epik_Metal_Only>
0

> <s_lp_Force_Field>
OPLS_2005

> <r_lp_Energy>
57.6774

> <b_lp_Chiralities_Consistent>
1

> <s_lp_Variant>
AV-unprocessed.smi:1645-3

> <Gold.Version>
5.8.1

> <Gold.Id.Protein>
6NUR|6NUR_protein|mol2

> <Gold.PLP.Fitness>
46.5941

> <Gold.PLP.PLP>
-35.6249

> <Gold.PLP.part.hbond>
-3.2642

> <Gold.PLP.part.metal>
0.0000

> <Gold.PLP.part.buried>
-2.0478

> <Gold.PLP.part.nonpolar>
-30.5238

> <Gold.PLP.part.repulsive>
0.1185

> <Gold.PLP.ligand.clash>
0.0000

> <Gold.PLP.ligand.torsion>
0.6523

> <Gold.PLP.Chemscore.Hbond>
2.9554

> <Gold.PLP.Chemscore.CHOScore>
1.0000

> <Gold.PLP.Chemscore.Metal>
0.0000

> <Gold.Chemscore.Hbonds>
donor molecule, donor type, donor heavy atom, donor atom, acceptor molecule, acceptor atom, score
      L1  H     3    26       P1  7948  0.72
      L1  H    16    40       P1  7948  0.54
      L1  H    20    55       P1 10747  0.77
      P1  H  7989  7998       L1    14  0.88
      L1  C    15    39       P1  7957  1.00

> <Gold.PLP.Chemscore.Internal.Correction>
0.4074

> <Gold.Rescore>
     Score         DG    S(hbond)    S(metal)    S(lipo)     H(rot)  DE(clash)    DE(int)     intcor
     20.31     -22.20       2.18        0.00     106.40       1.17       0.22       1.66       ----

> <Gold.Chemscore.Fitness>
20.3149

> <Gold.Chemscore.DG>
-22.1996

> <Gold.Chemscore.ZeroCoef>
-5.4800

> <Gold.Chemscore.Hbond>
2.1777

> <Gold.Chemscore.Metal>
0.0000

> <Gold.Chemscore.Lipo>
106.4047

> <Gold.Chemscore.Internal_Hbond>
0.0000

> <Gold.Chemscore.DEClash>
0.2233

> <Gold.Chemscore.DEInternal>
1.6614

> <Gold.Chemscore.Rot>
1.1731

> <Gold.Chemscore.Internal.Correction>
   9.000000E+99

> <Gold.Chemscore.Hbonds>
donor molecule, donor type, donor heavy atom, donor atom, acceptor molecule, acceptor atom, score
      L1  H     3    26       P1  7948  0.36
      L1  H    16    40       P1  7948  0.07
      L1  H    20    55       P1 10747  0.74
      P1  H  7989  7998       L1    14  0.16

> <Gold.Chemscore.Hbond.Weighted>
-7.2735

> <Gold.Chemscore.Metal.Weighted>
-0.0000

> <Gold.Chemscore.Lipo.Weighted>
-12.4493

> <Gold.Chemscore.Internal_Hbond.Weighted>
0.0000

> <Gold.Chemscore.DEClash.Weighted>
0.2233

> <Gold.Chemscore.DEInternal.Weighted>
1.6614

> <Gold.Chemscore.Rot.Weighted>
3.0032

> <Gold.Chemscore.Internal.Correction.Weighted>
   9.000000E+99

> <Gold.Protein.RotatedTorsions>
[ 6907 6896 6895 6894 ] final   57.99 input  -60.11 | X-H torsion
[ 7974 7965 7964 7962 ] final  -89.78 input  175.53 | X-H torsion
[ 8008 7997 7996 7995 ] final  135.23 input   59.86 | X-H torsion
[ 10167 10162 10161 10158 ] final   21.98 input  -65.29 | X-H torsion
[ 10718 10713 10712 10709 ] final -173.75 input   66.30 | X-H torsion
[ 10763 10752 10751 10750 ] final -100.13 input  -60.55 | X-H torsion
[ 11005 11000 10999 10996 ] final   15.97 input  -57.11 | X-H torsion

> <Gold.Protein.ActiveResidues>
 VAL166  LYS551  ARG553  GLY616  TRP617  ASP618  TYR619  PRO620  LYS621  CYS622 
 ASP623  PHE694  ASN695  SER759  ASP760  ASP761  ALA762  ILE779  LEU786  VAL792 
 PHE793  MET794  SER795  GLU796  ALA797  LYS798  CYS799  TRP800  GLU811  SER814 

> <Gold.Protein.RotatedAtoms>
  152.3782  134.6630  160.0151 H   0  0  0  0  0  0  0  0  0  0  0  0  # atno 6907 bound_to 6896
  151.6902  133.3305  159.3249 H   0  0  0  0  0  0  0  0  0  0  0  0  # atno 6908 bound_to 6896
  150.7726  134.6641  159.6400 H   0  0  0  0  0  0  0  0  0  0  0  0  # atno 6909 bound_to 6896
  145.4352  140.9557  143.2105 H   0  0  0  0  0  0  0  0  0  0  0  0  # atno 7974 bound_to 7965
  156.3002  140.2476  156.3547 H   0  0  0  0  0  0  0  0  0  0  0  0  # atno 8008 bound_to 7997
  154.8933  140.0408  157.1870 H   0  0  0  0  0  0  0  0  0  0  0  0  # atno 8009 bound_to 7997
  154.8575  140.2915  155.5563 H   0  0  0  0  0  0  0  0  0  0  0  0  # atno 8010 bound_to 7997
  140.5384  143.9719  150.6505 H   0  0  0  0  0  0  0  0  0  0  0  0  # atno 10167 bound_to 10162
  156.7750  130.9462  151.3120 H   0  0  0  0  0  0  0  0  0  0  0  0  # atno 10718 bound_to 10713
  154.7554  135.4946  153.9365 H   0  0  0  0  0  0  0  0  0  0  0  0  # atno 10763 bound_to 10752
  153.1190  135.6727  153.9376 H   0  0  0  0  0  0  0  0  0  0  0  0  # atno 10764 bound_to 10752
  153.9113  135.3098  155.3427 H   0  0  0  0  0  0  0  0  0  0  0  0  # atno 10765 bound_to 10752
  140.4524  134.1211  155.7704 H   0  0  0  0  0  0  0  0  0  0  0  0  # atno 11005 bound_to 11000
  144.8157  139.5882  143.7009 LP  0  0  0  0  0  0  0  0  0  0  0  0  # atno 17320 bound_to 7965
  146.2586  139.6358  142.9378 LP  0  0  0  0  0  0  0  0  0  0  0  0  # atno 17321 bound_to 7965
  140.3113  143.3196  152.0876 LP  0  0  0  0  0  0  0  0  0  0  0  0  # atno 17342 bound_to 10162
  139.4979  144.6634  151.6412 LP  0  0  0  0  0  0  0  0  0  0  0  0  # atno 17343 bound_to 10162
  157.6673  130.9019  149.9961 LP  0  0  0  0  0  0  0  0  0  0  0  0  # atno 17370 bound_to 10713
  156.1254  130.3644  149.9818 LP  0  0  0  0  0  0  0  0  0  0  0  0  # atno 17371 bound_to 10713
  141.1658  133.8705  157.1718 LP  0  0  0  0  0  0  0  0  0  0  0  0  # atno 17394 bound_to 11000
  139.9998  135.0032  157.0165 LP  0  0  0  0  0  0  0  0  0  0  0  0  # atno 17395 bound_to 11000

$$$$
