AV-unprocessed.smi:719|AV-procd|sdf|3494|dock5
  -GOLD-   22720 0493D 1   1.00000     0.00000
 Structure written by MMmdl.
 41 43  0  0  0  0  0  0  0  0  1 V2000
  144.2504  146.3346  156.7602 C   0  0  0  0  0  0  0  0  0  0  0  0
  143.9557  144.8399  156.5935 C   0  0  0  0  0  0  0  0  0  0  0  0
  144.8435  144.1954  155.5697 C   0  0  0  0  0  0  0  0  0  0  0  0
  145.6976  143.1587  155.9587 N   0  0  0  0  0  0  0  0  0  0  0  0
  146.4314  142.6885  154.9482 C   0  0  0  0  0  0  0  0  0  0  0  0
  147.4009  141.5634  155.0875 C   0  0  0  0  0  0  0  0  0  0  0  0
  148.7624  141.8827  154.4488 C   0  0  0  0  0  0  0  0  0  0  0  0
  149.7677  142.2155  155.4516 N   0  0  0  0  0  0  0  0  0  0  0  0
  150.8127  141.4424  155.7842 C   0  0  0  0  0  0  0  0  0  0  0  0
  151.0373  140.3535  155.2538 O   0  0  0  0  0  0  0  0  0  0  0  0
  151.6801  142.0232  156.8528 C   0  0  2  0  0  0  0  0  0  0  0  0
  151.0514  142.2474  158.2163 C   0  0  1  0  0  0  0  0  0  0  0  0
  151.8774  142.3661  159.4764 C   0  0  0  0  0  0  0  0  0  0  0  0
  152.9469  143.4307  159.1763 C   0  0  0  0  0  0  0  0  0  0  0  0
  152.3700  144.2945  158.0412 C   0  0  0  0  0  0  0  0  0  0  0  0
  151.3528  143.4243  157.3393 C   0  0  1  0  0  0  0  0  0  0  0  0
  146.0865  143.4801  153.4172 S   0  0  0  0  0  0  0  0  0  0  0  0
  144.9211  144.4942  154.2292 C   0  0  0  0  0  0  0  0  0  0  0  0
  144.1506  145.5271  153.4756 C   0  0  0  0  0  0  0  0  0  0  0  0
  143.5984  146.7773  157.5133 H   0  0  0  0  0  0  0  0  0  0  0  0
  144.0936  146.8740  155.8257 H   0  0  0  0  0  0  0  0  0  0  0  0
  145.2816  146.4990  157.0740 H   0  0  0  0  0  0  0  0  0  0  0  0
  144.0659  144.3428  157.5576 H   0  0  0  0  0  0  0  0  0  0  0  0
  142.9097  144.7111  156.3132 H   0  0  0  0  0  0  0  0  0  0  0  0
  147.5192  141.3431  156.1489 H   0  0  0  0  0  0  0  0  0  0  0  0
  146.9703  140.6719  154.6301 H   0  0  0  0  0  0  0  0  0  0  0  0
  149.1196  141.0184  153.8882 H   0  0  0  0  0  0  0  0  0  0  0  0
  148.6666  142.7000  153.7318 H   0  0  0  0  0  0  0  0  0  0  0  0
  149.6577  143.0966  155.9327 H   0  0  0  0  0  0  0  0  0  0  0  0
  152.7303  141.7354  156.8328 H   0  0  0  0  0  0  0  0  0  0  0  0
  150.0111  141.9567  158.3542 H   0  0  0  0  0  0  0  0  0  0  0  0
  151.2304  142.6971  160.2894 H   0  0  0  0  0  0  0  0  0  0  0  0
  152.3100  141.4046  159.7534 H   0  0  0  0  0  0  0  0  0  0  0  0
  153.2108  144.0176  160.0564 H   0  0  0  0  0  0  0  0  0  0  0  0
  153.8563  142.9392  158.8280 H   0  0  0  0  0  0  0  0  0  0  0  0
  151.8606  145.1676  158.4507 H   0  0  0  0  0  0  0  0  0  0  0  0
  153.1361  144.6398  157.3464 H   0  0  0  0  0  0  0  0  0  0  0  0
  150.5203  143.9488  156.8728 H   0  0  0  0  0  0  0  0  0  0  0  0
  143.0800  145.4122  153.6468 H   0  0  0  0  0  0  0  0  0  0  0  0
  144.3281  145.4490  152.4027 H   0  0  0  0  0  0  0  0  0  0  0  0
  144.4383  146.5299  153.7917 H   0  0  0  0  0  0  0  0  0  0  0  0
  1  2  1  0  0  0  0
  1 20  1  0  0  0  0
  1 21  1  0  0  0  0
  1 22  1  0  0  0  0
  2  3  1  0  0  0  0
  2 23  1  0  0  0  0
  2 24  1  0  0  0  0
  3 18  2  0  0  0  0
  3  4  1  0  0  0  0
  4  5  2  0  0  0  0
  5  6  1  0  0  0  0
  5 17  1  0  0  0  0
  6  7  1  0  0  0  0
  6 25  1  0  0  0  0
  6 26  1  0  0  0  0
  7  8  1  0  0  0  0
  7 27  1  0  0  0  0
  7 28  1  0  0  0  0
  8  9  1  0  0  0  0
  8 29  1  0  0  0  0
  9 10  2  0  0  0  0
  9 11  1  0  0  0  0
 11 16  1  0  0  0  0
 11 12  1  0  0  0  0
 11 30  1  0  0  0  0
 12 16  1  0  0  0  0
 12 13  1  0  0  0  0
 12 31  1  0  0  0  0
 13 14  1  0  0  0  0
 13 32  1  0  0  0  0
 13 33  1  0  0  0  0
 14 15  1  0  0  0  0
 14 34  1  0  0  0  0
 14 35  1  0  0  0  0
 15 16  1  0  0  0  0
 15 36  1  0  0  0  0
 15 37  1  0  0  0  0
 16 38  1  0  0  0  0
 17 18  1  0  0  0  0
 18 19  1  0  0  0  0
 19 39  1  0  0  0  0
 19 40  1  0  0  0  0
 19 41  1  0  0  0  0
M  END
> <s_m_source_file>
AV-unprocessed.smi

> <i_m_source_file_index>
719

> <i_lp_mmshare_version>
43012

> <i_f3d_flags>
0

> <s_epik_input>
W0NIM11bQ0gyXWMxbmMoc2MxW0NIM10pW0NIMl1bQ0gyXVtOSF1DKD1PKVtDQEhdMltDQEhdKFtDQEBIXTIzKVtDSDJdW0NIMl1bQ0gyXTM=

> <s_epik_cmdline>
J2VwaWtfcHl0aG9uJywgJy1waCcsICc3LjAnLCAnLXRuJywgJzgnLCAnLW1hJywgJzIwMCcsICctbWV0YWxfYmluZGluZycsICctaW1hZScsICc8aW5maWxlLm1hZT4nLCAnLW9tYWUnLCAnPG91dGZpbGUubWFlPic=

> <r_epik_Ionization_Penalty>
0.00247473

> <r_epik_Ionization_Penalty_Charging>
0

> <r_epik_Ionization_Penalty_Neutral>
0.00247473

> <r_epik_State_Penalty>
0.00171502

> <r_epik_Charging_Adjusted_Penalty>
0.00171502

> <i_epik_Tot_Q>
0

> <i_epik_Tot_abs_Q>
0

> <r_epik_Metal_State_Penalty>
-0

> <b_epik_Metal_Only>
0

> <s_lp_Force_Field>
OPLS_2005

> <r_lp_Energy>
19.4586

> <b_lp_Chiralities_Consistent>
1

> <s_lp_Variant>
AV-unprocessed.smi:719-2

> <Gold.Version>
5.8.1

> <Gold.Id.Protein>
6NUR|6NUR_protein|mol2

> <Gold.PLP.Fitness>
45.3258

> <Gold.PLP.PLP>
-41.2035

> <Gold.PLP.part.hbond>
-2.0000

> <Gold.PLP.part.metal>
0.0000

> <Gold.PLP.part.buried>
-5.1554

> <Gold.PLP.part.nonpolar>
-33.9931

> <Gold.PLP.part.repulsive>
0.3324

> <Gold.PLP.ligand.clash>
0.1672

> <Gold.PLP.ligand.torsion>
0.5016

> <Gold.PLP.Chemscore.Hbond>
1.7360

> <Gold.PLP.Chemscore.CHOScore>
0.0000

> <Gold.PLP.Chemscore.Metal>
0.0000

> <Gold.Chemscore.Hbonds>
donor molecule, donor type, donor heavy atom, donor atom, acceptor molecule, acceptor atom, score
      L1  H     8    29       P1  8028  0.78
      P1  H  7989  7998       L1    10  1.00

> <Gold.PLP.Chemscore.Internal.Correction>
0.0847

> <Gold.Rescore>
     Score         DG    S(hbond)    S(metal)    S(lipo)     H(rot)  DE(clash)    DE(int)     intcor
     17.57     -19.35       1.29        0.00     112.88       1.42       1.35       0.43       ----

> <Gold.Chemscore.Fitness>
17.5689

> <Gold.Chemscore.DG>
-19.3457

> <Gold.Chemscore.ZeroCoef>
-5.4800

> <Gold.Chemscore.Hbond>
1.2864

> <Gold.Chemscore.Metal>
0.0000

> <Gold.Chemscore.Lipo>
112.8787

> <Gold.Chemscore.Internal_Hbond>
0.0000

> <Gold.Chemscore.DEClash>
1.3464

> <Gold.Chemscore.DEInternal>
0.4303

> <Gold.Chemscore.Rot>
1.4209

> <Gold.Chemscore.Internal.Correction>
   9.000000E+99

> <Gold.Chemscore.Hbonds>
donor molecule, donor type, donor heavy atom, donor atom, acceptor molecule, acceptor atom, score
      L1  H     8    29       P1  8028  0.78
      P1  H  7989  7998       L1    10  0.33

> <Gold.Chemscore.Hbond.Weighted>
-4.2964

> <Gold.Chemscore.Metal.Weighted>
-0.0000

> <Gold.Chemscore.Lipo.Weighted>
-13.2068

> <Gold.Chemscore.Internal_Hbond.Weighted>
0.0000

> <Gold.Chemscore.DEClash.Weighted>
1.3464

> <Gold.Chemscore.DEInternal.Weighted>
0.4303

> <Gold.Chemscore.Rot.Weighted>
3.6376

> <Gold.Chemscore.Internal.Correction.Weighted>
   9.000000E+99

> <Gold.Protein.RotatedTorsions>
[ 6907 6896 6895 6894 ] final  151.81 input  -60.11 | X-H torsion
[ 7974 7965 7964 7962 ] final  126.74 input  175.53 | X-H torsion
[ 8008 7997 7996 7995 ] final   11.85 input   59.86 | X-H torsion
[ 10167 10162 10161 10158 ] final  -81.66 input  -65.29 | X-H torsion
[ 10718 10713 10712 10709 ] final  -91.89 input   66.30 | X-H torsion
[ 10763 10752 10751 10750 ] final  -64.75 input  -60.55 | X-H torsion
[ 11005 11000 10999 10996 ] final  156.58 input  -57.11 | X-H torsion

> <Gold.Protein.ActiveResidues>
 VAL166  LYS551  ARG553  GLY616  TRP617  ASP618  TYR619  PRO620  LYS621  CYS622 
 ASP623  PHE694  ASN695  SER759  ASP760  ASP761  ALA762  ILE779  LEU786  VAL792 
 PHE793  MET794  SER795  GLU796  ALA797  LYS798  CYS799  TRP800  GLU811  SER814 

> <Gold.Protein.RotatedAtoms>
  152.0955  133.4222  159.4562 H   0  0  0  0  0  0  0  0  0  0  0  0  # atno 6907 bound_to 6896
  150.6863  134.2822  159.4641 H   0  0  0  0  0  0  0  0  0  0  0  0  # atno 6908 bound_to 6896
  152.0677  134.9553  160.0625 H   0  0  0  0  0  0  0  0  0  0  0  0  # atno 6909 bound_to 6896
  145.0583  139.3826  143.5018 H   0  0  0  0  0  0  0  0  0  0  0  0  # atno 7974 bound_to 7965
  154.8125  140.2870  155.5843 H   0  0  0  0  0  0  0  0  0  0  0  0  # atno 8008 bound_to 7997
  156.2989  140.2565  156.2946 H   0  0  0  0  0  0  0  0  0  0  0  0  # atno 8009 bound_to 7997
  154.9431  140.0381  157.2096 H   0  0  0  0  0  0  0  0  0  0  0  0  # atno 8010 bound_to 7997
  140.4391  143.2521  151.8651 H   0  0  0  0  0  0  0  0  0  0  0  0  # atno 10167 bound_to 10162
  155.9997  130.4965  150.5543 H   0  0  0  0  0  0  0  0  0  0  0  0  # atno 10718 bound_to 10713
  154.3347  135.6169  153.5568 H   0  0  0  0  0  0  0  0  0  0  0  0  # atno 10763 bound_to 10752
  152.9808  135.5755  154.4921 H   0  0  0  0  0  0  0  0  0  0  0  0  # atno 10764 bound_to 10752
  154.4614  135.2856  155.1687 H   0  0  0  0  0  0  0  0  0  0  0  0  # atno 10765 bound_to 10752
  140.1688  134.8558  157.2665 H   0  0  0  0  0  0  0  0  0  0  0  0  # atno 11005 bound_to 11000
  146.3523  140.0269  142.8654 LP  0  0  0  0  0  0  0  0  0  0  0  0  # atno 17320 bound_to 7965
  145.1440  140.9587  143.4472 LP  0  0  0  0  0  0  0  0  0  0  0  0  # atno 17321 bound_to 7965
  139.4788  144.5249  151.8749 LP  0  0  0  0  0  0  0  0  0  0  0  0  # atno 17342 bound_to 10162
  140.4339  144.2078  150.5888 LP  0  0  0  0  0  0  0  0  0  0  0  0  # atno 17343 bound_to 10162
  157.3461  131.0725  151.1750 LP  0  0  0  0  0  0  0  0  0  0  0  0  # atno 17370 bound_to 10713
  157.2582  130.6646  149.5962 LP  0  0  0  0  0  0  0  0  0  0  0  0  # atno 17371 bound_to 10713
  140.2402  134.3805  155.7484 LP  0  0  0  0  0  0  0  0  0  0  0  0  # atno 17394 bound_to 11000
  141.2216  133.7261  156.8777 LP  0  0  0  0  0  0  0  0  0  0  0  0  # atno 17395 bound_to 11000

$$$$
