#       Name:                AV-unprocessed.smi:1381
#       Creating user name   scv26
#       Creation time:       Fri Mar 27 05:22:08 2020


#       File generated by GOLD software.
#

@<TRIPOS>MOLECULE
AV-unprocessed.smi:1381
    50    51     1
SMALL
NO_CHARGES


@<TRIPOS>ATOM
      1 ****        -3.2763   5.9716   3.6898 C.3            1 S1                 0.0000
      2 ****        -3.2514   5.1218   2.4661 C.2            1 S1                 0.0000
      3 ****        -2.2359   4.5930   1.7210 C.2            1 S1                 0.0000
      4 ****        -2.9201   3.8796   0.6993 C.2            1 S1                 0.0000
      5 ****        -2.3464   3.1870  -0.2969 N.pl3          1 S1                -1.0000
      6 ****        -1.9767   1.8994  -0.1048 C.2            1 S1                 0.0000
      7 ****        -2.1199   1.2447   0.9306 O.2            1 S1                 0.0000
      8 ****        -1.4015   1.3366  -1.1775 N.am           1 S1                 0.0000
      9 ****        -0.9015  -0.0313  -1.2595 C.3            1 S1                 0.0000
     10 ****         0.4752  -0.1679  -0.5820 C.3            1 S1                 0.0000
     11 ****         1.0154  -1.5263  -0.5484 N.3            1 S1                 0.0000
     12 ****         2.1899  -1.5970   0.3142 C.3            1 S1                 0.0000
     13 ****         2.7987  -3.0117   0.3818 C.3            1 S1                 0.0000
     14 ****         1.9625  -3.9965   1.2167 C.3            1 S1                 0.0000
     15 ****         3.0433  -3.5067  -0.9358 O.3            1 S1                 0.0000
     16 ****         1.9249  -3.4582  -1.8202 C.3            1 S1                 0.0000
     17 ****         2.3851  -3.9491  -3.1967 C.3            1 S1                 0.0000
     18 ****         1.3703  -2.0229  -1.8739 C.3            1 S1                 0.0000
     19 ****        -4.2346   3.9837   0.8035 N.2            1 S1                 0.0000
     20 ****        -4.4553   4.7730   1.9386 O.3            1 S1                 0.0000
     21 ****        -3.6254   6.9768   3.4546 H              1 S1                 0.0000
     22 ****        -2.2813   6.0519   4.1278 H              1 S1                 0.0000
     23 ****        -3.9424   5.5477   4.4414 H              1 S1                 0.0000
     24 ****        -1.1731   4.6946   1.8822 H              1 S1                 0.0000
     25 ****        -1.3061   1.9077  -2.0043 H              1 S1                 0.0000
     26 ****        -1.6200  -0.7196  -0.8111 H              1 S1                 0.0000
     27 ****        -0.8410  -0.2874  -2.3164 H              1 S1                 0.0000
     28 ****         1.1884   0.5011  -1.0658 H              1 S1                 0.0000
     29 ****         0.3793   0.1910   0.4436 H              1 S1                 0.0000
     30 ****         2.9496  -0.9060  -0.0545 H              1 S1                 0.0000
     31 ****         1.9353  -1.2624   1.3207 H              1 S1                 0.0000
     32 ****         3.7729  -2.9338   0.8653 H              1 S1                 0.0000
     33 ****         1.8791  -3.6553   2.2488 H              1 S1                 0.0000
     34 ****         2.4243  -4.9837   1.2316 H              1 S1                 0.0000
     35 ****         0.9501  -4.1063   0.8285 H              1 S1                 0.0000
     36 ****         1.1490  -4.1334  -1.4583 H              1 S1                 0.0000
     37 ****         1.5613  -3.9439  -3.9109 H              1 S1                 0.0000
     38 ****         2.7675  -4.9685  -3.1382 H              1 S1                 0.0000
     39 ****         3.1795  -3.3177  -3.5960 H              1 S1                 0.0000
     40 ****         0.4978  -2.0145  -2.5260 H              1 S1                 0.0000
     41 ****         2.1084  -1.3613  -2.3302 H              1 S1                 0.0000
     42 ****        -2.1917   3.6234  -1.1832 LP             1 S1                 0.0000
     43 ****        -2.5456   1.6640   1.7325 LP             1 S1                 0.0000
     44 ****        -1.8103   0.2946   0.9683 LP             1 S1                 0.0000
     45 ****         0.2869  -2.1061  -0.1834 LP             1 S1                 0.0000
     46 ****         3.3358  -4.4599  -0.8588 LP             1 S1                 0.0000
     47 ****         3.7800  -2.9635  -1.3385 LP             1 S1                 0.0000
     48 ****        -4.9242   3.5837   0.1999 LP             1 S1                 0.0000
     49 ****        -4.9622   5.5962   1.6830 LP             1 S1                 0.0000
     50 ****        -4.9807   4.2539   2.6128 LP             1 S1                 0.0000
@<TRIPOS>BOND
    1    1    2 1     
    2    1   21 1     
    3    1   22 1     
    4    1   23 1     
    5    2   20 1     
    6    2    3 2     
    7    3    4 1     
    8    3   24 1     
    9    4    5 1     
   10    4   19 2     
   11    5    6 1     
   12    6    7 2     
   13    6    8 am    
   14    8    9 1     
   15    8   25 1     
   16    9   10 1     
   17    9   26 1     
   18    9   27 1     
   19   10   11 1     
   20   10   28 1     
   21   10   29 1     
   22   11   18 1     
   23   11   12 1     
   24   12   13 1     
   25   12   30 1     
   26   12   31 1     
   27   13   14 1     
   28   13   15 1     
   29   13   32 1     
   30   14   33 1     
   31   14   34 1     
   32   14   35 1     
   33   15   16 1     
   34   16   17 1     
   35   16   18 1     
   36   16   36 1     
   37   17   37 1     
   38   17   38 1     
   39   17   39 1     
   40   18   40 1     
   41   18   41 1     
   42   19   20 1     
   43    5   42 1     
   44    7   43 1     
   45    7   44 1     
   46   11   45 1     
   47   15   46 1     
   48   15   47 1     
   49   19   48 1     
   50   20   49 1     
   51   20   50 1     
@<TRIPOS>SUBSTRUCTURE
      1 S1             1
@<TRIPOS>SET
LONE_PAIRS      STATIC     ATOMS    <user>   **** ""
9 42 43 44 45 46 47 48 49 50
DONOR_HYDROGENS      STATIC     ATOMS    <user>   **** ""
1 25
ATOM$BLUE        STATIC     ATOMS    COLORGROUP SYSTEM
9 42 43 44 45 46 47 48 49 50
ATOM$RED        STATIC     ATOMS    COLORGROUP SYSTEM
1 25
