AV-unprocessed.smi:658|AV-procd|sdf|3232|dock6
  -GOLD-   22720 0173D 1   1.00000     0.00000
 Structure written by MMmdl.
 38 38  0  0  0  0  0  0  0  0  2 V2000
  150.1341  140.6213  158.7598 C   0  0  0  0  0  0  0  0  0  0  0  0
  150.0864  142.0523  158.1836 C   0  0  2  0  0  0  0  0  0  0  0  0
  149.2987  142.0726  156.9290 N   0  3  0  0  0  0  0  0  0  0  0  0
  149.7163  141.0960  155.9009 C   0  0  0  0  0  0  0  0  0  0  0  0
  148.9199  141.2934  154.6054 C   0  0  0  0  0  0  0  0  0  0  0  0
  147.4034  141.2948  154.8423 C   0  0  0  0  0  0  0  0  0  0  0  0
  146.7527  139.5859  155.0843 S   0  0  0  0  0  0  0  0  0  0  0  0
  145.0781  139.8713  155.3502 N   0  0  0  0  0  0  0  0  0  0  0  0
  146.8763  138.8374  153.8243 O   0  0  0  0  0  0  0  0  0  0  0  0
  147.3045  139.0500  156.3373 O   0  0  0  0  0  0  0  0  0  0  0  0
  151.4982  142.6447  157.9252 C   0  0  1  0  0  0  0  0  0  0  0  0
  151.4445  144.0871  157.3848 C   0  0  0  0  0  0  0  0  0  0  0  0
  152.3472  142.5897  159.1092 N   0  0  0  0  0  0  0  0  0  0  0  0
  152.8634  143.6404  159.8401 C   0  0  0  0  0  0  0  0  0  0  0  0
  153.5957  143.1068  160.8616 C   0  0  0  0  0  0  0  0  0  0  0  0
  153.4643  141.7026  160.6749 C   0  0  0  0  0  0  0  0  0  0  0  0
  152.7160  141.3961  159.6275 N   0  0  0  0  0  0  0  0  0  0  0  0
  150.6558  140.5859  159.7161 H   0  0  0  0  0  0  0  0  0  0  0  0
  150.6447  139.9390  158.0795 H   0  0  0  0  0  0  0  0  0  0  0  0
  149.1364  140.2229  158.9404 H   0  0  0  0  0  0  0  0  0  0  0  0
  149.5831  142.6942  158.9087 H   0  0  0  0  0  0  0  0  0  0  0  0
  148.3419  141.8565  157.1699 H   0  0  0  0  0  0  0  0  0  0  0  0
  150.7813  141.2029  155.6953 H   0  0  0  0  0  0  0  0  0  0  0  0
  149.5597  140.0855  156.2806 H   0  0  0  0  0  0  0  0  0  0  0  0
  149.2125  142.2347  154.1380 H   0  0  0  0  0  0  0  0  0  0  0  0
  149.1768  140.5028  153.8992 H   0  0  0  0  0  0  0  0  0  0  0  0
  147.1702  141.8652  155.7420 H   0  0  0  0  0  0  0  0  0  0  0  0
  146.8624  141.7547  154.0148 H   0  0  0  0  0  0  0  0  0  0  0  0
  144.5400  139.9350  154.4861 H   0  0  0  0  0  0  0  0  0  0  0  0
  144.8992  140.6138  156.0261 H   0  0  0  0  0  0  0  0  0  0  0  0
  151.9848  142.0283  157.1673 H   0  0  0  0  0  0  0  0  0  0  0  0
  150.9271  144.1398  156.4268 H   0  0  0  0  0  0  0  0  0  0  0  0
  152.4486  144.4833  157.2300 H   0  0  0  0  0  0  0  0  0  0  0  0
  150.9292  144.7550  158.0762 H   0  0  0  0  0  0  0  0  0  0  0  0
  152.6708  144.6698  159.5757 H   0  0  0  0  0  0  0  0  0  0  0  0
  154.1411  143.6384  161.6272 H   0  0  0  0  0  0  0  0  0  0  0  0
  153.8867  140.9029  161.2654 H   0  0  0  0  0  0  0  0  0  0  0  0
  149.3271  143.0038  156.5390 H   0  0  0  0  0  0  0  0  0  0  0  0
  1  2  1  0  0  0  0
  1 18  1  0  0  0  0
  1 19  1  0  0  0  0
  1 20  1  0  0  0  0
  2  3  1  0  0  0  0
  2 11  1  0  0  0  0
  2 21  1  0  0  0  0
  3  4  1  0  0  0  0
  3 22  1  0  0  0  0
  3 38  1  0  0  0  0
  4  5  1  0  0  0  0
  4 23  1  0  0  0  0
  4 24  1  0  0  0  0
  5  6  1  0  0  0  0
  5 25  1  0  0  0  0
  5 26  1  0  0  0  0
  6  7  1  0  0  0  0
  6 27  1  0  0  0  0
  6 28  1  0  0  0  0
  7  8  1  0  0  0  0
  7  9  2  0  0  0  0
  7 10  2  0  0  0  0
  8 29  1  0  0  0  0
  8 30  1  0  0  0  0
 11 12  1  0  0  0  0
 11 13  1  0  0  0  0
 11 31  1  0  0  0  0
 12 32  1  0  0  0  0
 12 33  1  0  0  0  0
 12 34  1  0  0  0  0
 13 17  1  0  0  0  0
 13 14  1  0  0  0  0
 14 15  2  0  0  0  0
 14 35  1  0  0  0  0
 15 16  1  0  0  0  0
 15 36  1  0  0  0  0
 16 17  2  0  0  0  0
 16 37  1  0  0  0  0
M  CHG  1   3   1
M  END
> <s_m_source_file>
AV-unprocessed.smi

> <i_m_source_file_index>
658

> <i_lp_mmshare_version>
43012

> <i_f3d_flags>
0

> <s_epik_input>
bjFbY0hdW2NIXVtjSF1uMVtDQEBIXShbQ0gzXSlbQ0BIXShbQ0gzXSlbTkhdW0NIMl1bQ0gyXVtDSDJdUyg9TykoPU8pW05IMl0=

> <s_epik_cmdline>
J2VwaWtfcHl0aG9uJywgJy1waCcsICc3LjAnLCAnLXRuJywgJzgnLCAnLW1hJywgJzIwMCcsICctbWV0YWxfYmluZGluZycsICctaW1hZScsICc8aW5maWxlLm1hZT4nLCAnLW9tYWUnLCAnPG91dGZpbGUubWFlPic=

> <r_lp_tautomer_probability>
1

> <r_epik_Ionization_Penalty>
0.00535781

> <r_epik_Ionization_Penalty_Charging>
0.00511015

> <r_epik_Ionization_Penalty_Neutral>
0.000247661

> <r_epik_State_Penalty>
-0

> <r_epik_Charging_Adjusted_Penalty>
0.00511015

> <i_epik_Tot_Q>
1

> <i_epik_Tot_abs_Q>
1

> <r_epik_Metal_State_Penalty>
0.149106

> <b_epik_Metal_Only>
0

> <s_lp_Force_Field>
OPLS_2005

> <r_lp_Energy>
7.04511

> <b_lp_Chiralities_Consistent>
1

> <s_lp_Variant>
AV-unprocessed.smi:658-3

> <Gold.Version>
5.8.1

> <Gold.Id.Protein>
6NUR|6NUR_protein|mol2

> <Gold.PLP.Fitness>
41.5777

> <Gold.PLP.PLP>
-32.9495

> <Gold.PLP.part.hbond>
-2.0000

> <Gold.PLP.part.metal>
0.0000

> <Gold.PLP.part.buried>
-2.8915

> <Gold.PLP.part.nonpolar>
-27.6475

> <Gold.PLP.part.repulsive>
0.2711

> <Gold.PLP.ligand.clash>
0.0000

> <Gold.PLP.ligand.torsion>
0.3303

> <Gold.PLP.Chemscore.Hbond>
3.0000

> <Gold.PLP.Chemscore.CHOScore>
0.0000

> <Gold.PLP.Chemscore.Metal>
0.0000

> <Gold.Chemscore.Hbonds>
donor molecule, donor type, donor heavy atom, donor atom, acceptor molecule, acceptor atom, score
      L1  H     3    38       P1  8028  2.00
      L1  H     8    29       P1 10175  0.47

> <Gold.PLP.Chemscore.Internal.Correction>
0.2887

> <Gold.Rescore>
     Score         DG    S(hbond)    S(metal)    S(lipo)     H(rot)  DE(clash)    DE(int)     intcor
     12.82     -13.75       1.98        0.00      82.64       3.13       0.07       0.87       ----

> <Gold.Chemscore.Fitness>
12.8179

> <Gold.Chemscore.DG>
-13.7500

> <Gold.Chemscore.ZeroCoef>
-5.4800

> <Gold.Chemscore.Hbond>
1.9813

> <Gold.Chemscore.Metal>
0.0000

> <Gold.Chemscore.Lipo>
82.6356

> <Gold.Chemscore.Internal_Hbond>
0.0000

> <Gold.Chemscore.DEClash>
0.0659

> <Gold.Chemscore.DEInternal>
0.8663

> <Gold.Chemscore.Rot>
3.1312

> <Gold.Chemscore.Internal.Correction>
   9.000000E+99

> <Gold.Chemscore.Hbonds>
donor molecule, donor type, donor heavy atom, donor atom, acceptor molecule, acceptor atom, score
      L1  H     3    38       P1  8028  0.98
      L1  H     8    29       P1 10175  0.48

> <Gold.Chemscore.Hbond.Weighted>
-6.6176

> <Gold.Chemscore.Metal.Weighted>
-0.0000

> <Gold.Chemscore.Lipo.Weighted>
-9.6684

> <Gold.Chemscore.Internal_Hbond.Weighted>
0.0000

> <Gold.Chemscore.DEClash.Weighted>
0.0659

> <Gold.Chemscore.DEInternal.Weighted>
0.8663

> <Gold.Chemscore.Rot.Weighted>
8.0160

> <Gold.Chemscore.Internal.Correction.Weighted>
   9.000000E+99

> <Gold.Protein.RotatedTorsions>
[ 6907 6896 6895 6894 ] final   84.77 input  -60.11 | X-H torsion
[ 7974 7965 7964 7962 ] final  -37.20 input  175.53 | X-H torsion
[ 8008 7997 7996 7995 ] final  124.07 input   59.86 | X-H torsion
[ 10167 10162 10161 10158 ] final  -92.39 input  -65.29 | X-H torsion
[ 10718 10713 10712 10709 ] final   58.34 input   66.30 | X-H torsion
[ 10763 10752 10751 10750 ] final  146.02 input  -60.55 | X-H torsion
[ 11005 11000 10999 10996 ] final  178.70 input  -57.11 | X-H torsion

> <Gold.Protein.ActiveResidues>
 VAL166  LYS551  ARG553  GLY616  TRP617  ASP618  TYR619  PRO620  LYS621  CYS622 
 ASP623  PHE694  ASN695  SER759  ASP760  ASP761  ALA762  ILE779  LEU786  VAL792 
 PHE793  MET794  SER795  GLU796  ALA797  LYS798  CYS799  TRP800  GLU811  SER814 

> <Gold.Protein.RotatedAtoms>
  152.5360  134.2689  159.8963 H   0  0  0  0  0  0  0  0  0  0  0  0  # atno 6907 bound_to 6896
  151.2646  133.4278  159.2625 H   0  0  0  0  0  0  0  0  0  0  0  0  # atno 6908 bound_to 6896
  151.0422  134.9629  159.8224 H   0  0  0  0  0  0  0  0  0  0  0  0  # atno 6909 bound_to 6896
  146.0596  140.6368  142.9003 H   0  0  0  0  0  0  0  0  0  0  0  0  # atno 7974 bound_to 7965
  156.2789  140.2748  156.1730 H   0  0  0  0  0  0  0  0  0  0  0  0  # atno 8008 bound_to 7997
  155.0635  140.0387  157.2602 H   0  0  0  0  0  0  0  0  0  0  0  0  # atno 8009 bound_to 7997
  154.7097  140.2666  155.6646 H   0  0  0  0  0  0  0  0  0  0  0  0  # atno 8010 bound_to 7997
  140.3353  143.2972  151.9897 H   0  0  0  0  0  0  0  0  0  0  0  0  # atno 10167 bound_to 10162
  157.5588  130.8820  149.9079 H   0  0  0  0  0  0  0  0  0  0  0  0  # atno 10718 bound_to 10713
  154.0150  135.2911  155.3388 H   0  0  0  0  0  0  0  0  0  0  0  0  # atno 10763 bound_to 10752
  154.7080  135.5161  153.8627 H   0  0  0  0  0  0  0  0  0  0  0  0  # atno 10764 bound_to 10752
  153.0706  135.6646  154.0378 H   0  0  0  0  0  0  0  0  0  0  0  0  # atno 10765 bound_to 10752
  140.3980  134.6803  157.4545 H   0  0  0  0  0  0  0  0  0  0  0  0  # atno 11005 bound_to 11000
  144.7167  140.4234  143.7039 LP  0  0  0  0  0  0  0  0  0  0  0  0  # atno 17320 bound_to 7965
  145.6584  139.1577  143.2822 LP  0  0  0  0  0  0  0  0  0  0  0  0  # atno 17321 bound_to 7965
  139.4849  144.6202  151.7270 LP  0  0  0  0  0  0  0  0  0  0  0  0  # atno 17342 bound_to 10162
  140.5360  144.0656  150.6070 LP  0  0  0  0  0  0  0  0  0  0  0  0  # atno 17343 bound_to 10162
  156.0644  130.3694  150.0912 LP  0  0  0  0  0  0  0  0  0  0  0  0  # atno 17370 bound_to 10713
  156.9078  130.9641  151.3567 LP  0  0  0  0  0  0  0  0  0  0  0  0  # atno 17371 bound_to 10713
  140.0357  134.6340  155.9046 LP  0  0  0  0  0  0  0  0  0  0  0  0  # atno 17394 bound_to 11000
  141.1867  133.6558  156.5251 LP  0  0  0  0  0  0  0  0  0  0  0  0  # atno 17395 bound_to 11000

$$$$
