AV-unprocessed.smi:2374|AV-procd|sdf|9441|dock7
  -GOLD-   2272013 73D 1   1.00000     0.00000
 Structure written by MMmdl.
 38 39  0  0  0  0  0  0  0  0  1 V2000
  153.2584  140.8760  159.4152 C   0  0  0  0  0  0  0  0  0  0  0  0
  152.7311  142.1965  159.8993 C   0  0  0  0  0  0  0  0  0  0  0  0
  152.8435  142.5124  161.1784 N   0  0  0  0  0  0  0  0  0  0  0  0
  152.2596  143.7756  161.3142 O   0  0  0  0  0  0  0  0  0  0  0  0
  151.8101  144.1738  160.0970 C   0  0  0  0  0  0  0  0  0  0  0  0
  151.1416  145.5051  160.0292 C   0  0  0  0  0  0  0  0  0  0  0  0
  152.0777  143.2205  159.1538 C   0  0  0  0  0  0  0  0  0  0  0  0
  151.7521  143.2420  157.6827 C   0  0  0  0  0  0  0  0  0  0  0  0
  150.8089  142.0856  157.3555 C   0  0  0  0  0  0  0  0  0  0  0  0
  150.9606  140.9948  157.9038 O   0  0  0  0  0  0  0  0  0  0  0  0
  149.8531  142.3383  156.4461 N   0  0  0  0  0  0  0  0  0  0  0  0
  148.8661  141.3956  155.9175 C   0  0  0  0  0  0  0  0  0  0  0  0
  148.1554  140.7027  157.0111 C   0  0  0  0  0  0  0  0  0  0  0  0
  147.5995  140.1601  157.8689 N   0  0  0  0  0  0  0  0  0  0  0  0
  147.8537  142.2167  155.0868 C   0  0  0  0  0  0  0  0  0  0  0  0
  146.8355  141.3263  154.3541 C   0  0  0  0  0  0  0  0  0  0  0  0
  147.5454  140.3065  153.4526 C   0  0  0  0  0  0  0  0  0  0  0  0
  148.5588  139.4720  154.2486 C   0  0  0  0  0  0  0  0  0  0  0  0
  149.5644  140.3734  154.9853 C   0  0  0  0  0  0  0  0  0  0  0  0
  152.4574  140.1395  159.3472 H   0  0  0  0  0  0  0  0  0  0  0  0
  154.0206  140.4772  160.0856 H   0  0  0  0  0  0  0  0  0  0  0  0
  153.7077  140.9707  158.4266 H   0  0  0  0  0  0  0  0  0  0  0  0
  150.9613  145.9072  161.0264 H   0  0  0  0  0  0  0  0  0  0  0  0
  150.1816  145.4279  159.5182 H   0  0  0  0  0  0  0  0  0  0  0  0
  151.7589  146.2181  159.4827 H   0  0  0  0  0  0  0  0  0  0  0  0
  151.2737  144.1790  157.3950 H   0  0  0  0  0  0  0  0  0  0  0  0
  152.6522  143.1645  157.0718 H   0  0  0  0  0  0  0  0  0  0  0  0
  149.8188  143.2724  156.0647 H   0  0  0  0  0  0  0  0  0  0  0  0
  147.3232  142.9184  155.7322 H   0  0  0  0  0  0  0  0  0  0  0  0
  148.3851  142.8231  154.3510 H   0  0  0  0  0  0  0  0  0  0  0  0
  146.2085  140.8042  155.0777 H   0  0  0  0  0  0  0  0  0  0  0  0
  146.1648  141.9445  153.7569 H   0  0  0  0  0  0  0  0  0  0  0  0
  146.8121  139.6516  152.9812 H   0  0  0  0  0  0  0  0  0  0  0  0
  148.0587  140.8288  152.6443 H   0  0  0  0  0  0  0  0  0  0  0  0
  148.0324  138.8413  154.9659 H   0  0  0  0  0  0  0  0  0  0  0  0
  149.0898  138.7962  153.5778 H   0  0  0  0  0  0  0  0  0  0  0  0
  150.1728  140.9019  154.2497 H   0  0  0  0  0  0  0  0  0  0  0  0
  150.2524  139.7463  155.5531 H   0  0  0  0  0  0  0  0  0  0  0  0
  1  2  1  0  0  0  0
  1 20  1  0  0  0  0
  1 21  1  0  0  0  0
  1 22  1  0  0  0  0
  2  7  1  0  0  0  0
  2  3  2  0  0  0  0
  3  4  1  0  0  0  0
  4  5  1  0  0  0  0
  5  6  1  0  0  0  0
  5  7  2  0  0  0  0
  6 23  1  0  0  0  0
  6 24  1  0  0  0  0
  6 25  1  0  0  0  0
  7  8  1  0  0  0  0
  8  9  1  0  0  0  0
  8 26  1  0  0  0  0
  8 27  1  0  0  0  0
  9 10  2  0  0  0  0
  9 11  1  0  0  0  0
 11 12  1  0  0  0  0
 11 28  1  0  0  0  0
 12 19  1  0  0  0  0
 12 13  1  0  0  0  0
 12 15  1  0  0  0  0
 13 14  3  0  0  0  0
 15 16  1  0  0  0  0
 15 29  1  0  0  0  0
 15 30  1  0  0  0  0
 16 17  1  0  0  0  0
 16 31  1  0  0  0  0
 16 32  1  0  0  0  0
 17 18  1  0  0  0  0
 17 33  1  0  0  0  0
 17 34  1  0  0  0  0
 18 19  1  0  0  0  0
 18 35  1  0  0  0  0
 18 36  1  0  0  0  0
 19 37  1  0  0  0  0
 19 38  1  0  0  0  0
M  END
> <s_m_source_file>
AV-unprocessed.smi

> <i_m_source_file_index>
2374

> <i_lp_mmshare_version>
43012

> <i_f3d_flags>
0

> <s_epik_input>
W0NIM11jMW5vYyhbQ0gzXSljMVtDSDJdQyg9TylbTkhdQzIoQyNOKVtDSDJdW0NIMl1bQ0gyXVtDSDJdW0NIMl0y

> <s_epik_cmdline>
J2VwaWtfcHl0aG9uJywgJy1waCcsICc3LjAnLCAnLXRuJywgJzgnLCAnLW1hJywgJzIwMCcsICctbWV0YWxfYmluZGluZycsICctaW1hZScsICc8aW5maWxlLm1hZT4nLCAnLW9tYWUnLCAnPG91dGZpbGUubWFlPic=

> <r_lp_tautomer_probability>
1

> <r_epik_Ionization_Penalty>
5.32351e-07

> <r_epik_Ionization_Penalty_Charging>
0

> <r_epik_Ionization_Penalty_Neutral>
5.32351e-07

> <r_epik_State_Penalty>
-0

> <r_epik_Charging_Adjusted_Penalty>
0

> <i_epik_Tot_Q>
0

> <i_epik_Tot_abs_Q>
0

> <r_epik_Metal_State_Penalty>
-0

> <b_epik_Metal_Only>
0

> <s_lp_Force_Field>
OPLS_2005

> <r_lp_Energy>
1.24433

> <b_lp_Chiralities_Consistent>
1

> <s_lp_Variant>
AV-unprocessed.smi:2374-1

> <Gold.Version>
5.8.1

> <Gold.Id.Protein>
6NUR|6NUR_protein|mol2

> <Gold.PLP.Fitness>
37.3899

> <Gold.PLP.PLP>
-35.2888

> <Gold.PLP.part.hbond>
-1.6839

> <Gold.PLP.part.metal>
0.0000

> <Gold.PLP.part.buried>
-3.2734

> <Gold.PLP.part.nonpolar>
-31.9722

> <Gold.PLP.part.repulsive>
0.2232

> <Gold.PLP.ligand.clash>
0.0000

> <Gold.PLP.ligand.torsion>
0.4521

> <Gold.PLP.Chemscore.Hbond>
1.0000

> <Gold.PLP.Chemscore.CHOScore>
0.0000

> <Gold.PLP.Chemscore.Metal>
0.0000

> <Gold.Chemscore.Hbonds>
donor molecule, donor type, donor heavy atom, donor atom, acceptor molecule, acceptor atom, score
      L1  H    11    28       P1  8028  0.99

> <Gold.PLP.Chemscore.Internal.Correction>
0.0053

> <Gold.Rescore>
     Score         DG    S(hbond)    S(metal)    S(lipo)     H(rot)  DE(clash)    DE(int)     intcor
     16.01     -16.48       0.99        0.00      96.30       1.40       0.06       0.41       ----

> <Gold.Chemscore.Fitness>
16.0088

> <Gold.Chemscore.DG>
-16.4804

> <Gold.Chemscore.ZeroCoef>
-5.4800

> <Gold.Chemscore.Hbond>
0.9937

> <Gold.Chemscore.Metal>
0.0000

> <Gold.Chemscore.Lipo>
96.3047

> <Gold.Chemscore.Internal_Hbond>
0.0000

> <Gold.Chemscore.DEClash>
0.0602

> <Gold.Chemscore.DEInternal>
0.4114

> <Gold.Chemscore.Rot>
1.4009

> <Gold.Chemscore.Internal.Correction>
   9.000000E+99

> <Gold.Chemscore.Hbonds>
donor molecule, donor type, donor heavy atom, donor atom, acceptor molecule, acceptor atom, score
      L1  H    11    28       P1  8028  0.94

> <Gold.Chemscore.Hbond.Weighted>
-3.3190

> <Gold.Chemscore.Metal.Weighted>
-0.0000

> <Gold.Chemscore.Lipo.Weighted>
-11.2676

> <Gold.Chemscore.Internal_Hbond.Weighted>
0.0000

> <Gold.Chemscore.DEClash.Weighted>
0.0602

> <Gold.Chemscore.DEInternal.Weighted>
0.4114

> <Gold.Chemscore.Rot.Weighted>
3.5863

> <Gold.Chemscore.Internal.Correction.Weighted>
   9.000000E+99

> <Gold.Protein.RotatedTorsions>
[ 6907 6896 6895 6894 ] final -166.64 input  -60.11 | X-H torsion
[ 7974 7965 7964 7962 ] final -117.37 input  175.53 | X-H torsion
[ 8008 7997 7996 7995 ] final  -84.77 input   59.86 | X-H torsion
[ 10167 10162 10161 10158 ] final -140.57 input  -65.29 | X-H torsion
[ 10718 10713 10712 10709 ] final  -34.16 input   66.30 | X-H torsion
[ 10763 10752 10751 10750 ] final  -14.33 input  -60.55 | X-H torsion
[ 11005 11000 10999 10996 ] final -108.97 input  -57.11 | X-H torsion

> <Gold.Protein.ActiveResidues>
 VAL166  LYS551  ARG553  GLY616  TRP617  ASP618  TYR619  PRO620  LYS621  CYS622 
 ASP623  PHE694  ASN695  SER759  ASP760  ASP761  ALA762  ILE779  LEU786  VAL792 
 PHE793  MET794  SER795  GLU796  ALA797  LYS798  CYS799  TRP800  GLU811  SER814 

> <Gold.Protein.RotatedAtoms>
  151.4468  133.3628  159.2789 H   0  0  0  0  0  0  0  0  0  0  0  0  # atno 6907 bound_to 6896
  150.9119  134.8538  159.7442 H   0  0  0  0  0  0  0  0  0  0  0  0  # atno 6908 bound_to 6896
  152.4937  134.4398  159.9591 H   0  0  0  0  0  0  0  0  0  0  0  0  # atno 6909 bound_to 6896
  145.0860  140.8458  143.4011 H   0  0  0  0  0  0  0  0  0  0  0  0  # atno 7974 bound_to 7965
  154.6334  140.0600  156.9760 H   0  0  0  0  0  0  0  0  0  0  0  0  # atno 8008 bound_to 7997
  155.1629  140.3284  155.4389 H   0  0  0  0  0  0  0  0  0  0  0  0  # atno 8009 bound_to 7997
  156.2495  140.1927  156.6735 H   0  0  0  0  0  0  0  0  0  0  0  0  # atno 8010 bound_to 7997
  139.8269  143.7499  152.2666 H   0  0  0  0  0  0  0  0  0  0  0  0  # atno 10167 bound_to 10162
  156.3540  130.4313  149.7680 H   0  0  0  0  0  0  0  0  0  0  0  0  # atno 10718 bound_to 10713
  153.5266  135.7015  153.5704 H   0  0  0  0  0  0  0  0  0  0  0  0  # atno 10763 bound_to 10752
  153.3730  135.3940  155.1802 H   0  0  0  0  0  0  0  0  0  0  0  0  # atno 10764 bound_to 10752
  154.8689  135.3816  154.4760 H   0  0  0  0  0  0  0  0  0  0  0  0  # atno 10765 bound_to 10752
  141.0873  133.9117  157.2157 H   0  0  0  0  0  0  0  0  0  0  0  0  # atno 11005 bound_to 11000
  145.1122  139.2749  143.5632 LP  0  0  0  0  0  0  0  0  0  0  0  0  # atno 17320 bound_to 7965
  146.3531  140.0721  142.8622 LP  0  0  0  0  0  0  0  0  0  0  0  0  # atno 17321 bound_to 7965
  139.7694  144.7481  151.0247 LP  0  0  0  0  0  0  0  0  0  0  0  0  # atno 17342 bound_to 10162
  140.7809  143.4662  151.0209 LP  0  0  0  0  0  0  0  0  0  0  0  0  # atno 17343 bound_to 10162
  156.4870  130.8067  151.3079 LP  0  0  0  0  0  0  0  0  0  0  0  0  # atno 17370 bound_to 10713
  157.7465  130.9987  150.2864 LP  0  0  0  0  0  0  0  0  0  0  0  0  # atno 17371 bound_to 10713
  139.9693  135.0133  156.9470 LP  0  0  0  0  0  0  0  0  0  0  0  0  # atno 17394 bound_to 11000
  140.5334  134.0791  155.7322 LP  0  0  0  0  0  0  0  0  0  0  0  0  # atno 17395 bound_to 11000

$$$$
