AV-unprocessed.smi:1997|AV-procd|sdf|8089|dock1
  -GOLD-   2272010303D 1   1.00000     0.00000
 Structure written by MMmdl.
 36 38  0  0  0  0  0  0  0  0  2 V2000
  151.9171  140.1964  154.7973 O   0  0  0  0  0  0  0  0  0  0  0  0
  151.6290  139.8948  155.9580 C   0  0  0  0  0  0  0  0  0  0  0  0
  152.4957  139.7482  156.9861 N   0  5  0  0  0  0  0  0  0  0  0  0
  152.4599  140.6041  158.0207 C   0  0  0  0  0  0  0  0  0  0  0  0
  151.3681  141.3201  158.3242 N   0  0  0  0  0  0  0  0  0  0  0  0
  151.5442  142.1395  159.4297 N   0  0  0  0  0  0  0  0  0  0  0  0
  152.7681  142.0261  159.9507 C   0  0  0  0  0  0  0  0  0  0  0  0
  153.2053  142.8075  161.1442 C   0  0  0  0  0  0  0  0  0  0  0  0
  152.6091  142.5374  162.5066 C   0  0  0  0  0  0  0  0  0  0  0  0
  152.2983  143.8291  161.7949 C   0  0  0  0  0  0  0  0  0  0  0  0
  153.8102  140.8819  159.1200 S   0  0  0  0  0  0  0  0  0  0  0  0
  150.3490  139.6734  156.2943 N   0  0  0  0  0  0  0  0  0  0  0  0
  149.1924  139.7483  155.3972 C   0  0  1  0  0  0  0  0  0  0  0  0
  149.0733  141.2106  154.9096 C   0  0  0  0  0  0  0  0  0  0  0  0
  147.6632  141.5910  154.4251 C   0  0  0  0  0  0  0  0  0  0  0  0
  147.1803  140.8391  153.1754 C   0  0  0  0  0  0  0  0  0  0  0  0
  147.0589  139.3189  153.3762 C   0  0  0  0  0  0  0  0  0  0  0  0
  148.3547  138.6553  153.3235 N   0  0  0  0  0  0  0  0  0  0  0  0
  149.3787  138.8189  154.1750 C   0  0  0  0  0  0  0  0  0  0  0  0
  150.4474  138.2413  153.9773 O   0  0  0  0  0  0  0  0  0  0  0  0
  154.2682  143.0337  161.0874 H   0  0  0  0  0  0  0  0  0  0  0  0
  151.8147  141.7963  162.5720 H   0  0  0  0  0  0  0  0  0  0  0  0
  153.2770  142.5832  163.3643 H   0  0  0  0  0  0  0  0  0  0  0  0
  152.7596  144.7372  162.1771 H   0  0  0  0  0  0  0  0  0  0  0  0
  151.2910  143.9486  161.4014 H   0  0  0  0  0  0  0  0  0  0  0  0
  150.1604  139.4393  157.2578 H   0  0  0  0  0  0  0  0  0  0  0  0
  148.2958  139.4647  155.9511 H   0  0  0  0  0  0  0  0  0  0  0  0
  149.3167  141.8804  155.7359 H   0  0  0  0  0  0  0  0  0  0  0  0
  149.8108  141.4257  154.1343 H   0  0  0  0  0  0  0  0  0  0  0  0
  146.9502  141.4401  155.2366 H   0  0  0  0  0  0  0  0  0  0  0  0
  147.6469  142.6602  154.2123 H   0  0  0  0  0  0  0  0  0  0  0  0
  146.1993  141.2301  152.9042 H   0  0  0  0  0  0  0  0  0  0  0  0
  147.8330  141.0563  152.3288 H   0  0  0  0  0  0  0  0  0  0  0  0
  146.5438  139.0817  154.3083 H   0  0  0  0  0  0  0  0  0  0  0  0
  146.4509  138.8990  152.5747 H   0  0  0  0  0  0  0  0  0  0  0  0
  148.5050  138.0313  152.5442 H   0  0  0  0  0  0  0  0  0  0  0  0
  1  2  2  0  0  0  0
  2  3  1  0  0  0  0
  2 12  1  0  0  0  0
  3  4  1  0  0  0  0
  4 11  1  0  0  0  0
  4  5  2  0  0  0  0
  5  6  1  0  0  0  0
  6  7  2  0  0  0  0
  7  8  1  0  0  0  0
  7 11  1  0  0  0  0
  8 10  1  0  0  0  0
  8  9  1  0  0  0  0
  8 21  1  0  0  0  0
  9 10  1  0  0  0  0
  9 22  1  0  0  0  0
  9 23  1  0  0  0  0
 10 24  1  0  0  0  0
 10 25  1  0  0  0  0
 12 13  1  0  0  0  0
 12 26  1  0  0  0  0
 13 19  1  0  0  0  0
 13 14  1  0  0  0  0
 13 27  1  0  0  0  0
 14 15  1  0  0  0  0
 14 28  1  0  0  0  0
 14 29  1  0  0  0  0
 15 16  1  0  0  0  0
 15 30  1  0  0  0  0
 15 31  1  0  0  0  0
 16 17  1  0  0  0  0
 16 32  1  0  0  0  0
 16 33  1  0  0  0  0
 17 18  1  0  0  0  0
 17 34  1  0  0  0  0
 17 35  1  0  0  0  0
 18 19  1  0  0  0  0
 18 36  1  0  0  0  0
 19 20  2  0  0  0  0
M  CHG  1   3  -1
M  END
> <s_m_source_file>
AV-unprocessed.smi

> <i_m_source_file_index>
1997

> <i_lp_mmshare_version>
43012

> <i_f3d_flags>
0

> <s_epik_input>
W0NIMl0xW0NIMl1bQ0hdMWMoczIpbm5jMltOSF1DKD1PKVtOSF1bQ0BASF0zW0NIMl1bQ0gyXVtDSDJdW0NIMl1bTkhdQzM9Tw==

> <s_epik_cmdline>
J2VwaWtfcHl0aG9uJywgJy1waCcsICc3LjAnLCAnLXRuJywgJzgnLCAnLW1hJywgJzIwMCcsICctbWV0YWxfYmluZGluZycsICctaW1hZScsICc8aW5maWxlLm1hZT4nLCAnLW9tYWUnLCAnPG91dGZpbGUubWFlPic=

> <r_lp_tautomer_probability>
1

> <r_epik_Ionization_Penalty>
4.47229

> <r_epik_Ionization_Penalty_Charging>
4.32584

> <r_epik_Ionization_Penalty_Neutral>
0.146443

> <r_epik_State_Penalty>
4.32544

> <r_epik_Charging_Adjusted_Penalty>
8.65129

> <i_epik_Tot_Q>
-1

> <i_epik_Tot_abs_Q>
1

> <r_epik_Metal_State_Penalty>
0.738743

> <b_epik_Metal_Only>
1

> <s_lp_Force_Field>
OPLS_2005

> <r_lp_Energy>
7.41149

> <b_lp_Chiralities_Consistent>
1

> <s_lp_Variant>
AV-unprocessed.smi:1997-4

> <Gold.Version>
5.8.1

> <Gold.Id.Protein>
6NUR|6NUR_protein|mol2

> <Gold.PLP.Fitness>
48.3646

> <Gold.PLP.PLP>
-38.4768

> <Gold.PLP.part.hbond>
-3.8610

> <Gold.PLP.part.metal>
0.0000

> <Gold.PLP.part.buried>
-3.9580

> <Gold.PLP.part.nonpolar>
-31.2623

> <Gold.PLP.part.repulsive>
0.3767

> <Gold.PLP.ligand.clash>
0.0000

> <Gold.PLP.ligand.torsion>
0.8280

> <Gold.PLP.Chemscore.Hbond>
3.8000

> <Gold.PLP.Chemscore.CHOScore>
0.0000

> <Gold.PLP.Chemscore.Metal>
0.0000

> <Gold.Chemscore.Hbonds>
donor molecule, donor type, donor heavy atom, donor atom, acceptor molecule, acceptor atom, score
      L1  H    18    36       P1  7948  1.00
      P1  H  7989  7998       L1     1  0.72
      P1  H  7997  8010       L1     3  1.70

> <Gold.PLP.Chemscore.Internal.Correction>
0.1438

> <Gold.Rescore>
     Score         DG    S(hbond)    S(metal)    S(lipo)     H(rot)  DE(clash)    DE(int)     intcor
     13.08     -19.05       1.92        0.00      88.99       1.27       0.21       5.76       ----

> <Gold.Chemscore.Fitness>
13.0817

> <Gold.Chemscore.DG>
-19.0486

> <Gold.Chemscore.ZeroCoef>
-5.4800

> <Gold.Chemscore.Hbond>
1.9214

> <Gold.Chemscore.Metal>
0.0000

> <Gold.Chemscore.Lipo>
88.9936

> <Gold.Chemscore.Internal_Hbond>
0.0000

> <Gold.Chemscore.DEClash>
0.2106

> <Gold.Chemscore.DEInternal>
5.7563

> <Gold.Chemscore.Rot>
1.2738

> <Gold.Chemscore.Internal.Correction>
   9.000000E+99

> <Gold.Chemscore.Hbonds>
donor molecule, donor type, donor heavy atom, donor atom, acceptor molecule, acceptor atom, score
      L1  H    18    36       P1  7948  0.94
      P1  H  7989  7998       L1     1  0.70
      P1  H  7997  8010       L1     3  0.11

> <Gold.Chemscore.Hbond.Weighted>
-6.4173

> <Gold.Chemscore.Metal.Weighted>
-0.0000

> <Gold.Chemscore.Lipo.Weighted>
-10.4123

> <Gold.Chemscore.Internal_Hbond.Weighted>
0.0000

> <Gold.Chemscore.DEClash.Weighted>
0.2106

> <Gold.Chemscore.DEInternal.Weighted>
5.7563

> <Gold.Chemscore.Rot.Weighted>
3.2610

> <Gold.Chemscore.Internal.Correction.Weighted>
   9.000000E+99

> <Gold.Protein.RotatedTorsions>
[ 6907 6896 6895 6894 ] final -165.74 input  -60.11 | X-H torsion
[ 7974 7965 7964 7962 ] final  150.46 input  175.53 | X-H torsion
[ 8008 7997 7996 7995 ] final   74.44 input   59.86 | X-H torsion
[ 10167 10162 10161 10158 ] final  -24.18 input  -65.29 | X-H torsion
[ 10718 10713 10712 10709 ] final   -7.45 input   66.30 | X-H torsion
[ 10763 10752 10751 10750 ] final  173.98 input  -60.55 | X-H torsion
[ 11005 11000 10999 10996 ] final  101.62 input  -57.11 | X-H torsion

> <Gold.Protein.ActiveResidues>
 VAL166  LYS551  ARG553  GLY616  TRP617  ASP618  TYR619  PRO620  LYS621  CYS622 
 ASP623  PHE694  ASN695  SER759  ASP760  ASP761  ALA762  ILE779  LEU786  VAL792 
 PHE793  MET794  SER795  GLU796  ALA797  LYS798  CYS799  TRP800  GLU811  SER814 

> <Gold.Protein.RotatedAtoms>
  151.4324  133.3666  159.2770 H   0  0  0  0  0  0  0  0  0  0  0  0  # atno 6907 bound_to 6896
  150.9215  134.8634  159.7503 H   0  0  0  0  0  0  0  0  0  0  0  0  # atno 6908 bound_to 6896
  152.4984  134.4262  159.9549 H   0  0  0  0  0  0  0  0  0  0  0  0  # atno 6909 bound_to 6896
  144.8362  139.6411  143.6037 H   0  0  0  0  0  0  0  0  0  0  0  0  # atno 7974 bound_to 7965
  155.7984  140.3477  155.5388 H   0  0  0  0  0  0  0  0  0  0  0  0  # atno 8008 bound_to 7997
  155.8563  140.0964  157.1662 H   0  0  0  0  0  0  0  0  0  0  0  0  # atno 8009 bound_to 7997
  154.4010  140.1367  156.3893 H   0  0  0  0  0  0  0  0  0  0  0  0  # atno 8010 bound_to 7997
  140.7288  143.4376  151.0706 H   0  0  0  0  0  0  0  0  0  0  0  0  # atno 10167 bound_to 10162
  156.7170  130.5139  149.5877 H   0  0  0  0  0  0  0  0  0  0  0  0  # atno 10718 bound_to 10713
  154.4476  135.2764  155.1804 H   0  0  0  0  0  0  0  0  0  0  0  0  # atno 10763 bound_to 10752
  154.3644  135.6122  153.5711 H   0  0  0  0  0  0  0  0  0  0  0  0  # atno 10764 bound_to 10752
  152.9845  135.5842  154.4815 H   0  0  0  0  0  0  0  0  0  0  0  0  # atno 10765 bound_to 10752
  139.8774  134.9190  156.4934 H   0  0  0  0  0  0  0  0  0  0  0  0  # atno 11005 bound_to 11000
  146.2661  139.6523  142.9328 LP  0  0  0  0  0  0  0  0  0  0  0  0  # atno 17320 bound_to 7965
  145.4789  141.0437  143.2657 LP  0  0  0  0  0  0  0  0  0  0  0  0  # atno 17321 bound_to 7965
  139.8039  143.8044  152.3165 LP  0  0  0  0  0  0  0  0  0  0  0  0  # atno 17342 bound_to 10162
  139.8071  144.7351  150.9747 LP  0  0  0  0  0  0  0  0  0  0  0  0  # atno 17343 bound_to 10162
  156.1621  130.6381  151.0732 LP  0  0  0  0  0  0  0  0  0  0  0  0  # atno 17370 bound_to 10713
  157.6913  131.0809  150.7098 LP  0  0  0  0  0  0  0  0  0  0  0  0  # atno 17371 bound_to 10713
  140.8642  133.8037  155.9296 LP  0  0  0  0  0  0  0  0  0  0  0  0  # atno 17394 bound_to 11000
  140.9019  134.2368  157.5037 LP  0  0  0  0  0  0  0  0  0  0  0  0  # atno 17395 bound_to 11000

$$$$
