AV-unprocessed.smi:1900|AV-procd|sdf|7710|dock7
  -GOLD-   22720 9453D 1   1.00000     0.00000
 Structure written by MMmdl.
 44 45  0  0  0  0  0  0  0  0  2 V2000
  145.9391  128.4854  152.3454 C   0  0  0  0  0  0  0  0  0  0  0  0
  145.7315  130.0035  152.3861 C   0  0  1  0  0  0  0  0  0  0  0  0
  146.7763  130.7102  153.2706 C   0  0  0  0  0  0  0  0  0  0  0  0
  146.5918  132.1804  153.2249 N   0  3  1  0  0  0  0  0  0  0  0  0
  147.5462  132.8961  154.1088 C   0  0  0  0  0  0  0  0  0  0  0  0
  148.9648  132.3033  154.0519 C   0  0  0  0  0  0  0  0  0  0  0  0
  149.9848  133.1622  154.8176 C   0  0  0  0  0  0  0  0  0  0  0  0
  149.9131  134.5658  154.4270 N   0  0  0  0  0  0  0  0  0  0  0  0
  150.5532  135.5693  155.0440 C   0  0  0  0  0  0  0  0  0  0  0  0
  151.2682  135.4122  156.0341 O   0  0  0  0  0  0  0  0  0  0  0  0
  150.3112  136.7463  154.4438 N   0  0  0  0  0  0  0  0  0  0  0  0
  150.8134  138.0199  154.8126 C   0  0  0  0  0  0  0  0  0  0  0  0
  150.3177  139.2583  154.3218 C   0  0  0  0  0  0  0  0  0  0  0  0
  150.9772  140.2837  154.8415 N   0  0  0  0  0  0  0  0  0  0  0  0
  151.8885  139.7116  155.6602 N   0  0  0  0  0  0  0  0  0  0  0  0
  151.8259  138.3358  155.6746 C   0  0  0  0  0  0  0  0  0  0  0  0
  146.6111  132.6583  151.8202 C   0  0  0  0  0  0  0  0  0  0  0  0
  145.5718  131.8977  150.9749 C   0  0  1  0  0  0  0  0  0  0  0  0
  145.6177  132.3063  149.4983 C   0  0  0  0  0  0  0  0  0  0  0  0
  145.8361  130.5017  151.0571 O   0  0  0  0  0  0  0  0  0  0  0  0
  152.5395  140.2674  156.1965 H   0  0  0  0  0  0  0  0  0  0  0  0
  145.8533  128.0503  153.3414 H   0  0  0  0  0  0  0  0  0  0  0  0
  146.9239  128.2310  151.9527 H   0  0  0  0  0  0  0  0  0  0  0  0
  145.1939  128.0070  151.7093 H   0  0  0  0  0  0  0  0  0  0  0  0
  144.7289  130.2058  152.7676 H   0  0  0  0  0  0  0  0  0  0  0  0
  146.6819  130.3599  154.2995 H   0  0  0  0  0  0  0  0  0  0  0  0
  147.7851  130.4600  152.9376 H   0  0  0  0  0  0  0  0  0  0  0  0
  147.6041  133.9386  153.7923 H   0  0  0  0  0  0  0  0  0  0  0  0
  147.1701  132.9050  155.1330 H   0  0  0  0  0  0  0  0  0  0  0  0
  148.9734  131.2959  154.4676 H   0  0  0  0  0  0  0  0  0  0  0  0
  149.2723  132.2113  153.0094 H   0  0  0  0  0  0  0  0  0  0  0  0
  149.8349  133.0682  155.8945 H   0  0  0  0  0  0  0  0  0  0  0  0
  150.9952  132.8073  154.6133 H   0  0  0  0  0  0  0  0  0  0  0  0
  149.3467  134.7870  153.6209 H   0  0  0  0  0  0  0  0  0  0  0  0
  149.7113  136.7297  153.6320 H   0  0  0  0  0  0  0  0  0  0  0  0
  149.5182  139.4437  153.6197 H   0  0  0  0  0  0  0  0  0  0  0  0
  152.4869  137.7334  156.2796 H   0  0  0  0  0  0  0  0  0  0  0  0
  146.3930  133.7248  151.7798 H   0  0  0  0  0  0  0  0  0  0  0  0
  147.6099  132.5202  151.4026 H   0  0  0  0  0  0  0  0  0  0  0  0
  144.5694  132.0968  151.3580 H   0  0  0  0  0  0  0  0  0  0  0  0
  145.4126  133.3704  149.3788 H   0  0  0  0  0  0  0  0  0  0  0  0
  144.8743  131.7582  148.9189 H   0  0  0  0  0  0  0  0  0  0  0  0
  146.5959  132.1028  149.0616 H   0  0  0  0  0  0  0  0  0  0  0  0
  145.6669  132.3614  153.5885 H   0  0  0  0  0  0  0  0  0  0  0  0
  1  2  1  0  0  0  0
  1 22  1  0  0  0  0
  1 23  1  0  0  0  0
  1 24  1  0  0  0  0
  2 20  1  0  0  0  0
  2  3  1  0  0  0  0
  2 25  1  0  0  0  0
  3  4  1  0  0  0  0
  3 26  1  0  0  0  0
  3 27  1  0  0  0  0
  4  5  1  0  0  0  0
  4 17  1  0  0  0  0
  4 44  1  0  0  0  0
  5  6  1  0  0  0  0
  5 28  1  0  0  0  0
  5 29  1  0  0  0  0
  6  7  1  0  0  0  0
  6 30  1  0  0  0  0
  6 31  1  0  0  0  0
  7  8  1  0  0  0  0
  7 32  1  0  0  0  0
  7 33  1  0  0  0  0
  8  9  1  0  0  0  0
  8 34  1  0  0  0  0
  9 10  2  0  0  0  0
  9 11  1  0  0  0  0
 11 12  1  0  0  0  0
 11 35  1  0  0  0  0
 12 16  2  0  0  0  0
 12 13  1  0  0  0  0
 13 14  2  0  0  0  0
 13 36  1  0  0  0  0
 14 15  1  0  0  0  0
 15 21  1  0  0  0  0
 15 16  1  0  0  0  0
 16 37  1  0  0  0  0
 17 18  1  0  0  0  0
 17 38  1  0  0  0  0
 17 39  1  0  0  0  0
 18 19  1  0  0  0  0
 18 20  1  0  0  0  0
 18 40  1  0  0  0  0
 19 41  1  0  0  0  0
 19 42  1  0  0  0  0
 19 43  1  0  0  0  0
M  CHG  1   4   1
M  END
> <s_m_source_file>
AV-unprocessed.smi

> <i_m_source_file_index>
1900

> <i_lp_mmshare_version>
43012

> <i_f3d_flags>
0

> <s_epik_input>
W0NIM11bQ0BASF0xW0NIMl1OKFtDSDJdW0NASF0oTzEpW0NIM10pW0NIMl1bQ0gyXVtDSDJdW05IXUMoPU8pW05IXWMyW2NIXW5bbkhdW2NIXTI=

> <s_epik_cmdline>
J2VwaWtfcHl0aG9uJywgJy1waCcsICc3LjAnLCAnLXRuJywgJzgnLCAnLW1hJywgJzIwMCcsICctbWV0YWxfYmluZGluZycsICctaW1hZScsICc8aW5maWxlLm1hZT4nLCAnLW9tYWUnLCAnPG91dGZpbGUubWFlPic=

> <r_lp_tautomer_probability>
0.5

> <r_epik_Ionization_Penalty>
0.270543

> <r_epik_Ionization_Penalty_Charging>
0.270496

> <r_epik_Ionization_Penalty_Neutral>
4.67091e-05

> <r_epik_State_Penalty>
0.262618

> <r_epik_Charging_Adjusted_Penalty>
0.533114

> <i_epik_Tot_Q>
1

> <i_epik_Tot_abs_Q>
1

> <r_epik_Metal_State_Penalty>
0.262618

> <b_epik_Metal_Only>
0

> <s_lp_Force_Field>
OPLS_2005

> <r_lp_Energy>
18.2287

> <b_lp_Chiralities_Consistent>
1

> <s_lp_Variant>
AV-unprocessed.smi:1900-2

> <Gold.Version>
5.8.1

> <Gold.Id.Protein>
6NUR|6NUR_protein|mol2

> <Gold.PLP.Fitness>
47.1954

> <Gold.PLP.PLP>
-34.9182

> <Gold.PLP.part.hbond>
-4.5849

> <Gold.PLP.part.metal>
0.0000

> <Gold.PLP.part.buried>
-3.6882

> <Gold.PLP.part.nonpolar>
-27.3150

> <Gold.PLP.part.repulsive>
0.5084

> <Gold.PLP.ligand.clash>
0.0000

> <Gold.PLP.ligand.torsion>
0.3374

> <Gold.PLP.Chemscore.Hbond>
3.3529

> <Gold.PLP.Chemscore.CHOScore>
0.9505

> <Gold.PLP.Chemscore.Metal>
0.0000

> <Gold.Chemscore.Hbonds>
donor molecule, donor type, donor heavy atom, donor atom, acceptor molecule, acceptor atom, score
      L1  H     8    34       P1  7948  0.28
      L1  H    11    35       P1  7948  1.00
      P1  H  7989  7998       L1    14  0.95
      P1  H 10752 10763       L1    10  0.69
      L1  C    13    36       P1  7957  1.00

> <Gold.PLP.Chemscore.Internal.Correction>
0.0419

> <Gold.Rescore>
     Score         DG    S(hbond)    S(metal)    S(lipo)     H(rot)  DE(clash)    DE(int)     intcor
     15.57     -16.98       1.81        0.00      89.06       1.93       0.11       1.30       ----

> <Gold.Chemscore.Fitness>
15.5742

> <Gold.Chemscore.DG>
-16.9835

> <Gold.Chemscore.ZeroCoef>
-5.4800

> <Gold.Chemscore.Hbond>
1.8072

> <Gold.Chemscore.Metal>
0.0000

> <Gold.Chemscore.Lipo>
89.0615

> <Gold.Chemscore.Internal_Hbond>
0.0000

> <Gold.Chemscore.DEClash>
0.1116

> <Gold.Chemscore.DEInternal>
1.2976

> <Gold.Chemscore.Rot>
1.9347

> <Gold.Chemscore.Internal.Correction>
   9.000000E+99

> <Gold.Chemscore.Hbonds>
donor molecule, donor type, donor heavy atom, donor atom, acceptor molecule, acceptor atom, score
      L1  H     8    34       P1  7948  0.03
      L1  H    11    35       P1  7948  0.59
      P1  H  7989  7998       L1    14  0.18
      P1  H 10752 10763       L1    10  0.12

> <Gold.Chemscore.Hbond.Weighted>
-6.0361

> <Gold.Chemscore.Metal.Weighted>
-0.0000

> <Gold.Chemscore.Lipo.Weighted>
-10.4202

> <Gold.Chemscore.Internal_Hbond.Weighted>
0.0000

> <Gold.Chemscore.DEClash.Weighted>
0.1116

> <Gold.Chemscore.DEInternal.Weighted>
1.2976

> <Gold.Chemscore.Rot.Weighted>
4.9528

> <Gold.Chemscore.Internal.Correction.Weighted>
   9.000000E+99

> <Gold.Protein.RotatedTorsions>
[ 6907 6896 6895 6894 ] final -159.46 input  -60.11 | X-H torsion
[ 7974 7965 7964 7962 ] final  118.82 input  175.53 | X-H torsion
[ 8008 7997 7996 7995 ] final  -16.05 input   59.86 | X-H torsion
[ 10167 10162 10161 10158 ] final -121.16 input  -65.29 | X-H torsion
[ 10718 10713 10712 10709 ] final  -12.04 input   66.30 | X-H torsion
[ 10763 10752 10751 10750 ] final   88.30 input  -60.55 | X-H torsion
[ 11005 11000 10999 10996 ] final   30.10 input  -57.11 | X-H torsion

> <Gold.Protein.ActiveResidues>
 VAL166  LYS551  ARG553  GLY616  TRP617  ASP618  TYR619  PRO620  LYS621  CYS622 
 ASP623  PHE694  ASN695  SER759  ASP760  ASP761  ALA762  ILE779  LEU786  VAL792 
 PHE793  MET794  SER795  GLU796  ALA797  LYS798  CYS799  TRP800  GLU811  SER814 

> <Gold.Protein.RotatedAtoms>
  151.3339  133.3989  159.2664 H   0  0  0  0  0  0  0  0  0  0  0  0  # atno 6907 bound_to 6896
  150.9933  134.9263  159.7922 H   0  0  0  0  0  0  0  0  0  0  0  0  # atno 6908 bound_to 6896
  152.5253  134.3304  159.9233 H   0  0  0  0  0  0  0  0  0  0  0  0  # atno 6909 bound_to 6896
  145.1506  139.3212  143.4568 H   0  0  0  0  0  0  0  0  0  0  0  0  # atno 7974 bound_to 7965
  154.5082  140.2180  155.9208 H   0  0  0  0  0  0  0  0  0  0  0  0  # atno 8008 bound_to 7997
  156.1520  140.3159  155.8630 H   0  0  0  0  0  0  0  0  0  0  0  0  # atno 8009 bound_to 7997
  155.3920  140.0479  157.3031 H   0  0  0  0  0  0  0  0  0  0  0  0  # atno 8010 bound_to 7997
  140.0281  143.5276  152.2189 H   0  0  0  0  0  0  0  0  0  0  0  0  # atno 10167 bound_to 10162
  156.6503  130.4953  149.6064 H   0  0  0  0  0  0  0  0  0  0  0  0  # atno 10718 bound_to 10713
  153.1754  135.4512  154.9958 H   0  0  0  0  0  0  0  0  0  0  0  0  # atno 10763 bound_to 10752
  154.7994  135.3250  154.7589 H   0  0  0  0  0  0  0  0  0  0  0  0  # atno 10764 bound_to 10752
  153.8059  135.6959  153.4903 H   0  0  0  0  0  0  0  0  0  0  0  0  # atno 10765 bound_to 10752
  140.2979  134.2790  155.7760 H   0  0  0  0  0  0  0  0  0  0  0  0  # atno 11005 bound_to 11000
  146.3495  140.1579  142.8591 LP  0  0  0  0  0  0  0  0  0  0  0  0  # atno 17320 bound_to 7965
  145.0434  140.8963  143.5038 LP  0  0  0  0  0  0  0  0  0  0  0  0  # atno 17321 bound_to 7965
  139.6095  144.7605  151.2985 LP  0  0  0  0  0  0  0  0  0  0  0  0  # atno 17342 bound_to 10162
  140.7314  143.6853  150.7967 LP  0  0  0  0  0  0  0  0  0  0  0  0  # atno 17343 bound_to 10162
  156.2090  130.6667  151.1249 LP  0  0  0  0  0  0  0  0  0  0  0  0  # atno 17370 bound_to 10713
  157.7143  131.0718  150.6386 LP  0  0  0  0  0  0  0  0  0  0  0  0  # atno 17371 bound_to 10713
  141.2134  133.7627  156.9723 LP  0  0  0  0  0  0  0  0  0  0  0  0  # atno 17394 bound_to 11000
  140.1136  134.9461  157.2101 LP  0  0  0  0  0  0  0  0  0  0  0  0  # atno 17395 bound_to 11000

$$$$
