AV-unprocessed.smi:1868|AV-procd|sdf|7590|dock8
  -GOLD-   22720 9303D 1   1.00000     0.00000
 Structure written by MMmdl.
 48 50  0  0  0  0  0  0  0  0  3 V2000
  149.5294  140.7642  155.5184 C   0  0  0  0  0  0  0  0  0  0  0  0
  150.2555  141.5208  156.5794 C   0  0  0  0  0  0  0  0  0  0  0  0
  150.4364  142.8710  156.6179 N   0  3  0  0  0  0  0  0  0  0  0  0
  151.1589  143.2186  157.7604 C   0  0  0  0  0  0  0  0  0  0  0  0
  151.5822  144.4584  158.2296 C   0  0  0  0  0  0  0  0  0  0  0  0
  152.3048  144.4636  159.4407 C   0  0  0  0  0  0  0  0  0  0  0  0
  152.5806  143.2684  160.1365 C   0  0  0  0  0  0  0  0  0  0  0  0
  152.1464  142.0170  159.6510 C   0  0  0  0  0  0  0  0  0  0  0  0
  151.4331  142.0212  158.4526 C   0  0  0  0  0  0  0  0  0  0  0  0
  150.8604  141.0001  157.6861 N   0  0  0  0  0  0  0  0  0  0  0  0
  150.9735  139.6063  158.1440 C   0  0  0  0  0  0  0  0  0  0  0  0
  152.4348  139.1421  158.3131 C   0  0  2  0  0  0  0  0  0  0  0  0
  153.1163  139.3090  157.0843 O   0  0  0  0  0  0  0  0  0  0  0  0
  152.5064  137.6600  158.7364 C   0  0  0  0  0  0  0  0  0  0  0  0
  153.4357  137.4142  159.8704 N   0  3  2  0  0  0  0  0  0  0  0  0
  152.7572  137.5570  161.1847 C   0  0  0  0  0  0  0  0  0  0  0  0
  153.6917  137.1711  162.3455 C   0  0  0  0  0  0  0  0  0  0  0  0
  155.0066  137.9710  162.3266 C   0  0  2  0  0  0  0  0  0  0  0  0
  154.8236  139.4307  162.7786 C   0  0  0  0  0  0  0  0  0  0  0  0
  155.6530  137.8559  160.9344 C   0  0  0  0  0  0  0  0  0  0  0  0
  154.6766  138.2325  159.8055 C   0  0  0  0  0  0  0  0  0  0  0  0
  149.1558  141.4425  154.7509 H   0  0  0  0  0  0  0  0  0  0  0  0
  148.6831  140.2291  155.9497 H   0  0  0  0  0  0  0  0  0  0  0  0
  150.1957  140.0421  155.0467 H   0  0  0  0  0  0  0  0  0  0  0  0
  151.3714  145.3755  157.6989 H   0  0  0  0  0  0  0  0  0  0  0  0
  152.6536  145.4032  159.8443 H   0  0  0  0  0  0  0  0  0  0  0  0
  153.1362  143.3133  161.0621 H   0  0  0  0  0  0  0  0  0  0  0  0
  152.3620  141.1080  160.1922 H   0  0  0  0  0  0  0  0  0  0  0  0
  150.4219  139.5077  159.0797 H   0  0  0  0  0  0  0  0  0  0  0  0
  150.4572  138.9761  157.4185 H   0  0  0  0  0  0  0  0  0  0  0  0
  152.9143  139.7784  159.0553 H   0  0  0  0  0  0  0  0  0  0  0  0
  152.5472  139.7508  156.4731 H   0  0  0  0  0  0  0  0  0  0  0  0
  151.5149  137.2932  159.0061 H   0  0  0  0  0  0  0  0  0  0  0  0
  152.8195  137.0731  157.8714 H   0  0  0  0  0  0  0  0  0  0  0  0
  152.4005  138.5809  161.3038 H   0  0  0  0  0  0  0  0  0  0  0  0
  151.8769  136.9139  161.2142 H   0  0  0  0  0  0  0  0  0  0  0  0
  153.1800  137.3075  163.2990 H   0  0  0  0  0  0  0  0  0  0  0  0
  153.9197  136.1064  162.2760 H   0  0  0  0  0  0  0  0  0  0  0  0
  155.6849  137.5088  163.0452 H   0  0  0  0  0  0  0  0  0  0  0  0
  154.1474  139.9833  162.1269 H   0  0  0  0  0  0  0  0  0  0  0  0
  155.7779  139.9585  162.7862 H   0  0  0  0  0  0  0  0  0  0  0  0
  154.4176  139.4789  163.7895 H   0  0  0  0  0  0  0  0  0  0  0  0
  156.5466  138.4787  160.8804 H   0  0  0  0  0  0  0  0  0  0  0  0
  155.9916  136.8303  160.7809 H   0  0  0  0  0  0  0  0  0  0  0  0
  155.1805  138.0851  158.8514 H   0  0  0  0  0  0  0  0  0  0  0  0
  154.4215  139.2916  159.8602 H   0  0  0  0  0  0  0  0  0  0  0  0
  153.7154  136.4459  159.8073 H   0  0  0  0  0  0  0  0  0  0  0  0
  150.0877  143.5077  155.9127 H   0  0  0  0  0  0  0  0  0  0  0  0
  1  2  1  0  0  0  0
  1 22  1  0  0  0  0
  1 23  1  0  0  0  0
  1 24  1  0  0  0  0
  2 10  1  0  0  0  0
  2  3  2  0  0  0  0
  3  4  1  0  0  0  0
  3 48  1  0  0  0  0
  4  9  2  0  0  0  0
  4  5  1  0  0  0  0
  5  6  2  0  0  0  0
  5 25  1  0  0  0  0
  6  7  1  0  0  0  0
  6 26  1  0  0  0  0
  7  8  2  0  0  0  0
  7 27  1  0  0  0  0
  8  9  1  0  0  0  0
  8 28  1  0  0  0  0
  9 10  1  0  0  0  0
 10 11  1  0  0  0  0
 11 12  1  0  0  0  0
 11 29  1  0  0  0  0
 11 30  1  0  0  0  0
 12 13  1  0  0  0  0
 12 14  1  0  0  0  0
 12 31  1  0  0  0  0
 13 32  1  0  0  0  0
 14 15  1  0  0  0  0
 14 33  1  0  0  0  0
 14 34  1  0  0  0  0
 15 21  1  0  0  0  0
 15 16  1  0  0  0  0
 15 47  1  0  0  0  0
 16 17  1  0  0  0  0
 16 35  1  0  0  0  0
 16 36  1  0  0  0  0
 17 18  1  0  0  0  0
 17 37  1  0  0  0  0
 17 38  1  0  0  0  0
 18 19  1  0  0  0  0
 18 20  1  0  0  0  0
 18 39  1  0  0  0  0
 19 40  1  0  0  0  0
 19 41  1  0  0  0  0
 19 42  1  0  0  0  0
 20 21  1  0  0  0  0
 20 43  1  0  0  0  0
 20 44  1  0  0  0  0
 21 45  1  0  0  0  0
 21 46  1  0  0  0  0
M  CHG  1   3   1
M  CHG  1  15   1
M  END
> <s_m_source_file>
AV-unprocessed.smi

> <i_m_source_file_index>
1868

> <i_lp_mmshare_version>
43012

> <i_f3d_flags>
0

> <s_epik_input>
W2NIXTFbY0hdW2NIXVtjSF1jKGMxMiluKGMobjIpW0NIM10pW0NIMl1bQ0BIXShbT0hdKVtDSDJdTjNbQ0gyXVtDSDJdW0NIXShbQ0gzXSlbQ0gyXVtDSDJdMw==

> <s_epik_cmdline>
J2VwaWtfcHl0aG9uJywgJy1waCcsICc3LjAnLCAnLXRuJywgJzgnLCAnLW1hJywgJzIwMCcsICctbWV0YWxfYmluZGluZycsICctaW1hZScsICc8aW5maWxlLm1hZT4nLCAnLW9tYWUnLCAnPG91dGZpbGUubWFlPic=

> <r_epik_Ionization_Penalty>
1.10901

> <r_epik_Ionization_Penalty_Charging>
1.10901

> <r_epik_Ionization_Penalty_Neutral>
6.90208e-07

> <r_epik_State_Penalty>
1.18788

> <r_epik_Charging_Adjusted_Penalty>
2.29689

> <i_epik_Tot_Q>
2

> <i_epik_Tot_abs_Q>
2

> <r_epik_Metal_State_Penalty>
5.19353

> <b_epik_Metal_Only>
0

> <s_lp_Force_Field>
OPLS_2005

> <r_lp_Energy>
32.3741

> <b_lp_Chiralities_Consistent>
1

> <s_lp_Variant>
AV-unprocessed.smi:1868-7

> <Gold.Version>
5.8.1

> <Gold.Id.Protein>
6NUR|6NUR_protein|mol2

> <Gold.PLP.Fitness>
46.9290

> <Gold.PLP.PLP>
-39.8475

> <Gold.PLP.part.hbond>
-2.0000

> <Gold.PLP.part.metal>
0.0000

> <Gold.PLP.part.buried>
-5.8956

> <Gold.PLP.part.nonpolar>
-33.3195

> <Gold.PLP.part.repulsive>
0.1236

> <Gold.PLP.ligand.clash>
0.0000

> <Gold.PLP.ligand.torsion>
0.9532

> <Gold.PLP.Chemscore.Hbond>
2.9840

> <Gold.PLP.Chemscore.CHOScore>
0.0000

> <Gold.PLP.Chemscore.Metal>
0.0000

> <Gold.Chemscore.Hbonds>
donor molecule, donor type, donor heavy atom, donor atom, acceptor molecule, acceptor atom, score
      L1  H     3    48       P1  8028  1.70
      P1  H  7997  8009       L1    13  0.75

> <Gold.PLP.Chemscore.Internal.Correction>
0.0359

> <Gold.Rescore>
     Score         DG    S(hbond)    S(metal)    S(lipo)     H(rot)  DE(clash)    DE(int)     intcor
     19.76     -20.83       1.95        0.00     119.00       1.99       0.00       1.07       ----

> <Gold.Chemscore.Fitness>
19.7597

> <Gold.Chemscore.DG>
-20.8308

> <Gold.Chemscore.ZeroCoef>
-5.4800

> <Gold.Chemscore.Hbond>
1.9499

> <Gold.Chemscore.Metal>
0.0000

> <Gold.Chemscore.Lipo>
119.0010

> <Gold.Chemscore.Internal_Hbond>
0.0000

> <Gold.Chemscore.DEClash>
0.0038

> <Gold.Chemscore.DEInternal>
1.0673

> <Gold.Chemscore.Rot>
1.9863

> <Gold.Chemscore.Internal.Correction>
   9.000000E+99

> <Gold.Chemscore.Hbonds>
donor molecule, donor type, donor heavy atom, donor atom, acceptor molecule, acceptor atom, score
      L1  H     3    48       P1  8028  0.83
      P1  H  7997  8009       L1    13  0.09

> <Gold.Chemscore.Hbond.Weighted>
-6.5127

> <Gold.Chemscore.Metal.Weighted>
-0.0000

> <Gold.Chemscore.Lipo.Weighted>
-13.9231

> <Gold.Chemscore.Internal_Hbond.Weighted>
0.0000

> <Gold.Chemscore.DEClash.Weighted>
0.0038

> <Gold.Chemscore.DEInternal.Weighted>
1.0673

> <Gold.Chemscore.Rot.Weighted>
5.0850

> <Gold.Chemscore.Internal.Correction.Weighted>
   9.000000E+99

> <Gold.Protein.RotatedTorsions>
[ 6907 6896 6895 6894 ] final  126.19 input  -60.11 | X-H torsion
[ 7974 7965 7964 7962 ] final -161.03 input  175.53 | X-H torsion
[ 8008 7997 7996 7995 ] final  178.67 input   59.86 | X-H torsion
[ 10167 10162 10161 10158 ] final  169.13 input  -65.29 | X-H torsion
[ 10718 10713 10712 10709 ] final  156.67 input   66.30 | X-H torsion
[ 10763 10752 10751 10750 ] final   88.80 input  -60.55 | X-H torsion
[ 11005 11000 10999 10996 ] final -150.37 input  -57.11 | X-H torsion

> <Gold.Protein.ActiveResidues>
 VAL166  LYS551  ARG553  GLY616  TRP617  ASP618  TYR619  PRO620  LYS621  CYS622 
 ASP623  PHE694  ASN695  SER759  ASP760  ASP761  ALA762  ILE779  LEU786  VAL792 
 PHE793  MET794  SER795  GLU796  ALA797  LYS798  CYS799  TRP800  GLU811  SER814 

> <Gold.Protein.RotatedAtoms>
  152.3926  133.6700  159.6249 H   0  0  0  0  0  0  0  0  0  0  0  0  # atno 6907 bound_to 6896
  150.7831  133.8929  159.3327 H   0  0  0  0  0  0  0  0  0  0  0  0  # atno 6908 bound_to 6896
  151.6712  135.0977  160.0250 H   0  0  0  0  0  0  0  0  0  0  0  0  # atno 6909 bound_to 6896
  144.7405  140.3457  143.6126 H   0  0  0  0  0  0  0  0  0  0  0  0  # atno 7974 bound_to 7965
  156.0521  140.1328  157.0039 H   0  0  0  0  0  0  0  0  0  0  0  0  # atno 8008 bound_to 7997
  154.4440  140.1009  156.6462 H   0  0  0  0  0  0  0  0  0  0  0  0  # atno 8009 bound_to 7997
  155.5508  140.3463  155.4470 H   0  0  0  0  0  0  0  0  0  0  0  0  # atno 8010 bound_to 7997
  139.4985  144.3739  151.9695 H   0  0  0  0  0  0  0  0  0  0  0  0  # atno 10167 bound_to 10162
  157.2019  131.0678  151.2020 H   0  0  0  0  0  0  0  0  0  0  0  0  # atno 10718 bound_to 10713
  153.1805  135.4493  155.0022 H   0  0  0  0  0  0  0  0  0  0  0  0  # atno 10763 bound_to 10752
  154.8027  135.3262  154.7512 H   0  0  0  0  0  0  0  0  0  0  0  0  # atno 10764 bound_to 10752
  153.7977  135.6965  153.4916 H   0  0  0  0  0  0  0  0  0  0  0  0  # atno 10765 bound_to 10752
  140.7409  134.3515  157.5147 H   0  0  0  0  0  0  0  0  0  0  0  0  # atno 11005 bound_to 11000
  145.7329  139.1741  143.2420 LP  0  0  0  0  0  0  0  0  0  0  0  0  # atno 17320 bound_to 7965
  146.1193  140.7330  142.9465 LP  0  0  0  0  0  0  0  0  0  0  0  0  # atno 17321 bound_to 7965
  140.3175  144.3466  150.6018 LP  0  0  0  0  0  0  0  0  0  0  0  0  # atno 17342 bound_to 10162
  140.5749  143.2177  151.7533 LP  0  0  0  0  0  0  0  0  0  0  0  0  # atno 17343 bound_to 10162
  157.3759  130.7205  149.6596 LP  0  0  0  0  0  0  0  0  0  0  0  0  # atno 17370 bound_to 10713
  155.9699  130.4186  150.4334 LP  0  0  0  0  0  0  0  0  0  0  0  0  # atno 17371 bound_to 10713
  139.8806  134.9080  156.2958 LP  0  0  0  0  0  0  0  0  0  0  0  0  # atno 17394 bound_to 11000
  140.9838  133.7251  156.0711 LP  0  0  0  0  0  0  0  0  0  0  0  0  # atno 17395 bound_to 11000

$$$$
