AV-unprocessed.smi:3303|AV-procd|sdf|12695|dock1
  -GOLD-   2272019 23D 1   1.00000     0.00000
 Structure written by MMmdl.
 44 45  0  0  0  0  0  0  0  0  2 V2000
  150.8414  137.8389  154.3487 C   0  0  0  0  0  0  0  0  0  0  0  0
  149.6903  138.3281  155.2525 C   0  0  2  0  0  0  0  0  0  0  0  0
  148.5336  137.3117  155.2883 C   0  0  0  0  0  0  0  0  0  0  0  0
  147.7908  137.2563  154.0006 N   0  3  1  0  0  0  0  0  0  0  0  0
  146.7872  136.1646  154.0186 C   0  0  0  0  0  0  0  0  0  0  0  0
  147.2344  138.5875  153.6095 C   0  0  2  0  0  0  0  0  0  0  0  0
  146.5012  138.5492  152.2545 C   0  0  0  0  0  0  0  0  0  0  0  0
  148.3531  139.6496  153.5587 C   0  0  0  0  0  0  0  0  0  0  0  0
  149.1305  139.7229  154.8819 C   0  0  2  0  0  0  0  0  0  0  0  0
  150.1641  140.7471  154.7706 N   0  0  0  0  0  0  0  0  0  0  0  0
  150.8836  140.9343  156.0225 C   0  0  0  0  0  0  0  0  0  0  0  0
  150.1684  141.9889  156.8774 C   0  0  0  0  0  0  0  0  0  0  0  0
  151.1056  142.6380  157.8782 C   0  0  0  0  0  0  0  0  0  0  0  0
  151.4416  144.0044  157.7714 C   0  0  0  0  0  0  0  0  0  0  0  0
  152.3239  144.5544  158.7213 C   0  0  0  0  0  0  0  0  0  0  0  0
  152.8349  143.7214  159.7350 C   0  0  0  0  0  0  0  0  0  0  0  0
  152.4388  142.3693  159.7540 C   0  0  0  0  0  0  0  0  0  0  0  0
  151.5933  141.8318  158.8482 N   0  0  0  0  0  0  0  0  0  0  0  0
  150.5320  137.7346  153.3089 H   0  0  0  0  0  0  0  0  0  0  0  0
  151.2065  136.8663  154.6788 H   0  0  0  0  0  0  0  0  0  0  0  0
  151.6896  138.5234  154.3751 H   0  0  0  0  0  0  0  0  0  0  0  0
  150.0885  138.3770  156.2662 H   0  0  0  0  0  0  0  0  0  0  0  0
  148.9273  136.3238  155.5324 H   0  0  0  0  0  0  0  0  0  0  0  0
  147.8384  137.5727  156.0882 H   0  0  0  0  0  0  0  0  0  0  0  0
  145.9547  136.4094  154.6795 H   0  0  0  0  0  0  0  0  0  0  0  0
  147.2342  135.2336  154.3689 H   0  0  0  0  0  0  0  0  0  0  0  0
  146.3936  135.9640  153.0225 H   0  0  0  0  0  0  0  0  0  0  0  0
  146.5147  138.8870  154.3735 H   0  0  0  0  0  0  0  0  0  0  0  0
  146.1887  139.5497  151.9538 H   0  0  0  0  0  0  0  0  0  0  0  0
  145.5969  137.9422  152.2933 H   0  0  0  0  0  0  0  0  0  0  0  0
  147.1423  138.1541  151.4657 H   0  0  0  0  0  0  0  0  0  0  0  0
  149.0317  139.4327  152.7325 H   0  0  0  0  0  0  0  0  0  0  0  0
  147.9166  140.6257  153.3409 H   0  0  0  0  0  0  0  0  0  0  0  0
  148.4275  140.0365  155.6556 H   0  0  0  0  0  0  0  0  0  0  0  0
  149.7350  141.6247  154.5124 H   0  0  0  0  0  0  0  0  0  0  0  0
  150.9316  139.9887  156.5641 H   0  0  0  0  0  0  0  0  0  0  0  0
  151.9065  141.2555  155.8275 H   0  0  0  0  0  0  0  0  0  0  0  0
  149.7366  142.7603  156.2380 H   0  0  0  0  0  0  0  0  0  0  0  0
  149.3359  141.5354  157.4179 H   0  0  0  0  0  0  0  0  0  0  0  0
  151.0359  144.6179  156.9801 H   0  0  0  0  0  0  0  0  0  0  0  0
  152.6052  145.5958  158.6723 H   0  0  0  0  0  0  0  0  0  0  0  0
  153.5149  144.1081  160.4797 H   0  0  0  0  0  0  0  0  0  0  0  0
  152.8116  141.7015  160.5164 H   0  0  0  0  0  0  0  0  0  0  0  0
  148.4692  137.0084  153.2944 H   0  0  0  0  0  0  0  0  0  0  0  0
  1  2  1  0  0  0  0
  1 19  1  0  0  0  0
  1 20  1  0  0  0  0
  1 21  1  0  0  0  0
  2  9  1  0  0  0  0
  2  3  1  0  0  0  0
  2 22  1  0  0  0  0
  3  4  1  0  0  0  0
  3 23  1  0  0  0  0
  3 24  1  0  0  0  0
  4  5  1  0  0  0  0
  4  6  1  0  0  0  0
  4 44  1  0  0  0  0
  5 25  1  0  0  0  0
  5 26  1  0  0  0  0
  5 27  1  0  0  0  0
  6  7  1  0  0  0  0
  6  8  1  0  0  0  0
  6 28  1  0  0  0  0
  7 29  1  0  0  0  0
  7 30  1  0  0  0  0
  7 31  1  0  0  0  0
  8  9  1  0  0  0  0
  8 32  1  0  0  0  0
  8 33  1  0  0  0  0
  9 10  1  0  0  0  0
  9 34  1  0  0  0  0
 10 11  1  0  0  0  0
 10 35  1  0  0  0  0
 11 12  1  0  0  0  0
 11 36  1  0  0  0  0
 11 37  1  0  0  0  0
 12 13  1  0  0  0  0
 12 38  1  0  0  0  0
 12 39  1  0  0  0  0
 13 18  1  0  0  0  0
 13 14  2  0  0  0  0
 14 15  1  0  0  0  0
 14 40  1  0  0  0  0
 15 16  2  0  0  0  0
 15 41  1  0  0  0  0
 16 17  1  0  0  0  0
 16 42  1  0  0  0  0
 17 18  2  0  0  0  0
 17 43  1  0  0  0  0
M  CHG  1   4   1
M  END
> <s_m_source_file>
AV-unprocessed.smi

> <i_m_source_file_index>
3303

> <i_lp_mmshare_version>
43012

> <i_f3d_flags>
0

> <s_epik_input>
W0NIM11bQ0BASF0xW0NIMl1OKFtDSDNdKVtDQEBIXShbQ0gzXSlbQ0gyXVtDQEhdMVtOSF1bQ0gyXVtDSDJdYzJbY0hdW2NIXVtjSF1bY0hdbjI=

> <s_epik_cmdline>
J2VwaWtfcHl0aG9uJywgJy1waCcsICc3LjAnLCAnLXRuJywgJzgnLCAnLW1hJywgJzIwMCcsICctbWV0YWxfYmluZGluZycsICctaW1hZScsICc8aW5maWxlLm1hZT4nLCAnLW9tYWUnLCAnPG91dGZpbGUubWFlPic=

> <r_epik_Ionization_Penalty>
2.31085

> <r_epik_Ionization_Penalty_Charging>
0.000313057

> <r_epik_Ionization_Penalty_Neutral>
2.31054

> <r_epik_State_Penalty>
2.4087

> <r_epik_Charging_Adjusted_Penalty>
2.40902

> <i_epik_Tot_Q>
1

> <i_epik_Tot_abs_Q>
1

> <r_epik_Metal_State_Penalty>
2.30979

> <b_epik_Metal_Only>
0

> <s_lp_Force_Field>
OPLS_2005

> <r_lp_Energy>
24.7509

> <b_lp_Chiralities_Consistent>
1

> <s_lp_Variant>
AV-unprocessed.smi:3303-39

> <Gold.Version>
5.8.1

> <Gold.Id.Protein>
6NUR|6NUR_protein|mol2

> <Gold.PLP.Fitness>
44.2307

> <Gold.PLP.PLP>
-37.1724

> <Gold.PLP.part.hbond>
-2.0000

> <Gold.PLP.part.metal>
0.0000

> <Gold.PLP.part.buried>
0.6551

> <Gold.PLP.part.nonpolar>
-36.2002

> <Gold.PLP.part.repulsive>
0.0000

> <Gold.PLP.ligand.clash>
0.0000

> <Gold.PLP.ligand.torsion>
0.3406

> <Gold.PLP.Chemscore.Hbond>
2.5712

> <Gold.PLP.Chemscore.CHOScore>
0.0000

> <Gold.PLP.Chemscore.Metal>
0.0000

> <Gold.Chemscore.Hbonds>
donor molecule, donor type, donor heavy atom, donor atom, acceptor molecule, acceptor atom, score
      L1  H     4    44       P1  7948  2.00
      P1  H  7989  7998       L1    10  0.61

> <Gold.PLP.Chemscore.Internal.Correction>
0.0260

> <Gold.Rescore>
     Score         DG    S(hbond)    S(metal)    S(lipo)     H(rot)  DE(clash)    DE(int)     intcor
     17.58     -19.35       1.00        0.00     118.98       1.33       1.41       0.36       ----

> <Gold.Chemscore.Fitness>
17.5759

> <Gold.Chemscore.DG>
-19.3493

> <Gold.Chemscore.ZeroCoef>
-5.4800

> <Gold.Chemscore.Hbond>
1.0018

> <Gold.Chemscore.Metal>
0.0000

> <Gold.Chemscore.Lipo>
118.9826

> <Gold.Chemscore.Internal_Hbond>
0.0000

> <Gold.Chemscore.DEClash>
1.4128

> <Gold.Chemscore.DEInternal>
0.3607

> <Gold.Chemscore.Rot>
1.3272

> <Gold.Chemscore.Internal.Correction>
   9.000000E+99

> <Gold.Chemscore.Hbonds>
donor molecule, donor type, donor heavy atom, donor atom, acceptor molecule, acceptor atom, score
      L1  H     4    44       P1  7948  0.98
      P1  H  7989  7998       L1    10  0.02

> <Gold.Chemscore.Hbond.Weighted>
-3.3460

> <Gold.Chemscore.Metal.Weighted>
-0.0000

> <Gold.Chemscore.Lipo.Weighted>
-13.9210

> <Gold.Chemscore.Internal_Hbond.Weighted>
0.0000

> <Gold.Chemscore.DEClash.Weighted>
1.4128

> <Gold.Chemscore.DEInternal.Weighted>
0.3607

> <Gold.Chemscore.Rot.Weighted>
3.3976

> <Gold.Chemscore.Internal.Correction.Weighted>
   9.000000E+99

> <Gold.Protein.RotatedTorsions>
[ 6907 6896 6895 6894 ] final  -54.10 input  -60.11 | X-H torsion
[ 7974 7965 7964 7962 ] final -124.68 input  175.53 | X-H torsion
[ 8008 7997 7996 7995 ] final   20.61 input   59.86 | X-H torsion
[ 10167 10162 10161 10158 ] final   19.66 input  -65.29 | X-H torsion
[ 10718 10713 10712 10709 ] final  -54.14 input   66.30 | X-H torsion
[ 10763 10752 10751 10750 ] final  -41.97 input  -60.55 | X-H torsion
[ 11005 11000 10999 10996 ] final  -26.81 input  -57.11 | X-H torsion

> <Gold.Protein.ActiveResidues>
 VAL166  LYS551  ARG553  GLY616  TRP617  ASP618  TYR619  PRO620  LYS621  CYS622 
 ASP623  PHE694  ASN695  SER759  ASP760  ASP761  ALA762  ILE779  LEU786  VAL792 
 PHE793  MET794  SER795  GLU796  ALA797  LYS798  CYS799  TRP800  GLU811  SER814 

> <Gold.Protein.RotatedAtoms>
  150.8367  134.7644  159.6898 H   0  0  0  0  0  0  0  0  0  0  0  0  # atno 6907 bound_to 6896
  152.4463  134.5485  159.9869 H   0  0  0  0  0  0  0  0  0  0  0  0  # atno 6908 bound_to 6896
  151.5633  133.3362  159.3011 H   0  0  0  0  0  0  0  0  0  0  0  0  # atno 6909 bound_to 6896
  145.0056  140.7859  143.4470 H   0  0  0  0  0  0  0  0  0  0  0  0  # atno 7974 bound_to 7965
  154.9382  140.3049  155.5134 H   0  0  0  0  0  0  0  0  0  0  0  0  # atno 8008 bound_to 7997
  156.2998  140.2341  156.4385 H   0  0  0  0  0  0  0  0  0  0  0  0  # atno 8009 bound_to 7997
  154.8171  140.0425  157.1373 H   0  0  0  0  0  0  0  0  0  0  0  0  # atno 8010 bound_to 7997
  140.5562  143.9419  150.6611 H   0  0  0  0  0  0  0  0  0  0  0  0  # atno 10167 bound_to 10162
  156.1476  130.4152  149.9999 H   0  0  0  0  0  0  0  0  0  0  0  0  # atno 10718 bound_to 10713
  153.9713  135.6728  153.4747 H   0  0  0  0  0  0  0  0  0  0  0  0  # atno 10763 bound_to 10752
  153.0791  135.4932  154.8463 H   0  0  0  0  0  0  0  0  0  0  0  0  # atno 10764 bound_to 10752
  154.7217  135.3118  154.8997 H   0  0  0  0  0  0  0  0  0  0  0  0  # atno 10765 bound_to 10752
  140.9063  133.7490  156.0610 H   0  0  0  0  0  0  0  0  0  0  0  0  # atno 11005 bound_to 11000
  145.2094  139.2212  143.5151 LP  0  0  0  0  0  0  0  0  0  0  0  0  # atno 17320 bound_to 7965
  146.3460  140.1928  142.8589 LP  0  0  0  0  0  0  0  0  0  0  0  0  # atno 17321 bound_to 7965
  140.2858  143.3358  152.1108 LP  0  0  0  0  0  0  0  0  0  0  0  0  # atno 17342 bound_to 10162
  139.5049  144.6785  151.6069 LP  0  0  0  0  0  0  0  0  0  0  0  0  # atno 17343 bound_to 10162
  156.7866  130.9241  151.3646 LP  0  0  0  0  0  0  0  0  0  0  0  0  # atno 17370 bound_to 10713
  157.6629  130.8982  149.9870 LP  0  0  0  0  0  0  0  0  0  0  0  0  # atno 17371 bound_to 10713
  140.8167  134.3337  157.5395 LP  0  0  0  0  0  0  0  0  0  0  0  0  # atno 17394 bound_to 11000
  139.8750  134.9285  156.3453 LP  0  0  0  0  0  0  0  0  0  0  0  0  # atno 17395 bound_to 11000

$$$$
