AV-unprocessed.smi:1088|AV-procd|sdf|4728|dock4
  -GOLD-   22720 3263D 1   1.00000     0.00000
 Structure written by MMmdl.
 48 49  0  0  0  0  0  0  0  0  2 V2000
  152.6774  137.9993  155.7592 C   0  0  0  0  0  0  0  0  0  0  0  0
  151.3777  137.5205  155.4610 O   0  0  0  0  0  0  0  0  0  0  0  0
  150.8174  138.1427  154.3167 C   0  0  0  0  0  0  0  0  0  0  0  0
  150.5086  139.6089  154.6516 C   0  0  0  0  0  0  0  0  0  0  0  0
  149.0516  139.8622  154.7653 N   0  3  2  0  0  0  0  0  0  0  0  0
  148.2371  139.3291  153.6531 C   0  0  0  0  0  0  0  0  0  0  0  0
  146.9565  140.1520  153.6758 C   0  0  0  0  0  0  0  0  0  0  0  0
  147.4538  141.5397  154.0615 C   0  0  0  0  0  0  0  0  0  0  0  0
  148.6893  141.2903  154.9529 C   0  0  1  0  0  0  0  0  0  0  0  0
  148.4684  141.5860  156.4506 C   0  0  0  0  0  0  0  0  0  0  0  0
  149.5281  142.4262  156.9997 N   0  0  0  0  0  0  0  0  0  0  0  0
  150.4459  142.0358  157.8969 C   0  0  0  0  0  0  0  0  0  0  0  0
  150.5305  140.8833  158.3228 O   0  0  0  0  0  0  0  0  0  0  0  0
  151.4150  143.1173  158.3893 C   0  0  0  0  0  0  0  0  0  0  0  0
  152.2817  142.6360  159.4728 N   0  0  0  0  0  0  0  0  0  0  0  0
  153.1374  141.5731  159.2476 C   0  0  0  0  0  0  0  0  0  0  0  0
  153.9617  141.0680  160.1911 C   0  0  0  0  0  0  0  0  0  0  0  0
  153.9913  141.6282  161.5366 C   0  0  0  0  0  0  0  0  0  0  0  0
  154.7420  141.2154  162.4215 O   0  0  0  0  0  0  0  0  0  0  0  0
  153.0935  142.7016  161.7463 N   0  0  0  0  0  0  0  0  0  0  0  0
  153.0759  143.3196  163.0562 C   0  0  0  0  0  0  0  0  0  0  0  0
  152.2490  143.2400  160.7491 C   0  0  0  0  0  0  0  0  0  0  0  0
  151.5081  144.2026  160.9663 O   0  0  0  0  0  0  0  0  0  0  0  0
  153.0609  137.4917  156.6442 H   0  0  0  0  0  0  0  0  0  0  0  0
  152.6661  139.0705  155.9647 H   0  0  0  0  0  0  0  0  0  0  0  0
  153.3670  137.8076  154.9362 H   0  0  0  0  0  0  0  0  0  0  0  0
  151.5329  138.1020  153.4940 H   0  0  0  0  0  0  0  0  0  0  0  0
  149.9201  137.6162  153.9883 H   0  0  0  0  0  0  0  0  0  0  0  0
  150.9925  139.8622  155.5959 H   0  0  0  0  0  0  0  0  0  0  0  0
  150.9369  140.2684  153.8956 H   0  0  0  0  0  0  0  0  0  0  0  0
  148.7542  139.4834  152.7045 H   0  0  0  0  0  0  0  0  0  0  0  0
  148.0446  138.2619  153.7655 H   0  0  0  0  0  0  0  0  0  0  0  0
  146.4247  140.1394  152.7239 H   0  0  0  0  0  0  0  0  0  0  0  0
  146.2829  139.7725  154.4455 H   0  0  0  0  0  0  0  0  0  0  0  0
  147.7600  142.0752  153.1617 H   0  0  0  0  0  0  0  0  0  0  0  0
  146.6711  142.1323  154.5332 H   0  0  0  0  0  0  0  0  0  0  0  0
  149.4996  141.9235  154.5864 H   0  0  0  0  0  0  0  0  0  0  0  0
  147.4845  142.0318  156.6065 H   0  0  0  0  0  0  0  0  0  0  0  0
  148.4685  140.6517  157.0132 H   0  0  0  0  0  0  0  0  0  0  0  0
  149.5440  143.3910  156.7019 H   0  0  0  0  0  0  0  0  0  0  0  0
  152.0163  143.4473  157.5413 H   0  0  0  0  0  0  0  0  0  0  0  0
  150.8629  143.9983  158.7225 H   0  0  0  0  0  0  0  0  0  0  0  0
  153.1509  141.1199  158.2669 H   0  0  0  0  0  0  0  0  0  0  0  0
  154.6089  140.2383  159.9471 H   0  0  0  0  0  0  0  0  0  0  0  0
  152.0830  143.7233  163.2588 H   0  0  0  0  0  0  0  0  0  0  0  0
  153.8321  144.1058  163.0456 H   0  0  0  0  0  0  0  0  0  0  0  0
  153.2921  142.5673  163.8162 H   0  0  0  0  0  0  0  0  0  0  0  0
  148.7320  139.3902  155.5994 H   0  0  0  0  0  0  0  0  0  0  0  0
  1  2  1  0  0  0  0
  1 24  1  0  0  0  0
  1 25  1  0  0  0  0
  1 26  1  0  0  0  0
  2  3  1  0  0  0  0
  3  4  1  0  0  0  0
  3 27  1  0  0  0  0
  3 28  1  0  0  0  0
  4  5  1  0  0  0  0
  4 29  1  0  0  0  0
  4 30  1  0  0  0  0
  5  9  1  0  0  0  0
  5  6  1  0  0  0  0
  5 48  1  0  0  0  0
  6  7  1  0  0  0  0
  6 31  1  0  0  0  0
  6 32  1  0  0  0  0
  7  8  1  0  0  0  0
  7 33  1  0  0  0  0
  7 34  1  0  0  0  0
  8  9  1  0  0  0  0
  8 35  1  0  0  0  0
  8 36  1  0  0  0  0
  9 10  1  0  0  0  0
  9 37  1  0  0  0  0
 10 11  1  0  0  0  0
 10 38  1  0  0  0  0
 10 39  1  0  0  0  0
 11 12  1  0  0  0  0
 11 40  1  0  0  0  0
 12 13  2  0  0  0  0
 12 14  1  0  0  0  0
 14 15  1  0  0  0  0
 14 41  1  0  0  0  0
 14 42  1  0  0  0  0
 15 22  1  0  0  0  0
 15 16  1  0  0  0  0
 16 17  2  0  0  0  0
 16 43  1  0  0  0  0
 17 18  1  0  0  0  0
 17 44  1  0  0  0  0
 18 19  2  0  0  0  0
 18 20  1  0  0  0  0
 20 21  1  0  0  0  0
 20 22  1  0  0  0  0
 21 45  1  0  0  0  0
 21 46  1  0  0  0  0
 21 47  1  0  0  0  0
 22 23  2  0  0  0  0
M  CHG  1   5   1
M  END
> <s_m_source_file>
AV-unprocessed.smi

> <i_m_source_file_index>
1088

> <i_lp_mmshare_version>
43012

> <i_f3d_flags>
0

> <s_epik_input>
W0NIM11PW0NIMl1bQ0gyXU4xW0NIMl1bQ0gyXVtDSDJdW0NASF0xW0NIMl1bTkhdQyg9TylbQ0gyXW4yW2NIXVtjSF1jKD1PKW4oW0NIM10pYzI9Tw==

> <s_epik_cmdline>
J2VwaWtfcHl0aG9uJywgJy1waCcsICc3LjAnLCAnLXRuJywgJzgnLCAnLW1hJywgJzIwMCcsICctbWV0YWxfYmluZGluZycsICctaW1hZScsICc8aW5maWxlLm1hZT4nLCAnLW9tYWUnLCAnPG91dGZpbGUubWFlPic=

> <r_lp_tautomer_probability>
1

> <r_epik_Ionization_Penalty>
0.0127388

> <r_epik_Ionization_Penalty_Charging>
0.0127387

> <r_epik_Ionization_Penalty_Neutral>
8.26414e-08

> <r_epik_State_Penalty>
0.00987716

> <r_epik_Charging_Adjusted_Penalty>
0.0226159

> <i_epik_Tot_Q>
1

> <i_epik_Tot_abs_Q>
1

> <r_epik_Metal_State_Penalty>
0.00987836

> <b_epik_Metal_Only>
0

> <s_lp_Force_Field>
OPLS_2005

> <r_lp_Energy>
37.5103

> <b_lp_Chiralities_Consistent>
1

> <s_lp_Variant>
AV-unprocessed.smi:1088-1

> <Gold.Version>
5.8.1

> <Gold.Id.Protein>
6NUR|6NUR_protein|mol2

> <Gold.PLP.Fitness>
49.2802

> <Gold.PLP.PLP>
-48.5810

> <Gold.PLP.part.hbond>
-2.0000

> <Gold.PLP.part.metal>
0.0000

> <Gold.PLP.part.buried>
-2.4993

> <Gold.PLP.part.nonpolar>
-43.9257

> <Gold.PLP.part.repulsive>
0.3228

> <Gold.PLP.ligand.clash>
0.0000

> <Gold.PLP.ligand.torsion>
1.1763

> <Gold.PLP.Chemscore.Hbond>
0.9760

> <Gold.PLP.Chemscore.CHOScore>
0.0000

> <Gold.PLP.Chemscore.Metal>
0.0000

> <Gold.Chemscore.Hbonds>
donor molecule, donor type, donor heavy atom, donor atom, acceptor molecule, acceptor atom, score
      L1  H    11    40       P1  8028  1.00

> <Gold.PLP.Chemscore.Internal.Correction>
0.1239

> <Gold.Rescore>
     Score         DG    S(hbond)    S(metal)    S(lipo)     H(rot)  DE(clash)    DE(int)     intcor
      8.38     -12.48       0.87        0.00      91.21       2.57       0.16       3.94       ----

> <Gold.Chemscore.Fitness>
8.3776

> <Gold.Chemscore.DG>
-12.4756

> <Gold.Chemscore.ZeroCoef>
-5.4800

> <Gold.Chemscore.Hbond>
0.8687

> <Gold.Chemscore.Metal>
0.0000

> <Gold.Chemscore.Lipo>
91.2094

> <Gold.Chemscore.Internal_Hbond>
0.0000

> <Gold.Chemscore.DEClash>
0.1603

> <Gold.Chemscore.DEInternal>
3.9377

> <Gold.Chemscore.Rot>
2.5692

> <Gold.Chemscore.Internal.Correction>
   9.000000E+99

> <Gold.Chemscore.Hbonds>
donor molecule, donor type, donor heavy atom, donor atom, acceptor molecule, acceptor atom, score
      L1  H    11    40       P1  8028  0.94

> <Gold.Chemscore.Hbond.Weighted>
-2.9013

> <Gold.Chemscore.Metal.Weighted>
-0.0000

> <Gold.Chemscore.Lipo.Weighted>
-10.6715

> <Gold.Chemscore.Internal_Hbond.Weighted>
0.0000

> <Gold.Chemscore.DEClash.Weighted>
0.1603

> <Gold.Chemscore.DEInternal.Weighted>
3.9377

> <Gold.Chemscore.Rot.Weighted>
6.5772

> <Gold.Chemscore.Internal.Correction.Weighted>
   9.000000E+99

> <Gold.Protein.RotatedTorsions>
[ 6907 6896 6895 6894 ] final -106.65 input  -60.11 | X-H torsion
[ 7974 7965 7964 7962 ] final  171.46 input  175.53 | X-H torsion
[ 8008 7997 7996 7995 ] final  -31.79 input   59.86 | X-H torsion
[ 10167 10162 10161 10158 ] final   16.80 input  -65.29 | X-H torsion
[ 10718 10713 10712 10709 ] final  127.81 input   66.30 | X-H torsion
[ 10763 10752 10751 10750 ] final  130.84 input  -60.55 | X-H torsion
[ 11005 11000 10999 10996 ] final   60.69 input  -57.11 | X-H torsion

> <Gold.Protein.ActiveResidues>
 VAL166  LYS551  ARG553  GLY616  TRP617  ASP618  TYR619  PRO620  LYS621  CYS622 
 ASP623  PHE694  ASN695  SER759  ASP760  ASP761  ALA762  ILE779  LEU786  VAL792 
 PHE793  MET794  SER795  GLU796  ALA797  LYS798  CYS799  TRP800  GLU811  SER814 

> <Gold.Protein.RotatedAtoms>
  150.7401  133.9944  159.3617 H   0  0  0  0  0  0  0  0  0  0  0  0  # atno 6907 bound_to 6896
  151.7894  135.0738  160.0394 H   0  0  0  0  0  0  0  0  0  0  0  0  # atno 6908 bound_to 6896
  152.3218  133.5826  159.5786 H   0  0  0  0  0  0  0  0  0  0  0  0  # atno 6909 bound_to 6896
  144.7294  139.9354  143.6426 H   0  0  0  0  0  0  0  0  0  0  0  0  # atno 7974 bound_to 7965
  154.4201  140.1755  156.1624 H   0  0  0  0  0  0  0  0  0  0  0  0  # atno 8008 bound_to 7997
  155.9827  140.3376  155.6654 H   0  0  0  0  0  0  0  0  0  0  0  0  # atno 8009 bound_to 7997
  155.6478  140.0687  157.2588 H   0  0  0  0  0  0  0  0  0  0  0  0  # atno 8010 bound_to 7997
  140.5771  143.9051  150.6759 H   0  0  0  0  0  0  0  0  0  0  0  0  # atno 10167 bound_to 10162
  157.5300  131.1098  150.9023 H   0  0  0  0  0  0  0  0  0  0  0  0  # atno 10718 bound_to 10713
  153.7646  135.3191  155.3342 H   0  0  0  0  0  0  0  0  0  0  0  0  # atno 10763 bound_to 10752
  154.8218  135.4598  154.0804 H   0  0  0  0  0  0  0  0  0  0  0  0  # atno 10764 bound_to 10752
  153.2045  135.6927  153.8273 H   0  0  0  0  0  0  0  0  0  0  0  0  # atno 10765 bound_to 10752
  140.0214  134.6147  155.9634 H   0  0  0  0  0  0  0  0  0  0  0  0  # atno 11005 bound_to 11000
  146.0825  139.3813  143.0455 LP  0  0  0  0  0  0  0  0  0  0  0  0  # atno 17320 bound_to 7965
  145.7821  140.9852  143.1094 LP  0  0  0  0  0  0  0  0  0  0  0  0  # atno 17321 bound_to 7965
  140.2541  143.3571  152.1380 LP  0  0  0  0  0  0  0  0  0  0  0  0  # atno 17342 bound_to 10162
  139.5149  144.6955  151.5643 LP  0  0  0  0  0  0  0  0  0  0  0  0  # atno 17343 bound_to 10162
  156.9608  130.5454  149.5286 LP  0  0  0  0  0  0  0  0  0  0  0  0  # atno 17370 bound_to 10713
  156.0415  130.5497  150.8782 LP  0  0  0  0  0  0  0  0  0  0  0  0  # atno 17371 bound_to 10713
  141.1776  133.6542  156.4890 LP  0  0  0  0  0  0  0  0  0  0  0  0  # atno 17394 bound_to 11000
  140.4381  134.7041  157.4977 LP  0  0  0  0  0  0  0  0  0  0  0  0  # atno 17395 bound_to 11000

$$$$
