AV-unprocessed.smi:3335|AV-procd|sdf|12840|dock6
  -GOLD-   2272019223D 1   1.00000     0.00000
 Structure written by MMmdl.
 47 48  0  0  0  0  0  0  0  0  2 V2000
  144.2843  134.3880  151.0755 C   0  0  0  0  0  0  0  0  0  0  0  0
  144.4684  135.6162  151.9188 C   0  0  0  0  0  0  0  0  0  0  0  0
  143.4679  136.3831  152.5792 C   0  0  0  0  0  0  0  0  0  0  0  0
  143.9679  137.4046  153.2543 N   0  0  0  0  0  0  0  0  0  0  0  0
  145.3016  137.3398  153.0406 N   0  0  0  0  0  0  0  0  0  0  0  0
  146.2128  138.2933  153.6704 C   0  0  1  0  0  0  0  0  0  0  0  0
  147.1964  137.6029  154.6366 C   0  0  0  0  0  0  0  0  0  0  0  0
  146.9231  139.2100  152.6377 C   0  0  1  0  0  0  0  0  0  0  0  0
  146.5334  138.9162  151.1729 C   0  0  0  0  0  0  0  0  0  0  0  0
  146.6577  140.6277  152.9903 N   0  3  0  0  0  0  0  0  0  0  0  0
  147.0265  141.0954  154.3499 C   0  0  2  0  0  0  0  0  0  0  0  0
  146.4403  142.4892  154.6471 C   0  0  0  0  0  0  0  0  0  0  0  0
  148.5608  141.1346  154.4844 C   0  0  0  0  0  0  0  0  0  0  0  0
  149.2491  141.0133  153.4694 O   0  0  0  0  0  0  0  0  0  0  0  0
  149.1170  141.3142  155.7024 N   0  0  0  0  0  0  0  0  0  0  0  0
  148.4039  141.4802  156.9698 C   0  0  0  0  0  0  0  0  0  0  0  0
  149.4627  141.9009  157.9891 C   0  0  0  0  0  0  0  0  0  0  0  0
  150.7581  141.3260  157.4355 C   0  0  0  0  0  0  0  0  0  0  0  0
  150.5623  141.3633  155.9203 C   0  0  0  0  0  0  0  0  0  0  0  0
  145.6271  136.2630  152.2411 C   0  0  0  0  0  0  0  0  0  0  0  0
  143.2556  134.0279  151.1020 H   0  0  0  0  0  0  0  0  0  0  0  0
  144.9188  133.5687  151.4137 H   0  0  0  0  0  0  0  0  0  0  0  0
  144.5318  134.5770  150.0309 H   0  0  0  0  0  0  0  0  0  0  0  0
  142.3998  136.2236  152.5940 H   0  0  0  0  0  0  0  0  0  0  0  0
  145.5934  138.9356  154.2993 H   0  0  0  0  0  0  0  0  0  0  0  0
  147.8042  138.3373  155.1654 H   0  0  0  0  0  0  0  0  0  0  0  0
  147.8763  136.9231  154.1235 H   0  0  0  0  0  0  0  0  0  0  0  0
  146.6596  137.0236  155.3885 H   0  0  0  0  0  0  0  0  0  0  0  0
  147.9928  139.0343  152.7462 H   0  0  0  0  0  0  0  0  0  0  0  0
  146.6197  137.8549  150.9422 H   0  0  0  0  0  0  0  0  0  0  0  0
  147.1836  139.4360  150.4705 H   0  0  0  0  0  0  0  0  0  0  0  0
  145.5083  139.2194  150.9585 H   0  0  0  0  0  0  0  0  0  0  0  0
  147.1522  141.2030  152.3230 H   0  0  0  0  0  0  0  0  0  0  0  0
  146.6363  140.3772  155.0679 H   0  0  0  0  0  0  0  0  0  0  0  0
  146.8027  142.8820  155.5978 H   0  0  0  0  0  0  0  0  0  0  0  0
  145.3532  142.4628  154.7152 H   0  0  0  0  0  0  0  0  0  0  0  0
  146.7095  143.2083  153.8726 H   0  0  0  0  0  0  0  0  0  0  0  0
  147.6059  142.2207  156.9092 H   0  0  0  0  0  0  0  0  0  0  0  0
  147.9630  140.5246  157.2574 H   0  0  0  0  0  0  0  0  0  0  0  0
  149.5309  142.9892  158.0182 H   0  0  0  0  0  0  0  0  0  0  0  0
  149.2422  141.5526  158.9985 H   0  0  0  0  0  0  0  0  0  0  0  0
  151.6409  141.8765  157.7624 H   0  0  0  0  0  0  0  0  0  0  0  0
  150.8677  140.2918  157.7647 H   0  0  0  0  0  0  0  0  0  0  0  0
  151.0807  140.5347  155.4349 H   0  0  0  0  0  0  0  0  0  0  0  0
  150.9517  142.2952  155.5075 H   0  0  0  0  0  0  0  0  0  0  0  0
  146.6501  136.0428  151.9730 H   0  0  0  0  0  0  0  0  0  0  0  0
  145.6692  140.7999  152.8739 H   0  0  0  0  0  0  0  0  0  0  0  0
  1  2  1  0  0  0  0
  1 21  1  0  0  0  0
  1 22  1  0  0  0  0
  1 23  1  0  0  0  0
  2 20  2  0  0  0  0
  2  3  1  0  0  0  0
  3  4  2  0  0  0  0
  3 24  1  0  0  0  0
  4  5  1  0  0  0  0
  5  6  1  0  0  0  0
  5 20  1  0  0  0  0
  6  7  1  0  0  0  0
  6  8  1  0  0  0  0
  6 25  1  0  0  0  0
  7 26  1  0  0  0  0
  7 27  1  0  0  0  0
  7 28  1  0  0  0  0
  8  9  1  0  0  0  0
  8 10  1  0  0  0  0
  8 29  1  0  0  0  0
  9 30  1  0  0  0  0
  9 31  1  0  0  0  0
  9 32  1  0  0  0  0
 10 11  1  0  0  0  0
 10 33  1  0  0  0  0
 10 47  1  0  0  0  0
 11 12  1  0  0  0  0
 11 13  1  0  0  0  0
 11 34  1  0  0  0  0
 12 35  1  0  0  0  0
 12 36  1  0  0  0  0
 12 37  1  0  0  0  0
 13 14  2  0  0  0  0
 13 15  1  0  0  0  0
 15 19  1  0  0  0  0
 15 16  1  0  0  0  0
 16 17  1  0  0  0  0
 16 38  1  0  0  0  0
 16 39  1  0  0  0  0
 17 18  1  0  0  0  0
 17 40  1  0  0  0  0
 17 41  1  0  0  0  0
 18 19  1  0  0  0  0
 18 42  1  0  0  0  0
 18 43  1  0  0  0  0
 19 44  1  0  0  0  0
 19 45  1  0  0  0  0
 20 46  1  0  0  0  0
M  CHG  1  10   1
M  END
> <s_m_source_file>
AV-unprocessed.smi

> <i_m_source_file_index>
3335

> <i_lp_mmshare_version>
43012

> <i_f3d_flags>
0

> <s_epik_input>
W0NIM11jMVtjSF1ubihbY0hdMSlbQ0BIXShbQ0gzXSlbQ0BIXShbQ0gzXSlbTkhdW0NASF0oW0NIM10pQyg9TylOMltDSDJdW0NIMl1bQ0gyXVtDSDJdMg==

> <s_epik_cmdline>
J2VwaWtfcHl0aG9uJywgJy1waCcsICc3LjAnLCAnLXRuJywgJzgnLCAnLW1hJywgJzIwMCcsICctbWV0YWxfYmluZGluZycsICctaW1hZScsICc8aW5maWxlLm1hZT4nLCAnLW9tYWUnLCAnPG91dGZpbGUubWFlPic=

> <r_lp_tautomer_probability>
1

> <r_epik_Ionization_Penalty>
0.14175

> <r_epik_Ionization_Penalty_Charging>
0.141731

> <r_epik_Ionization_Penalty_Neutral>
1.91261e-05

> <r_epik_State_Penalty>
0.131043

> <r_epik_Charging_Adjusted_Penalty>
0.272773

> <i_epik_Tot_Q>
1

> <i_epik_Tot_abs_Q>
1

> <r_epik_Metal_State_Penalty>
0.131408

> <b_epik_Metal_Only>
0

> <s_lp_Force_Field>
OPLS_2005

> <r_lp_Energy>
37.3946

> <b_lp_Chiralities_Consistent>
1

> <s_lp_Variant>
AV-unprocessed.smi:3335-4

> <Gold.Version>
5.8.1

> <Gold.Id.Protein>
6NUR|6NUR_protein|mol2

> <Gold.PLP.Fitness>
42.7633

> <Gold.PLP.PLP>
-33.9168

> <Gold.PLP.part.hbond>
-3.0000

> <Gold.PLP.part.metal>
0.0000

> <Gold.PLP.part.buried>
-3.9028

> <Gold.PLP.part.nonpolar>
-31.8257

> <Gold.PLP.part.repulsive>
4.6300

> <Gold.PLP.ligand.clash>
0.0000

> <Gold.PLP.ligand.torsion>
1.7435

> <Gold.PLP.Chemscore.Hbond>
3.0203

> <Gold.PLP.Chemscore.CHOScore>
1.0000

> <Gold.PLP.Chemscore.Metal>
0.0000

> <Gold.Chemscore.Hbonds>
donor molecule, donor type, donor heavy atom, donor atom, acceptor molecule, acceptor atom, score
      L1  H    10    47       P1 10175  1.95
      P1  H  7989  7998       L1    14  0.05
      P1  H  8011  8017       L1    14  1.00
      L1  C    20    46       P1  7948  1.00

> <Gold.PLP.Chemscore.Internal.Correction>
0.2726

> <Gold.Rescore>
     Score         DG    S(hbond)    S(metal)    S(lipo)     H(rot)  DE(clash)    DE(int)     intcor
     10.25     -14.22       1.29        0.00      74.53       1.68       1.93       2.04       ----

> <Gold.Chemscore.Fitness>
10.2493

> <Gold.Chemscore.DG>
-14.2187

> <Gold.Chemscore.ZeroCoef>
-5.4800

> <Gold.Chemscore.Hbond>
1.2916

> <Gold.Chemscore.Metal>
0.0000

> <Gold.Chemscore.Lipo>
74.5286

> <Gold.Chemscore.Internal_Hbond>
0.0000

> <Gold.Chemscore.DEClash>
1.9341

> <Gold.Chemscore.DEInternal>
2.0352

> <Gold.Chemscore.Rot>
1.6778

> <Gold.Chemscore.Internal.Correction>
   9.000000E+99

> <Gold.Chemscore.Hbonds>
donor molecule, donor type, donor heavy atom, donor atom, acceptor molecule, acceptor atom, score
      L1  H    10    47       P1 10175  0.41
      P1  H  7989  7998       L1    14  0.06
      P1  H  8011  8017       L1    14  0.98

> <Gold.Chemscore.Hbond.Weighted>
-4.3140

> <Gold.Chemscore.Metal.Weighted>
-0.0000

> <Gold.Chemscore.Lipo.Weighted>
-8.7198

> <Gold.Chemscore.Internal_Hbond.Weighted>
0.0000

> <Gold.Chemscore.DEClash.Weighted>
1.9341

> <Gold.Chemscore.DEInternal.Weighted>
2.0352

> <Gold.Chemscore.Rot.Weighted>
4.2952

> <Gold.Chemscore.Internal.Correction.Weighted>
   9.000000E+99

> <Gold.Protein.RotatedTorsions>
[ 6907 6896 6895 6894 ] final   93.52 input  -60.11 | X-H torsion
[ 7974 7965 7964 7962 ] final   31.76 input  175.53 | X-H torsion
[ 8008 7997 7996 7995 ] final -140.54 input   59.86 | X-H torsion
[ 10167 10162 10161 10158 ] final -167.78 input  -65.29 | X-H torsion
[ 10718 10713 10712 10709 ] final -155.54 input   66.30 | X-H torsion
[ 10763 10752 10751 10750 ] final  117.69 input  -60.55 | X-H torsion
[ 11005 11000 10999 10996 ] final   14.04 input  -57.11 | X-H torsion

> <Gold.Protein.ActiveResidues>
 VAL166  LYS551  ARG553  GLY616  TRP617  ASP618  TYR619  PRO620  LYS621  CYS622 
 ASP623  PHE694  ASN695  SER759  ASP760  ASP761  ALA762  ILE779  LEU786  VAL792 
 PHE793  MET794  SER795  GLU796  ALA797  LYS798  CYS799  TRP800  GLU811  SER814 

> <Gold.Protein.RotatedAtoms>
  152.5452  134.1336  159.8448 H   0  0  0  0  0  0  0  0  0  0  0  0  # atno 6907 bound_to 6896
  151.1379  133.4984  159.2605 H   0  0  0  0  0  0  0  0  0  0  0  0  # atno 6908 bound_to 6896
  151.1605  135.0281  159.8763 H   0  0  0  0  0  0  0  0  0  0  0  0  # atno 6909 bound_to 6896
  146.1529  139.6614  142.9086 H   0  0  0  0  0  0  0  0  0  0  0  0  # atno 7974 bound_to 7965
  155.4630  140.0547  157.2988 H   0  0  0  0  0  0  0  0  0  0  0  0  # atno 8008 bound_to 7997
  154.4729  140.2048  155.9904 H   0  0  0  0  0  0  0  0  0  0  0  0  # atno 8009 bound_to 7997
  156.1085  140.3208  155.8045 H   0  0  0  0  0  0  0  0  0  0  0  0  # atno 8010 bound_to 7997
  139.6027  144.0976  152.1760 H   0  0  0  0  0  0  0  0  0  0  0  0  # atno 10167 bound_to 10162
  156.5143  130.8449  151.2658 H   0  0  0  0  0  0  0  0  0  0  0  0  # atno 10718 bound_to 10713
  153.5562  135.3530  155.2780 H   0  0  0  0  0  0  0  0  0  0  0  0  # atno 10763 bound_to 10752
  154.8701  135.4125  154.2882 H   0  0  0  0  0  0  0  0  0  0  0  0  # atno 10764 bound_to 10752
  153.3618  135.7060  153.6775 H   0  0  0  0  0  0  0  0  0  0  0  0  # atno 10765 bound_to 10752
  140.4740  134.1002  155.7738 H   0  0  0  0  0  0  0  0  0  0  0  0  # atno 11005 bound_to 11000
  145.4778  141.0437  143.2663 LP  0  0  0  0  0  0  0  0  0  0  0  0  # atno 17320 bound_to 7965
  144.7927  139.6296  143.7106 LP  0  0  0  0  0  0  0  0  0  0  0  0  # atno 17321 bound_to 7965
  140.0576  144.5882  150.7287 LP  0  0  0  0  0  0  0  0  0  0  0  0  # atno 17342 bound_to 10162
  140.7262  143.2639  151.4112 LP  0  0  0  0  0  0  0  0  0  0  0  0  # atno 17343 bound_to 10162
  157.7446  130.9939  150.2688 LP  0  0  0  0  0  0  0  0  0  0  0  0  # atno 17370 bound_to 10713
  156.3210  130.3786  149.7575 LP  0  0  0  0  0  0  0  0  0  0  0  0  # atno 17371 bound_to 10713
  141.1563  133.8876  157.1968 LP  0  0  0  0  0  0  0  0  0  0  0  0  # atno 17394 bound_to 11000
  139.9867  135.0079  156.9880 LP  0  0  0  0  0  0  0  0  0  0  0  0  # atno 17395 bound_to 11000

$$$$
