AV-unprocessed.smi:232|AV-procd|sdf|1782|dock8
  -GOLD-   2262020333D 1   1.00000     0.00000
 Structure written by MMmdl.
 52 55  0  0  0  0  0  0  0  0  1 V2000
  148.9483  141.7310  154.3685 C   0  0  0  0  0  0  0  0  0  0  0  0
  148.9702  140.6926  155.4970 C   0  0  0  0  0  0  0  0  0  0  0  0
  150.2525  140.7584  156.3553 C   0  0  1  0  0  0  0  0  0  0  0  0
  150.6457  142.1949  156.7520 C   0  0  0  0  0  0  0  0  0  0  0  0
  150.9163  142.1493  158.2605 C   0  0  0  0  0  0  0  0  0  0  0  0
  151.0129  140.6604  158.5964 C   0  0  2  0  0  0  0  0  0  0  0  0
  152.4664  140.1495  158.5092 C   0  0  0  0  0  0  0  0  0  0  0  0
  150.1255  140.0358  157.6209 N   0  0  0  0  0  0  0  0  0  0  0  0
  150.0317  138.6796  157.6521 C   0  0  0  0  0  0  0  0  0  0  0  0
  149.7333  138.0443  158.8170 N   0  0  0  0  0  0  0  0  0  0  0  0
  149.6116  136.7145  158.8514 C   0  0  0  0  0  0  0  0  0  0  0  0
  149.7371  135.8398  157.8522 N   0  0  0  0  0  0  0  0  0  0  0  0
  150.0375  136.4689  156.6803 C   0  0  0  0  0  0  0  0  0  0  0  0
  150.2065  137.8703  156.4942 C   0  0  0  0  0  0  0  0  0  0  0  0
  150.5213  138.1343  155.1663 N   0  0  0  0  0  0  0  0  0  0  0  0
  150.5232  136.9600  154.5979 C   0  0  0  0  0  0  0  0  0  0  0  0
  150.2178  135.9060  155.4288 N   0  0  0  0  0  0  0  0  0  0  0  0
  150.1378  134.5035  155.0590 C   0  0  0  0  0  0  0  0  0  0  0  0
  148.7079  134.0385  154.6981 C   0  0  1  0  0  0  0  0  0  0  0  0
  148.0979  135.1408  154.0581 O   0  0  0  0  0  0  0  0  0  0  0  0
  148.6200  132.8387  153.7252 C   0  0  1  0  0  0  0  0  0  0  0  0
  149.3060  131.5462  154.1773 C   0  0  0  0  0  0  0  0  0  0  0  0
  148.5501  130.4507  153.4445 C   0  0  0  0  0  0  0  0  0  0  0  0
  147.2554  131.1326  153.0016 C   0  0  0  0  0  0  0  0  0  0  0  0
  147.2711  132.3997  153.6430 O   0  0  0  0  0  0  0  0  0  0  0  0
  148.0468  141.6257  153.7646 H   0  0  0  0  0  0  0  0  0  0  0  0
  149.8067  141.6094  153.7076 H   0  0  0  0  0  0  0  0  0  0  0  0
  148.9663  142.7484  154.7591 H   0  0  0  0  0  0  0  0  0  0  0  0
  148.0933  140.8226  156.1324 H   0  0  0  0  0  0  0  0  0  0  0  0
  148.8676  139.7063  155.0461 H   0  0  0  0  0  0  0  0  0  0  0  0
  151.0795  140.3206  155.7942 H   0  0  0  0  0  0  0  0  0  0  0  0
  151.5365  142.5046  156.2045 H   0  0  0  0  0  0  0  0  0  0  0  0
  149.8602  142.9194  156.5335 H   0  0  0  0  0  0  0  0  0  0  0  0
  151.8020  142.7157  158.5505 H   0  0  0  0  0  0  0  0  0  0  0  0
  150.0659  142.5825  158.7891 H   0  0  0  0  0  0  0  0  0  0  0  0
  150.6403  140.5036  159.6082 H   0  0  0  0  0  0  0  0  0  0  0  0
  153.1066  140.6827  159.2122 H   0  0  0  0  0  0  0  0  0  0  0  0
  152.8859  140.2860  157.5120 H   0  0  0  0  0  0  0  0  0  0  0  0
  152.5327  139.0894  158.7561 H   0  0  0  0  0  0  0  0  0  0  0  0
  149.3742  136.2922  159.8164 H   0  0  0  0  0  0  0  0  0  0  0  0
  150.7370  136.8319  153.5466 H   0  0  0  0  0  0  0  0  0  0  0  0
  150.8020  134.3629  154.2050 H   0  0  0  0  0  0  0  0  0  0  0  0
  150.5425  133.8932  155.8672 H   0  0  0  0  0  0  0  0  0  0  0  0
  148.1474  133.8232  155.6086 H   0  0  0  0  0  0  0  0  0  0  0  0
  148.6878  135.4672  153.3961 H   0  0  0  0  0  0  0  0  0  0  0  0
  148.9779  133.1148  152.7312 H   0  0  0  0  0  0  0  0  0  0  0  0
  150.3713  131.5308  153.9496 H   0  0  0  0  0  0  0  0  0  0  0  0
  149.1840  131.4085  155.2524 H   0  0  0  0  0  0  0  0  0  0  0  0
  149.1090  130.0918  152.5798 H   0  0  0  0  0  0  0  0  0  0  0  0
  148.3597  129.6001  154.0998 H   0  0  0  0  0  0  0  0  0  0  0  0
  147.2453  131.2745  151.9199 H   0  0  0  0  0  0  0  0  0  0  0  0
  146.3668  130.5657  153.2803 H   0  0  0  0  0  0  0  0  0  0  0  0
  1  2  1  0  0  0  0
  1 26  1  0  0  0  0
  1 27  1  0  0  0  0
  1 28  1  0  0  0  0
  2  3  1  0  0  0  0
  2 29  1  0  0  0  0
  2 30  1  0  0  0  0
  3  8  1  0  0  0  0
  3  4  1  0  0  0  0
  3 31  1  0  0  0  0
  4  5  1  0  0  0  0
  4 32  1  0  0  0  0
  4 33  1  0  0  0  0
  5  6  1  0  0  0  0
  5 34  1  0  0  0  0
  5 35  1  0  0  0  0
  6  7  1  0  0  0  0
  6  8  1  0  0  0  0
  6 36  1  0  0  0  0
  7 37  1  0  0  0  0
  7 38  1  0  0  0  0
  7 39  1  0  0  0  0
  8  9  1  0  0  0  0
  9 14  1  0  0  0  0
  9 10  2  0  0  0  0
 10 11  1  0  0  0  0
 11 12  2  0  0  0  0
 11 40  1  0  0  0  0
 12 13  1  0  0  0  0
 13 17  1  0  0  0  0
 13 14  2  0  0  0  0
 14 15  1  0  0  0  0
 15 16  2  0  0  0  0
 16 17  1  0  0  0  0
 16 41  1  0  0  0  0
 17 18  1  0  0  0  0
 18 19  1  0  0  0  0
 18 42  1  0  0  0  0
 18 43  1  0  0  0  0
 19 20  1  0  0  0  0
 19 21  1  0  0  0  0
 19 44  1  0  0  0  0
 20 45  1  0  0  0  0
 21 25  1  0  0  0  0
 21 22  1  0  0  0  0
 21 46  1  0  0  0  0
 22 23  1  0  0  0  0
 22 47  1  0  0  0  0
 22 48  1  0  0  0  0
 23 24  1  0  0  0  0
 23 49  1  0  0  0  0
 23 50  1  0  0  0  0
 24 25  1  0  0  0  0
 24 51  1  0  0  0  0
 24 52  1  0  0  0  0
M  END
> <s_m_source_file>
AV-unprocessed.smi

> <i_m_source_file_index>
232

> <i_lp_mmshare_version>
43012

> <i_f3d_flags>
0

> <s_epik_input>
W0NIM11bQ0gyXVtDQEBIXTFbQ0gyXVtDSDJdW0NAQEhdKFtDSDNdKU4xYyhuW2NIXW4yKWMoYzIzKW5bY0hdbjNbQ0gyXVtDQEhdKFtPSF0pW0NAQEhdNFtDSDJdW0NIMl1bQ0gyXU80

> <s_epik_cmdline>
J2VwaWtfcHl0aG9uJywgJy1waCcsICc3LjAnLCAnLXRuJywgJzgnLCAnLW1hJywgJzIwMCcsICctbWV0YWxfYmluZGluZycsICctaW1hZScsICc8aW5maWxlLm1hZT4nLCAnLW9tYWUnLCAnPG91dGZpbGUubWFlPic=

> <r_lp_tautomer_probability>
1

> <r_epik_Ionization_Penalty>
0.00258048

> <r_epik_Ionization_Penalty_Charging>
0

> <r_epik_Ionization_Penalty_Neutral>
0.00258048

> <r_epik_State_Penalty>
0.00168551

> <r_epik_Charging_Adjusted_Penalty>
0.00168551

> <i_epik_Tot_Q>
0

> <i_epik_Tot_abs_Q>
0

> <r_epik_Metal_State_Penalty>
-0

> <b_epik_Metal_Only>
0

> <s_lp_Force_Field>
OPLS_2005

> <r_lp_Energy>
55.4366

> <b_lp_Chiralities_Consistent>
1

> <s_lp_Variant>
AV-unprocessed.smi:232-16

> <Gold.Version>
5.8.1

> <Gold.Id.Protein>
6NUR|6NUR_protein|mol2

> <Gold.PLP.Fitness>
40.1843

> <Gold.PLP.PLP>
-35.8903

> <Gold.PLP.part.hbond>
-2.3298

> <Gold.PLP.part.metal>
0.0000

> <Gold.PLP.part.buried>
-3.4017

> <Gold.PLP.part.nonpolar>
-30.9405

> <Gold.PLP.part.repulsive>
0.1447

> <Gold.PLP.ligand.clash>
0.0000

> <Gold.PLP.ligand.torsion>
0.9443

> <Gold.PLP.Chemscore.Hbond>
0.8800

> <Gold.PLP.Chemscore.CHOScore>
1.0784

> <Gold.PLP.Chemscore.Metal>
0.0000

> <Gold.Chemscore.Hbonds>
donor molecule, donor type, donor heavy atom, donor atom, acceptor molecule, acceptor atom, score
      L1  H    20    45       P1  7948  1.00
      L1  C    16    41       P1  7948  0.22
      L1  C    16    41       P1  7949  0.71

> <Gold.PLP.Chemscore.Internal.Correction>
0.3073

> <Gold.Rescore>
     Score         DG    S(hbond)    S(metal)    S(lipo)     H(rot)  DE(clash)    DE(int)     intcor
      8.13     -11.44       0.94        0.00      77.15       2.43       0.30       3.01       ----

> <Gold.Chemscore.Fitness>
8.1318

> <Gold.Chemscore.DG>
-11.4406

> <Gold.Chemscore.ZeroCoef>
-5.4800

> <Gold.Chemscore.Hbond>
0.9415

> <Gold.Chemscore.Metal>
0.0000

> <Gold.Chemscore.Lipo>
77.1518

> <Gold.Chemscore.Internal_Hbond>
0.0000

> <Gold.Chemscore.DEClash>
0.2988

> <Gold.Chemscore.DEInternal>
3.0100

> <Gold.Chemscore.Rot>
2.4260

> <Gold.Chemscore.Internal.Correction>
   9.000000E+99

> <Gold.Chemscore.Hbonds>
donor molecule, donor type, donor heavy atom, donor atom, acceptor molecule, acceptor atom, score
      L1  H    20    45       P1  7948  0.88

> <Gold.Chemscore.Hbond.Weighted>
-3.1445

> <Gold.Chemscore.Metal.Weighted>
-0.0000

> <Gold.Chemscore.Lipo.Weighted>
-9.0268

> <Gold.Chemscore.Internal_Hbond.Weighted>
0.0000

> <Gold.Chemscore.DEClash.Weighted>
0.2988

> <Gold.Chemscore.DEInternal.Weighted>
3.0100

> <Gold.Chemscore.Rot.Weighted>
6.2107

> <Gold.Chemscore.Internal.Correction.Weighted>
   9.000000E+99

> <Gold.Protein.RotatedTorsions>
[ 6907 6896 6895 6894 ] final  -45.09 input  -60.11 | X-H torsion
[ 7974 7965 7964 7962 ] final  146.79 input  175.53 | X-H torsion
[ 8008 7997 7996 7995 ] final   10.50 input   59.86 | X-H torsion
[ 10167 10162 10161 10158 ] final   -3.24 input  -65.29 | X-H torsion
[ 10718 10713 10712 10709 ] final -112.20 input   66.30 | X-H torsion
[ 10763 10752 10751 10750 ] final  -19.60 input  -60.55 | X-H torsion
[ 11005 11000 10999 10996 ] final  -11.84 input  -57.11 | X-H torsion

> <Gold.Protein.ActiveResidues>
 VAL166  LYS551  ARG553  GLY616  TRP617  ASP618  TYR619  PRO620  LYS621  CYS622 
 ASP623  PHE694  ASN695  SER759  ASP760  ASP761  ALA762  ILE779  LEU786  VAL792 
 PHE793  MET794  SER795  GLU796  ALA797  LYS798  CYS799  TRP800  GLU811  SER814 

> <Gold.Protein.RotatedAtoms>
  150.9257  134.8673  159.7517 H   0  0  0  0  0  0  0  0  0  0  0  0  # atno 6907 bound_to 6896
  152.5014  134.4153  159.9472 H   0  0  0  0  0  0  0  0  0  0  0  0  # atno 6908 bound_to 6896
  151.4183  133.3666  159.2788 H   0  0  0  0  0  0  0  0  0  0  0  0  # atno 6909 bound_to 6896
  144.8643  139.5948  143.5916 H   0  0  0  0  0  0  0  0  0  0  0  0  # atno 7974 bound_to 7965
  154.7943  140.2841  155.5968 H   0  0  0  0  0  0  0  0  0  0  0  0  # atno 8008 bound_to 7997
  156.2968  140.2599  156.2726 H   0  0  0  0  0  0  0  0  0  0  0  0  # atno 8009 bound_to 7997
  154.9633  140.0377  157.2190 H   0  0  0  0  0  0  0  0  0  0  0  0  # atno 8010 bound_to 7997
  140.6882  143.6563  150.8306 H   0  0  0  0  0  0  0  0  0  0  0  0  # atno 10167 bound_to 10162
  156.0691  130.5907  150.8476 H   0  0  0  0  0  0  0  0  0  0  0  0  # atno 10718 bound_to 10713
  153.6074  135.6997  153.5360 H   0  0  0  0  0  0  0  0  0  0  0  0  # atno 10763 bound_to 10752
  153.3046  135.4119  155.1282 H   0  0  0  0  0  0  0  0  0  0  0  0  # atno 10764 bound_to 10752
  154.8570  135.3657  154.5611 H   0  0  0  0  0  0  0  0  0  0  0  0  # atno 10765 bound_to 10752
  140.7594  133.8527  155.9112 H   0  0  0  0  0  0  0  0  0  0  0  0  # atno 11005 bound_to 11000
  146.2884  139.7069  142.9179 LP  0  0  0  0  0  0  0  0  0  0  0  0  # atno 17320 bound_to 7965
  145.4252  141.0410  143.2942 LP  0  0  0  0  0  0  0  0  0  0  0  0  # atno 17321 bound_to 7965
  140.0273  143.5480  152.2775 LP  0  0  0  0  0  0  0  0  0  0  0  0  # atno 17342 bound_to 10162
  139.6260  144.7637  151.2637 LP  0  0  0  0  0  0  0  0  0  0  0  0  # atno 17343 bound_to 10162
  157.5752  131.0946  150.9357 LP  0  0  0  0  0  0  0  0  0  0  0  0  # atno 17370 bound_to 10713
  156.9564  130.5439  149.5284 LP  0  0  0  0  0  0  0  0  0  0  0  0  # atno 17371 bound_to 10713
  140.9677  134.1572  157.4602 LP  0  0  0  0  0  0  0  0  0  0  0  0  # atno 17394 bound_to 11000
  139.8773  134.9967  156.5810 LP  0  0  0  0  0  0  0  0  0  0  0  0  # atno 17395 bound_to 11000

$$$$
