AV-unprocessed.smi:103|AV-procd|sdf|978|dock7
  -GOLD-   2262017533D 1   1.00000     0.00000
 Structure written by MMmdl.
 53 55  0  0  0  0  0  0  0  0  1 V2000
  151.5907  145.3865  159.3657 C   0  0  0  0  0  0  0  0  0  0  0  0
  152.1837  143.9928  159.5293 C   0  0  0  0  0  0  0  0  0  0  0  0
  152.7563  143.6579  160.5665 O   0  0  0  0  0  0  0  0  0  0  0  0
  151.9984  143.2222  158.4431 O   0  0  0  0  0  0  0  0  0  0  0  0
  152.7007  141.9945  158.2993 C   0  0  0  0  0  0  0  0  0  0  0  0
  152.1830  140.9340  159.2940 C   0  0  1  0  0  0  0  0  0  0  0  0
  150.9033  140.4886  158.8367 O   0  0  0  0  0  0  0  0  0  0  0  0
  150.9333  139.1303  158.5204 C   0  0  1  0  0  0  0  0  0  0  0  0
  150.1029  138.8773  157.2968 N   0  0  0  0  0  0  0  0  0  0  0  0
  149.4610  137.7185  156.9096 C   0  0  0  0  0  0  0  0  0  0  0  0
  149.3708  136.1939  157.8403 S   0  0  0  0  0  0  0  0  0  0  0  0
  148.5147  136.7425  159.3719 C   0  0  0  0  0  0  0  0  0  0  0  0
  148.4934  135.2829  157.0885 O   0  0  0  0  0  0  0  0  0  0  0  0
  150.7485  135.8009  158.1730 O   0  0  0  0  0  0  0  0  0  0  0  0
  148.7629  137.7729  155.8084 N   0  0  0  0  0  0  0  0  0  0  0  0
  148.9975  139.0621  155.3526 C   0  0  0  0  0  0  0  0  0  0  0  0
  148.5883  139.7898  154.2071 C   0  0  0  0  0  0  0  0  0  0  0  0
  147.8033  139.2706  153.2534 N   0  0  0  0  0  0  0  0  0  0  0  0
  149.0108  141.0676  154.0663 N   0  0  0  0  0  0  0  0  0  0  0  0
  149.7959  141.6079  155.0031 C   0  0  0  0  0  0  0  0  0  0  0  0
  150.2584  141.0526  156.1254 N   0  0  0  0  0  0  0  0  0  0  0  0
  149.8328  139.7630  156.2695 C   0  0  0  0  0  0  0  0  0  0  0  0
  152.4053  138.7441  158.3378 C   0  0  1  0  0  0  0  0  0  0  0  0
  152.8678  139.0313  157.0182 O   0  0  0  0  0  0  0  0  0  0  0  0
  152.7361  138.1287  156.0301 C   0  0  0  0  0  0  0  0  0  0  0  0
  153.0829  138.7106  154.6667 C   0  0  0  0  0  0  0  0  0  0  0  0
  152.3656  136.9619  156.1562 O   0  0  0  0  0  0  0  0  0  0  0  0
  153.0440  139.6624  159.3658 C   0  0  1  0  0  0  0  0  0  0  0  0
  154.4322  139.8844  159.1371 O   0  0  0  0  0  0  0  0  0  0  0  0
  155.1379  140.6711  159.9682 C   0  0  0  0  0  0  0  0  0  0  0  0
  156.5979  140.2503  160.0665 C   0  0  0  0  0  0  0  0  0  0  0  0
  154.7000  141.6291  160.6054 O   0  0  0  0  0  0  0  0  0  0  0  0
  151.4460  145.6256  158.3117 H   0  0  0  0  0  0  0  0  0  0  0  0
  152.2552  146.1339  159.7998 H   0  0  0  0  0  0  0  0  0  0  0  0
  150.6265  145.4471  159.8703 H   0  0  0  0  0  0  0  0  0  0  0  0
  152.5793  141.6460  157.2746 H   0  0  0  0  0  0  0  0  0  0  0  0
  153.7690  142.1653  158.4386 H   0  0  0  0  0  0  0  0  0  0  0  0
  152.0916  141.3678  160.2901 H   0  0  0  0  0  0  0  0  0  0  0  0
  150.4448  138.5826  159.3258 H   0  0  0  0  0  0  0  0  0  0  0  0
  148.3915  135.8927  160.0426 H   0  0  0  0  0  0  0  0  0  0  0  0
  147.5354  137.1458  159.1145 H   0  0  0  0  0  0  0  0  0  0  0  0
  149.1060  137.5133  159.8654 H   0  0  0  0  0  0  0  0  0  0  0  0
  147.4767  138.3184  153.3347 H   0  0  0  0  0  0  0  0  0  0  0  0
  147.5448  139.8294  152.4532 H   0  0  0  0  0  0  0  0  0  0  0  0
  150.0948  142.6314  154.8306 H   0  0  0  0  0  0  0  0  0  0  0  0
  152.5568  137.6971  158.6012 H   0  0  0  0  0  0  0  0  0  0  0  0
  152.8005  139.7626  154.6165 H   0  0  0  0  0  0  0  0  0  0  0  0
  152.5546  138.1742  153.8781 H   0  0  0  0  0  0  0  0  0  0  0  0
  154.1546  138.6290  154.4841 H   0  0  0  0  0  0  0  0  0  0  0  0
  152.9002  139.2250  160.3555 H   0  0  0  0  0  0  0  0  0  0  0  0
  156.6738  139.1716  160.2055 H   0  0  0  0  0  0  0  0  0  0  0  0
  157.0813  140.7416  160.9111 H   0  0  0  0  0  0  0  0  0  0  0  0
  157.1317  140.5223  159.1560 H   0  0  0  0  0  0  0  0  0  0  0  0
  1  2  1  0  0  0  0
  1 33  1  0  0  0  0
  1 34  1  0  0  0  0
  1 35  1  0  0  0  0
  2  3  2  0  0  0  0
  2  4  1  0  0  0  0
  4  5  1  0  0  0  0
  5  6  1  0  0  0  0
  5 36  1  0  0  0  0
  5 37  1  0  0  0  0
  6 28  1  0  0  0  0
  6  7  1  0  0  0  0
  6 38  1  0  0  0  0
  7  8  1  0  0  0  0
  8  9  1  0  0  0  0
  8 23  1  0  0  0  0
  8 39  1  0  0  0  0
  9 22  1  0  0  0  0
  9 10  1  0  0  0  0
 10 11  1  0  0  0  0
 10 15  2  0  0  0  0
 11 12  1  0  0  0  0
 11 13  2  0  0  0  0
 11 14  2  0  0  0  0
 12 40  1  0  0  0  0
 12 41  1  0  0  0  0
 12 42  1  0  0  0  0
 15 16  1  0  0  0  0
 16 22  2  0  0  0  0
 16 17  1  0  0  0  0
 17 18  1  0  0  0  0
 17 19  2  0  0  0  0
 18 43  1  0  0  0  0
 18 44  1  0  0  0  0
 19 20  1  0  0  0  0
 20 21  2  0  0  0  0
 20 45  1  0  0  0  0
 21 22  1  0  0  0  0
 23 24  1  0  0  0  0
 23 28  1  0  0  0  0
 23 46  1  0  0  0  0
 24 25  1  0  0  0  0
 25 26  1  0  0  0  0
 25 27  2  0  0  0  0
 26 47  1  0  0  0  0
 26 48  1  0  0  0  0
 26 49  1  0  0  0  0
 28 29  1  0  0  0  0
 28 50  1  0  0  0  0
 29 30  1  0  0  0  0
 30 31  1  0  0  0  0
 30 32  2  0  0  0  0
 31 51  1  0  0  0  0
 31 52  1  0  0  0  0
 31 53  1  0  0  0  0
M  END
> <s_m_source_file>
AV-unprocessed.smi

> <i_m_source_file_index>
103

> <i_lp_mmshare_version>
43012

> <i_f3d_flags>
0

> <s_epik_input>
W0NIM11DKD1PKU9bQ0gyXVtDQEBIXTFPW0NASF0oW0NAQEhdKE9DKD1PKVtDSDNdKVtDQEhdMU9DKD1PKVtDSDNdKW4oYyhuMilTKD1PKSg9TylbQ0gzXSljKGMyMyluW2NIXW5jM1tOSDJd

> <s_epik_cmdline>
J2VwaWtfcHl0aG9uJywgJy1waCcsICc3LjAnLCAnLXRuJywgJzgnLCAnLW1hJywgJzIwMCcsICctbWV0YWxfYmluZGluZycsICctaW1hZScsICc8aW5maWxlLm1hZT4nLCAnLW9tYWUnLCAnPG91dGZpbGUubWFlPic=

> <r_lp_tautomer_probability>
1

> <r_epik_Ionization_Penalty>
1.51338e-05

> <r_epik_Ionization_Penalty_Charging>
0

> <r_epik_Ionization_Penalty_Neutral>
1.51338e-05

> <r_epik_State_Penalty>
-0

> <r_epik_Charging_Adjusted_Penalty>
0

> <i_epik_Tot_Q>
0

> <i_epik_Tot_abs_Q>
0

> <r_epik_Metal_State_Penalty>
-0

> <b_epik_Metal_Only>
0

> <s_epik_Chemistry_Notes>
This compound has an ester and may undergo hydrolysis at high or low pH. This compound contains an acetal/aminal-like group ( X-CH(R)-Y where X, Y are N, S, or O) that may be acid/base labile, releasing an aldehyde.

> <s_lp_Force_Field>
OPLS_2005

> <r_lp_Energy>
15.224

> <b_lp_Chiralities_Consistent>
1

> <s_lp_Variant>
AV-unprocessed.smi:103-2

> <Gold.Version>
5.8.1

> <Gold.Id.Protein>
6NUR|6NUR_protein|mol2

> <Gold.PLP.Fitness>
45.2596

> <Gold.PLP.PLP>
-39.9120

> <Gold.PLP.part.hbond>
-7.0248

> <Gold.PLP.part.metal>
0.0000

> <Gold.PLP.part.buried>
-6.7142

> <Gold.PLP.part.nonpolar>
-26.2138

> <Gold.PLP.part.repulsive>
0.3914

> <Gold.PLP.ligand.clash>
0.0000

> <Gold.PLP.ligand.torsion>
2.7255

> <Gold.PLP.Chemscore.Hbond>
1.8363

> <Gold.PLP.Chemscore.CHOScore>
0.9256

> <Gold.PLP.Chemscore.Metal>
0.0000

> <Gold.Chemscore.Hbonds>
donor molecule, donor type, donor heavy atom, donor atom, acceptor molecule, acceptor atom, score
      P1  H  6896  6908       L1    14  0.58
      P1  H  8011  8017       L1    19  0.16
      P1  H 10752 10764       L1    27  0.81
      L1  C    20    45       P1  8028  0.92

> <Gold.PLP.Chemscore.Internal.Correction>
2.5128

> <Gold.Rescore>
     Score         DG    S(hbond)    S(metal)    S(lipo)     H(rot)  DE(clash)    DE(int)     intcor
      2.13      -6.50       1.68        0.00      53.65       4.25       0.17       4.19       ----

> <Gold.Chemscore.Fitness>
2.1322

> <Gold.Chemscore.DG>
-6.4953

> <Gold.Chemscore.ZeroCoef>
-5.4800

> <Gold.Chemscore.Hbond>
1.6787

> <Gold.Chemscore.Metal>
0.0000

> <Gold.Chemscore.Lipo>
53.6513

> <Gold.Chemscore.Internal_Hbond>
0.0000

> <Gold.Chemscore.DEClash>
0.1686

> <Gold.Chemscore.DEInternal>
4.1944

> <Gold.Chemscore.Rot>
4.2456

> <Gold.Chemscore.Internal.Correction>
   9.000000E+99

> <Gold.Chemscore.Hbonds>
donor molecule, donor type, donor heavy atom, donor atom, acceptor molecule, acceptor atom, score
      L1  H    18    44       P1  7957  0.01
      P1  H  6896  6908       L1    14  0.50
      P1  H  8011  8017       L1    19  0.02
      P1  H 10752 10764       L1    27  0.73

> <Gold.Chemscore.Hbond.Weighted>
-5.6067

> <Gold.Chemscore.Metal.Weighted>
-0.0000

> <Gold.Chemscore.Lipo.Weighted>
-6.2772

> <Gold.Chemscore.Internal_Hbond.Weighted>
0.0000

> <Gold.Chemscore.DEClash.Weighted>
0.1686

> <Gold.Chemscore.DEInternal.Weighted>
4.1944

> <Gold.Chemscore.Rot.Weighted>
10.8687

> <Gold.Chemscore.Internal.Correction.Weighted>
   9.000000E+99

> <Gold.Protein.RotatedTorsions>
[ 6907 6896 6895 6894 ] final -171.81 input  -60.11 | X-H torsion
[ 7974 7965 7964 7962 ] final  154.05 input  175.53 | X-H torsion
[ 8008 7997 7996 7995 ] final -176.00 input   59.86 | X-H torsion
[ 10167 10162 10161 10158 ] final   44.61 input  -65.29 | X-H torsion
[ 10718 10713 10712 10709 ] final  -73.66 input   66.30 | X-H torsion
[ 10763 10752 10751 10750 ] final  -46.25 input  -60.55 | X-H torsion
[ 11005 11000 10999 10996 ] final   -4.59 input  -57.11 | X-H torsion

> <Gold.Protein.ActiveResidues>
 VAL166  LYS551  ARG553  GLY616  TRP617  ASP618  TYR619  PRO620  LYS621  CYS622 
 ASP623  PHE694  ASN695  SER759  ASP760  ASP761  ALA762  ILE779  LEU786  VAL792 
 PHE793  MET794  SER795  GLU796  ALA797  LYS798  CYS799  TRP800  GLU811  SER814 

> <Gold.Protein.RotatedAtoms>
  151.5299  133.3451  159.2916 H   0  0  0  0  0  0  0  0  0  0  0  0  # atno 6907 bound_to 6896
  150.8600  134.7952  159.7086 H   0  0  0  0  0  0  0  0  0  0  0  0  # atno 6908 bound_to 6896
  152.4622  134.5166  159.9822 H   0  0  0  0  0  0  0  0  0  0  0  0  # atno 6909 bound_to 6896
  144.8114  139.6882  143.6140 H   0  0  0  0  0  0  0  0  0  0  0  0  # atno 7974 bound_to 7965
  155.9894  140.1198  157.0652 H   0  0  0  0  0  0  0  0  0  0  0  0  # atno 8008 bound_to 7997
  154.4207  140.1128  156.5613 H   0  0  0  0  0  0  0  0  0  0  0  0  # atno 8009 bound_to 7997
  155.6363  140.3473  155.4702 H   0  0  0  0  0  0  0  0  0  0  0  0  # atno 8010 bound_to 7997
  140.3325  144.2571  150.6166 H   0  0  0  0  0  0  0  0  0  0  0  0  # atno 10167 bound_to 10162
  156.0272  130.4399  150.2775 H   0  0  0  0  0  0  0  0  0  0  0  0  # atno 10718 bound_to 10713
  154.0419  135.6643  153.4791 H   0  0  0  0  0  0  0  0  0  0  0  0  # atno 10763 bound_to 10752
  153.0498  135.5091  154.7834 H   0  0  0  0  0  0  0  0  0  0  0  0  # atno 10764 bound_to 10752
  154.6813  135.3045  154.9575 H   0  0  0  0  0  0  0  0  0  0  0  0  # atno 10765 bound_to 10752
  140.6819  133.9146  155.8561 H   0  0  0  0  0  0  0  0  0  0  0  0  # atno 11005 bound_to 11000
  146.2413  139.6007  142.9489 LP  0  0  0  0  0  0  0  0  0  0  0  0  # atno 17320 bound_to 7965
  145.5315  141.0426  143.2380 LP  0  0  0  0  0  0  0  0  0  0  0  0  # atno 17321 bound_to 7965
  140.5384  143.2228  151.8125 LP  0  0  0  0  0  0  0  0  0  0  0  0  # atno 17342 bound_to 10162
  139.4854  144.4632  151.9516 LP  0  0  0  0  0  0  0  0  0  0  0  0  # atno 17343 bound_to 10162
  157.0878  131.0161  151.3133 LP  0  0  0  0  0  0  0  0  0  0  0  0  # atno 17370 bound_to 10713
  157.4877  130.7803  149.7476 LP  0  0  0  0  0  0  0  0  0  0  0  0  # atno 17371 bound_to 10713
  141.0311  134.0755  157.4013 LP  0  0  0  0  0  0  0  0  0  0  0  0  # atno 17394 bound_to 11000
  139.8949  135.0138  156.6975 LP  0  0  0  0  0  0  0  0  0  0  0  0  # atno 17395 bound_to 11000

$$$$
