AV-unprocessed.smi:3056|AV-procd|sdf|11646|dock1
  -GOLD-   2272017 43D 1   1.00000     0.00000
 Structure written by MMmdl.
 48 49  0  0  0  0  0  0  0  0  2 V2000
  154.2334  140.8355  161.6867 C   0  0  0  0  0  0  0  0  0  0  0  0
  153.4620  142.0804  161.3575 C   0  0  0  0  0  0  0  0  0  0  0  0
  152.7476  142.9283  162.2500 C   0  0  0  0  0  0  0  0  0  0  0  0
  152.1558  143.9389  161.6349 N   0  0  0  0  0  0  0  0  0  0  0  0
  152.4813  143.7848  160.3330 N   0  0  0  0  0  0  0  0  0  0  0  0
  151.9482  144.7145  159.3429 C   0  0  1  0  0  0  0  0  0  0  0  0
  152.8101  144.6708  158.0663 C   0  0  0  0  0  0  0  0  0  0  0  0
  150.4427  144.4384  159.0867 C   0  0  2  0  0  0  0  0  0  0  0  0
  149.5695  144.7364  160.3208 C   0  0  0  0  0  0  0  0  0  0  0  0
  150.2527  143.0260  158.6701 N   0  3  0  0  0  0  0  0  0  0  0  0
  149.1383  142.7701  157.7271 C   0  0  0  0  0  0  0  0  0  0  0  0
  149.2243  141.3994  157.0333 C   0  0  0  0  0  0  0  0  0  0  0  0
  150.1791  140.6640  157.2871 O   0  0  0  0  0  0  0  0  0  0  0  0
  148.2470  141.0375  156.1680 N   0  0  0  0  0  0  0  0  0  0  0  0
  148.2129  139.8097  155.3666 C   0  0  0  0  0  0  0  0  0  0  0  0
  148.2478  140.1987  153.8781 C   0  0  0  0  0  0  0  0  0  0  0  0
  147.1541  141.0629  153.5810 O   0  0  0  0  0  0  0  0  0  0  0  0
  147.1557  142.2612  154.3545 C   0  0  1  0  0  0  0  0  0  0  0  0
  145.9571  143.1128  153.9225 C   0  0  0  0  0  0  0  0  0  0  0  0
  147.1000  141.8937  155.8507 C   0  0  0  0  0  0  0  0  0  0  0  0
  153.2639  142.6637  160.1384 C   0  0  0  0  0  0  0  0  0  0  0  0
  154.5434  140.8159  162.7317 H   0  0  0  0  0  0  0  0  0  0  0  0
  155.1365  140.7480  161.0825 H   0  0  0  0  0  0  0  0  0  0  0  0
  153.6395  139.9385  161.5104 H   0  0  0  0  0  0  0  0  0  0  0  0
  152.6347  142.8338  163.3200 H   0  0  0  0  0  0  0  0  0  0  0  0
  152.0445  145.7210  159.7555 H   0  0  0  0  0  0  0  0  0  0  0  0
  152.5615  145.4840  157.3849 H   0  0  0  0  0  0  0  0  0  0  0  0
  152.6824  143.7323  157.5260 H   0  0  0  0  0  0  0  0  0  0  0  0
  153.8689  144.7745  158.3067 H   0  0  0  0  0  0  0  0  0  0  0  0
  150.1182  145.0872  158.2715 H   0  0  0  0  0  0  0  0  0  0  0  0
  149.6024  145.7914  160.5916 H   0  0  0  0  0  0  0  0  0  0  0  0
  149.8973  144.1594  161.1861 H   0  0  0  0  0  0  0  0  0  0  0  0
  148.5215  144.4965  160.1437 H   0  0  0  0  0  0  0  0  0  0  0  0
  151.1026  142.7152  158.2195 H   0  0  0  0  0  0  0  0  0  0  0  0
  148.2118  142.7979  158.3013 H   0  0  0  0  0  0  0  0  0  0  0  0
  149.0857  143.5686  156.9875 H   0  0  0  0  0  0  0  0  0  0  0  0
  149.0298  139.1213  155.5745 H   0  0  0  0  0  0  0  0  0  0  0  0
  147.2956  139.2626  155.5888 H   0  0  0  0  0  0  0  0  0  0  0  0
  149.1895  140.6888  153.6255 H   0  0  0  0  0  0  0  0  0  0  0  0
  148.1730  139.3087  153.2532 H   0  0  0  0  0  0  0  0  0  0  0  0
  148.0718  142.8171  154.1462 H   0  0  0  0  0  0  0  0  0  0  0  0
  145.9238  144.0521  154.4751 H   0  0  0  0  0  0  0  0  0  0  0  0
  145.0169  142.5882  154.0954 H   0  0  0  0  0  0  0  0  0  0  0  0
  146.0132  143.3546  152.8609 H   0  0  0  0  0  0  0  0  0  0  0  0
  146.1784  141.3544  156.0755 H   0  0  0  0  0  0  0  0  0  0  0  0
  147.0708  142.8029  156.4527 H   0  0  0  0  0  0  0  0  0  0  0  0
  153.6049  142.3677  159.1573 H   0  0  0  0  0  0  0  0  0  0  0  0
  150.1144  142.4717  159.5029 H   0  0  0  0  0  0  0  0  0  0  0  0
  1  2  1  0  0  0  0
  1 22  1  0  0  0  0
  1 23  1  0  0  0  0
  1 24  1  0  0  0  0
  2 21  2  0  0  0  0
  2  3  1  0  0  0  0
  3  4  2  0  0  0  0
  3 25  1  0  0  0  0
  4  5  1  0  0  0  0
  5  6  1  0  0  0  0
  5 21  1  0  0  0  0
  6  7  1  0  0  0  0
  6  8  1  0  0  0  0
  6 26  1  0  0  0  0
  7 27  1  0  0  0  0
  7 28  1  0  0  0  0
  7 29  1  0  0  0  0
  8  9  1  0  0  0  0
  8 10  1  0  0  0  0
  8 30  1  0  0  0  0
  9 31  1  0  0  0  0
  9 32  1  0  0  0  0
  9 33  1  0  0  0  0
 10 11  1  0  0  0  0
 10 34  1  0  0  0  0
 10 48  1  0  0  0  0
 11 12  1  0  0  0  0
 11 35  1  0  0  0  0
 11 36  1  0  0  0  0
 12 13  2  0  0  0  0
 12 14  1  0  0  0  0
 14 20  1  0  0  0  0
 14 15  1  0  0  0  0
 15 16  1  0  0  0  0
 15 37  1  0  0  0  0
 15 38  1  0  0  0  0
 16 17  1  0  0  0  0
 16 39  1  0  0  0  0
 16 40  1  0  0  0  0
 17 18  1  0  0  0  0
 18 19  1  0  0  0  0
 18 20  1  0  0  0  0
 18 41  1  0  0  0  0
 19 42  1  0  0  0  0
 19 43  1  0  0  0  0
 19 44  1  0  0  0  0
 20 45  1  0  0  0  0
 20 46  1  0  0  0  0
 21 47  1  0  0  0  0
M  CHG  1  10   1
M  END
> <s_m_source_file>
AV-unprocessed.smi

> <i_m_source_file_index>
3056

> <i_lp_mmshare_version>
43012

> <i_f3d_flags>
0

> <s_epik_input>
W0NIM11jMVtjSF1ubihbY0hdMSlbQ0BIXShbQ0gzXSlbQ0BIXShbQ0gzXSlbTkhdW0NIMl1DKD1PKU4yW0NIMl1bQ0gyXU9bQ0BASF0oW0NIM10pW0NIMl0y

> <s_epik_cmdline>
J2VwaWtfcHl0aG9uJywgJy1waCcsICc3LjAnLCAnLXRuJywgJzgnLCAnLW1hJywgJzIwMCcsICctbWV0YWxfYmluZGluZycsICctaW1hZScsICc8aW5maWxlLm1hZT4nLCAnLW9tYWUnLCAnPG91dGZpbGUubWFlPic=

> <r_lp_tautomer_probability>
1

> <r_epik_Ionization_Penalty>
0.233715

> <r_epik_Ionization_Penalty_Charging>
0.233698

> <r_epik_Ionization_Penalty_Neutral>
1.68157e-05

> <r_epik_State_Penalty>
0.225221

> <r_epik_Charging_Adjusted_Penalty>
0.458919

> <i_epik_Tot_Q>
1

> <i_epik_Tot_abs_Q>
1

> <r_epik_Metal_State_Penalty>
0.225535

> <b_epik_Metal_Only>
0

> <s_lp_Force_Field>
OPLS_2005

> <r_lp_Energy>
27.0437

> <b_lp_Chiralities_Consistent>
1

> <s_lp_Variant>
AV-unprocessed.smi:3056-2

> <Gold.Version>
5.8.1

> <Gold.Id.Protein>
6NUR|6NUR_protein|mol2

> <Gold.PLP.Fitness>
45.0462

> <Gold.PLP.PLP>
-46.6177

> <Gold.PLP.part.hbond>
0.0000

> <Gold.PLP.part.metal>
0.0000

> <Gold.PLP.part.buried>
-3.9222

> <Gold.PLP.part.nonpolar>
-42.1170

> <Gold.PLP.part.repulsive>
0.4443

> <Gold.PLP.ligand.clash>
0.0000

> <Gold.PLP.ligand.torsion>
1.0047

> <Gold.PLP.Chemscore.Hbond>
0.0000

> <Gold.PLP.Chemscore.CHOScore>
0.0000

> <Gold.PLP.Chemscore.Metal>
0.0000

> <Gold.PLP.Chemscore.Internal.Correction>
0.4380

> <Gold.Rescore>
     Score         DG    S(hbond)    S(metal)    S(lipo)     H(rot)  DE(clash)    DE(int)     intcor
     12.62     -14.91       0.00        0.00     118.58       1.74       1.13       1.17       ----

> <Gold.Chemscore.Fitness>
12.6153

> <Gold.Chemscore.DG>
-14.9110

> <Gold.Chemscore.ZeroCoef>
-5.4800

> <Gold.Chemscore.Hbond>
0.0000

> <Gold.Chemscore.Metal>
0.0000

> <Gold.Chemscore.Lipo>
118.5778

> <Gold.Chemscore.Internal_Hbond>
0.0000

> <Gold.Chemscore.DEClash>
1.1299

> <Gold.Chemscore.DEInternal>
1.1659

> <Gold.Chemscore.Rot>
1.7354

> <Gold.Chemscore.Internal.Correction>
   9.000000E+99

> <Gold.Chemscore.Hbond.Weighted>
-0.0000

> <Gold.Chemscore.Metal.Weighted>
-0.0000

> <Gold.Chemscore.Lipo.Weighted>
-13.8736

> <Gold.Chemscore.Internal_Hbond.Weighted>
0.0000

> <Gold.Chemscore.DEClash.Weighted>
1.1299

> <Gold.Chemscore.DEInternal.Weighted>
1.1659

> <Gold.Chemscore.Rot.Weighted>
4.4426

> <Gold.Chemscore.Internal.Correction.Weighted>
   9.000000E+99

> <Gold.Protein.RotatedTorsions>
[ 6907 6896 6895 6894 ] final -177.69 input  -60.11 | X-H torsion
[ 7974 7965 7964 7962 ] final  140.93 input  175.53 | X-H torsion
[ 8008 7997 7996 7995 ] final   35.10 input   59.86 | X-H torsion
[ 10167 10162 10161 10158 ] final  -23.40 input  -65.29 | X-H torsion
[ 10718 10713 10712 10709 ] final  -99.64 input   66.30 | X-H torsion
[ 10763 10752 10751 10750 ] final   23.86 input  -60.55 | X-H torsion
[ 11005 11000 10999 10996 ] final   86.80 input  -57.11 | X-H torsion

> <Gold.Protein.ActiveResidues>
 VAL166  LYS551  ARG553  GLY616  TRP617  ASP618  TYR619  PRO620  LYS621  CYS622 
 ASP623  PHE694  ASN695  SER759  ASP760  ASP761  ALA762  ILE779  LEU786  VAL792 
 PHE793  MET794  SER795  GLU796  ALA797  LYS798  CYS799  TRP800  GLU811  SER814 

> <Gold.Protein.RotatedAtoms>
  151.6251  133.3336  159.3096 H   0  0  0  0  0  0  0  0  0  0  0  0  # atno 6907 bound_to 6896
  150.8086  134.7230  159.6678 H   0  0  0  0  0  0  0  0  0  0  0  0  # atno 6908 bound_to 6896
  152.4182  134.6008  160.0051 H   0  0  0  0  0  0  0  0  0  0  0  0  # atno 6909 bound_to 6896
  144.9142  139.5252  143.5694 H   0  0  0  0  0  0  0  0  0  0  0  0  # atno 7974 bound_to 7965
  155.1657  140.3287  155.4402 H   0  0  0  0  0  0  0  0  0  0  0  0  # atno 8008 bound_to 7997
  156.2527  140.1952  156.6712 H   0  0  0  0  0  0  0  0  0  0  0  0  # atno 8009 bound_to 7997
  154.6373  140.0574  156.9790 H   0  0  0  0  0  0  0  0  0  0  0  0  # atno 8010 bound_to 7997
  140.7288  143.4447  151.0605 H   0  0  0  0  0  0  0  0  0  0  0  0  # atno 10167 bound_to 10162
  156.0140  130.5291  150.6700 H   0  0  0  0  0  0  0  0  0  0  0  0  # atno 10718 bound_to 10713
  153.0806  135.6618  154.0052 H   0  0  0  0  0  0  0  0  0  0  0  0  # atno 10763 bound_to 10752
  153.9675  135.2968  155.3431 H   0  0  0  0  0  0  0  0  0  0  0  0  # atno 10764 bound_to 10752
  154.7205  135.5167  153.8876 H   0  0  0  0  0  0  0  0  0  0  0  0  # atno 10765 bound_to 10752
  139.8935  134.8379  156.2771 H   0  0  0  0  0  0  0  0  0  0  0  0  # atno 11005 bound_to 11000
  146.3173  139.7972  142.8973 LP  0  0  0  0  0  0  0  0  0  0  0  0  # atno 17320 bound_to 7965
  145.3403  141.0286  143.3396 LP  0  0  0  0  0  0  0  0  0  0  0  0  # atno 17321 bound_to 7965
  139.8117  143.7942  152.3171 LP  0  0  0  0  0  0  0  0  0  0  0  0  # atno 17342 bound_to 10162
  139.7994  144.7380  150.9846 LP  0  0  0  0  0  0  0  0  0  0  0  0  # atno 17343 bound_to 10162
  157.4424  131.0863  151.0930 LP  0  0  0  0  0  0  0  0  0  0  0  0  # atno 17370 bound_to 10713
  157.1470  130.6167  149.5571 LP  0  0  0  0  0  0  0  0  0  0  0  0  # atno 17371 bound_to 10713
  141.0063  133.7122  156.1040 LP  0  0  0  0  0  0  0  0  0  0  0  0  # atno 17394 bound_to 11000
  140.7429  134.4130  157.5552 LP  0  0  0  0  0  0  0  0  0  0  0  0  # atno 17395 bound_to 11000

$$$$
