AV-unprocessed.smi:1457|AV-procd|sdf|5920|dock3
  -GOLD-   22720 6 03D 1   1.00000     0.00000
 Structure written by MMmdl.
 36 37  0  0  0  0  0  0  0  0  2 V2000
  143.9419  142.6307  155.1666 C   0  0  0  0  0  0  0  0  0  0  0  0
  145.1396  141.9535  154.6241 N   0  3  2  0  0  0  0  0  0  0  0  0
  145.8748  141.1888  155.6620 C   0  0  0  0  0  0  0  0  0  0  0  0
  147.0373  140.3905  155.0438 C   0  0  0  0  0  0  0  0  0  0  0  0
  147.9921  141.2894  154.2380 C   0  0  2  0  0  0  0  0  0  0  0  0
  148.7691  142.1514  155.1299 N   0  0  0  0  0  0  0  0  0  0  0  0
  149.5967  141.7385  156.1010 C   0  0  0  0  0  0  0  0  0  0  0  0
  149.8010  140.5545  156.3664 O   0  0  0  0  0  0  0  0  0  0  0  0
  150.1433  142.7833  156.7461 N   0  0  0  0  0  0  0  0  0  0  0  0
  151.1022  142.7701  157.7950 C   0  0  0  0  0  0  0  0  0  0  0  0
  151.8047  143.9145  158.2452 C   0  0  0  0  0  0  0  0  0  0  0  0
  152.7120  143.7783  159.3133 C   0  0  0  0  0  0  0  0  0  0  0  0
  152.8798  142.5072  159.8959 C   0  0  0  0  0  0  0  0  0  0  0  0
  152.2085  141.4106  159.4853 N   0  0  0  0  0  0  0  0  0  0  0  0
  151.3391  141.5490  158.4616 C   0  0  0  0  0  0  0  0  0  0  0  0
  147.1962  142.1297  153.2230 C   0  0  0  0  0  0  0  0  0  0  0  0
  146.0276  142.8839  153.8833 C   0  0  0  0  0  0  0  0  0  0  0  0
  144.2180  143.3822  155.9076 H   0  0  0  0  0  0  0  0  0  0  0  0
  143.2745  141.9109  155.6419 H   0  0  0  0  0  0  0  0  0  0  0  0
  143.3846  143.1245  154.3699 H   0  0  0  0  0  0  0  0  0  0  0  0
  146.2474  141.8722  156.4268 H   0  0  0  0  0  0  0  0  0  0  0  0
  145.1904  140.5014  156.1610 H   0  0  0  0  0  0  0  0  0  0  0  0
  147.5851  139.8592  155.8232 H   0  0  0  0  0  0  0  0  0  0  0  0
  146.6294  139.6230  154.3846 H   0  0  0  0  0  0  0  0  0  0  0  0
  148.6679  140.6427  153.6758 H   0  0  0  0  0  0  0  0  0  0  0  0
  148.6667  143.1469  154.9979 H   0  0  0  0  0  0  0  0  0  0  0  0
  149.8049  143.6973  156.4832 H   0  0  0  0  0  0  0  0  0  0  0  0
  151.6556  144.8895  157.8082 H   0  0  0  0  0  0  0  0  0  0  0  0
  153.2629  144.6312  159.6815 H   0  0  0  0  0  0  0  0  0  0  0  0
  153.5664  142.3696  160.7181 H   0  0  0  0  0  0  0  0  0  0  0  0
  150.8166  140.6517  158.1634 H   0  0  0  0  0  0  0  0  0  0  0  0
  147.8566  142.8323  152.7127 H   0  0  0  0  0  0  0  0  0  0  0  0
  146.8005  141.4710  152.4487 H   0  0  0  0  0  0  0  0  0  0  0  0
  145.4523  143.4017  153.1150 H   0  0  0  0  0  0  0  0  0  0  0  0
  146.4060  143.6489  154.5631 H   0  0  0  0  0  0  0  0  0  0  0  0
  144.8046  141.2778  153.9518 H   0  0  0  0  0  0  0  0  0  0  0  0
  1  2  1  0  0  0  0
  1 18  1  0  0  0  0
  1 19  1  0  0  0  0
  1 20  1  0  0  0  0
  2 17  1  0  0  0  0
  2  3  1  0  0  0  0
  2 36  1  0  0  0  0
  3  4  1  0  0  0  0
  3 21  1  0  0  0  0
  3 22  1  0  0  0  0
  4  5  1  0  0  0  0
  4 23  1  0  0  0  0
  4 24  1  0  0  0  0
  5  6  1  0  0  0  0
  5 16  1  0  0  0  0
  5 25  1  0  0  0  0
  6  7  1  0  0  0  0
  6 26  1  0  0  0  0
  7  8  2  0  0  0  0
  7  9  1  0  0  0  0
  9 10  1  0  0  0  0
  9 27  1  0  0  0  0
 10 15  1  0  0  0  0
 10 11  2  0  0  0  0
 11 12  1  0  0  0  0
 11 28  1  0  0  0  0
 12 13  2  0  0  0  0
 12 29  1  0  0  0  0
 13 14  1  0  0  0  0
 13 30  1  0  0  0  0
 14 15  2  0  0  0  0
 15 31  1  0  0  0  0
 16 17  1  0  0  0  0
 16 32  1  0  0  0  0
 16 33  1  0  0  0  0
 17 34  1  0  0  0  0
 17 35  1  0  0  0  0
M  CHG  1   2   1
M  END
> <s_m_source_file>
AV-unprocessed.smi

> <i_m_source_file_index>
1457

> <i_lp_mmshare_version>
43012

> <i_f3d_flags>
0

> <s_epik_input>
W0NIM11OMVtDSDJdW0NIMl1bQ0hdKFtDSDJdW0NIMl0xKVtOSF1DKD1PKVtOSF1jMltjSF1bY0hdW2NIXW5bY0hdMg==

> <s_epik_cmdline>
J2VwaWtfcHl0aG9uJywgJy1waCcsICc3LjAnLCAnLXRuJywgJzgnLCAnLW1hJywgJzIwMCcsICctbWV0YWxfYmluZGluZycsICctaW1hZScsICc8aW5maWxlLm1hZT4nLCAnLW9tYWUnLCAnPG91dGZpbGUubWFlPic=

> <r_lp_tautomer_probability>
1

> <r_epik_Ionization_Penalty>
0.00766642

> <r_epik_Ionization_Penalty_Charging>
0.00366825

> <r_epik_Ionization_Penalty_Neutral>
0.00399817

> <r_epik_State_Penalty>
-0

> <r_epik_Charging_Adjusted_Penalty>
0.00366825

> <i_epik_Tot_Q>
1

> <i_epik_Tot_abs_Q>
1

> <r_epik_Metal_State_Penalty>
-0

> <b_epik_Metal_Only>
0

> <s_lp_Force_Field>
OPLS_2005

> <r_lp_Energy>
18.514

> <b_lp_Chiralities_Consistent>
1

> <s_lp_Variant>
AV-unprocessed.smi:1457-2

> <Gold.Version>
5.8.1

> <Gold.Id.Protein>
6NUR|6NUR_protein|mol2

> <Gold.PLP.Fitness>
43.8518

> <Gold.PLP.PLP>
-31.9575

> <Gold.PLP.part.hbond>
-2.9729

> <Gold.PLP.part.metal>
0.0000

> <Gold.PLP.part.buried>
-5.1415

> <Gold.PLP.part.nonpolar>
-24.3291

> <Gold.PLP.part.repulsive>
0.3060

> <Gold.PLP.ligand.clash>
0.0000

> <Gold.PLP.ligand.torsion>
0.0427

> <Gold.PLP.Chemscore.Hbond>
3.9920

> <Gold.PLP.Chemscore.CHOScore>
0.0000

> <Gold.PLP.Chemscore.Metal>
0.0000

> <Gold.Chemscore.Hbonds>
donor molecule, donor type, donor heavy atom, donor atom, acceptor molecule, acceptor atom, score
      L1  H     2    36       P1 10175  2.00
      L1  H     6    26       P1  8028  0.98
      L1  H     9    27       P1  8028  1.00

> <Gold.PLP.Chemscore.Internal.Correction>
0.0037

> <Gold.Rescore>
     Score         DG    S(hbond)    S(metal)    S(lipo)     H(rot)  DE(clash)    DE(int)     intcor
     19.05     -21.95       2.80        0.00      82.70       1.00       1.44       1.46       ----

> <Gold.Chemscore.Fitness>
19.0510

> <Gold.Chemscore.DG>
-21.9525

> <Gold.Chemscore.ZeroCoef>
-5.4800

> <Gold.Chemscore.Hbond>
2.8015

> <Gold.Chemscore.Metal>
0.0000

> <Gold.Chemscore.Lipo>
82.6958

> <Gold.Chemscore.Internal_Hbond>
0.0000

> <Gold.Chemscore.DEClash>
1.4438

> <Gold.Chemscore.DEInternal>
1.4577

> <Gold.Chemscore.Rot>
1.0000

> <Gold.Chemscore.Internal.Correction>
   9.000000E+99

> <Gold.Chemscore.Hbonds>
donor molecule, donor type, donor heavy atom, donor atom, acceptor molecule, acceptor atom, score
      L1  H     2    36       P1 10175  0.48
      L1  H     6    26       P1  8028  0.93
      L1  H     9    27       P1  8028  0.97

> <Gold.Chemscore.Hbond.Weighted>
-9.3570

> <Gold.Chemscore.Metal.Weighted>
-0.0000

> <Gold.Chemscore.Lipo.Weighted>
-9.6754

> <Gold.Chemscore.Internal_Hbond.Weighted>
0.0000

> <Gold.Chemscore.DEClash.Weighted>
1.4438

> <Gold.Chemscore.DEInternal.Weighted>
1.4577

> <Gold.Chemscore.Rot.Weighted>
2.5600

> <Gold.Chemscore.Internal.Correction.Weighted>
   9.000000E+99

> <Gold.Protein.RotatedTorsions>
[ 6907 6896 6895 6894 ] final  119.21 input  -60.11 | X-H torsion
[ 7974 7965 7964 7962 ] final  -18.44 input  175.53 | X-H torsion
[ 8008 7997 7996 7995 ] final  158.38 input   59.86 | X-H torsion
[ 10167 10162 10161 10158 ] final   73.63 input  -65.29 | X-H torsion
[ 10718 10713 10712 10709 ] final   68.99 input   66.30 | X-H torsion
[ 10763 10752 10751 10750 ] final -124.41 input  -60.55 | X-H torsion
[ 11005 11000 10999 10996 ] final -133.82 input  -57.11 | X-H torsion

> <Gold.Protein.ActiveResidues>
 VAL166  LYS551  ARG553  GLY616  TRP617  ASP618  TYR619  PRO620  LYS621  CYS622 
 ASP623  PHE694  ASN695  SER759  ASP760  ASP761  ALA762  ILE779  LEU786  VAL792 
 PHE793  MET794  SER795  GLU796  ALA797  LYS798  CYS799  TRP800  GLU811  SER814 

> <Gold.Protein.RotatedAtoms>
  152.4488  133.7588  159.6734 H   0  0  0  0  0  0  0  0  0  0  0  0  # atno 6907 bound_to 6896
  150.8394  133.7950  159.3073 H   0  0  0  0  0  0  0  0  0  0  0  0  # atno 6908 bound_to 6896
  151.5580  135.1069  160.0017 H   0  0  0  0  0  0  0  0  0  0  0  0  # atno 6909 bound_to 6896
  146.1892  140.3922  142.8464 H   0  0  0  0  0  0  0  0  0  0  0  0  # atno 7974 bound_to 7965
  156.2306  140.1860  156.7252 H   0  0  0  0  0  0  0  0  0  0  0  0  # atno 8008 bound_to 7997
  154.6016  140.0635  156.9403 H   0  0  0  0  0  0  0  0  0  0  0  0  # atno 8009 bound_to 7997
  155.2165  140.3304  155.4324 H   0  0  0  0  0  0  0  0  0  0  0  0  # atno 8010 bound_to 7997
  140.0224  144.5530  150.7571 H   0  0  0  0  0  0  0  0  0  0  0  0  # atno 10167 bound_to 10162
  157.6321  130.9402  150.0453 H   0  0  0  0  0  0  0  0  0  0  0  0  # atno 10718 bound_to 10713
  154.8723  135.4064  154.3102 H   0  0  0  0  0  0  0  0  0  0  0  0  # atno 10763 bound_to 10752
  153.3947  135.7016  153.6475 H   0  0  0  0  0  0  0  0  0  0  0  0  # atno 10764 bound_to 10752
  153.5243  135.3681  155.2617 H   0  0  0  0  0  0  0  0  0  0  0  0  # atno 10765 bound_to 10752
  140.9046  134.1646  157.4435 H   0  0  0  0  0  0  0  0  0  0  0  0  # atno 11005 bound_to 11000
  144.8454  140.6920  143.6203 LP  0  0  0  0  0  0  0  0  0  0  0  0  # atno 17320 bound_to 7965
  145.3846  139.1629  143.4262 LP  0  0  0  0  0  0  0  0  0  0  0  0  # atno 17321 bound_to 7965
  140.7337  143.2720  151.3859 LP  0  0  0  0  0  0  0  0  0  0  0  0  # atno 17342 bound_to 10162
  139.6131  144.1058  152.2318 LP  0  0  0  0  0  0  0  0  0  0  0  0  # atno 17343 bound_to 10162
  156.1532  130.3642  149.9408 LP  0  0  0  0  0  0  0  0  0  0  0  0  # atno 17370 bound_to 10713
  156.7423  130.9084  151.3633 LP  0  0  0  0  0  0  0  0  0  0  0  0  # atno 17371 bound_to 10713
  139.8747  134.9912  156.5537 LP  0  0  0  0  0  0  0  0  0  0  0  0  # atno 17394 bound_to 11000
  140.8187  133.8371  155.8875 LP  0  0  0  0  0  0  0  0  0  0  0  0  # atno 17395 bound_to 11000

$$$$
