AV-unprocessed.smi:1605|AV-procd|sdf|6454|dock6
  -GOLD-   22720 7103D 1   1.00000     0.00000
 Structure written by MMmdl.
 51 53  0  0  0  0  0  0  0  0  2 V2000
  143.3842  136.2792  153.3239 C   0  0  0  0  0  0  0  0  0  0  0  0
  144.2348  137.1016  152.5401 O   0  0  0  0  0  0  0  0  0  0  0  0
  145.4805  136.5029  152.2014 C   0  0  2  0  0  0  0  0  0  0  0  0
  146.3147  136.3841  153.4857 C   0  0  0  0  0  0  0  0  0  0  0  0
  146.7379  137.7640  154.0187 C   0  0  0  0  0  0  0  0  0  0  0  0
  147.4750  138.5344  152.9848 N   0  3  2  0  0  0  0  0  0  0  0  0
  148.0454  139.7983  153.5175 C   0  0  0  0  0  0  0  0  0  0  0  0
  149.3151  139.5993  154.3813 C   0  0  1  0  0  0  0  0  0  0  0  0
  150.3609  139.2259  153.5096 O   0  0  0  0  0  0  0  0  0  0  0  0
  149.7845  140.8518  155.1548 C   0  0  0  0  0  0  0  0  0  0  0  0
  150.6619  140.5334  156.2665 N   0  0  0  0  0  0  0  0  0  0  0  0
  151.1741  139.3258  156.5721 C   0  0  0  0  0  0  0  0  0  0  0  0
  151.9331  139.2454  157.6606 N   0  0  0  0  0  0  0  0  0  0  0  0
  151.9260  140.5558  158.1050 C   0  0  0  0  0  0  0  0  0  0  0  0
  152.5359  141.1447  159.2338 C   0  0  0  0  0  0  0  0  0  0  0  0
  152.3778  142.5221  159.5064 C   0  0  0  0  0  0  0  0  0  0  0  0
  153.0456  143.1125  160.7357 C   0  0  0  0  0  0  0  0  0  0  0  0
  151.6033  143.3340  158.6393 C   0  0  0  0  0  0  0  0  0  0  0  0
  151.4153  144.8152  158.9148 C   0  0  0  0  0  0  0  0  0  0  0  0
  150.9899  142.7623  157.5055 C   0  0  0  0  0  0  0  0  0  0  0  0
  151.1486  141.3893  157.2491 C   0  0  0  0  0  0  0  0  0  0  0  0
  146.6651  138.7102  151.7512 C   0  0  0  0  0  0  0  0  0  0  0  0
  146.2499  137.3484  151.1689 C   0  0  0  0  0  0  0  0  0  0  0  0
  142.4679  136.8229  153.5535 H   0  0  0  0  0  0  0  0  0  0  0  0
  143.8574  136.0106  154.2693 H   0  0  0  0  0  0  0  0  0  0  0  0
  143.1036  135.3655  152.8006 H   0  0  0  0  0  0  0  0  0  0  0  0
  145.3091  135.4991  151.8089 H   0  0  0  0  0  0  0  0  0  0  0  0
  145.7538  135.8433  154.2484 H   0  0  0  0  0  0  0  0  0  0  0  0
  147.2050  135.7886  153.2823 H   0  0  0  0  0  0  0  0  0  0  0  0
  145.8652  138.3313  154.3457 H   0  0  0  0  0  0  0  0  0  0  0  0
  147.3710  137.6237  154.8955 H   0  0  0  0  0  0  0  0  0  0  0  0
  148.2550  140.4635  152.6780 H   0  0  0  0  0  0  0  0  0  0  0  0
  147.2966  140.3067  154.1271 H   0  0  0  0  0  0  0  0  0  0  0  0
  149.1851  138.7693  155.0746 H   0  0  0  0  0  0  0  0  0  0  0  0
  150.0341  139.2332  152.6225 H   0  0  0  0  0  0  0  0  0  0  0  0
  150.3271  141.5229  154.4873 H   0  0  0  0  0  0  0  0  0  0  0  0
  148.9287  141.4152  155.5293 H   0  0  0  0  0  0  0  0  0  0  0  0
  150.9639  138.4533  155.9706 H   0  0  0  0  0  0  0  0  0  0  0  0
  153.1264  140.5265  159.8940 H   0  0  0  0  0  0  0  0  0  0  0  0
  153.7955  143.8482  160.4447 H   0  0  0  0  0  0  0  0  0  0  0  0
  153.5423  142.3434  161.3276 H   0  0  0  0  0  0  0  0  0  0  0  0
  152.3100  143.6009  161.3750 H   0  0  0  0  0  0  0  0  0  0  0  0
  150.8392  145.2970  158.1243 H   0  0  0  0  0  0  0  0  0  0  0  0
  152.3799  145.3191  158.9791 H   0  0  0  0  0  0  0  0  0  0  0  0
  150.8834  144.9628  159.8549 H   0  0  0  0  0  0  0  0  0  0  0  0
  150.3920  143.3695  156.8419 H   0  0  0  0  0  0  0  0  0  0  0  0
  145.7831  139.3126  151.9731 H   0  0  0  0  0  0  0  0  0  0  0  0
  147.2330  139.2506  150.9954 H   0  0  0  0  0  0  0  0  0  0  0  0
  147.1440  136.8061  150.8587 H   0  0  0  0  0  0  0  0  0  0  0  0
  145.6617  137.4925  150.2633 H   0  0  0  0  0  0  0  0  0  0  0  0
  148.2672  137.9614  152.7305 H   0  0  0  0  0  0  0  0  0  0  0  0
  1  2  1  0  0  0  0
  1 24  1  0  0  0  0
  1 25  1  0  0  0  0
  1 26  1  0  0  0  0
  2  3  1  0  0  0  0
  3 23  1  0  0  0  0
  3  4  1  0  0  0  0
  3 27  1  0  0  0  0
  4  5  1  0  0  0  0
  4 28  1  0  0  0  0
  4 29  1  0  0  0  0
  5  6  1  0  0  0  0
  5 30  1  0  0  0  0
  5 31  1  0  0  0  0
  6  7  1  0  0  0  0
  6 22  1  0  0  0  0
  6 51  1  0  0  0  0
  7  8  1  0  0  0  0
  7 32  1  0  0  0  0
  7 33  1  0  0  0  0
  8  9  1  0  0  0  0
  8 10  1  0  0  0  0
  8 34  1  0  0  0  0
  9 35  1  0  0  0  0
 10 11  1  0  0  0  0
 10 36  1  0  0  0  0
 10 37  1  0  0  0  0
 11 21  1  0  0  0  0
 11 12  1  0  0  0  0
 12 13  2  0  0  0  0
 12 38  1  0  0  0  0
 13 14  1  0  0  0  0
 14 21  2  0  0  0  0
 14 15  1  0  0  0  0
 15 16  2  0  0  0  0
 15 39  1  0  0  0  0
 16 17  1  0  0  0  0
 16 18  1  0  0  0  0
 17 40  1  0  0  0  0
 17 41  1  0  0  0  0
 17 42  1  0  0  0  0
 18 19  1  0  0  0  0
 18 20  2  0  0  0  0
 19 43  1  0  0  0  0
 19 44  1  0  0  0  0
 19 45  1  0  0  0  0
 20 21  1  0  0  0  0
 20 46  1  0  0  0  0
 22 23  1  0  0  0  0
 22 47  1  0  0  0  0
 22 48  1  0  0  0  0
 23 49  1  0  0  0  0
 23 50  1  0  0  0  0
M  CHG  1   6   1
M  END
> <s_m_source_file>
AV-unprocessed.smi

> <i_m_source_file_index>
1605

> <i_lp_mmshare_version>
43012

> <i_f3d_flags>
0

> <s_epik_input>
W0NIM11PW0NIXTFbQ0gyXVtDSDJdTihbQ0gyXVtDSDJdMSlbQ0gyXVtDQEhdKFtPSF0pW0NIMl1uKFtjSF1uMiljKGMyMylbY0hdYyhbQ0gzXSljKFtjSF0zKVtDSDNd

> <s_epik_cmdline>
J2VwaWtfcHl0aG9uJywgJy1waCcsICc3LjAnLCAnLXRuJywgJzgnLCAnLW1hJywgJzIwMCcsICctbWV0YWxfYmluZGluZycsICctaW1hZScsICc8aW5maWxlLm1hZT4nLCAnLW9tYWUnLCAnPG91dGZpbGUubWFlPic=

> <r_epik_Ionization_Penalty>
0.110943

> <r_epik_Ionization_Penalty_Charging>
0.0229283

> <r_epik_Ionization_Penalty_Neutral>
0.0880146

> <r_epik_State_Penalty>
0.0947554

> <r_epik_Charging_Adjusted_Penalty>
0.117684

> <i_epik_Tot_Q>
1

> <i_epik_Tot_abs_Q>
1

> <r_epik_Metal_State_Penalty>
0.0192456

> <b_epik_Metal_Only>
0

> <s_lp_Force_Field>
OPLS_2005

> <r_lp_Energy>
21.431

> <b_lp_Chiralities_Consistent>
1

> <s_lp_Variant>
AV-unprocessed.smi:1605-4

> <Gold.Version>
5.8.1

> <Gold.Id.Protein>
6NUR|6NUR_protein|mol2

> <Gold.PLP.Fitness>
52.0032

> <Gold.PLP.PLP>
-41.8014

> <Gold.PLP.part.hbond>
-3.5254

> <Gold.PLP.part.metal>
0.0000

> <Gold.PLP.part.buried>
3.9019

> <Gold.PLP.part.nonpolar>
-42.9860

> <Gold.PLP.part.repulsive>
0.2341

> <Gold.PLP.ligand.clash>
0.0000

> <Gold.PLP.ligand.torsion>
0.5356

> <Gold.PLP.Chemscore.Hbond>
3.7204

> <Gold.PLP.Chemscore.CHOScore>
0.0000

> <Gold.PLP.Chemscore.Metal>
0.0000

> <Gold.Chemscore.Hbonds>
donor molecule, donor type, donor heavy atom, donor atom, acceptor molecule, acceptor atom, score
      L1  H     6    51       P1  7948  1.93
      L1  H     9    35       P1  7957  1.00
      P1  H  7989  7998       L1     9  0.80

> <Gold.PLP.Chemscore.Internal.Correction>
0.1120

> <Gold.Rescore>
     Score         DG    S(hbond)    S(metal)    S(lipo)     H(rot)  DE(clash)    DE(int)     intcor
     19.20     -20.57       1.91        0.00     122.81       2.22       0.86       0.50       ----

> <Gold.Chemscore.Fitness>
19.2028

> <Gold.Chemscore.DG>
-20.5655

> <Gold.Chemscore.ZeroCoef>
-5.4800

> <Gold.Chemscore.Hbond>
1.9139

> <Gold.Chemscore.Metal>
0.0000

> <Gold.Chemscore.Lipo>
122.8056

> <Gold.Chemscore.Internal_Hbond>
0.0000

> <Gold.Chemscore.DEClash>
0.8627

> <Gold.Chemscore.DEInternal>
0.5000

> <Gold.Chemscore.Rot>
2.2169

> <Gold.Chemscore.Internal.Correction>
   9.000000E+99

> <Gold.Chemscore.Hbonds>
donor molecule, donor type, donor heavy atom, donor atom, acceptor molecule, acceptor atom, score
      L1  H     6    51       P1  7948  0.85
      L1  H     9    35       P1  7957  0.80
      P1  H  7989  7998       L1     9  0.10

> <Gold.Chemscore.Hbond.Weighted>
-6.3925

> <Gold.Chemscore.Metal.Weighted>
-0.0000

> <Gold.Chemscore.Lipo.Weighted>
-14.3683

> <Gold.Chemscore.Internal_Hbond.Weighted>
0.0000

> <Gold.Chemscore.DEClash.Weighted>
0.8627

> <Gold.Chemscore.DEInternal.Weighted>
0.5000

> <Gold.Chemscore.Rot.Weighted>
5.6753

> <Gold.Chemscore.Internal.Correction.Weighted>
   9.000000E+99

> <Gold.Protein.RotatedTorsions>
[ 6907 6896 6895 6894 ] final -125.82 input  -60.11 | X-H torsion
[ 7974 7965 7964 7962 ] final   94.05 input  175.53 | X-H torsion
[ 8008 7997 7996 7995 ] final  -29.57 input   59.86 | X-H torsion
[ 10167 10162 10161 10158 ] final  -48.60 input  -65.29 | X-H torsion
[ 10718 10713 10712 10709 ] final  -31.54 input   66.30 | X-H torsion
[ 10763 10752 10751 10750 ] final -147.38 input  -60.55 | X-H torsion
[ 11005 11000 10999 10996 ] final -152.29 input  -57.11 | X-H torsion

> <Gold.Protein.ActiveResidues>
 VAL166  LYS551  ARG553  GLY616  TRP617  ASP618  TYR619  PRO620  LYS621  CYS622 
 ASP623  PHE694  ASN695  SER759  ASP760  ASP761  ALA762  ILE779  LEU786  VAL792 
 PHE793  MET794  SER795  GLU796  ALA797  LYS798  CYS799  TRP800  GLU811  SER814 

> <Gold.Protein.RotatedAtoms>
  150.8907  133.7248  159.2905 H   0  0  0  0  0  0  0  0  0  0  0  0  # atno 6907 bound_to 6896
  151.4799  135.1050  159.9784 H   0  0  0  0  0  0  0  0  0  0  0  0  # atno 6908 bound_to 6896
  152.4818  133.8226  159.7117 H   0  0  0  0  0  0  0  0  0  0  0  0  # atno 6909 bound_to 6896
  145.4708  139.2282  143.2936 H   0  0  0  0  0  0  0  0  0  0  0  0  # atno 7974 bound_to 7965
  154.4285  140.1815  156.1268 H   0  0  0  0  0  0  0  0  0  0  0  0  # atno 8008 bound_to 7997
  156.0099  140.3351  155.6905 H   0  0  0  0  0  0  0  0  0  0  0  0  # atno 8009 bound_to 7997
  155.6125  140.0651  157.2692 H   0  0  0  0  0  0  0  0  0  0  0  0  # atno 8010 bound_to 7997
  140.6723  143.2733  151.4094 H   0  0  0  0  0  0  0  0  0  0  0  0  # atno 10167 bound_to 10162
  156.3860  130.4364  149.7431 H   0  0  0  0  0  0  0  0  0  0  0  0  # atno 10718 bound_to 10713
  154.8289  135.3362  154.6808 H   0  0  0  0  0  0  0  0  0  0  0  0  # atno 10763 bound_to 10752
  153.7431  135.6944  153.4967 H   0  0  0  0  0  0  0  0  0  0  0  0  # atno 10764 bound_to 10752
  153.2230  135.4442  155.0461 H   0  0  0  0  0  0  0  0  0  0  0  0  # atno 10765 bound_to 10752
  140.7204  134.3733  157.5184 H   0  0  0  0  0  0  0  0  0  0  0  0  # atno 11005 bound_to 11000
  146.2398  140.5486  142.8939 LP  0  0  0  0  0  0  0  0  0  0  0  0  # atno 17320 bound_to 7965
  144.7946  140.6098  143.6518 LP  0  0  0  0  0  0  0  0  0  0  0  0  # atno 17321 bound_to 7965
  139.5998  144.1320  152.2185 LP  0  0  0  0  0  0  0  0  0  0  0  0  # atno 17342 bound_to 10162
  140.0700  144.5786  150.7198 LP  0  0  0  0  0  0  0  0  0  0  0  0  # atno 17343 bound_to 10162
  156.4503  130.7903  151.2925 LP  0  0  0  0  0  0  0  0  0  0  0  0  # atno 17370 bound_to 10713
  157.7496  131.0097  150.3279 LP  0  0  0  0  0  0  0  0  0  0  0  0  # atno 17371 bound_to 10713
  139.8849  134.8951  156.2672 LP  0  0  0  0  0  0  0  0  0  0  0  0  # atno 17394 bound_to 11000
  141.0008  133.7152  156.0958 LP  0  0  0  0  0  0  0  0  0  0  0  0  # atno 17395 bound_to 11000

$$$$
