AV-unprocessed.smi:2510|AV-procd|sdf|9879|dock7
  -GOLD-   2272013513D 1   1.00000     0.00000
 Structure written by MMmdl.
 48 49  0  0  0  0  0  0  0  0  1 V2000
  149.8618  139.6052  158.2510 C   0  0  0  0  0  0  0  0  0  0  0  0
  150.9845  140.5440  158.7148 C   0  0  0  0  0  0  0  0  0  0  0  0
  151.0390  141.9191  158.0130 C   0  0  0  0  0  0  0  0  0  0  0  0
  150.9317  141.6778  156.4739 C   0  0  0  0  0  0  0  0  0  0  0  0
  151.6079  140.4057  155.9339 C   0  0  0  0  0  0  0  0  0  0  0  0
  150.0635  142.9700  158.6207 C   0  0  2  0  0  0  0  0  0  0  0  0
  148.8318  143.1766  157.8693 N   0  0  0  0  0  0  0  0  0  0  0  0
  147.5994  142.9794  158.3609 C   0  0  0  0  0  0  0  0  0  0  0  0
  147.3713  142.7315  159.5446 O   0  0  0  0  0  0  0  0  0  0  0  0
  146.4520  143.0361  157.3527 C   0  0  0  0  0  0  0  0  0  0  0  0
  146.8462  142.3559  156.0797 C   0  0  0  0  0  0  0  0  0  0  0  0
  146.2356  141.3691  155.3568 C   0  0  0  0  0  0  0  0  0  0  0  0
  147.1252  141.1256  154.2699 C   0  0  0  0  0  0  0  0  0  0  0  0
  146.9782  140.1285  153.1588 C   0  0  0  0  0  0  0  0  0  0  0  0
  148.1963  141.9042  154.3088 N   0  0  0  0  0  0  0  0  0  0  0  0
  148.0139  142.6516  155.4129 N   0  0  0  0  0  0  0  0  0  0  0  0
  151.1179  144.0499  158.3549 C   0  0  1  0  0  0  0  0  0  0  0  0
  151.1863  145.2789  159.2523 C   0  0  0  0  0  0  0  0  0  0  0  0
  152.1437  142.9078  158.4925 C   0  0  1  0  0  0  0  0  0  0  0  0
  152.5170  142.6670  159.8464 O   0  0  0  0  0  0  0  0  0  0  0  0
  153.5598  141.7163  159.9788 C   0  0  0  0  0  0  0  0  0  0  0  0
  148.6893  143.3460  155.6988 H   0  0  0  0  0  0  0  0  0  0  0  0
  150.0076  138.6059  158.6617 H   0  0  0  0  0  0  0  0  0  0  0  0
  149.8369  139.5141  157.1648 H   0  0  0  0  0  0  0  0  0  0  0  0
  148.8860  139.9482  158.5917 H   0  0  0  0  0  0  0  0  0  0  0  0
  150.9161  140.6711  159.7958 H   0  0  0  0  0  0  0  0  0  0  0  0
  151.9290  140.0204  158.5634 H   0  0  0  0  0  0  0  0  0  0  0  0
  149.8860  141.6692  156.1643 H   0  0  0  0  0  0  0  0  0  0  0  0
  151.3686  142.5035  155.9134 H   0  0  0  0  0  0  0  0  0  0  0  0
  151.3361  140.2472  154.8900 H   0  0  0  0  0  0  0  0  0  0  0  0
  151.3260  139.5108  156.4846 H   0  0  0  0  0  0  0  0  0  0  0  0
  152.6939  140.4890  155.9670 H   0  0  0  0  0  0  0  0  0  0  0  0
  149.8983  142.8302  159.6922 H   0  0  0  0  0  0  0  0  0  0  0  0
  148.9251  143.3866  156.8862 H   0  0  0  0  0  0  0  0  0  0  0  0
  145.5692  142.5533  157.7739 H   0  0  0  0  0  0  0  0  0  0  0  0
  146.1846  144.0772  157.1674 H   0  0  0  0  0  0  0  0  0  0  0  0
  145.2979  140.8821  155.5807 H   0  0  0  0  0  0  0  0  0  0  0  0
  145.9914  139.6649  153.1742 H   0  0  0  0  0  0  0  0  0  0  0  0
  147.7195  139.3339  153.2465 H   0  0  0  0  0  0  0  0  0  0  0  0
  147.1068  140.6007  152.1842 H   0  0  0  0  0  0  0  0  0  0  0  0
  151.0804  144.3587  157.3079 H   0  0  0  0  0  0  0  0  0  0  0  0
  151.2091  145.0054  160.3075 H   0  0  0  0  0  0  0  0  0  0  0  0
  150.3199  145.9227  159.1007 H   0  0  0  0  0  0  0  0  0  0  0  0
  152.0766  145.8715  159.0426 H   0  0  0  0  0  0  0  0  0  0  0  0
  153.0026  142.9904  157.8269 H   0  0  0  0  0  0  0  0  0  0  0  0
  153.8248  141.6092  161.0304 H   0  0  0  0  0  0  0  0  0  0  0  0
  154.4542  142.0200  159.4349 H   0  0  0  0  0  0  0  0  0  0  0  0
  153.2442  140.7390  159.6115 H   0  0  0  0  0  0  0  0  0  0  0  0
  1  2  1  0  0  0  0
  1 23  1  0  0  0  0
  1 24  1  0  0  0  0
  1 25  1  0  0  0  0
  2  3  1  0  0  0  0
  2 26  1  0  0  0  0
  2 27  1  0  0  0  0
  3 19  1  0  0  0  0
  3  4  1  0  0  0  0
  3  6  1  0  0  0  0
  4  5  1  0  0  0  0
  4 28  1  0  0  0  0
  4 29  1  0  0  0  0
  5 30  1  0  0  0  0
  5 31  1  0  0  0  0
  5 32  1  0  0  0  0
  6  7  1  0  0  0  0
  6 17  1  0  0  0  0
  6 33  1  0  0  0  0
  7  8  1  0  0  0  0
  7 34  1  0  0  0  0
  8  9  2  0  0  0  0
  8 10  1  0  0  0  0
 10 35  1  0  0  0  0
 10 36  1  0  0  0  0
 10 11  1  0  0  0  0
 11 16  1  0  0  0  0
 11 12  2  0  0  0  0
 12 13  1  0  0  0  0
 12 37  1  0  0  0  0
 13 14  1  0  0  0  0
 13 15  2  0  0  0  0
 14 38  1  0  0  0  0
 14 39  1  0  0  0  0
 14 40  1  0  0  0  0
 15 16  1  0  0  0  0
 16 22  1  0  0  0  0
 17 18  1  0  0  0  0
 17 19  1  0  0  0  0
 17 41  1  0  0  0  0
 18 42  1  0  0  0  0
 18 43  1  0  0  0  0
 18 44  1  0  0  0  0
 19 20  1  0  0  0  0
 19 45  1  0  0  0  0
 20 21  1  0  0  0  0
 21 46  1  0  0  0  0
 21 47  1  0  0  0  0
 21 48  1  0  0  0  0
M  END
> <s_m_source_file>
AV-unprocessed.smi

> <i_m_source_file_index>
2510

> <i_lp_mmshare_version>
43012

> <i_f3d_flags>
0

> <s_epik_input>
W0NIM11PW0NAQEhdMVtDQEhdKFtDSDNdKVtDQEBIXShDMShbQ0gyXVtDSDNdKVtDSDJdW0NIM10pW05IXUMoPU8pW0NIMl1jMltjSF1jKFtDSDNdKVtuSF1uMg==

> <s_epik_cmdline>
J2VwaWtfcHl0aG9uJywgJy1waCcsICc3LjAnLCAnLXRuJywgJzgnLCAnLW1hJywgJzIwMCcsICctbWV0YWxfYmluZGluZycsICctaW1hZScsICc8aW5maWxlLm1hZT4nLCAnLW9tYWUnLCAnPG91dGZpbGUubWFlPic=

> <r_lp_tautomer_probability>
0.5

> <r_epik_Ionization_Penalty>
0.000134763

> <r_epik_Ionization_Penalty_Charging>
0

> <r_epik_Ionization_Penalty_Neutral>
0.000134763

> <r_epik_State_Penalty>
0.41068

> <r_epik_Charging_Adjusted_Penalty>
0.41068

> <i_epik_Tot_Q>
0

> <i_epik_Tot_abs_Q>
0

> <r_epik_Metal_State_Penalty>
0.410661

> <b_epik_Metal_Only>
0

> <s_lp_Force_Field>
OPLS_2005

> <r_lp_Energy>
26.7648

> <b_lp_Chiralities_Consistent>
1

> <s_lp_Variant>
AV-unprocessed.smi:2510-10

> <Gold.Version>
5.8.1

> <Gold.Id.Protein>
6NUR|6NUR_protein|mol2

> <Gold.PLP.Fitness>
43.1002

> <Gold.PLP.PLP>
-37.0884

> <Gold.PLP.part.hbond>
-4.5405

> <Gold.PLP.part.metal>
0.0000

> <Gold.PLP.part.buried>
-5.1541

> <Gold.PLP.part.nonpolar>
-28.6482

> <Gold.PLP.part.repulsive>
0.3844

> <Gold.PLP.ligand.clash>
0.0000

> <Gold.PLP.ligand.torsion>
1.2680

> <Gold.PLP.Chemscore.Hbond>
2.6189

> <Gold.PLP.Chemscore.CHOScore>
0.0000

> <Gold.PLP.Chemscore.Metal>
0.0000

> <Gold.Chemscore.Hbonds>
donor molecule, donor type, donor heavy atom, donor atom, acceptor molecule, acceptor atom, score
      L1  H     7    34       P1  8028  0.86
      L1  H    16    22       P1  8028  0.47
      P1  H  6933  6944       L1     9  0.35
      P1  H  6934  6946       L1     9  0.32

> <Gold.PLP.Chemscore.Internal.Correction>
0.6913

> <Gold.Rescore>
     Score         DG    S(hbond)    S(metal)    S(lipo)     H(rot)  DE(clash)    DE(int)     intcor
     17.14     -20.32       2.48        0.00      95.57       1.81       0.47       2.72       ----

> <Gold.Chemscore.Fitness>
17.1394

> <Gold.Chemscore.DG>
-20.3213

> <Gold.Chemscore.ZeroCoef>
-5.4800

> <Gold.Chemscore.Hbond>
2.4832

> <Gold.Chemscore.Metal>
0.0000

> <Gold.Chemscore.Lipo>
95.5673

> <Gold.Chemscore.Internal_Hbond>
0.0000

> <Gold.Chemscore.DEClash>
0.4668

> <Gold.Chemscore.DEInternal>
2.7151

> <Gold.Chemscore.Rot>
1.8102

> <Gold.Chemscore.Internal.Correction>
   9.000000E+99

> <Gold.Chemscore.Hbonds>
donor molecule, donor type, donor heavy atom, donor atom, acceptor molecule, acceptor atom, score
      L1  H     7    34       P1  8028  0.63
      L1  H    16    22       P1  8028  0.49
      P1  H  6933  6944       L1     9  0.35
      P1  H  6934  6946       L1     9  0.32

> <Gold.Chemscore.Hbond.Weighted>
-8.2940

> <Gold.Chemscore.Metal.Weighted>
-0.0000

> <Gold.Chemscore.Lipo.Weighted>
-11.1814

> <Gold.Chemscore.Internal_Hbond.Weighted>
0.0000

> <Gold.Chemscore.DEClash.Weighted>
0.4668

> <Gold.Chemscore.DEInternal.Weighted>
2.7151

> <Gold.Chemscore.Rot.Weighted>
4.6341

> <Gold.Chemscore.Internal.Correction.Weighted>
   9.000000E+99

> <Gold.Protein.RotatedTorsions>
[ 6907 6896 6895 6894 ] final   54.27 input  -60.11 | X-H torsion
[ 7974 7965 7964 7962 ] final  144.93 input  175.53 | X-H torsion
[ 8008 7997 7996 7995 ] final -158.63 input   59.86 | X-H torsion
[ 10167 10162 10161 10158 ] final -133.36 input  -65.29 | X-H torsion
[ 10718 10713 10712 10709 ] final -141.30 input   66.30 | X-H torsion
[ 10763 10752 10751 10750 ] final  158.00 input  -60.55 | X-H torsion
[ 11005 11000 10999 10996 ] final  149.51 input  -57.11 | X-H torsion

> <Gold.Protein.ActiveResidues>
 VAL166  LYS551  ARG553  GLY616  TRP617  ASP618  TYR619  PRO620  LYS621  CYS622 
 ASP623  PHE694  ASN695  SER759  ASP760  ASP761  ALA762  ILE779  LEU786  VAL792 
 PHE793  MET794  SER795  GLU796  ALA797  LYS798  CYS799  TRP800  GLU811  SER814 

> <Gold.Protein.RotatedAtoms>
  152.3422  134.7119  160.0260 H   0  0  0  0  0  0  0  0  0  0  0  0  # atno 6907 bound_to 6896
  151.7501  133.3321  159.3397 H   0  0  0  0  0  0  0  0  0  0  0  0  # atno 6908 bound_to 6896
  150.7486  134.6133  159.6142 H   0  0  0  0  0  0  0  0  0  0  0  0  # atno 6909 bound_to 6896
  144.8794  139.5722  143.5850 H   0  0  0  0  0  0  0  0  0  0  0  0  # atno 7974 bound_to 7965
  155.7505  140.0826  157.2203 H   0  0  0  0  0  0  0  0  0  0  0  0  # atno 8008 bound_to 7997
  154.4012  140.1561  156.2774 H   0  0  0  0  0  0  0  0  0  0  0  0  # atno 8009 bound_to 7997
  155.8935  140.3414  155.5976 H   0  0  0  0  0  0  0  0  0  0  0  0  # atno 8010 bound_to 7997
  139.8991  143.6630  152.2598 H   0  0  0  0  0  0  0  0  0  0  0  0  # atno 10167 bound_to 10162
  156.3325  130.7593  151.1714 H   0  0  0  0  0  0  0  0  0  0  0  0  # atno 10718 bound_to 10713
  154.2092  135.2787  155.2964 H   0  0  0  0  0  0  0  0  0  0  0  0  # atno 10763 bound_to 10752
  154.5792  135.5594  153.7172 H   0  0  0  0  0  0  0  0  0  0  0  0  # atno 10764 bound_to 10752
  153.0068  135.6340  154.2231 H   0  0  0  0  0  0  0  0  0  0  0  0  # atno 10765 bound_to 10752
  140.1051  134.8959  157.1854 H   0  0  0  0  0  0  0  0  0  0  0  0  # atno 11005 bound_to 11000
  146.2984  139.7351  142.9109 LP  0  0  0  0  0  0  0  0  0  0  0  0  # atno 17320 bound_to 7965
  145.3982  141.0381  143.3085 LP  0  0  0  0  0  0  0  0  0  0  0  0  # atno 17321 bound_to 7965
  139.7041  144.7630  151.1222 LP  0  0  0  0  0  0  0  0  0  0  0  0  # atno 17342 bound_to 10162
  140.7711  143.5417  150.9304 LP  0  0  0  0  0  0  0  0  0  0  0  0  # atno 17343 bound_to 10162
  157.7433  131.0477  150.4959 LP  0  0  0  0  0  0  0  0  0  0  0  0  # atno 17370 bound_to 10713
  156.5127  130.4143  149.6292 LP  0  0  0  0  0  0  0  0  0  0  0  0  # atno 17371 bound_to 10713
  140.3167  134.2963  155.7255 LP  0  0  0  0  0  0  0  0  0  0  0  0  # atno 17394 bound_to 11000
  141.2116  133.7684  156.9853 LP  0  0  0  0  0  0  0  0  0  0  0  0  # atno 17395 bound_to 11000

$$$$
