AV-unprocessed.smi:1272|AV-procd|sdf|5337|dock1
  -GOLD-   22720 4463D 1   1.00000     0.00000
 Structure written by MMmdl.
 46 48  0  0  0  0  0  0  0  0  2 V2000
  154.4668  141.4988  161.3453 C   0  0  0  0  0  0  0  0  0  0  0  0
  154.5579  141.6775  159.8248 C   0  0  0  0  0  0  0  0  0  0  0  0
  153.2340  141.8477  159.2318 N   0  0  0  0  0  0  0  0  0  0  0  0
  152.6147  140.9945  158.3828 C   0  0  0  0  0  0  0  0  0  0  0  0
  153.0658  139.9256  157.9711 O   0  0  0  0  0  0  0  0  0  0  0  0
  151.3996  141.5096  158.0806 N   0  0  0  0  0  0  0  0  0  0  0  0
  150.3949  140.9057  157.2072 C   0  0  0  0  0  0  0  0  0  0  0  0
  150.5910  141.3295  155.7372 C   0  0  1  0  0  0  0  0  0  0  0  0
  151.7181  140.6429  155.2281 O   0  0  0  0  0  0  0  0  0  0  0  0
  149.3778  140.9467  154.8650 C   0  0  0  0  0  0  0  0  0  0  0  0
  148.1730  141.7613  155.1688 N   0  3  0  0  0  0  0  0  0  0  0  0
  147.1726  141.7252  154.0754 C   0  0  0  0  0  0  0  0  0  0  0  0
  145.9784  142.6361  154.4082 C   0  0  0  0  0  0  0  0  0  0  0  0
  145.4047  142.2377  155.6469 O   0  0  0  0  0  0  0  0  0  0  0  0
  146.3295  142.3485  156.7216 C   0  0  0  0  0  0  0  0  0  0  0  0
  147.5315  141.4242  156.4644 C   0  0  0  0  0  0  0  0  0  0  0  0
  151.2238  142.7121  158.7802 C   0  0  0  0  0  0  0  0  0  0  0  0
  150.1387  143.6044  158.8307 C   0  0  0  0  0  0  0  0  0  0  0  0
  150.2748  144.7418  159.6606 C   0  0  0  0  0  0  0  0  0  0  0  0
  151.4622  144.9601  160.4062 C   0  0  0  0  0  0  0  0  0  0  0  0
  152.5388  144.0451  160.3384 C   0  0  0  0  0  0  0  0  0  0  0  0
  152.3780  142.9243  159.5051 C   0  0  0  0  0  0  0  0  0  0  0  0
  155.4582  141.3722  161.7804 H   0  0  0  0  0  0  0  0  0  0  0  0
  153.8754  140.6202  161.6048 H   0  0  0  0  0  0  0  0  0  0  0  0
  154.0046  142.3661  161.8175 H   0  0  0  0  0  0  0  0  0  0  0  0
  155.1790  142.5411  159.5860 H   0  0  0  0  0  0  0  0  0  0  0  0
  155.0563  140.8153  159.3792 H   0  0  0  0  0  0  0  0  0  0  0  0
  150.3849  139.8201  157.3130 H   0  0  0  0  0  0  0  0  0  0  0  0
  149.4164  141.2389  157.5574 H   0  0  0  0  0  0  0  0  0  0  0  0
  150.7699  142.4029  155.6831 H   0  0  0  0  0  0  0  0  0  0  0  0
  152.3932  140.6374  155.8896 H   0  0  0  0  0  0  0  0  0  0  0  0
  149.6505  141.0710  153.8155 H   0  0  0  0  0  0  0  0  0  0  0  0
  149.1328  139.8910  154.9916 H   0  0  0  0  0  0  0  0  0  0  0  0
  147.6306  142.0511  153.1408 H   0  0  0  0  0  0  0  0  0  0  0  0
  146.8303  140.6999  153.9256 H   0  0  0  0  0  0  0  0  0  0  0  0
  146.2866  143.6817  154.4554 H   0  0  0  0  0  0  0  0  0  0  0  0
  145.2207  142.5624  153.6278 H   0  0  0  0  0  0  0  0  0  0  0  0
  146.6519  143.3848  156.8361 H   0  0  0  0  0  0  0  0  0  0  0  0
  145.8300  142.0666  157.6487 H   0  0  0  0  0  0  0  0  0  0  0  0
  147.2042  140.3832  156.4524 H   0  0  0  0  0  0  0  0  0  0  0  0
  148.2408  141.5255  157.2848 H   0  0  0  0  0  0  0  0  0  0  0  0
  149.2344  143.4319  158.2663 H   0  0  0  0  0  0  0  0  0  0  0  0
  149.4641  145.4520  159.7293 H   0  0  0  0  0  0  0  0  0  0  0  0
  151.5442  145.8343  161.0352 H   0  0  0  0  0  0  0  0  0  0  0  0
  153.4426  144.2034  160.9078 H   0  0  0  0  0  0  0  0  0  0  0  0
  148.4873  142.7194  155.2345 H   0  0  0  0  0  0  0  0  0  0  0  0
  1  2  1  0  0  0  0
  1 23  1  0  0  0  0
  1 24  1  0  0  0  0
  1 25  1  0  0  0  0
  2  3  1  0  0  0  0
  2 26  1  0  0  0  0
  2 27  1  0  0  0  0
  3 22  1  0  0  0  0
  3  4  1  0  0  0  0
  4  5  2  0  0  0  0
  4  6  1  0  0  0  0
  6  7  1  0  0  0  0
  6 17  1  0  0  0  0
  7  8  1  0  0  0  0
  7 28  1  0  0  0  0
  7 29  1  0  0  0  0
  8  9  1  0  0  0  0
  8 10  1  0  0  0  0
  8 30  1  0  0  0  0
  9 31  1  0  0  0  0
 10 11  1  0  0  0  0
 10 32  1  0  0  0  0
 10 33  1  0  0  0  0
 11 16  1  0  0  0  0
 11 12  1  0  0  0  0
 11 46  1  0  0  0  0
 12 13  1  0  0  0  0
 12 34  1  0  0  0  0
 12 35  1  0  0  0  0
 13 14  1  0  0  0  0
 13 36  1  0  0  0  0
 13 37  1  0  0  0  0
 14 15  1  0  0  0  0
 15 16  1  0  0  0  0
 15 38  1  0  0  0  0
 15 39  1  0  0  0  0
 16 40  1  0  0  0  0
 16 41  1  0  0  0  0
 17 22  2  0  0  0  0
 17 18  1  0  0  0  0
 18 19  2  0  0  0  0
 18 42  1  0  0  0  0
 19 20  1  0  0  0  0
 19 43  1  0  0  0  0
 20 21  2  0  0  0  0
 20 44  1  0  0  0  0
 21 22  1  0  0  0  0
 21 45  1  0  0  0  0
M  CHG  1  11   1
M  END
> <s_m_source_file>
AV-unprocessed.smi

> <i_m_source_file_index>
1272

> <i_lp_mmshare_version>
43012

> <i_f3d_flags>
0

> <s_epik_input>
W2NIXTFbY0hdW2NIXVtjSF1jKGMxMiluKFtDSDJdW0NIM10pYyg9TyluMltDSDJdW0NASF0oW09IXSlbQ0gyXU4zW0NIMl1bQ0gyXU9bQ0gyXVtDSDJdMw==

> <s_epik_cmdline>
J2VwaWtfcHl0aG9uJywgJy1waCcsICc3LjAnLCAnLXRuJywgJzgnLCAnLW1hJywgJzIwMCcsICctbWV0YWxfYmluZGluZycsICctaW1hZScsICc8aW5maWxlLm1hZT4nLCAnLW9tYWUnLCAnPG91dGZpbGUubWFlPic=

> <r_epik_Ionization_Penalty>
0.706332

> <r_epik_Ionization_Penalty_Charging>
0.706318

> <r_epik_Ionization_Penalty_Neutral>
1.42224e-05

> <r_epik_State_Penalty>
0.729493

> <r_epik_Charging_Adjusted_Penalty>
1.43581

> <i_epik_Tot_Q>
1

> <i_epik_Tot_abs_Q>
1

> <r_epik_Metal_State_Penalty>
0.729493

> <b_epik_Metal_Only>
0

> <s_lp_Force_Field>
OPLS_2005

> <r_lp_Energy>
52.83

> <b_lp_Chiralities_Consistent>
1

> <s_lp_Variant>
AV-unprocessed.smi:1272-4

> <Gold.Version>
5.8.1

> <Gold.Id.Protein>
6NUR|6NUR_protein|mol2

> <Gold.PLP.Fitness>
59.3992

> <Gold.PLP.PLP>
-49.0636

> <Gold.PLP.part.hbond>
-3.0000

> <Gold.PLP.part.metal>
0.0000

> <Gold.PLP.part.buried>
-6.3523

> <Gold.PLP.part.nonpolar>
-39.6863

> <Gold.PLP.part.repulsive>
0.2889

> <Gold.PLP.ligand.clash>
0.0000

> <Gold.PLP.ligand.torsion>
0.6439

> <Gold.PLP.Chemscore.Hbond>
3.8160

> <Gold.PLP.Chemscore.CHOScore>
0.0000

> <Gold.PLP.Chemscore.Metal>
0.0000

> <Gold.Chemscore.Hbonds>
donor molecule, donor type, donor heavy atom, donor atom, acceptor molecule, acceptor atom, score
      L1  H    11    46       P1  8028  1.82
      P1  H  7989  7998       L1     9  0.70
      P1  H  7997  8008       L1     5  1.00

> <Gold.PLP.Chemscore.Internal.Correction>
0.1755

> <Gold.Rescore>
     Score         DG    S(hbond)    S(metal)    S(lipo)     H(rot)  DE(clash)    DE(int)     intcor
     18.73     -19.62       1.91        0.00     115.05       2.23       0.14       0.75       ----

> <Gold.Chemscore.Fitness>
18.7288

> <Gold.Chemscore.DG>
-19.6211

> <Gold.Chemscore.ZeroCoef>
-5.4800

> <Gold.Chemscore.Hbond>
1.9120

> <Gold.Chemscore.Metal>
0.0000

> <Gold.Chemscore.Lipo>
115.0455

> <Gold.Chemscore.Internal_Hbond>
0.0000

> <Gold.Chemscore.DEClash>
0.1427

> <Gold.Chemscore.DEInternal>
0.7495

> <Gold.Chemscore.Rot>
2.2287

> <Gold.Chemscore.Internal.Correction>
   9.000000E+99

> <Gold.Chemscore.Hbonds>
donor molecule, donor type, donor heavy atom, donor atom, acceptor molecule, acceptor atom, score
      L1  H    11    46       P1  8028  0.87
      P1  H  7989  7998       L1     9  0.35
      P1  H  7997  8008       L1     5  0.90

> <Gold.Chemscore.Hbond.Weighted>
-6.3861

> <Gold.Chemscore.Metal.Weighted>
-0.0000

> <Gold.Chemscore.Lipo.Weighted>
-13.4603

> <Gold.Chemscore.Internal_Hbond.Weighted>
0.0000

> <Gold.Chemscore.DEClash.Weighted>
0.1427

> <Gold.Chemscore.DEInternal.Weighted>
0.7495

> <Gold.Chemscore.Rot.Weighted>
5.7054

> <Gold.Chemscore.Internal.Correction.Weighted>
   9.000000E+99

> <Gold.Protein.RotatedTorsions>
[ 6907 6896 6895 6894 ] final  121.86 input  -60.11 | X-H torsion
[ 7974 7965 7964 7962 ] final   51.73 input  175.53 | X-H torsion
[ 8008 7997 7996 7995 ] final  -78.93 input   59.86 | X-H torsion
[ 10167 10162 10161 10158 ] final -129.77 input  -65.29 | X-H torsion
[ 10718 10713 10712 10709 ] final  113.46 input   66.30 | X-H torsion
[ 10763 10752 10751 10750 ] final  -26.54 input  -60.55 | X-H torsion
[ 11005 11000 10999 10996 ] final  143.89 input  -57.11 | X-H torsion

> <Gold.Protein.ActiveResidues>
 VAL166  LYS551  ARG553  GLY616  TRP617  ASP618  TYR619  PRO620  LYS621  CYS622 
 ASP623  PHE694  ASN695  SER759  ASP760  ASP761  ALA762  ILE779  LEU786  VAL792 
 PHE793  MET794  SER795  GLU796  ALA797  LYS798  CYS799  TRP800  GLU811  SER814 

> <Gold.Protein.RotatedAtoms>
  152.4288  133.7242  159.6550 H   0  0  0  0  0  0  0  0  0  0  0  0  # atno 6907 bound_to 6896
  150.8166  133.8315  159.3163 H   0  0  0  0  0  0  0  0  0  0  0  0  # atno 6908 bound_to 6896
  151.6009  135.1049  160.0112 H   0  0  0  0  0  0  0  0  0  0  0  0  # atno 6909 bound_to 6896
  145.9884  139.4314  143.0088 H   0  0  0  0  0  0  0  0  0  0  0  0  # atno 7974 bound_to 7965
  154.5736  140.0686  156.9001 H   0  0  0  0  0  0  0  0  0  0  0  0  # atno 8008 bound_to 7997
  155.2589  140.3357  155.4257 H   0  0  0  0  0  0  0  0  0  0  0  0  # atno 8009 bound_to 7997
  156.2137  140.1769  156.7623 H   0  0  0  0  0  0  0  0  0  0  0  0  # atno 8010 bound_to 7997
  139.9363  143.6215  152.2516 H   0  0  0  0  0  0  0  0  0  0  0  0  # atno 10167 bound_to 10162
  157.6337  131.0984  150.7044 H   0  0  0  0  0  0  0  0  0  0  0  0  # atno 10718 bound_to 10713
  153.7176  135.6947  153.5021 H   0  0  0  0  0  0  0  0  0  0  0  0  # atno 10763 bound_to 10752
  153.2227  135.4364  155.0506 H   0  0  0  0  0  0  0  0  0  0  0  0  # atno 10764 bound_to 10752
  154.8295  135.3464  154.6710 H   0  0  0  0  0  0  0  0  0  0  0  0  # atno 10765 bound_to 10752
  140.0589  134.9215  157.1150 H   0  0  0  0  0  0  0  0  0  0  0  0  # atno 11005 bound_to 11000
  145.7666  140.9914  143.1172 LP  0  0  0  0  0  0  0  0  0  0  0  0  # atno 17320 bound_to 7965
  144.6881  139.9395  143.7474 LP  0  0  0  0  0  0  0  0  0  0  0  0  # atno 17321 bound_to 7965
  139.6741  144.7659  151.1728 LP  0  0  0  0  0  0  0  0  0  0  0  0  # atno 17342 bound_to 10162
  140.7623  143.5821  150.8884 LP  0  0  0  0  0  0  0  0  0  0  0  0  # atno 17343 bound_to 10162
  156.7379  130.4730  149.5484 LP  0  0  0  0  0  0  0  0  0  0  0  0  # atno 17370 bound_to 10713
  156.1559  130.6341  151.0657 LP  0  0  0  0  0  0  0  0  0  0  0  0  # atno 17371 bound_to 10713
  140.3800  134.2297  155.7171 LP  0  0  0  0  0  0  0  0  0  0  0  0  # atno 17394 bound_to 11000
  141.1964  133.8082  157.0671 LP  0  0  0  0  0  0  0  0  0  0  0  0  # atno 17395 bound_to 11000

$$$$
