AV-unprocessed.smi:1367|AV-procd|sdf|5573|dock1
  -GOLD-   22720 5163D 1   1.00000     0.00000
 Structure written by MMmdl.
 30 30  0  0  0  0  0  0  0  0  1 V2000
  146.2054  143.1273  153.9233 C   0  0  0  0  0  0  0  0  0  0  0  0
  147.1061  141.9131  153.9903 C   0  0  0  0  0  0  0  0  0  0  0  0
  146.5202  140.7582  153.4990 N   0  0  0  0  0  0  0  0  0  0  0  0
  147.2695  139.5951  153.5142 C   0  0  0  0  0  0  0  0  0  0  0  0
  146.5535  138.3772  152.9569 C   0  0  0  0  0  0  0  0  0  0  0  0
  148.5372  139.5819  153.9988 C   0  0  0  0  0  0  0  0  0  0  0  0
  149.3960  138.3174  154.0334 C   0  0  0  0  0  0  0  0  0  0  0  0
  148.9380  137.2295  155.0066 C   0  0  0  0  0  0  0  0  0  0  0  0
  148.8353  137.4822  156.2065 O   0  0  0  0  0  0  0  0  0  0  0  0
  148.6678  136.0262  154.4786 N   0  0  0  0  0  0  0  0  0  0  0  0
  148.2724  134.8441  155.2361 C   0  0  0  0  0  0  0  0  0  0  0  0
  149.2917  133.7011  155.0906 C   0  0  0  0  0  0  0  0  0  0  0  0
  150.4628  134.0949  155.5891 F   0  0  0  0  0  0  0  0  0  0  0  0
  148.8801  132.6270  155.7648 F   0  0  0  0  0  0  0  0  0  0  0  0
  149.4639  133.3743  153.8098 F   0  0  0  0  0  0  0  0  0  0  0  0
  149.1066  140.8478  154.5193 C   0  0  0  0  0  0  0  0  0  0  0  0
  150.2430  140.8982  154.9881 O   0  0  0  0  0  0  0  0  0  0  0  0
  148.3074  142.0014  154.4747 N   0  0  0  0  0  0  0  0  0  0  0  0
  145.5806  140.7227  153.1306 H   0  0  0  0  0  0  0  0  0  0  0  0
  146.7359  144.0248  154.2438 H   0  0  0  0  0  0  0  0  0  0  0  0
  145.3391  142.9929  154.5716 H   0  0  0  0  0  0  0  0  0  0  0  0
  145.8541  143.2864  152.9032 H   0  0  0  0  0  0  0  0  0  0  0  0
  147.0969  137.9715  152.1034 H   0  0  0  0  0  0  0  0  0  0  0  0
  145.5442  138.6225  152.6240 H   0  0  0  0  0  0  0  0  0  0  0  0
  146.4741  137.6002  153.7174 H   0  0  0  0  0  0  0  0  0  0  0  0
  150.4367  138.5572  154.2530 H   0  0  0  0  0  0  0  0  0  0  0  0
  149.4188  137.8919  153.0294 H   0  0  0  0  0  0  0  0  0  0  0  0
  148.7762  135.9118  153.4813 H   0  0  0  0  0  0  0  0  0  0  0  0
  148.1259  135.0939  156.2882 H   0  0  0  0  0  0  0  0  0  0  0  0
  147.3019  134.5185  154.8605 H   0  0  0  0  0  0  0  0  0  0  0  0
  1 20  1  0  0  0  0
  1 21  1  0  0  0  0
  1 22  1  0  0  0  0
  1  2  1  0  0  0  0
  2  3  1  0  0  0  0
  2 18  2  0  0  0  0
  3  4  1  0  0  0  0
  3 19  1  0  0  0  0
  4  6  2  0  0  0  0
  4  5  1  0  0  0  0
  5 23  1  0  0  0  0
  5 24  1  0  0  0  0
  5 25  1  0  0  0  0
  6 16  1  0  0  0  0
  6  7  1  0  0  0  0
  7  8  1  0  0  0  0
  7 26  1  0  0  0  0
  7 27  1  0  0  0  0
  8  9  2  0  0  0  0
  8 10  1  0  0  0  0
 10 11  1  0  0  0  0
 10 28  1  0  0  0  0
 11 12  1  0  0  0  0
 11 29  1  0  0  0  0
 11 30  1  0  0  0  0
 12 13  1  0  0  0  0
 12 14  1  0  0  0  0
 12 15  1  0  0  0  0
 16 17  2  0  0  0  0
 16 18  1  0  0  0  0
M  END
> <s_m_source_file>
AV-unprocessed.smi

> <i_m_source_file_index>
1367

> <i_lp_mmshare_version>
43012

> <i_f3d_flags>
0

> <s_epik_input>
W0NIM11jMW5jKFtDSDNdKWMoYyg9TylbbkhdMSlbQ0gyXUMoPU8pW05IXVtDSDJdQyhGKShGKUY=

> <s_epik_cmdline>
J2VwaWtfcHl0aG9uJywgJy1waCcsICc3LjAnLCAnLXRuJywgJzgnLCAnLW1hJywgJzIwMCcsICctbWV0YWxfYmluZGluZycsICctaW1hZScsICc8aW5maWxlLm1hZT4nLCAnLW9tYWUnLCAnPG91dGZpbGUubWFlPic=

> <r_lp_tautomer_probability>
0.156392

> <r_epik_Ionization_Penalty>
0.0162169

> <r_epik_Ionization_Penalty_Charging>
0.0161253

> <r_epik_Ionization_Penalty_Neutral>
9.15634e-05

> <r_epik_State_Penalty>
1.51104

> <r_epik_Charging_Adjusted_Penalty>
1.52717

> <i_epik_Tot_Q>
0

> <i_epik_Tot_abs_Q>
0

> <r_epik_Metal_State_Penalty>
1.71038

> <b_epik_Metal_Only>
0

> <s_lp_Force_Field>
OPLS_2005

> <r_lp_Energy>
7.37455

> <b_lp_Chiralities_Consistent>
1

> <s_lp_Variant>
AV-unprocessed.smi:1367-2

> <Gold.Version>
5.8.1

> <Gold.Id.Protein>
6NUR|6NUR_protein|mol2

> <Gold.PLP.Fitness>
36.7748

> <Gold.PLP.PLP>
-28.5985

> <Gold.PLP.part.hbond>
-3.3188

> <Gold.PLP.part.metal>
0.0000

> <Gold.PLP.part.buried>
-2.2034

> <Gold.PLP.part.nonpolar>
-24.9743

> <Gold.PLP.part.repulsive>
1.1098

> <Gold.PLP.ligand.clash>
0.0000

> <Gold.PLP.ligand.torsion>
0.0779

> <Gold.PLP.Chemscore.Hbond>
2.7680

> <Gold.PLP.Chemscore.CHOScore>
0.0000

> <Gold.PLP.Chemscore.Metal>
0.0000

> <Gold.Chemscore.Hbonds>
donor molecule, donor type, donor heavy atom, donor atom, acceptor molecule, acceptor atom, score
      L1  H     3    19       P1 10175  1.00
      L1  H    10    28       P1  7948  1.00
      P1  H  7989  7998       L1    17  0.77

> <Gold.PLP.Chemscore.Internal.Correction>
0.0282

> <Gold.Rescore>
     Score         DG    S(hbond)    S(metal)    S(lipo)     H(rot)  DE(clash)    DE(int)     intcor
     13.70     -14.08       2.73        0.00      37.16       1.90       0.36       0.02       ----

> <Gold.Chemscore.Fitness>
13.7004

> <Gold.Chemscore.DG>
-14.0766

> <Gold.Chemscore.ZeroCoef>
-5.4800

> <Gold.Chemscore.Hbond>
2.7258

> <Gold.Chemscore.Metal>
0.0000

> <Gold.Chemscore.Lipo>
37.1643

> <Gold.Chemscore.Internal_Hbond>
0.0000

> <Gold.Chemscore.DEClash>
0.3576

> <Gold.Chemscore.DEInternal>
0.0185

> <Gold.Chemscore.Rot>
1.8968

> <Gold.Chemscore.Internal.Correction>
   9.000000E+99

> <Gold.Chemscore.Hbonds>
donor molecule, donor type, donor heavy atom, donor atom, acceptor molecule, acceptor atom, score
      L1  H     3    19       P1 10175  0.66
      L1  H    10    28       P1  7948  0.99
      P1  H  7989  7998       L1    17  0.53

> <Gold.Chemscore.Hbond.Weighted>
-9.1042

> <Gold.Chemscore.Metal.Weighted>
-0.0000

> <Gold.Chemscore.Lipo.Weighted>
-4.3482

> <Gold.Chemscore.Internal_Hbond.Weighted>
0.0000

> <Gold.Chemscore.DEClash.Weighted>
0.3576

> <Gold.Chemscore.DEInternal.Weighted>
0.0185

> <Gold.Chemscore.Rot.Weighted>
4.8559

> <Gold.Chemscore.Internal.Correction.Weighted>
   9.000000E+99

> <Gold.Protein.RotatedTorsions>
[ 6907 6896 6895 6894 ] final   18.73 input  -60.11 | X-H torsion
[ 7974 7965 7964 7962 ] final -171.82 input  175.53 | X-H torsion
[ 8008 7997 7996 7995 ] final -161.75 input   59.86 | X-H torsion
[ 10167 10162 10161 10158 ] final   83.34 input  -65.29 | X-H torsion
[ 10718 10713 10712 10709 ] final -168.70 input   66.30 | X-H torsion
[ 10763 10752 10751 10750 ] final   -0.56 input  -60.55 | X-H torsion
[ 11005 11000 10999 10996 ] final  153.37 input  -57.11 | X-H torsion

> <Gold.Protein.ActiveResidues>
 VAL166  LYS551  ARG553  GLY616  TRP617  ASP618  TYR619  PRO620  LYS621  CYS622 
 ASP623  PHE694  ASN695  SER759  ASP760  ASP761  ALA762  ILE779  LEU786  VAL792 
 PHE793  MET794  SER795  GLU796  ALA797  LYS798  CYS799  TRP800  GLU811  SER814 

> <Gold.Protein.RotatedAtoms>
  151.8699  135.0493  160.0477 H   0  0  0  0  0  0  0  0  0  0  0  0  # atno 6907 bound_to 6896
  152.2596  133.5281  159.5382 H   0  0  0  0  0  0  0  0  0  0  0  0  # atno 6908 bound_to 6896
  150.7112  134.0764  159.3925 H   0  0  0  0  0  0  0  0  0  0  0  0  # atno 6909 bound_to 6896
  144.7153  140.1865  143.6353 H   0  0  0  0  0  0  0  0  0  0  0  0  # atno 7974 bound_to 7965
  155.7967  140.0886  157.1979 H   0  0  0  0  0  0  0  0  0  0  0  0  # atno 8008 bound_to 7997
  154.3983  140.1480  156.3285 H   0  0  0  0  0  0  0  0  0  0  0  0  # atno 8009 bound_to 7997
  155.8504  140.3435  155.5692 H   0  0  0  0  0  0  0  0  0  0  0  0  # atno 8010 bound_to 7997
  139.9194  144.6222  150.8455 H   0  0  0  0  0  0  0  0  0  0  0  0  # atno 10167 bound_to 10162
  156.7007  130.9195  151.3079 H   0  0  0  0  0  0  0  0  0  0  0  0  # atno 10718 bound_to 10713
  153.3334  135.6976  153.6928 H   0  0  0  0  0  0  0  0  0  0  0  0  # atno 10763 bound_to 10752
  153.5722  135.3514  155.2842 H   0  0  0  0  0  0  0  0  0  0  0  0  # atno 10764 bound_to 10752
  154.8622  135.4275  154.2529 H   0  0  0  0  0  0  0  0  0  0  0  0  # atno 10765 bound_to 10752
  140.1392  134.8750  157.2308 H   0  0  0  0  0  0  0  0  0  0  0  0  # atno 11005 bound_to 11000
  145.8808  139.2322  143.1606 LP  0  0  0  0  0  0  0  0  0  0  0  0  # atno 17320 bound_to 7965
  145.9997  140.8531  143.0025 LP  0  0  0  0  0  0  0  0  0  0  0  0  # atno 17321 bound_to 7965
  140.7666  143.3308  151.2415 LP  0  0  0  0  0  0  0  0  0  0  0  0  # atno 17342 bound_to 10162
  139.6874  143.9750  152.2841 LP  0  0  0  0  0  0  0  0  0  0  0  0  # atno 17343 bound_to 10162
  157.6974  130.9296  150.0684 LP  0  0  0  0  0  0  0  0  0  0  0  0  # atno 17370 bound_to 10713
  156.1730  130.3647  149.9138 LP  0  0  0  0  0  0  0  0  0  0  0  0  # atno 17371 bound_to 10713
  140.2744  134.3423  155.7363 LP  0  0  0  0  0  0  0  0  0  0  0  0  # atno 17394 bound_to 11000
  141.2183  133.7442  156.9271 LP  0  0  0  0  0  0  0  0  0  0  0  0  # atno 17395 bound_to 11000

$$$$
