#       Name:                AV-unprocessed.smi:213
#       Creating user name   scv26
#       Creation time:       Thu Mar 26 20:00:46 2020


#       File generated by GOLD software.
#

@<TRIPOS>MOLECULE
AV-unprocessed.smi:213
    68    71     1
SMALL
NO_CHARGES


@<TRIPOS>ATOM
      1 ****        -4.0978  -2.1883   1.2628 C.3            1 S1                 0.0000
      2 ****        -2.9496  -1.7384   0.3399 C.3            1 S1                 0.0000
      3 ****        -3.4433  -1.4060  -1.0878 C.3            1 S1                 0.0000
      4 ****        -3.9596  -2.5966  -1.8079 N.4            1 S1                 1.0000
      5 ****        -4.8884  -2.2350  -2.9051 C.3            1 S1                 0.0000
      6 ****        -5.4307  -3.4996  -3.5922 C.3            1 S1                 0.0000
      7 ****        -4.3463  -4.2840  -4.0725 O.3            1 S1                 0.0000
      8 ****        -3.4940  -4.7145  -3.0186 C.3            1 S1                 0.0000
      9 ****        -2.8870  -3.4905  -2.3125 C.3            1 S1                 0.0000
     10 ****        -2.2099  -0.6116   0.9259 N.pl3          1 S1                 0.0000
     11 ****        -2.9149   0.6232   1.2644 C.3            1 S1                 0.0000
     12 ****        -0.8627  -0.5141   0.7347 C.ar           1 S1                 0.0000
     13 ****        -0.2716  -1.2547  -0.2430 N.ar           1 S1                 0.0000
     14 ****         1.0436  -1.1758  -0.4613 C.ar           1 S1                 0.0000
     15 ****         1.9499  -0.4323   0.1730 N.ar           1 S1                 0.0000
     16 ****         1.3731   0.3094   1.1605 C.ar           1 S1                 0.0000
     17 ****        -0.0091   0.3305   1.5071 C.ar           1 S1                 0.0000
     18 ****        -0.2063   1.2017   2.5742 N.2            1 S1                 0.0000
     19 ****         0.9825   1.6743   2.8324 C.2            1 S1                 0.0000
     20 ****         1.9891   1.1907   2.0298 N.pl3          1 S1                 0.0000
     21 ****         3.3976   1.5379   2.0931 C.3            1 S1                 0.0000
     22 ****         3.8073   2.5290   0.9869 C.3            1 S1                 0.0000
     23 ****         3.0551   3.7241   1.0856 O.3            1 S1                 0.0000
     24 ****         5.3185   2.8347   0.9899 C.3            1 S1                 0.0000
     25 ****         5.8130   3.8577  -0.0461 C.3            1 S1                 0.0000
     26 ****         6.7829   4.7326   0.7357 C.3            1 S1                 0.0000
     27 ****         7.0015   3.9650   2.0361 C.3            1 S1                 0.0000
     28 ****         5.7541   3.3266   2.2503 O.3            1 S1                 0.0000
     29 ****        -4.5650  -3.1008   0.8920 H              1 S1                 0.0000
     30 ****        -4.8791  -1.4330   1.3458 H              1 S1                 0.0000
     31 ****        -3.7307  -2.3995   2.2679 H              1 S1                 0.0000
     32 ****        -2.2704  -2.5887   0.2951 H              1 S1                 0.0000
     33 ****        -4.2320  -0.6557  -1.0191 H              1 S1                 0.0000
     34 ****        -2.6491  -0.9515  -1.6821 H              1 S1                 0.0000
     35 ****        -5.7195  -1.6490  -2.5105 H              1 S1                 0.0000
     36 ****        -4.3694  -1.6075  -3.6317 H              1 S1                 0.0000
     37 ****        -6.0430  -4.0855  -2.9047 H              1 S1                 0.0000
     38 ****        -6.0685  -3.2260  -4.4329 H              1 S1                 0.0000
     39 ****        -4.0498  -5.3354  -2.3143 H              1 S1                 0.0000
     40 ****        -2.7029  -5.3375  -3.4365 H              1 S1                 0.0000
     41 ****        -2.2492  -2.9413  -3.0069 H              1 S1                 0.0000
     42 ****        -2.2500  -3.8270  -1.4954 H              1 S1                 0.0000
     43 ****        -2.4363   1.4915   0.8098 H              1 S1                 0.0000
     44 ****        -2.9306   0.7629   2.3456 H              1 S1                 0.0000
     45 ****        -3.9474   0.6072   0.9178 H              1 S1                 0.0000
     46 ****         1.4241  -1.7973  -1.2584 H              1 S1                 0.0000
     47 ****         1.1589   2.3936   3.6189 H              1 S1                 0.0000
     48 ****         3.6092   1.9534   3.0792 H              1 S1                 0.0000
     49 ****         3.9787   0.6188   2.0107 H              1 S1                 0.0000
     50 ****         3.5615   2.0883   0.0202 H              1 S1                 0.0000
     51 ****         3.3047   4.2939   0.3744 H              1 S1                 0.0000
     52 ****         5.8571   1.9002   0.8223 H              1 S1                 0.0000
     53 ****         6.3105   3.3509  -0.8737 H              1 S1                 0.0000
     54 ****         5.0114   4.4638  -0.4685 H              1 S1                 0.0000
     55 ****         7.7133   4.9221   0.1993 H              1 S1                 0.0000
     56 ****         6.3169   5.6950   0.9514 H              1 S1                 0.0000
     57 ****         7.7822   3.2118   1.9178 H              1 S1                 0.0000
     58 ****         7.2714   4.6142   2.8692 H              1 S1                 0.0000
     59 ****        -4.5015  -3.1264  -1.1400 H              1 S1                 0.0000
     60 ****        -3.8122  -3.7367  -4.7168 LP             1 S1                 0.0000
     61 ****        -4.7120  -5.0881  -4.5412 LP             1 S1                 0.0000
     62 ****        -0.8295  -1.8656  -0.8048 LP             1 S1                 0.0000
     63 ****         2.9253  -0.4202  -0.0468 LP             1 S1                 0.0000
     64 ****        -1.0654   1.4171   3.0386 LP             1 S1                 0.0000
     65 ****         3.2454   4.1716   1.9594 LP             1 S1                 0.0000
     66 ****         2.0792   3.5148   1.0239 LP             1 S1                 0.0000
     67 ****         5.8614   2.5704   2.8959 LP             1 S1                 0.0000
     68 ****         5.0904   3.9816   2.6116 LP             1 S1                 0.0000
@<TRIPOS>BOND
    1    1    2 1     
    2    1   29 1     
    3    1   30 1     
    4    1   31 1     
    5    2    3 1     
    6    2   10 1     
    7    2   32 1     
    8    3    4 1     
    9    3   33 1     
   10    3   34 1     
   11    4    9 1     
   12    4    5 1     
   13    4   59 1     
   14    5    6 1     
   15    5   35 1     
   16    5   36 1     
   17    6    7 1     
   18    6   37 1     
   19    6   38 1     
   20    7    8 1     
   21    8    9 1     
   22    8   39 1     
   23    8   40 1     
   24    9   41 1     
   25    9   42 1     
   26   10   11 1     
   27   10   12 1     
   28   11   43 1     
   29   11   44 1     
   30   11   45 1     
   31   12   17 ar    
   32   12   13 ar    
   33   13   14 ar    
   34   14   15 ar    
   35   14   46 1     
   36   15   16 ar    
   37   16   20 1     
   38   16   17 ar    
   39   17   18 1     
   40   18   19 2     
   41   19   20 1     
   42   19   47 1     
   43   20   21 1     
   44   21   22 1     
   45   21   48 1     
   46   21   49 1     
   47   22   23 1     
   48   22   24 1     
   49   22   50 1     
   50   23   51 1     
   51   24   28 1     
   52   24   25 1     
   53   24   52 1     
   54   25   26 1     
   55   25   53 1     
   56   25   54 1     
   57   26   27 1     
   58   26   55 1     
   59   26   56 1     
   60   27   28 1     
   61   27   57 1     
   62   27   58 1     
   63    7   60 1     
   64    7   61 1     
   65   13   62 1     
   66   15   63 1     
   67   18   64 1     
   68   23   65 1     
   69   23   66 1     
   70   28   67 1     
   71   28   68 1     
@<TRIPOS>SUBSTRUCTURE
      1 S1             1
@<TRIPOS>SET
LONE_PAIRS      STATIC     ATOMS    <user>   **** ""
9 60 61 62 63 64 65 66 67 68
DONOR_HYDROGENS      STATIC     ATOMS    <user>   **** ""
2 59 51
ATOM$BLUE        STATIC     ATOMS    COLORGROUP SYSTEM
9 60 61 62 63 64 65 66 67 68
ATOM$RED        STATIC     ATOMS    COLORGROUP SYSTEM
2 59 51
