AV-unprocessed.smi:1571|AV-procd|sdf|6326|dock4
  -GOLD-   22720 6533D 1   1.00000     0.00000
 Structure written by MMmdl.
 37 38  0  0  0  0  0  0  0  0  1 V2000
  147.2050  136.9977  163.1206 C   0  0  0  0  0  0  0  0  0  0  0  0
  147.2679  135.6440  162.4731 C   0  0  0  0  0  0  0  0  0  0  0  0
  147.2867  134.5660  163.2383 N   0  0  0  0  0  0  0  0  0  0  0  0
  147.3527  133.4767  162.3648 O   0  0  0  0  0  0  0  0  0  0  0  0
  147.3701  133.9467  161.0921 C   0  0  0  0  0  0  0  0  0  0  0  0
  147.4461  132.9241  160.0092 C   0  0  0  0  0  0  0  0  0  0  0  0
  147.3158  135.3140  161.0872 C   0  0  0  0  0  0  0  0  0  0  0  0
  147.3128  136.2518  159.9037 C   0  0  0  0  0  0  0  0  0  0  0  0
  148.6219  136.1744  159.1078 C   0  0  0  0  0  0  0  0  0  0  0  0
  149.0976  135.0913  158.7635 O   0  0  0  0  0  0  0  0  0  0  0  0
  149.1917  137.3551  158.8206 N   0  0  0  0  0  0  0  0  0  0  0  0
  150.4271  137.5572  158.0675 C   0  0  0  0  0  0  0  0  0  0  0  0
  150.9430  138.9889  158.3091 C   0  0  0  0  0  0  0  0  0  0  0  0
  152.2935  139.2599  157.6311 C   0  0  0  0  0  0  0  0  0  0  0  0
  152.1652  139.0300  155.8099 S   0  0  0  0  0  0  0  0  0  0  0  0
  151.1628  139.9799  155.3030 O   0  0  0  0  0  0  0  0  0  0  0  0
  153.5177  139.0024  155.2334 O   0  0  0  0  0  0  0  0  0  0  0  0
  151.4406  137.3410  155.7223 C   0  0  0  0  0  0  0  0  0  0  0  0
  150.1706  137.2500  156.5793 C   0  0  0  0  0  0  0  0  0  0  0  0
  147.2314  137.7982  162.3818 H   0  0  0  0  0  0  0  0  0  0  0  0
  148.0473  137.1475  163.7962 H   0  0  0  0  0  0  0  0  0  0  0  0
  146.2887  137.1124  163.7001 H   0  0  0  0  0  0  0  0  0  0  0  0
  147.4759  133.3926  159.0258 H   0  0  0  0  0  0  0  0  0  0  0  0
  146.5805  132.2623  160.0420 H   0  0  0  0  0  0  0  0  0  0  0  0
  148.3435  132.3149  160.1175 H   0  0  0  0  0  0  0  0  0  0  0  0
  146.4882  136.0235  159.2279 H   0  0  0  0  0  0  0  0  0  0  0  0
  147.1606  137.2836  160.2218 H   0  0  0  0  0  0  0  0  0  0  0  0
  148.7251  138.1887  159.1480 H   0  0  0  0  0  0  0  0  0  0  0  0
  151.1918  136.8642  158.4231 H   0  0  0  0  0  0  0  0  0  0  0  0
  150.2070  139.7134  157.9579 H   0  0  0  0  0  0  0  0  0  0  0  0
  151.0505  139.1596  159.3810 H   0  0  0  0  0  0  0  0  0  0  0  0
  152.6306  140.2784  157.8234 H   0  0  0  0  0  0  0  0  0  0  0  0
  153.0586  138.5811  158.0078 H   0  0  0  0  0  0  0  0  0  0  0  0
  151.2246  137.1163  154.6777 H   0  0  0  0  0  0  0  0  0  0  0  0
  152.1914  136.6290  156.0655 H   0  0  0  0  0  0  0  0  0  0  0  0
  149.7558  136.2459  156.4826 H   0  0  0  0  0  0  0  0  0  0  0  0
  149.4148  137.9304  156.1845 H   0  0  0  0  0  0  0  0  0  0  0  0
  1  2  1  0  0  0  0
  1 20  1  0  0  0  0
  1 21  1  0  0  0  0
  1 22  1  0  0  0  0
  2  7  1  0  0  0  0
  2  3  2  0  0  0  0
  3  4  1  0  0  0  0
  4  5  1  0  0  0  0
  5  6  1  0  0  0  0
  5  7  2  0  0  0  0
  6 23  1  0  0  0  0
  6 24  1  0  0  0  0
  6 25  1  0  0  0  0
  7  8  1  0  0  0  0
  8  9  1  0  0  0  0
  8 26  1  0  0  0  0
  8 27  1  0  0  0  0
  9 10  2  0  0  0  0
  9 11  1  0  0  0  0
 11 12  1  0  0  0  0
 11 28  1  0  0  0  0
 12 19  1  0  0  0  0
 12 13  1  0  0  0  0
 12 29  1  0  0  0  0
 13 14  1  0  0  0  0
 13 30  1  0  0  0  0
 13 31  1  0  0  0  0
 14 15  1  0  0  0  0
 14 32  1  0  0  0  0
 14 33  1  0  0  0  0
 15 16  2  0  0  0  0
 15 17  2  0  0  0  0
 15 18  1  0  0  0  0
 18 19  1  0  0  0  0
 18 34  1  0  0  0  0
 18 35  1  0  0  0  0
 19 36  1  0  0  0  0
 19 37  1  0  0  0  0
M  END
> <s_m_source_file>
AV-unprocessed.smi

> <i_m_source_file_index>
1571

> <i_lp_mmshare_version>
43012

> <i_f3d_flags>
0

> <s_epik_input>
W0NIM11jMW5vYyhbQ0gzXSljMVtDSDJdQyg9TylbTkhdW0NIXShbQ0gyXVtDSDJdMilbQ0gyXVtDSDJdUzIoPU8pPU8=

> <s_epik_cmdline>
J2VwaWtfcHl0aG9uJywgJy1waCcsICc3LjAnLCAnLXRuJywgJzgnLCAnLW1hJywgJzIwMCcsICctbWV0YWxfYmluZGluZycsICctaW1hZScsICc8aW5maWxlLm1hZT4nLCAnLW9tYWUnLCAnPG91dGZpbGUubWFlPic=

> <r_lp_tautomer_probability>
1

> <r_epik_Ionization_Penalty>
4.0065e-08

> <r_epik_Ionization_Penalty_Charging>
0

> <r_epik_Ionization_Penalty_Neutral>
4.0065e-08

> <r_epik_State_Penalty>
-0

> <r_epik_Charging_Adjusted_Penalty>
0

> <i_epik_Tot_Q>
0

> <i_epik_Tot_abs_Q>
0

> <r_epik_Metal_State_Penalty>
-0

> <b_epik_Metal_Only>
0

> <s_lp_Force_Field>
OPLS_2005

> <r_lp_Energy>
-11.0004

> <b_lp_Chiralities_Consistent>
1

> <s_lp_Variant>
AV-unprocessed.smi:1571-1

> <Gold.Version>
5.8.1

> <Gold.Id.Protein>
6NUR|6NUR_protein|mol2

> <Gold.PLP.Fitness>
39.7922

> <Gold.PLP.PLP>
-31.4182

> <Gold.PLP.part.hbond>
-4.4256

> <Gold.PLP.part.metal>
0.0000

> <Gold.PLP.part.buried>
-6.0242

> <Gold.PLP.part.nonpolar>
-21.6997

> <Gold.PLP.part.repulsive>
0.2540

> <Gold.PLP.ligand.clash>
0.0000

> <Gold.PLP.ligand.torsion>
0.3047

> <Gold.PLP.Chemscore.Hbond>
2.9913

> <Gold.PLP.Chemscore.CHOScore>
0.0000

> <Gold.PLP.Chemscore.Metal>
0.0000

> <Gold.Chemscore.Hbonds>
donor molecule, donor type, donor heavy atom, donor atom, acceptor molecule, acceptor atom, score
      P1  H  6896  6909       L1    10  1.00
      P1  H  7989  7998       L1    16  0.91
      P1  H  7997  8009       L1    17  1.00

> <Gold.PLP.Chemscore.Internal.Correction>
0.0096

> <Gold.Rescore>
     Score         DG    S(hbond)    S(metal)    S(lipo)     H(rot)  DE(clash)    DE(int)     intcor
     17.83     -18.07       2.86        0.00      58.02       1.46       0.02       0.23       ----

> <Gold.Chemscore.Fitness>
17.8276

> <Gold.Chemscore.DG>
-18.0731

> <Gold.Chemscore.ZeroCoef>
-5.4800

> <Gold.Chemscore.Hbond>
2.8570

> <Gold.Chemscore.Metal>
0.0000

> <Gold.Chemscore.Lipo>
58.0213

> <Gold.Chemscore.Internal_Hbond>
0.0000

> <Gold.Chemscore.DEClash>
0.0174

> <Gold.Chemscore.DEInternal>
0.2280

> <Gold.Chemscore.Rot>
1.4601

> <Gold.Chemscore.Internal.Correction>
   9.000000E+99

> <Gold.Chemscore.Hbonds>
donor molecule, donor type, donor heavy atom, donor atom, acceptor molecule, acceptor atom, score
      P1  H  6896  6909       L1    10  0.98
      P1  H  7989  7998       L1    16  0.80
      P1  H  7997  8009       L1    17  0.84

> <Gold.Chemscore.Hbond.Weighted>
-9.5424

> <Gold.Chemscore.Metal.Weighted>
-0.0000

> <Gold.Chemscore.Lipo.Weighted>
-6.7885

> <Gold.Chemscore.Internal_Hbond.Weighted>
0.0000

> <Gold.Chemscore.DEClash.Weighted>
0.0174

> <Gold.Chemscore.DEInternal.Weighted>
0.2280

> <Gold.Chemscore.Rot.Weighted>
3.7379

> <Gold.Chemscore.Internal.Correction.Weighted>
   9.000000E+99

> <Gold.Protein.RotatedTorsions>
[ 6907 6896 6895 6894 ] final   25.32 input  -60.11 | X-H torsion
[ 7974 7965 7964 7962 ] final  -26.52 input  175.53 | X-H torsion
[ 8008 7997 7996 7995 ] final -129.73 input   59.86 | X-H torsion
[ 10167 10162 10161 10158 ] final    9.71 input  -65.29 | X-H torsion
[ 10718 10713 10712 10709 ] final -174.60 input   66.30 | X-H torsion
[ 10763 10752 10751 10750 ] final   74.19 input  -60.55 | X-H torsion
[ 11005 11000 10999 10996 ] final  159.67 input  -57.11 | X-H torsion

> <Gold.Protein.ActiveResidues>
 VAL166  LYS551  ARG553  GLY616  TRP617  ASP618  TYR619  PRO620  LYS621  CYS622 
 ASP623  PHE694  ASN695  SER759  ASP760  ASP761  ALA762  ILE779  LEU786  VAL792 
 PHE793  MET794  SER795  GLU796  ALA797  LYS798  CYS799  TRP800  GLU811  SER814 

> <Gold.Protein.RotatedAtoms>
  151.9708  135.0078  160.0552 H   0  0  0  0  0  0  0  0  0  0  0  0  # atno 6907 bound_to 6896
  152.1785  133.4686  159.4954 H   0  0  0  0  0  0  0  0  0  0  0  0  # atno 6908 bound_to 6896
  150.6913  134.1781  159.4281 H   0  0  0  0  0  0  0  0  0  0  0  0  # atno 6909 bound_to 6896
  146.1420  140.5030  142.8648 H   0  0  0  0  0  0  0  0  0  0  0  0  # atno 7974 bound_to 7965
  155.2840  140.0445  157.3018 H   0  0  0  0  0  0  0  0  0  0  0  0  # atno 8008 bound_to 7997
  154.5580  140.2337  155.8348 H   0  0  0  0  0  0  0  0  0  0  0  0  # atno 8009 bound_to 7997
  156.2023  140.3022  155.9560 H   0  0  0  0  0  0  0  0  0  0  0  0  # atno 8010 bound_to 7997
  140.6239  143.8145  150.7208 H   0  0  0  0  0  0  0  0  0  0  0  0  # atno 10167 bound_to 10162
  156.7874  130.9505  151.3120 H   0  0  0  0  0  0  0  0  0  0  0  0  # atno 10718 bound_to 10713
  153.0570  135.5035  154.8005 H   0  0  0  0  0  0  0  0  0  0  0  0  # atno 10763 bound_to 10752
  154.6823  135.2970  154.9598 H   0  0  0  0  0  0  0  0  0  0  0  0  # atno 10764 bound_to 10752
  154.0380  135.6721  153.4840 H   0  0  0  0  0  0  0  0  0  0  0  0  # atno 10765 bound_to 10752
  140.1984  134.8356  157.2990 H   0  0  0  0  0  0  0  0  0  0  0  0  # atno 11005 bound_to 11000
  144.7803  140.5826  143.6610 LP  0  0  0  0  0  0  0  0  0  0  0  0  # atno 17320 bound_to 7965
  145.5025  139.1482  143.3649 LP  0  0  0  0  0  0  0  0  0  0  0  0  # atno 17321 bound_to 7965
  140.1741  143.4170  152.1980 LP  0  0  0  0  0  0  0  0  0  0  0  0  # atno 17342 bound_to 10162
  139.5462  144.7300  151.4576 LP  0  0  0  0  0  0  0  0  0  0  0  0  # atno 17343 bound_to 10162
  157.6617  130.8972  149.9844 LP  0  0  0  0  0  0  0  0  0  0  0  0  # atno 17370 bound_to 10713
  156.1180  130.3647  149.9935 LP  0  0  0  0  0  0  0  0  0  0  0  0  # atno 17371 bound_to 10713
  140.2081  134.4172  155.7627 LP  0  0  0  0  0  0  0  0  0  0  0  0  # atno 17394 bound_to 11000
  141.2227  133.7105  156.8294 LP  0  0  0  0  0  0  0  0  0  0  0  0  # atno 17395 bound_to 11000

$$$$
