AV-unprocessed.smi:1363|AV-procd|sdf|5564|dock1
  -GOLD-   22720 5153D 1   1.00000     0.00000
 Structure written by MMmdl.
 44 45  0  0  0  0  0  0  0  0  1 V2000
  144.4195  144.0274  158.8338 C   0  0  0  0  0  0  0  0  0  0  0  0
  145.1415  143.3003  157.7192 C   0  0  0  0  0  0  0  0  0  0  0  0
  144.9739  143.5578  156.4638 N   0  0  0  0  0  0  0  0  0  0  0  0
  145.6961  142.8126  155.5212 C   0  0  0  0  0  0  0  0  0  0  0  0
  145.4388  143.1683  154.0668 C   0  0  0  0  0  0  0  0  0  0  0  0
  146.5675  141.8318  155.8994 C   0  0  0  0  0  0  0  0  0  0  0  0
  147.3629  140.9989  154.8949 C   0  0  0  0  0  0  0  0  0  0  0  0
  148.8731  141.2473  154.8737 C   0  0  0  0  0  0  0  0  0  0  0  0
  149.4440  141.5231  153.8181 O   0  0  0  0  0  0  0  0  0  0  0  0
  149.5077  141.1556  156.0521 N   0  0  0  0  0  0  0  0  0  0  0  0
  150.9331  141.3851  156.2548 C   0  0  0  0  0  0  0  0  0  0  0  0
  151.3390  141.1323  157.7203 C   0  0  0  0  0  0  0  0  0  0  0  0
  151.6471  142.3759  158.5482 C   0  0  0  0  0  0  0  0  0  0  0  0
  151.4625  143.6425  158.1178 C   0  0  0  0  0  0  0  0  0  0  0  0
  151.7376  144.8788  158.9564 C   0  0  0  0  0  0  0  0  0  0  0  0
  151.9022  144.5512  160.4490 C   0  0  0  0  0  0  0  0  0  0  0  0
  152.7787  143.3094  160.6452 C   0  0  0  0  0  0  0  0  0  0  0  0
  152.1712  142.0790  159.9486 C   0  0  0  0  0  0  0  0  0  0  0  0
  146.7518  141.5472  157.3358 C   0  0  0  0  0  0  0  0  0  0  0  0
  147.5040  140.6842  157.7856 O   0  0  0  0  0  0  0  0  0  0  0  0
  146.0152  142.3129  158.1717 N   0  0  0  0  0  0  0  0  0  0  0  0
  146.1040  142.1549  159.1649 H   0  0  0  0  0  0  0  0  0  0  0  0
  143.3416  143.9071  158.7230 H   0  0  0  0  0  0  0  0  0  0  0  0
  144.6516  145.0920  158.7990 H   0  0  0  0  0  0  0  0  0  0  0  0
  144.7057  143.6471  159.8154 H   0  0  0  0  0  0  0  0  0  0  0  0
  146.3472  143.5476  153.5988 H   0  0  0  0  0  0  0  0  0  0  0  0
  144.6712  143.9380  153.9775 H   0  0  0  0  0  0  0  0  0  0  0  0
  145.0993  142.2949  153.5101 H   0  0  0  0  0  0  0  0  0  0  0  0
  147.1840  139.9439  155.1059 H   0  0  0  0  0  0  0  0  0  0  0  0
  146.9806  141.1476  153.8846 H   0  0  0  0  0  0  0  0  0  0  0  0
  148.9617  140.9221  156.8691 H   0  0  0  0  0  0  0  0  0  0  0  0
  151.4739  140.7082  155.5929 H   0  0  0  0  0  0  0  0  0  0  0  0
  151.1902  142.4010  155.9495 H   0  0  0  0  0  0  0  0  0  0  0  0
  150.5428  140.5872  158.2287 H   0  0  0  0  0  0  0  0  0  0  0  0
  152.2174  140.4863  157.7425 H   0  0  0  0  0  0  0  0  0  0  0  0
  151.1031  143.8416  157.1199 H   0  0  0  0  0  0  0  0  0  0  0  0
  152.6412  145.3528  158.5717 H   0  0  0  0  0  0  0  0  0  0  0  0
  150.9237  145.5919  158.8224 H   0  0  0  0  0  0  0  0  0  0  0  0
  152.3290  145.4059  160.9742 H   0  0  0  0  0  0  0  0  0  0  0  0
  150.9224  144.3719  160.8940 H   0  0  0  0  0  0  0  0  0  0  0  0
  153.7716  143.5050  160.2380 H   0  0  0  0  0  0  0  0  0  0  0  0
  152.9161  143.1055  161.7074 H   0  0  0  0  0  0  0  0  0  0  0  0
  151.3422  141.6892  160.5403 H   0  0  0  0  0  0  0  0  0  0  0  0
  152.9202  141.2878  159.8985 H   0  0  0  0  0  0  0  0  0  0  0  0
  1  2  1  0  0  0  0
  1 23  1  0  0  0  0
  1 24  1  0  0  0  0
  1 25  1  0  0  0  0
  2 21  1  0  0  0  0
  2  3  2  0  0  0  0
  3  4  1  0  0  0  0
  4  5  1  0  0  0  0
  4  6  2  0  0  0  0
  5 26  1  0  0  0  0
  5 27  1  0  0  0  0
  5 28  1  0  0  0  0
  6  7  1  0  0  0  0
  6 19  1  0  0  0  0
  7  8  1  0  0  0  0
  7 29  1  0  0  0  0
  7 30  1  0  0  0  0
  8  9  2  0  0  0  0
  8 10  1  0  0  0  0
 10 11  1  0  0  0  0
 10 31  1  0  0  0  0
 11 12  1  0  0  0  0
 11 32  1  0  0  0  0
 11 33  1  0  0  0  0
 12 13  1  0  0  0  0
 12 34  1  0  0  0  0
 12 35  1  0  0  0  0
 13 18  1  0  0  0  0
 13 14  2  0  0  0  0
 14 15  1  0  0  0  0
 14 36  1  0  0  0  0
 15 16  1  0  0  0  0
 15 37  1  0  0  0  0
 15 38  1  0  0  0  0
 16 17  1  0  0  0  0
 16 39  1  0  0  0  0
 16 40  1  0  0  0  0
 17 18  1  0  0  0  0
 17 41  1  0  0  0  0
 17 42  1  0  0  0  0
 18 43  1  0  0  0  0
 18 44  1  0  0  0  0
 19 20  2  0  0  0  0
 19 21  1  0  0  0  0
 21 22  1  0  0  0  0
M  END
> <s_m_source_file>
AV-unprocessed.smi

> <i_m_source_file_index>
1363

> <i_lp_mmshare_version>
43012

> <i_f3d_flags>
0

> <s_epik_input>
W0NIM11jMW5jKFtDSDNdKWMoYyg9TylbbkhdMSlbQ0gyXUMoPU8pW05IXVtDSDJdW0NIMl1DMj1bQ0hdW0NIMl1bQ0gyXVtDSDJdW0NIMl0y

> <s_epik_cmdline>
J2VwaWtfcHl0aG9uJywgJy1waCcsICc3LjAnLCAnLXRuJywgJzgnLCAnLW1hJywgJzIwMCcsICctbWV0YWxfYmluZGluZycsICctaW1hZScsICc8aW5maWxlLm1hZT4nLCAnLW9tYWUnLCAnPG91dGZpbGUubWFlPic=

> <r_lp_tautomer_probability>
0.839158

> <r_epik_Ionization_Penalty>
0.000390001

> <r_epik_Ionization_Penalty_Charging>
0.000357609

> <r_epik_Ionization_Penalty_Neutral>
3.23917e-05

> <r_epik_State_Penalty>
0.0470088

> <r_epik_Charging_Adjusted_Penalty>
0.0473664

> <i_epik_Tot_Q>
0

> <i_epik_Tot_abs_Q>
0

> <r_epik_Metal_State_Penalty>
0.223611

> <b_epik_Metal_Only>
0

> <s_lp_Force_Field>
OPLS_2005

> <r_lp_Energy>
9.33337

> <b_lp_Chiralities_Consistent>
1

> <s_lp_Variant>
AV-unprocessed.smi:1363-1

> <Gold.Version>
5.8.1

> <Gold.Id.Protein>
6NUR|6NUR_protein|mol2

> <Gold.PLP.Fitness>
43.0123

> <Gold.PLP.PLP>
-41.2230

> <Gold.PLP.part.hbond>
-2.0000

> <Gold.PLP.part.metal>
0.0000

> <Gold.PLP.part.buried>
-5.7451

> <Gold.PLP.part.nonpolar>
-35.3725

> <Gold.PLP.part.repulsive>
1.5797

> <Gold.PLP.ligand.clash>
0.0000

> <Gold.PLP.ligand.torsion>
0.4935

> <Gold.PLP.Chemscore.Hbond>
0.9217

> <Gold.PLP.Chemscore.CHOScore>
0.0000

> <Gold.PLP.Chemscore.Metal>
0.0000

> <Gold.Chemscore.Hbonds>
donor molecule, donor type, donor heavy atom, donor atom, acceptor molecule, acceptor atom, score
      P1  H  7989  7998       L1     9  0.07
      P1  H  8011  8017       L1     9  0.72

> <Gold.PLP.Chemscore.Internal.Correction>
0.0112

> <Gold.Rescore>
     Score         DG    S(hbond)    S(metal)    S(lipo)     H(rot)  DE(clash)    DE(int)     intcor
     14.18     -16.15       0.99        0.00     103.73       1.86       0.31       1.66       ----

> <Gold.Chemscore.Fitness>
14.1772

> <Gold.Chemscore.DG>
-16.1490

> <Gold.Chemscore.ZeroCoef>
-5.4800

> <Gold.Chemscore.Hbond>
0.9888

> <Gold.Chemscore.Metal>
0.0000

> <Gold.Chemscore.Lipo>
103.7264

> <Gold.Chemscore.Internal_Hbond>
0.0000

> <Gold.Chemscore.DEClash>
0.3114

> <Gold.Chemscore.DEInternal>
1.6604

> <Gold.Chemscore.Rot>
1.8631

> <Gold.Chemscore.Internal.Correction>
   9.000000E+99

> <Gold.Chemscore.Hbonds>
donor molecule, donor type, donor heavy atom, donor atom, acceptor molecule, acceptor atom, score
      P1  H  7989  7998       L1     9  0.07
      P1  H  8011  8017       L1     9  0.72

> <Gold.Chemscore.Hbond.Weighted>
-3.3027

> <Gold.Chemscore.Metal.Weighted>
-0.0000

> <Gold.Chemscore.Lipo.Weighted>
-12.1360

> <Gold.Chemscore.Internal_Hbond.Weighted>
0.0000

> <Gold.Chemscore.DEClash.Weighted>
0.3114

> <Gold.Chemscore.DEInternal.Weighted>
1.6604

> <Gold.Chemscore.Rot.Weighted>
4.7697

> <Gold.Chemscore.Internal.Correction.Weighted>
   9.000000E+99

> <Gold.Protein.RotatedTorsions>
[ 6907 6896 6895 6894 ] final  111.10 input  -60.11 | X-H torsion
[ 7974 7965 7964 7962 ] final  -85.52 input  175.53 | X-H torsion
[ 8008 7997 7996 7995 ] final    0.94 input   59.86 | X-H torsion
[ 10167 10162 10161 10158 ] final -176.68 input  -65.29 | X-H torsion
[ 10718 10713 10712 10709 ] final  167.75 input   66.30 | X-H torsion
[ 10763 10752 10751 10750 ] final   36.62 input  -60.55 | X-H torsion
[ 11005 11000 10999 10996 ] final   -6.57 input  -57.11 | X-H torsion

> <Gold.Protein.ActiveResidues>
 VAL166  LYS551  ARG553  GLY616  TRP617  ASP618  TYR619  PRO620  LYS621  CYS622 
 ASP623  PHE694  ASN695  SER759  ASP760  ASP761  ALA762  ILE779  LEU786  VAL792 
 PHE793  MET794  SER795  GLU796  ALA797  LYS798  CYS799  TRP800  GLU811  SER814 

> <Gold.Protein.RotatedAtoms>
  152.4987  133.8706  159.7296 H   0  0  0  0  0  0  0  0  0  0  0  0  # atno 6907 bound_to 6896
  150.9194  133.6890  159.2842 H   0  0  0  0  0  0  0  0  0  0  0  0  # atno 6908 bound_to 6896
  151.4272  135.1009  159.9684 H   0  0  0  0  0  0  0  0  0  0  0  0  # atno 6909 bound_to 6896
  145.4921  140.9552  143.1806 H   0  0  0  0  0  0  0  0  0  0  0  0  # atno 7974 bound_to 7965
  154.6739  140.2618  155.6978 H   0  0  0  0  0  0  0  0  0  0  0  0  # atno 8008 bound_to 7997
  156.2670  140.2823  156.1181 H   0  0  0  0  0  0  0  0  0  0  0  0  # atno 8009 bound_to 7997
  155.1128  140.0376  157.2719 H   0  0  0  0  0  0  0  0  0  0  0  0  # atno 8010 bound_to 7997
  139.5517  144.2091  152.1089 H   0  0  0  0  0  0  0  0  0  0  0  0  # atno 10167 bound_to 10162
  157.0471  131.0303  151.2694 H   0  0  0  0  0  0  0  0  0  0  0  0  # atno 10718 bound_to 10713
  153.0069  135.6300  154.2015 H   0  0  0  0  0  0  0  0  0  0  0  0  # atno 10763 bound_to 10752
  154.1758  135.2816  155.3069 H   0  0  0  0  0  0  0  0  0  0  0  0  # atno 10764 bound_to 10752
  154.5873  135.5629  153.7303 H   0  0  0  0  0  0  0  0  0  0  0  0  # atno 10765 bound_to 10752
  140.7034  133.8970  155.8699 H   0  0  0  0  0  0  0  0  0  0  0  0  # atno 11005 bound_to 11000
  144.7828  139.6491  143.7147 LP  0  0  0  0  0  0  0  0  0  0  0  0  # atno 17320 bound_to 7965
  146.2277  139.5755  142.9576 LP  0  0  0  0  0  0  0  0  0  0  0  0  # atno 17321 bound_to 7965
  140.1588  144.5045  150.6644 LP  0  0  0  0  0  0  0  0  0  0  0  0  # atno 17342 bound_to 10162
  140.6781  143.2314  151.5454 LP  0  0  0  0  0  0  0  0  0  0  0  0  # atno 17343 bound_to 10162
  157.5059  130.7909  149.7654 LP  0  0  0  0  0  0  0  0  0  0  0  0  # atno 17370 bound_to 10713
  156.0019  130.3875  150.2572 LP  0  0  0  0  0  0  0  0  0  0  0  0  # atno 17371 bound_to 10713
  141.0144  134.0975  157.4187 LP  0  0  0  0  0  0  0  0  0  0  0  0  # atno 17394 bound_to 11000
  139.8890  135.0102  156.6656 LP  0  0  0  0  0  0  0  0  0  0  0  0  # atno 17395 bound_to 11000

$$$$
