#       Name:                AV-unprocessed.smi:1941
#       Creating user name   scv26
#       Creation time:       Fri Mar 27 09:58:52 2020


#       File generated by GOLD software.
#

@<TRIPOS>MOLECULE
AV-unprocessed.smi:1941
    45    46     1
SMALL
NO_CHARGES


@<TRIPOS>ATOM
      1 ****        -6.8836   1.6483   0.6130 C.3            1 S1                 0.0000
      2 ****        -5.9478   1.3515  -0.5079 C.2            1 S1                 0.0000
      3 ****        -4.6193   1.3244  -0.3738 N.2            1 S1                 0.0000
      4 ****        -3.9629   1.0246  -1.5716 C.2            1 S1                 0.0000
      5 ****        -2.4664   0.9530  -1.6065 C.3            1 S1                 0.0000
      6 ****        -1.9334  -0.3718  -1.0364 C.3            1 S1                 0.0000
      7 ****        -0.4789  -0.4422  -1.1161 N.am           1 S1                 0.0000
      8 ****         0.3659   0.1174  -0.2392 C.2            1 S1                 0.0000
      9 ****         0.0078   0.7476   0.7557 O.2            1 S1                 0.0000
     10 ****         1.6449  -0.0921  -0.5826 N.am           1 S1                 0.0000
     11 ****         2.8176   0.3883   0.1463 C.3            1 S1                 0.0000
     12 ****         3.6708   1.2522  -0.7935 C.3            1 S1                 0.0000
     13 ****         3.6130  -0.8037   0.7131 C.3            1 S1                 0.0000
     14 ****         2.8324  -1.6975   1.6778 C.3            1 S1                 0.0000
     15 ****         3.9203  -2.3464   2.5185 C.3            1 S1                 0.0000
     16 ****         5.1527  -1.4696   2.2761 C.3            1 S1                 0.0000
     17 ****         4.6808  -0.3544   1.5326 O.3            1 S1                 0.0000
     18 ****        -4.8222   0.8192  -2.6223 C.2            1 S1                 0.0000
     19 ****        -6.4880   0.9967  -2.1441 S.3            1 S1                 0.0000
     20 ****        -6.3449   2.0754   1.4596 H              1 S1                 0.0000
     21 ****        -7.3772   0.7324   0.9377 H              1 S1                 0.0000
     22 ****        -7.6423   2.3602   0.2877 H              1 S1                 0.0000
     23 ****        -2.1141   1.0734  -2.6317 H              1 S1                 0.0000
     24 ****        -2.0464   1.7901  -1.0474 H              1 S1                 0.0000
     25 ****        -2.2599  -0.5052  -0.0033 H              1 S1                 0.0000
     26 ****        -2.3430  -1.2093  -1.6018 H              1 S1                 0.0000
     27 ****        -0.0891  -0.9439  -1.9007 H              1 S1                 0.0000
     28 ****         1.8255  -0.6264  -1.4196 H              1 S1                 0.0000
     29 ****         2.5083   1.0180   0.9825 H              1 S1                 0.0000
     30 ****         4.5471   1.6459  -0.2782 H              1 S1                 0.0000
     31 ****         3.1017   2.1040  -1.1674 H              1 S1                 0.0000
     32 ****         4.0201   0.6801  -1.6536 H              1 S1                 0.0000
     33 ****         4.0228  -1.4079  -0.0989 H              1 S1                 0.0000
     34 ****         2.1914  -1.0889   2.3175 H              1 S1                 0.0000
     35 ****         2.2019  -2.4243   1.1652 H              1 S1                 0.0000
     36 ****         3.6391  -2.3713   3.5716 H              1 S1                 0.0000
     37 ****         4.1122  -3.3706   2.1969 H              1 S1                 0.0000
     38 ****         5.6256  -1.1472   3.2041 H              1 S1                 0.0000
     39 ****         5.8957  -2.0066   1.6850 H              1 S1                 0.0000
     40 ****        -4.5775   0.5750  -3.6454 H              1 S1                 0.0000
     41 ****        -4.1455   1.4995   0.4893 LP             1 S1                 0.0000
     42 ****        -0.9662   0.8665   0.9485 LP             1 S1                 0.0000
     43 ****         0.6909   1.1407   1.3712 LP             1 S1                 0.0000
     44 ****         4.3561   0.3576   2.1552 LP             1 S1                 0.0000
     45 ****         5.4168   0.0114   0.9629 LP             1 S1                 0.0000
@<TRIPOS>BOND
    1    1    2 1     
    2    1   20 1     
    3    1   21 1     
    4    1   22 1     
    5    2   19 1     
    6    2    3 2     
    7    3    4 1     
    8    4    5 1     
    9    4   18 2     
   10    5    6 1     
   11    5   23 1     
   12    5   24 1     
   13    6    7 1     
   14    6   25 1     
   15    6   26 1     
   16    7    8 am    
   17    7   27 1     
   18    8    9 2     
   19    8   10 am    
   20   10   11 1     
   21   10   28 1     
   22   11   12 1     
   23   11   13 1     
   24   11   29 1     
   25   12   30 1     
   26   12   31 1     
   27   12   32 1     
   28   13   17 1     
   29   13   14 1     
   30   13   33 1     
   31   14   15 1     
   32   14   34 1     
   33   14   35 1     
   34   15   16 1     
   35   15   36 1     
   36   15   37 1     
   37   16   17 1     
   38   16   38 1     
   39   16   39 1     
   40   18   19 1     
   41   18   40 1     
   42    3   41 1     
   43    9   42 1     
   44    9   43 1     
   45   17   44 1     
   46   17   45 1     
@<TRIPOS>SUBSTRUCTURE
      1 S1             1
@<TRIPOS>SET
LONE_PAIRS      STATIC     ATOMS    <user>   **** ""
5 41 42 43 44 45
DONOR_HYDROGENS      STATIC     ATOMS    <user>   **** ""
2 27 28
ATOM$BLUE        STATIC     ATOMS    COLORGROUP SYSTEM
5 41 42 43 44 45
ATOM$RED        STATIC     ATOMS    COLORGROUP SYSTEM
2 27 28
