AV-unprocessed.smi:2993|AV-procd|sdf|11402|dock4
  -GOLD-   2272016323D 1   1.00000     0.00000
 Structure written by MMmdl.
 34 35  0  0  0  0  0  0  0  0  1 V2000
  151.4219  136.9498  156.1026 C   0  0  0  0  0  0  0  0  0  0  0  0
  151.1852  138.4059  155.8203 C   0  0  0  0  0  0  0  0  0  0  0  0
  151.0185  138.8038  154.5702 N   0  0  0  0  0  0  0  0  0  0  0  0
  150.8214  140.1866  154.6309 O   0  0  0  0  0  0  0  0  0  0  0  0
  150.8795  140.5723  155.9308 C   0  0  0  0  0  0  0  0  0  0  0  0
  150.6879  142.0265  156.2010 C   0  0  0  0  0  0  0  0  0  0  0  0
  151.1104  139.4925  156.7392 C   0  0  0  0  0  0  0  0  0  0  0  0
  151.2502  139.4509  158.2393 C   0  0  0  0  0  0  0  0  0  0  0  0
  152.4190  140.3368  158.6701 C   0  0  0  0  0  0  0  0  0  0  0  0
  153.5740  139.9244  158.5682 O   0  0  0  0  0  0  0  0  0  0  0  0
  152.1013  141.5471  159.1555 N   0  0  0  0  0  0  0  0  0  0  0  0
  153.0488  142.5422  159.6449 C   0  0  2  0  0  0  0  0  0  0  0  0
  153.0754  142.4770  161.1783 C   0  0  0  0  0  0  0  0  0  0  0  0
  152.7455  143.9526  159.1680 C   0  0  0  0  0  0  0  0  0  0  0  0
  151.3411  144.5095  159.1972 C   0  0  0  0  0  0  0  0  0  0  0  0
  152.0018  144.1927  157.8755 C   0  0  0  0  0  0  0  0  0  0  0  0
  151.1723  136.6991  157.1334 H   0  0  0  0  0  0  0  0  0  0  0  0
  152.4671  136.6861  155.9410 H   0  0  0  0  0  0  0  0  0  0  0  0
  150.8143  136.3158  155.4560 H   0  0  0  0  0  0  0  0  0  0  0  0
  150.4715  142.2059  157.2540 H   0  0  0  0  0  0  0  0  0  0  0  0
  149.8580  142.4231  155.6161 H   0  0  0  0  0  0  0  0  0  0  0  0
  151.5852  142.5875  155.9408 H   0  0  0  0  0  0  0  0  0  0  0  0
  150.3418  139.7976  158.7330 H   0  0  0  0  0  0  0  0  0  0  0  0
  151.4158  138.4340  158.5972 H   0  0  0  0  0  0  0  0  0  0  0  0
  151.1234  141.7943  159.1983 H   0  0  0  0  0  0  0  0  0  0  0  0
  154.0460  142.2724  159.2915 H   0  0  0  0  0  0  0  0  0  0  0  0
  153.8158  143.1645  161.5883 H   0  0  0  0  0  0  0  0  0  0  0  0
  153.3312  141.4756  161.5263 H   0  0  0  0  0  0  0  0  0  0  0  0
  152.1064  142.7404  161.6038 H   0  0  0  0  0  0  0  0  0  0  0  0
  153.5419  144.6628  159.3841 H   0  0  0  0  0  0  0  0  0  0  0  0
  150.5385  143.8517  159.5245 H   0  0  0  0  0  0  0  0  0  0  0  0
  151.2222  145.5576  159.4635 H   0  0  0  0  0  0  0  0  0  0  0  0
  152.3237  145.0299  157.2599 H   0  0  0  0  0  0  0  0  0  0  0  0
  151.6385  143.3243  157.3293 H   0  0  0  0  0  0  0  0  0  0  0  0
  1  2  1  0  0  0  0
  1 17  1  0  0  0  0
  1 18  1  0  0  0  0
  1 19  1  0  0  0  0
  2  7  1  0  0  0  0
  2  3  2  0  0  0  0
  3  4  1  0  0  0  0
  4  5  1  0  0  0  0
  5  6  1  0  0  0  0
  5  7  2  0  0  0  0
  6 20  1  0  0  0  0
  6 21  1  0  0  0  0
  6 22  1  0  0  0  0
  7  8  1  0  0  0  0
  8  9  1  0  0  0  0
  8 23  1  0  0  0  0
  8 24  1  0  0  0  0
  9 10  2  0  0  0  0
  9 11  1  0  0  0  0
 11 12  1  0  0  0  0
 11 25  1  0  0  0  0
 12 13  1  0  0  0  0
 12 14  1  0  0  0  0
 12 26  1  0  0  0  0
 13 27  1  0  0  0  0
 13 28  1  0  0  0  0
 13 29  1  0  0  0  0
 14 16  1  0  0  0  0
 14 15  1  0  0  0  0
 14 30  1  0  0  0  0
 15 16  1  0  0  0  0
 15 31  1  0  0  0  0
 15 32  1  0  0  0  0
 16 33  1  0  0  0  0
 16 34  1  0  0  0  0
M  END
> <s_m_source_file>
AV-unprocessed.smi

> <i_m_source_file_index>
2993

> <i_lp_mmshare_version>
43012

> <i_f3d_flags>
0

> <s_epik_input>
W0NIM11jMW5vYyhbQ0gzXSljMVtDSDJdQyg9TylbTkhdW0NASF0oW0NIM10pW0NIXTJbQ0gyXVtDSDJdMg==

> <s_epik_cmdline>
J2VwaWtfcHl0aG9uJywgJy1waCcsICc3LjAnLCAnLXRuJywgJzgnLCAnLW1hJywgJzIwMCcsICctbWV0YWxfYmluZGluZycsICctaW1hZScsICc8aW5maWxlLm1hZT4nLCAnLW9tYWUnLCAnPG91dGZpbGUubWFlPic=

> <r_lp_tautomer_probability>
1

> <r_epik_Ionization_Penalty>
1.92533e-08

> <r_epik_Ionization_Penalty_Charging>
0

> <r_epik_Ionization_Penalty_Neutral>
1.92533e-08

> <r_epik_State_Penalty>
-0

> <r_epik_Charging_Adjusted_Penalty>
0

> <i_epik_Tot_Q>
0

> <i_epik_Tot_abs_Q>
0

> <r_epik_Metal_State_Penalty>
-0

> <b_epik_Metal_Only>
0

> <s_lp_Force_Field>
OPLS_2005

> <r_lp_Energy>
6.61094

> <b_lp_Chiralities_Consistent>
1

> <s_lp_Variant>
AV-unprocessed.smi:2993-1

> <Gold.Version>
5.8.1

> <Gold.Id.Protein>
6NUR|6NUR_protein|mol2

> <Gold.PLP.Fitness>
40.8703

> <Gold.PLP.PLP>
-35.9078

> <Gold.PLP.part.hbond>
-2.0000

> <Gold.PLP.part.metal>
0.0000

> <Gold.PLP.part.buried>
-5.2482

> <Gold.PLP.part.nonpolar>
-29.4186

> <Gold.PLP.part.repulsive>
0.3365

> <Gold.PLP.ligand.clash>
0.0000

> <Gold.PLP.ligand.torsion>
1.0539

> <Gold.PLP.Chemscore.Hbond>
2.0000

> <Gold.PLP.Chemscore.CHOScore>
0.0000

> <Gold.PLP.Chemscore.Metal>
0.0000

> <Gold.Chemscore.Hbonds>
donor molecule, donor type, donor heavy atom, donor atom, acceptor molecule, acceptor atom, score
      P1  H  7989  7998       L1     4  1.00
      P1  H  7997  8008       L1    10  1.00

> <Gold.PLP.Chemscore.Internal.Correction>
1.0704

> <Gold.Rescore>
     Score         DG    S(hbond)    S(metal)    S(lipo)     H(rot)  DE(clash)    DE(int)     intcor
     18.18     -19.29       1.88        0.00      96.15       1.46       0.02       1.08       ----

> <Gold.Chemscore.Fitness>
18.1782

> <Gold.Chemscore.DG>
-19.2852

> <Gold.Chemscore.ZeroCoef>
-5.4800

> <Gold.Chemscore.Hbond>
1.8829

> <Gold.Chemscore.Metal>
0.0000

> <Gold.Chemscore.Lipo>
96.1529

> <Gold.Chemscore.Internal_Hbond>
0.0000

> <Gold.Chemscore.DEClash>
0.0234

> <Gold.Chemscore.DEInternal>
1.0836

> <Gold.Chemscore.Rot>
1.4584

> <Gold.Chemscore.Internal.Correction>
   9.000000E+99

> <Gold.Chemscore.Hbonds>
donor molecule, donor type, donor heavy atom, donor atom, acceptor molecule, acceptor atom, score
      P1  H  7989  7998       L1     4  0.66
      P1  H  7997  8008       L1    10  0.98

> <Gold.Chemscore.Hbond.Weighted>
-6.2888

> <Gold.Chemscore.Metal.Weighted>
-0.0000

> <Gold.Chemscore.Lipo.Weighted>
-11.2499

> <Gold.Chemscore.Internal_Hbond.Weighted>
0.0000

> <Gold.Chemscore.DEClash.Weighted>
0.0234

> <Gold.Chemscore.DEInternal.Weighted>
1.0836

> <Gold.Chemscore.Rot.Weighted>
3.7334

> <Gold.Chemscore.Internal.Correction.Weighted>
   9.000000E+99

> <Gold.Protein.RotatedTorsions>
[ 6907 6896 6895 6894 ] final  -12.80 input  -60.11 | X-H torsion
[ 7974 7965 7964 7962 ] final    0.03 input  175.53 | X-H torsion
[ 8008 7997 7996 7995 ] final -101.16 input   59.86 | X-H torsion
[ 10167 10162 10161 10158 ] final -108.54 input  -65.29 | X-H torsion
[ 10718 10713 10712 10709 ] final  148.87 input   66.30 | X-H torsion
[ 10763 10752 10751 10750 ] final -108.93 input  -60.55 | X-H torsion
[ 11005 11000 10999 10996 ] final    6.37 input  -57.11 | X-H torsion

> <Gold.Protein.ActiveResidues>
 VAL166  LYS551  ARG553  GLY616  TRP617  ASP618  TYR619  PRO620  LYS621  CYS622 
 ASP623  PHE694  ASN695  SER759  ASP760  ASP761  ALA762  ILE779  LEU786  VAL792 
 PHE793  MET794  SER795  GLU796  ALA797  LYS798  CYS799  TRP800  GLU811  SER814 

> <Gold.Protein.RotatedAtoms>
  151.3648  135.0911  159.9446 H   0  0  0  0  0  0  0  0  0  0  0  0  # atno 6907 bound_to 6896
  152.5152  133.9222  159.7550 H   0  0  0  0  0  0  0  0  0  0  0  0  # atno 6908 bound_to 6896
  150.9624  133.6376  159.2781 H   0  0  0  0  0  0  0  0  0  0  0  0  # atno 6909 bound_to 6896
  146.2431  140.1200  142.8341 H   0  0  0  0  0  0  0  0  0  0  0  0  # atno 7974 bound_to 7965
  154.8387  140.0436  157.1526 H   0  0  0  0  0  0  0  0  0  0  0  0  # atno 8008 bound_to 7997
  154.9071  140.3008  155.5266 H   0  0  0  0  0  0  0  0  0  0  0  0  # atno 8009 bound_to 7997
  156.2991  140.2365  156.4106 H   0  0  0  0  0  0  0  0  0  0  0  0  # atno 8010 bound_to 7997
  140.1650  143.4089  152.1397 H   0  0  0  0  0  0  0  0  0  0  0  0  # atno 10167 bound_to 10162
  157.3033  131.0874  151.1373 H   0  0  0  0  0  0  0  0  0  0  0  0  # atno 10718 bound_to 10713
  154.8164  135.4620  154.0655 H   0  0  0  0  0  0  0  0  0  0  0  0  # atno 10763 bound_to 10752
  153.2045  135.6873  153.8197 H   0  0  0  0  0  0  0  0  0  0  0  0  # atno 10764 bound_to 10752
  153.7670  135.3276  155.3323 H   0  0  0  0  0  0  0  0  0  0  0  0  # atno 10765 bound_to 10752
  140.5602  134.0199  155.7969 H   0  0  0  0  0  0  0  0  0  0  0  0  # atno 11005 bound_to 11000
  145.0414  140.8948  143.5050 LP  0  0  0  0  0  0  0  0  0  0  0  0  # atno 17320 bound_to 7965
  145.1281  139.2649  143.5553 LP  0  0  0  0  0  0  0  0  0  0  0  0  # atno 17321 bound_to 7965
  139.5363  144.7213  151.4881 LP  0  0  0  0  0  0  0  0  0  0  0  0  # atno 17342 bound_to 10162
  140.6618  143.8481  150.6897 LP  0  0  0  0  0  0  0  0  0  0  0  0  # atno 17343 bound_to 10162
  157.2724  130.6711  149.6026 LP  0  0  0  0  0  0  0  0  0  0  0  0  # atno 17370 bound_to 10713
  155.9673  130.4475  150.5582 LP  0  0  0  0  0  0  0  0  0  0  0  0  # atno 17371 bound_to 10713
  141.1119  133.9603  157.2895 LP  0  0  0  0  0  0  0  0  0  0  0  0  # atno 17394 bound_to 11000
  139.9411  135.0191  156.8712 LP  0  0  0  0  0  0  0  0  0  0  0  0  # atno 17395 bound_to 11000

$$$$
