AV-unprocessed.smi:72|AV-procd|sdf|672|dock3
  -GOLD-   2262016573D 1   1.00000     0.00000
 Structure written by MMmdl.
 29 30  0  0  0  0  0  0  0  0  1 V2000
  146.2233  142.0456  153.6448 N   0  0  0  0  0  0  0  0  0  0  0  0
  147.2124  141.2579  153.8762 C   0  0  0  0  0  0  0  0  0  0  0  0
  147.2426  139.8865  153.5853 N   0  0  0  0  0  0  0  0  0  0  0  0
  148.3245  139.2192  153.8436 C   0  0  0  0  0  0  0  0  0  0  0  0
  149.5255  139.8504  154.3800 N   0  0  0  0  0  0  0  0  0  0  0  0
  150.7840  139.0673  154.7352 C   0  0  1  0  0  0  0  0  0  0  0  0
  151.0024  139.1847  156.1051 O   0  0  0  0  0  0  0  0  0  0  0  0
  150.4107  138.0708  156.7559 C   0  0  2  0  0  0  0  0  0  0  0  0
  151.0054  137.8835  158.1636 C   0  0  0  0  0  0  0  0  0  0  0  0
  150.6431  136.6429  158.7350 O   0  0  0  0  0  0  0  0  0  0  0  0
  150.5573  136.8921  155.7746 C   0  0  1  0  0  0  0  0  0  0  0  0
  149.3861  136.1006  155.7963 O   0  0  0  0  0  0  0  0  0  0  0  0
  150.7293  137.5593  154.4037 C   0  0  2  0  0  0  0  0  0  0  0  0
  151.9346  137.1319  153.8018 O   0  0  0  0  0  0  0  0  0  0  0  0
  149.4723  141.2158  154.7626 C   0  0  0  0  0  0  0  0  0  0  0  0
  150.4117  141.7886  155.3144 O   0  0  0  0  0  0  0  0  0  0  0  0
  148.3228  141.8643  154.4753 N   0  0  0  0  0  0  0  0  0  0  0  0
  151.5871  139.5586  154.1836 H   0  0  0  0  0  0  0  0  0  0  0  0
  149.3544  138.3196  156.8727 H   0  0  0  0  0  0  0  0  0  0  0  0
  151.4173  136.2660  156.0145 H   0  0  0  0  0  0  0  0  0  0  0  0
  149.9309  137.3326  153.6977 H   0  0  0  0  0  0  0  0  0  0  0  0
  145.4612  141.5426  153.2139 H   0  0  0  0  0  0  0  0  0  0  0  0
  148.3914  138.1447  153.6804 H   0  0  0  0  0  0  0  0  0  0  0  0
  152.0919  137.9673  158.1339 H   0  0  0  0  0  0  0  0  0  0  0  0
  150.6428  138.6733  158.8222 H   0  0  0  0  0  0  0  0  0  0  0  0
  150.0635  136.1943  158.1383 H   0  0  0  0  0  0  0  0  0  0  0  0
  148.6491  136.6644  155.9755 H   0  0  0  0  0  0  0  0  0  0  0  0
  151.7697  136.9593  152.8874 H   0  0  0  0  0  0  0  0  0  0  0  0
  148.2677  142.8420  154.7199 H   0  0  0  0  0  0  0  0  0  0  0  0
  1  2  2  0  0  0  0
  1 22  1  0  0  0  0
  2 17  1  0  0  0  0
  2  3  1  0  0  0  0
  3  4  2  0  0  0  0
  4  5  1  0  0  0  0
  4 23  1  0  0  0  0
  5  6  1  0  0  0  0
  5 15  1  0  0  0  0
  6 18  1  0  0  0  0
  6 13  1  0  0  0  0
  6  7  1  0  0  0  0
  7  8  1  0  0  0  0
  8 19  1  0  0  0  0
  8  9  1  0  0  0  0
  8 11  1  0  0  0  0
  9 10  1  0  0  0  0
  9 24  1  0  0  0  0
  9 25  1  0  0  0  0
 10 26  1  0  0  0  0
 11 20  1  0  0  0  0
 11 12  1  0  0  0  0
 11 13  1  0  0  0  0
 12 27  1  0  0  0  0
 13 21  1  0  0  0  0
 13 14  1  0  0  0  0
 14 28  1  0  0  0  0
 15 16  2  0  0  0  0
 15 17  1  0  0  0  0
 17 29  1  0  0  0  0
M  END
> <s_m_source_file>
AV-unprocessed.smi

> <i_m_source_file_index>
72

> <i_lp_mmshare_version>
43012

> <i_f3d_flags>
0

> <s_epik_input>
W05IMl1jMW5bY0hdbihjKD1PKW4xKVtDQEBIXTJPW0NASF0oW0NIMl1bT0hdKVtDQEBIXShbT0hdKVtDQEhdMltPSF0=

> <s_epik_cmdline>
J2VwaWtfcHl0aG9uJywgJy1waCcsICc3LjAnLCAnLXRuJywgJzgnLCAnLW1hJywgJzIwMCcsICctbWV0YWxfYmluZGluZycsICctaW1hZScsICc8aW5maWxlLm1hZT4nLCAnLW9tYWUnLCAnPG91dGZpbGUubWFlPic=

> <r_lp_tautomer_probability>
7.17554e-07

> <r_epik_Ionization_Penalty>
0.0066451

> <r_epik_Ionization_Penalty_Charging>
0.00663793

> <r_epik_Ionization_Penalty_Neutral>
7.17052e-06

> <r_epik_State_Penalty>
0.419231

> <r_epik_Charging_Adjusted_Penalty>
0.425868

> <i_epik_Tot_Q>
0

> <i_epik_Tot_abs_Q>
0

> <r_epik_Metal_State_Penalty>
1.44144

> <b_epik_Metal_Only>
0

> <s_epik_Chemistry_Notes>
This compound contains an acetal/aminal-like group ( X-CH(R)-Y where X, Y are N, S, or O) that may be acid/base labile, releasing an aldehyde.

> <s_lp_Force_Field>
OPLS_2005

> <r_lp_Energy>
39.4446

> <b_lp_Chiralities_Consistent>
1

> <s_lp_Variant>
AV-unprocessed.smi:72-10

> <Gold.Version>
5.8.1

> <Gold.Id.Protein>
6NUR|6NUR_protein|mol2

> <Gold.PLP.Fitness>
38.1387

> <Gold.PLP.PLP>
-24.3666

> <Gold.PLP.part.hbond>
-4.7138

> <Gold.PLP.part.metal>
0.0000

> <Gold.PLP.part.buried>
-3.5513

> <Gold.PLP.part.nonpolar>
-17.3061

> <Gold.PLP.part.repulsive>
0.4748

> <Gold.PLP.ligand.clash>
0.0000

> <Gold.PLP.ligand.torsion>
0.1141

> <Gold.PLP.Chemscore.Hbond>
3.8506

> <Gold.PLP.Chemscore.CHOScore>
0.7901

> <Gold.PLP.Chemscore.Metal>
0.0000

> <Gold.Chemscore.Hbonds>
donor molecule, donor type, donor heavy atom, donor atom, acceptor molecule, acceptor atom, score
      L1  H     1    22       P1 10175  0.38
      L1  H    14    28       P1  7949  1.00
      L1  H    17    29       P1  8028  0.67
      P1  H  6896  6909       L1    10  0.36
      P1  H  7989  7998       L1    16  0.01
      P1  H 10752 10765       L1    14  0.90
      L1  C     4    23       P1  7948  0.61

> <Gold.PLP.Chemscore.Internal.Correction>
0.0784

> <Gold.Rescore>
     Score         DG    S(hbond)    S(metal)    S(lipo)     H(rot)  DE(clash)    DE(int)     intcor
      6.45      -8.47       3.40        0.00      17.35       4.06       0.50       1.52       ----

> <Gold.Chemscore.Fitness>
6.4477

> <Gold.Chemscore.DG>
-8.4691

> <Gold.Chemscore.ZeroCoef>
-5.4800

> <Gold.Chemscore.Hbond>
3.3990

> <Gold.Chemscore.Metal>
0.0000

> <Gold.Chemscore.Lipo>
17.3520

> <Gold.Chemscore.Internal_Hbond>
0.0000

> <Gold.Chemscore.DEClash>
0.5036

> <Gold.Chemscore.DEInternal>
1.5179

> <Gold.Chemscore.Rot>
4.0600

> <Gold.Chemscore.Internal.Correction>
   9.000000E+99

> <Gold.Chemscore.Hbonds>
donor molecule, donor type, donor heavy atom, donor atom, acceptor molecule, acceptor atom, score
      L1  H     1    22       P1 10175  0.03
      L1  H    14    28       P1  7949  0.98
      L1  H    17    29       P1  8028  0.66
      P1  H  6896  6909       L1    10  0.01
      P1  H 10752 10765       L1    14  0.18

> <Gold.Chemscore.Hbond.Weighted>
-11.3525

> <Gold.Chemscore.Metal.Weighted>
-0.0000

> <Gold.Chemscore.Lipo.Weighted>
-2.0302

> <Gold.Chemscore.Internal_Hbond.Weighted>
0.0000

> <Gold.Chemscore.DEClash.Weighted>
0.5036

> <Gold.Chemscore.DEInternal.Weighted>
1.5179

> <Gold.Chemscore.Rot.Weighted>
10.3936

> <Gold.Chemscore.Internal.Correction.Weighted>
   9.000000E+99

> <Gold.Protein.RotatedTorsions>
[ 6907 6896 6895 6894 ] final   72.10 input  -60.11 | X-H torsion
[ 7974 7965 7964 7962 ] final  -75.99 input  175.53 | X-H torsion
[ 8008 7997 7996 7995 ] final  168.56 input   59.86 | X-H torsion
[ 10167 10162 10161 10158 ] final  -78.38 input  -65.29 | X-H torsion
[ 10718 10713 10712 10709 ] final -107.69 input   66.30 | X-H torsion
[ 10763 10752 10751 10750 ] final  152.84 input  -60.55 | X-H torsion
[ 11005 11000 10999 10996 ] final  118.43 input  -57.11 | X-H torsion

> <Gold.Protein.ActiveResidues>
 VAL166  LYS551  ARG553  GLY616  TRP617  ASP618  TYR619  PRO620  LYS621  CYS622 
 ASP623  PHE694  ASN695  SER759  ASP760  ASP761  ALA762  ILE779  LEU786  VAL792 
 PHE793  MET794  SER795  GLU796  ALA797  LYS798  CYS799  TRP800  GLU811  SER814 

> <Gold.Protein.RotatedAtoms>
  152.4849  134.4621  159.9608 H   0  0  0  0  0  0  0  0  0  0  0  0  # atno 6907 bound_to 6896
  151.4619  133.3584  159.2818 H   0  0  0  0  0  0  0  0  0  0  0  0  # atno 6908 bound_to 6896
  150.8950  134.8383  159.7381 H   0  0  0  0  0  0  0  0  0  0  0  0  # atno 6909 bound_to 6896
  145.6187  140.9368  143.1150 H   0  0  0  0  0  0  0  0  0  0  0  0  # atno 7974 bound_to 7965
  156.1536  140.1587  156.8729 H   0  0  0  0  0  0  0  0  0  0  0  0  # atno 8008 bound_to 7997
  154.5094  140.0805  156.7996 H   0  0  0  0  0  0  0  0  0  0  0  0  # atno 8009 bound_to 7997
  155.3847  140.3407  155.4250 H   0  0  0  0  0  0  0  0  0  0  0  0  # atno 8010 bound_to 7997
  140.4687  143.2433  151.8238 H   0  0  0  0  0  0  0  0  0  0  0  0  # atno 10167 bound_to 10162
  156.0449  130.5675  150.7857 H   0  0  0  0  0  0  0  0  0  0  0  0  # atno 10718 bound_to 10713
  154.1266  135.2829  155.3195 H   0  0  0  0  0  0  0  0  0  0  0  0  # atno 10763 bound_to 10752
  154.6385  135.5410  153.7765 H   0  0  0  0  0  0  0  0  0  0  0  0  # atno 10764 bound_to 10752
  153.0295  135.6480  154.1418 H   0  0  0  0  0  0  0  0  0  0  0  0  # atno 10765 bound_to 10752
  139.9109  134.9620  156.7502 H   0  0  0  0  0  0  0  0  0  0  0  0  # atno 11005 bound_to 11000
  144.7240  139.7937  143.7372 LP  0  0  0  0  0  0  0  0  0  0  0  0  # atno 17320 bound_to 7965
  146.1448  139.4514  143.0086 LP  0  0  0  0  0  0  0  0  0  0  0  0  # atno 17321 bound_to 7965
  139.4815  144.4919  151.9174 LP  0  0  0  0  0  0  0  0  0  0  0  0  # atno 17342 bound_to 10162
  140.4004  144.2501  150.5893 LP  0  0  0  0  0  0  0  0  0  0  0  0  # atno 17343 bound_to 10162
  157.5312  131.0936  150.9953 LP  0  0  0  0  0  0  0  0  0  0  0  0  # atno 17370 bound_to 10713
  157.0259  130.5692  149.5337 LP  0  0  0  0  0  0  0  0  0  0  0  0  # atno 17371 bound_to 10713
  140.6780  133.9500  155.7894 LP  0  0  0  0  0  0  0  0  0  0  0  0  # atno 17394 bound_to 11000
  141.0531  134.0456  157.3758 LP  0  0  0  0  0  0  0  0  0  0  0  0  # atno 17395 bound_to 11000

$$$$
