AV-unprocessed.smi:2785|AV-procd|sdf|10747|dock3
  -GOLD-   2272015183D 1   1.00000     0.00000
 Structure written by MMmdl.
 37 38  0  0  0  0  0  0  0  0  1 V2000
  146.4897  131.8006  152.1731 C   0  0  0  0  0  0  0  0  0  0  0  0
  145.1582  132.4074  151.6945 C   0  0  0  0  0  0  0  0  0  0  0  0
  144.8344  132.0056  150.2468 C   0  0  0  0  0  0  0  0  0  0  0  0
  145.1164  133.8694  151.8377 N   0  0  0  0  0  0  0  0  0  0  0  0
  144.8634  134.7566  150.7137 C   0  0  0  0  0  0  0  0  0  0  0  0
  144.6527  136.1380  151.3412 C   0  0  0  0  0  0  0  0  0  0  0  0
  145.1806  136.0546  152.7826 C   0  0  2  0  0  0  0  0  0  0  0  0
  146.4916  136.6940  152.8698 N   0  0  0  0  0  0  0  0  0  0  0  0
  146.7961  137.7293  153.6664 C   0  0  0  0  0  0  0  0  0  0  0  0
  145.9795  138.2814  154.4041 O   0  0  0  0  0  0  0  0  0  0  0  0
  148.0925  138.0669  153.5491 N   0  0  0  0  0  0  0  0  0  0  0  0
  148.7976  139.0942  154.2307 C   0  0  0  0  0  0  0  0  0  0  0  0
  150.1220  138.7664  154.6002 C   0  0  0  0  0  0  0  0  0  0  0  0
  150.9067  139.7166  155.2826 C   0  0  0  0  0  0  0  0  0  0  0  0
  150.3444  140.9714  155.5765 C   0  0  0  0  0  0  0  0  0  0  0  0
  151.0599  141.9167  156.2308 F   0  0  0  0  0  0  0  0  0  0  0  0
  149.0193  141.2189  155.1732 C   0  0  0  0  0  0  0  0  0  0  0  0
  148.2662  140.3089  154.5192 N   0  0  0  0  0  0  0  0  0  0  0  0
  145.3222  134.5458  152.9763 C   0  0  0  0  0  0  0  0  0  0  0  0
  145.5769  134.0444  154.0712 O   0  0  0  0  0  0  0  0  0  0  0  0
  146.4518  130.7114  152.1396 H   0  0  0  0  0  0  0  0  0  0  0  0
  146.7061  132.0865  153.2030 H   0  0  0  0  0  0  0  0  0  0  0  0
  147.3282  132.1150  151.5510 H   0  0  0  0  0  0  0  0  0  0  0  0
  144.3801  131.9869  152.3346 H   0  0  0  0  0  0  0  0  0  0  0  0
  144.8207  130.9212  150.1353 H   0  0  0  0  0  0  0  0  0  0  0  0
  145.5746  132.4023  149.5511 H   0  0  0  0  0  0  0  0  0  0  0  0
  143.8564  132.3785  149.9414 H   0  0  0  0  0  0  0  0  0  0  0  0
  145.7307  134.7659  150.0523 H   0  0  0  0  0  0  0  0  0  0  0  0
  143.9927  134.4398  150.1382 H   0  0  0  0  0  0  0  0  0  0  0  0
  145.1234  136.9286  150.7549 H   0  0  0  0  0  0  0  0  0  0  0  0
  143.5848  136.3600  151.3667 H   0  0  0  0  0  0  0  0  0  0  0  0
  144.4696  136.4819  153.4919 H   0  0  0  0  0  0  0  0  0  0  0  0
  147.2251  136.3021  152.2979 H   0  0  0  0  0  0  0  0  0  0  0  0
  148.6416  137.5190  152.9036 H   0  0  0  0  0  0  0  0  0  0  0  0
  150.5366  137.7965  154.3662 H   0  0  0  0  0  0  0  0  0  0  0  0
  151.9205  139.4857  155.5745 H   0  0  0  0  0  0  0  0  0  0  0  0
  148.5514  142.1702  155.3799 H   0  0  0  0  0  0  0  0  0  0  0  0
  1  2  1  0  0  0  0
  1 21  1  0  0  0  0
  1 22  1  0  0  0  0
  1 23  1  0  0  0  0
  2  3  1  0  0  0  0
  2  4  1  0  0  0  0
  2 24  1  0  0  0  0
  3 25  1  0  0  0  0
  3 26  1  0  0  0  0
  3 27  1  0  0  0  0
  4 19  1  0  0  0  0
  4  5  1  0  0  0  0
  5  6  1  0  0  0  0
  5 28  1  0  0  0  0
  5 29  1  0  0  0  0
  6  7  1  0  0  0  0
  6 30  1  0  0  0  0
  6 31  1  0  0  0  0
  7  8  1  0  0  0  0
  7 19  1  0  0  0  0
  7 32  1  0  0  0  0
  8  9  1  0  0  0  0
  8 33  1  0  0  0  0
  9 10  2  0  0  0  0
  9 11  1  0  0  0  0
 11 12  1  0  0  0  0
 11 34  1  0  0  0  0
 12 18  1  0  0  0  0
 12 13  2  0  0  0  0
 13 14  1  0  0  0  0
 13 35  1  0  0  0  0
 14 15  2  0  0  0  0
 14 36  1  0  0  0  0
 15 16  1  0  0  0  0
 15 17  1  0  0  0  0
 17 18  2  0  0  0  0
 17 37  1  0  0  0  0
 19 20  2  0  0  0  0
M  END
> <s_m_source_file>
AV-unprocessed.smi

> <i_m_source_file_index>
2785

> <i_lp_mmshare_version>
43012

> <i_f3d_flags>
0

> <s_epik_input>
W0NIM11bQ0hdKFtDSDNdKU4xW0NIMl1bQ0gyXVtDQEhdKEMxPU8pW05IXUMoPU8pW05IXWMyW2NIXVtjSF1jKEYpW2NIXW4y

> <s_epik_cmdline>
J2VwaWtfcHl0aG9uJywgJy1waCcsICc3LjAnLCAnLXRuJywgJzgnLCAnLW1hJywgJzIwMCcsICctbWV0YWxfYmluZGluZycsICctaW1hZScsICc8aW5maWxlLm1hZT4nLCAnLW9tYWUnLCAnPG91dGZpbGUubWFlPic=

> <r_lp_tautomer_probability>
1

> <r_epik_Ionization_Penalty>
3.20266e-05

> <r_epik_Ionization_Penalty_Charging>
0

> <r_epik_Ionization_Penalty_Neutral>
3.20266e-05

> <r_epik_State_Penalty>
-0

> <r_epik_Charging_Adjusted_Penalty>
0

> <i_epik_Tot_Q>
0

> <i_epik_Tot_abs_Q>
0

> <r_epik_Metal_State_Penalty>
-0

> <b_epik_Metal_Only>
0

> <s_lp_Force_Field>
OPLS_2005

> <r_lp_Energy>
23.5858

> <b_lp_Chiralities_Consistent>
1

> <s_lp_Variant>
AV-unprocessed.smi:2785-2

> <Gold.Version>
5.8.1

> <Gold.Id.Protein>
6NUR|6NUR_protein|mol2

> <Gold.PLP.Fitness>
39.4977

> <Gold.PLP.PLP>
-31.0873

> <Gold.PLP.part.hbond>
-2.0000

> <Gold.PLP.part.metal>
0.0000

> <Gold.PLP.part.buried>
-2.6618

> <Gold.PLP.part.nonpolar>
-26.1551

> <Gold.PLP.part.repulsive>
0.3224

> <Gold.PLP.ligand.clash>
0.0000

> <Gold.PLP.ligand.torsion>
0.3335

> <Gold.PLP.Chemscore.Hbond>
2.0000

> <Gold.PLP.Chemscore.CHOScore>
1.0000

> <Gold.PLP.Chemscore.Metal>
0.0000

> <Gold.Chemscore.Hbonds>
donor molecule, donor type, donor heavy atom, donor atom, acceptor molecule, acceptor atom, score
      L1  H     8    33       P1  7948  1.00
      L1  H    11    34       P1  7948  1.00
      L1  C    17    37       P1  8028  0.89

> <Gold.PLP.Chemscore.Internal.Correction>
0.0774

> <Gold.Rescore>
     Score         DG    S(hbond)    S(metal)    S(lipo)     H(rot)  DE(clash)    DE(int)     intcor
     15.14     -16.33       1.96        0.00      65.10       1.29       0.14       1.05       ----

> <Gold.Chemscore.Fitness>
15.1403

> <Gold.Chemscore.DG>
-16.3326

> <Gold.Chemscore.ZeroCoef>
-5.4800

> <Gold.Chemscore.Hbond>
1.9555

> <Gold.Chemscore.Metal>
0.0000

> <Gold.Chemscore.Lipo>
65.1031

> <Gold.Chemscore.Internal_Hbond>
0.0000

> <Gold.Chemscore.DEClash>
0.1404

> <Gold.Chemscore.DEInternal>
1.0519

> <Gold.Chemscore.Rot>
1.2875

> <Gold.Chemscore.Internal.Correction>
   9.000000E+99

> <Gold.Chemscore.Hbonds>
donor molecule, donor type, donor heavy atom, donor atom, acceptor molecule, acceptor atom, score
      L1  H     8    33       P1  7948  0.94
      L1  H    11    34       P1  7948  0.99

> <Gold.Chemscore.Hbond.Weighted>
-6.5314

> <Gold.Chemscore.Metal.Weighted>
-0.0000

> <Gold.Chemscore.Lipo.Weighted>
-7.6171

> <Gold.Chemscore.Internal_Hbond.Weighted>
0.0000

> <Gold.Chemscore.DEClash.Weighted>
0.1404

> <Gold.Chemscore.DEInternal.Weighted>
1.0519

> <Gold.Chemscore.Rot.Weighted>
3.2959

> <Gold.Chemscore.Internal.Correction.Weighted>
   9.000000E+99

> <Gold.Protein.RotatedTorsions>
[ 6907 6896 6895 6894 ] final  124.50 input  -60.11 | X-H torsion
[ 7974 7965 7964 7962 ] final -177.40 input  175.53 | X-H torsion
[ 8008 7997 7996 7995 ] final -147.53 input   59.86 | X-H torsion
[ 10167 10162 10161 10158 ] final -173.50 input  -65.29 | X-H torsion
[ 10718 10713 10712 10709 ] final   30.78 input   66.30 | X-H torsion
[ 10763 10752 10751 10750 ] final  -65.01 input  -60.55 | X-H torsion
[ 11005 11000 10999 10996 ] final   35.17 input  -57.11 | X-H torsion

> <Gold.Protein.ActiveResidues>
 VAL166  LYS551  ARG553  GLY616  TRP617  ASP618  TYR619  PRO620  LYS621  CYS622 
 ASP623  PHE694  ASN695  SER759  ASP760  ASP761  ALA762  ILE779  LEU786  VAL792 
 PHE793  MET794  SER795  GLU796  ALA797  LYS798  CYS799  TRP800  GLU811  SER814 

> <Gold.Protein.RotatedAtoms>
  152.4072  133.6908  159.6366 H   0  0  0  0  0  0  0  0  0  0  0  0  # atno 6907 bound_to 6896
  150.7956  133.8687  159.3261 H   0  0  0  0  0  0  0  0  0  0  0  0  # atno 6908 bound_to 6896
  151.6439  135.1011  160.0198 H   0  0  0  0  0  0  0  0  0  0  0  0  # atno 6909 bound_to 6896
  144.7127  140.1026  143.6415 H   0  0  0  0  0  0  0  0  0  0  0  0  # atno 7974 bound_to 7965
  155.5770  140.0639  157.2792 H   0  0  0  0  0  0  0  0  0  0  0  0  # atno 8008 bound_to 7997
  154.4344  140.1859  156.0984 H   0  0  0  0  0  0  0  0  0  0  0  0  # atno 8009 bound_to 7997
  156.0333  140.3304  155.7167 H   0  0  0  0  0  0  0  0  0  0  0  0  # atno 8010 bound_to 7997
  139.5685  144.1698  152.1349 H   0  0  0  0  0  0  0  0  0  0  0  0  # atno 10167 bound_to 10162
  157.2641  130.7175  149.6469 H   0  0  0  0  0  0  0  0  0  0  0  0  # atno 10718 bound_to 10713
  154.3386  135.6161  153.5585 H   0  0  0  0  0  0  0  0  0  0  0  0  # atno 10763 bound_to 10752
  152.9806  135.5764  154.4879 H   0  0  0  0  0  0  0  0  0  0  0  0  # atno 10764 bound_to 10752
  154.4579  135.2855  155.1711 H   0  0  0  0  0  0  0  0  0  0  0  0  # atno 10765 bound_to 10752
  140.2454  134.3366  155.7910 H   0  0  0  0  0  0  0  0  0  0  0  0  # atno 11005 bound_to 11000
  145.9525  139.2743  143.1204 LP  0  0  0  0  0  0  0  0  0  0  0  0  # atno 17320 bound_to 7965
  145.9308  140.9050  143.0357 LP  0  0  0  0  0  0  0  0  0  0  0  0  # atno 17321 bound_to 7965
  140.1226  144.5360  150.6853 LP  0  0  0  0  0  0  0  0  0  0  0  0  # atno 17342 bound_to 10162
  140.6969  143.2409  151.4975 LP  0  0  0  0  0  0  0  0  0  0  0  0  # atno 17343 bound_to 10162
  155.9663  130.4388  150.5233 LP  0  0  0  0  0  0  0  0  0  0  0  0  # atno 17370 bound_to 10713
  157.3144  131.0670  151.1978 LP  0  0  0  0  0  0  0  0  0  0  0  0  # atno 17371 bound_to 10713
  141.2206  133.7322  156.8952 LP  0  0  0  0  0  0  0  0  0  0  0  0  # atno 17394 bound_to 11000
  140.1611  134.9165  157.2716 LP  0  0  0  0  0  0  0  0  0  0  0  0  # atno 17395 bound_to 11000

$$$$
