AV-unprocessed.smi:1033|AV-procd|sdf|4491|dock9
  -GOLD-   22720 2473D 1   1.00000     0.00000
 Structure written by MMmdl.
 56 58  0  0  0  0  0  0  0  0  2 V2000
  152.4744  143.7565  160.4765 C   0  0  0  0  0  0  0  0  0  0  0  0
  151.8238  142.9000  159.4043 C   0  0  0  0  0  0  0  0  0  0  0  0
  152.5371  141.8000  158.8773 C   0  0  0  0  0  0  0  0  0  0  0  0
  151.9681  140.9784  157.8799 C   0  0  0  0  0  0  0  0  0  0  0  0
  152.4806  139.8698  157.2283 N   0  0  0  0  0  0  0  0  0  0  0  0
  151.4793  139.5503  156.4141 C   0  0  0  0  0  0  0  0  0  0  0  0
  150.3801  140.3274  156.4542 N   0  0  0  0  0  0  0  0  0  0  0  0
  149.1790  140.1782  155.6529 C   0  0  0  0  0  0  0  0  0  0  0  0
  149.0665  141.2554  154.5564 C   0  0  1  0  0  0  0  0  0  0  0  0
  149.8767  140.8531  153.4705 O   0  0  0  0  0  0  0  0  0  0  0  0
  147.6234  141.4718  154.0492 C   0  0  0  0  0  0  0  0  0  0  0  0
  146.8897  142.4966  154.8338 N   0  3  0  0  0  0  0  0  0  0  0  0
  146.3421  141.9825  156.1185 C   0  0  0  0  0  0  0  0  0  0  0  0
  145.6437  143.1194  156.8903 C   0  0  0  0  0  0  0  0  0  0  0  0
  144.5667  143.7537  156.1299 N   0  0  0  0  0  0  0  0  0  0  0  0
  143.3741  142.9216  155.9231 C   0  0  0  0  0  0  0  0  0  0  0  0
  142.1847  143.6102  155.2167 C   0  0  2  0  0  0  0  0  0  0  0  0
  141.2934  144.4254  156.1695 C   0  0  0  0  0  0  0  0  0  0  0  0
  141.3580  142.6066  154.6640 O   0  0  0  0  0  0  0  0  0  0  0  0
  145.1257  144.2557  154.8744 C   0  0  0  0  0  0  0  0  0  0  0  0
  145.8258  143.1630  154.0384 C   0  0  0  0  0  0  0  0  0  0  0  0
  150.6548  141.2897  157.4206 C   0  0  0  0  0  0  0  0  0  0  0  0
  149.9348  142.3815  157.9373 C   0  0  0  0  0  0  0  0  0  0  0  0
  150.5183  143.1918  158.9337 C   0  0  0  0  0  0  0  0  0  0  0  0
  149.7326  144.3674  159.4875 C   0  0  0  0  0  0  0  0  0  0  0  0
  153.4896  143.4223  160.6920 H   0  0  0  0  0  0  0  0  0  0  0  0
  151.9019  143.7071  161.4031 H   0  0  0  0  0  0  0  0  0  0  0  0
  152.5269  144.7972  160.1564 H   0  0  0  0  0  0  0  0  0  0  0  0
  153.5312  141.5771  159.2365 H   0  0  0  0  0  0  0  0  0  0  0  0
  151.5510  138.7062  155.7436 H   0  0  0  0  0  0  0  0  0  0  0  0
  149.1917  139.1832  155.2057 H   0  0  0  0  0  0  0  0  0  0  0  0
  148.3119  140.2105  156.3140 H   0  0  0  0  0  0  0  0  0  0  0  0
  149.4748  142.1855  154.9502 H   0  0  0  0  0  0  0  0  0  0  0  0
  149.3863  140.2508  152.9314 H   0  0  0  0  0  0  0  0  0  0  0  0
  147.6668  141.7691  153.0001 H   0  0  0  0  0  0  0  0  0  0  0  0
  147.0509  140.5441  154.0760 H   0  0  0  0  0  0  0  0  0  0  0  0
  145.6510  141.1600  155.9295 H   0  0  0  0  0  0  0  0  0  0  0  0
  147.1431  141.5793  156.7365 H   0  0  0  0  0  0  0  0  0  0  0  0
  145.2739  142.7633  157.8501 H   0  0  0  0  0  0  0  0  0  0  0  0
  146.3888  143.8760  157.1407 H   0  0  0  0  0  0  0  0  0  0  0  0
  143.6801  142.0750  155.3061 H   0  0  0  0  0  0  0  0  0  0  0  0
  143.0357  142.4781  156.8593 H   0  0  0  0  0  0  0  0  0  0  0  0
  142.5363  144.2354  154.3949 H   0  0  0  0  0  0  0  0  0  0  0  0
  141.8318  145.2459  156.6399 H   0  0  0  0  0  0  0  0  0  0  0  0
  140.8913  143.8001  156.9675 H   0  0  0  0  0  0  0  0  0  0  0  0
  140.4481  144.8610  155.6355 H   0  0  0  0  0  0  0  0  0  0  0  0
  141.7839  142.2532  153.8977 H   0  0  0  0  0  0  0  0  0  0  0  0
  144.3424  144.7304  154.2823 H   0  0  0  0  0  0  0  0  0  0  0  0
  145.8460  145.0442  155.0967 H   0  0  0  0  0  0  0  0  0  0  0  0
  146.2680  143.6198  153.1524 H   0  0  0  0  0  0  0  0  0  0  0  0
  145.1085  142.4221  153.6831 H   0  0  0  0  0  0  0  0  0  0  0  0
  148.9414  142.5943  157.5711 H   0  0  0  0  0  0  0  0  0  0  0  0
  148.7376  144.4252  159.0456 H   0  0  0  0  0  0  0  0  0  0  0  0
  150.2483  145.3046  159.2764 H   0  0  0  0  0  0  0  0  0  0  0  0
  149.6130  144.2730  160.5670 H   0  0  0  0  0  0  0  0  0  0  0  0
  147.5604  143.2158  155.0655 H   0  0  0  0  0  0  0  0  0  0  0  0
  1  2  1  0  0  0  0
  1 26  1  0  0  0  0
  1 27  1  0  0  0  0
  1 28  1  0  0  0  0
  2 24  1  0  0  0  0
  2  3  2  0  0  0  0
  3  4  1  0  0  0  0
  3 29  1  0  0  0  0
  4 22  2  0  0  0  0
  4  5  1  0  0  0  0
  5  6  2  0  0  0  0
  6  7  1  0  0  0  0
  6 30  1  0  0  0  0
  7  8  1  0  0  0  0
  7 22  1  0  0  0  0
  8  9  1  0  0  0  0
  8 31  1  0  0  0  0
  8 32  1  0  0  0  0
  9 10  1  0  0  0  0
  9 11  1  0  0  0  0
  9 33  1  0  0  0  0
 10 34  1  0  0  0  0
 11 12  1  0  0  0  0
 11 35  1  0  0  0  0
 11 36  1  0  0  0  0
 12 21  1  0  0  0  0
 12 13  1  0  0  0  0
 12 56  1  0  0  0  0
 13 14  1  0  0  0  0
 13 37  1  0  0  0  0
 13 38  1  0  0  0  0
 14 15  1  0  0  0  0
 14 39  1  0  0  0  0
 14 40  1  0  0  0  0
 15 16  1  0  0  0  0
 15 20  1  0  0  0  0
 16 17  1  0  0  0  0
 16 41  1  0  0  0  0
 16 42  1  0  0  0  0
 17 18  1  0  0  0  0
 17 19  1  0  0  0  0
 17 43  1  0  0  0  0
 18 44  1  0  0  0  0
 18 45  1  0  0  0  0
 18 46  1  0  0  0  0
 19 47  1  0  0  0  0
 20 21  1  0  0  0  0
 20 48  1  0  0  0  0
 20 49  1  0  0  0  0
 21 50  1  0  0  0  0
 21 51  1  0  0  0  0
 22 23  1  0  0  0  0
 23 24  2  0  0  0  0
 23 52  1  0  0  0  0
 24 25  1  0  0  0  0
 25 53  1  0  0  0  0
 25 54  1  0  0  0  0
 25 55  1  0  0  0  0
M  CHG  1  12   1
M  END
> <s_m_source_file>
AV-unprocessed.smi

> <i_m_source_file_index>
1033

> <i_lp_mmshare_version>
43012

> <i_f3d_flags>
0

> <s_epik_input>
W0NIM11jKFtjSF0xKWMoW0NIM10pW2NIXWMoYzEyKW4oW2NIXW4yKVtDSDJdW0NASF0oW09IXSlbQ0gyXU4zW0NIMl1bQ0gyXU4oW0NIMl1bQ0gyXTMpW0NIMl1bQ0BIXShbQ0gzXSlbT0hd

> <s_epik_cmdline>
J2VwaWtfcHl0aG9uJywgJy1waCcsICc3LjAnLCAnLXRuJywgJzgnLCAnLW1hJywgJzIwMCcsICctbWV0YWxfYmluZGluZycsICctaW1hZScsICc8aW5maWxlLm1hZT4nLCAnLW9tYWUnLCAnPG91dGZpbGUubWFlPic=

> <r_epik_Ionization_Penalty>
0.131893

> <r_epik_Ionization_Penalty_Charging>
0.00208556

> <r_epik_Ionization_Penalty_Neutral>
0.129808

> <r_epik_State_Penalty>
0.452125

> <r_epik_Charging_Adjusted_Penalty>
0.454211

> <i_epik_Tot_Q>
1

> <i_epik_Tot_abs_Q>
1

> <r_epik_Metal_State_Penalty>
0.376389

> <b_epik_Metal_Only>
0

> <s_lp_Force_Field>
OPLS_2005

> <r_lp_Energy>
35.7629

> <b_lp_Chiralities_Consistent>
1

> <s_lp_Variant>
AV-unprocessed.smi:1033-2

> <Gold.Version>
5.8.1

> <Gold.Id.Protein>
6NUR|6NUR_protein|mol2

> <Gold.PLP.Fitness>
55.0976

> <Gold.PLP.PLP>
-40.1260

> <Gold.PLP.part.hbond>
-5.1272

> <Gold.PLP.part.metal>
0.0000

> <Gold.PLP.part.buried>
-6.3528

> <Gold.PLP.part.nonpolar>
-29.0627

> <Gold.PLP.part.repulsive>
0.1976

> <Gold.PLP.ligand.clash>
0.0000

> <Gold.PLP.ligand.torsion>
1.2198

> <Gold.PLP.Chemscore.Hbond>
5.7840

> <Gold.PLP.Chemscore.CHOScore>
0.0000

> <Gold.PLP.Chemscore.Metal>
0.0000

> <Gold.Chemscore.Hbonds>
donor molecule, donor type, donor heavy atom, donor atom, acceptor molecule, acceptor atom, score
      L1  H    10    34       P1  7957  0.50
      L1  H    12    56       P1  8028  1.92
      L1  H    19    47       P1 10174  1.00
      P1  H  7989  7998       L1    10  0.32
      P1  H  7997  8008       L1     5  1.00
      P1  H  8011  8017       L1    10  0.95

> <Gold.PLP.Chemscore.Internal.Correction>
0.0592

> <Gold.Rescore>
     Score         DG    S(hbond)    S(metal)    S(lipo)     H(rot)  DE(clash)    DE(int)     intcor
     18.02     -20.53       3.14        0.00     105.97       3.07       1.22       1.29       ----

> <Gold.Chemscore.Fitness>
18.0215

> <Gold.Chemscore.DG>
-20.5281

> <Gold.Chemscore.ZeroCoef>
-5.4800

> <Gold.Chemscore.Hbond>
3.1426

> <Gold.Chemscore.Metal>
0.0000

> <Gold.Chemscore.Lipo>
105.9677

> <Gold.Chemscore.Internal_Hbond>
0.0000

> <Gold.Chemscore.DEClash>
1.2189

> <Gold.Chemscore.DEInternal>
1.2877

> <Gold.Chemscore.Rot>
3.0650

> <Gold.Chemscore.Internal.Correction>
   9.000000E+99

> <Gold.Chemscore.Hbonds>
donor molecule, donor type, donor heavy atom, donor atom, acceptor molecule, acceptor atom, score
      L1  H    10    34       P1  7957  0.50
      L1  H    12    56       P1  8028  0.31
      L1  H    19    47       P1 10174  0.84
      P1  H  7989  7998       L1    10  0.32
      P1  H  7997  8008       L1     5  0.83
      P1  H  8011  8017       L1    10  0.07

> <Gold.Chemscore.Hbond.Weighted>
-10.4963

> <Gold.Chemscore.Metal.Weighted>
-0.0000

> <Gold.Chemscore.Lipo.Weighted>
-12.3982

> <Gold.Chemscore.Internal_Hbond.Weighted>
0.0000

> <Gold.Chemscore.DEClash.Weighted>
1.2189

> <Gold.Chemscore.DEInternal.Weighted>
1.2877

> <Gold.Chemscore.Rot.Weighted>
7.8465

> <Gold.Chemscore.Internal.Correction.Weighted>
   9.000000E+99

> <Gold.Protein.RotatedTorsions>
[ 6907 6896 6895 6894 ] final   69.84 input  -60.11 | X-H torsion
[ 7974 7965 7964 7962 ] final  -41.95 input  175.53 | X-H torsion
[ 8008 7997 7996 7995 ] final  -55.11 input   59.86 | X-H torsion
[ 10167 10162 10161 10158 ] final  -61.49 input  -65.29 | X-H torsion
[ 10718 10713 10712 10709 ] final   44.02 input   66.30 | X-H torsion
[ 10763 10752 10751 10750 ] final  -89.21 input  -60.55 | X-H torsion
[ 11005 11000 10999 10996 ] final   71.24 input  -57.11 | X-H torsion

> <Gold.Protein.ActiveResidues>
 VAL166  LYS551  ARG553  GLY616  TRP617  ASP618  TYR619  PRO620  LYS621  CYS622 
 ASP623  PHE694  ASN695  SER759  ASP760  ASP761  ALA762  ILE779  LEU786  VAL792 
 PHE793  MET794  SER795  GLU796  ALA797  LYS798  CYS799  TRP800  GLU811  SER814 

> <Gold.Protein.RotatedAtoms>
  152.4711  134.4957  159.9708 H   0  0  0  0  0  0  0  0  0  0  0  0  # atno 6907 bound_to 6896
  151.4983  133.3504  159.2872 H   0  0  0  0  0  0  0  0  0  0  0  0  # atno 6908 bound_to 6896
  150.8722  134.8126  159.7225 H   0  0  0  0  0  0  0  0  0  0  0  0  # atno 6909 bound_to 6896
  146.0163  140.6904  142.9200 H   0  0  0  0  0  0  0  0  0  0  0  0  # atno 7974 bound_to 7965
  154.4184  140.1160  156.5423 H   0  0  0  0  0  0  0  0  0  0  0  0  # atno 8008 bound_to 7997
  155.6495  140.3496  155.4724 H   0  0  0  0  0  0  0  0  0  0  0  0  # atno 8009 bound_to 7997
  155.9804  140.1159  157.0721 H   0  0  0  0  0  0  0  0  0  0  0  0  # atno 8010 bound_to 7997
  140.6002  143.2360  151.5945 H   0  0  0  0  0  0  0  0  0  0  0  0  # atno 10167 bound_to 10162
  157.4222  130.7976  149.7526 H   0  0  0  0  0  0  0  0  0  0  0  0  # atno 10718 bound_to 10713
  154.6529  135.5349  153.7923 H   0  0  0  0  0  0  0  0  0  0  0  0  # atno 10763 bound_to 10752
  153.0396  135.6487  154.0990 H   0  0  0  0  0  0  0  0  0  0  0  0  # atno 10764 bound_to 10752
  154.0905  135.2940  155.3252 H   0  0  0  0  0  0  0  0  0  0  0  0  # atno 10765 bound_to 10752
  139.9554  134.7153  156.0765 H   0  0  0  0  0  0  0  0  0  0  0  0  # atno 11005 bound_to 11000
  144.6972  140.3486  143.7186 LP  0  0  0  0  0  0  0  0  0  0  0  0  # atno 17320 bound_to 7965
  145.7264  139.1724  143.2455 LP  0  0  0  0  0  0  0  0  0  0  0  0  # atno 17321 bound_to 7965
  139.5286  144.2984  152.1094 LP  0  0  0  0  0  0  0  0  0  0  0  0  # atno 17342 bound_to 10162
  140.2163  144.4511  150.6362 LP  0  0  0  0  0  0  0  0  0  0  0  0  # atno 17343 bound_to 10162
  155.9884  130.3959  150.3118 LP  0  0  0  0  0  0  0  0  0  0  0  0  # atno 17370 bound_to 10713
  157.1267  131.0261  151.2986 LP  0  0  0  0  0  0  0  0  0  0  0  0  # atno 17371 bound_to 10713
  141.1225  133.6609  156.3250 LP  0  0  0  0  0  0  0  0  0  0  0  0  # atno 17394 bound_to 11000
  140.5621  134.5924  157.5436 LP  0  0  0  0  0  0  0  0  0  0  0  0  # atno 17395 bound_to 11000

$$$$
