AV-unprocessed.smi:287|AV-procd|sdf|2182|dock1
  -GOLD-   2262021553D 1   1.00000     0.00000
 Structure written by MMmdl.
 55 58  0  0  0  0  0  0  0  0  1 V2000
  151.8715  145.6051  159.2118 C   0  0  0  0  0  0  0  0  0  0  0  0
  151.9782  144.1266  159.0573 C   0  0  0  0  0  0  0  0  0  0  0  0
  151.4588  143.2289  158.1708 C   0  0  0  0  0  0  0  0  0  0  0  0
  151.9371  141.9369  158.5423 C   0  0  0  0  0  0  0  0  0  0  0  0
  151.6170  140.6268  157.8346 C   0  0  2  0  0  0  0  0  0  0  0  0
  150.0958  140.4025  157.8163 C   0  0  0  0  0  0  0  0  0  0  0  0
  152.1537  139.4986  158.4980 O   0  0  0  0  0  0  0  0  0  0  0  0
  152.1768  140.5790  156.3943 C   0  0  0  0  0  0  0  0  0  0  0  0
  152.4048  139.2215  155.9158 N   0  0  0  0  0  0  0  0  0  0  0  0
  151.3719  138.4277  155.5624 C   0  0  0  0  0  0  0  0  0  0  0  0
  150.3879  139.0327  154.8548 N   0  0  0  0  0  0  0  0  0  0  0  0
  149.3175  138.3369  154.4612 C   0  0  0  0  0  0  0  0  0  0  0  0
  149.0394  137.0478  154.6641 N   0  0  0  0  0  0  0  0  0  0  0  0
  150.0286  136.4301  155.3723 C   0  0  0  0  0  0  0  0  0  0  0  0
  151.2202  137.0400  155.8584 C   0  0  0  0  0  0  0  0  0  0  0  0
  151.9756  136.0868  156.5338 N   0  0  0  0  0  0  0  0  0  0  0  0
  151.2693  134.9919  156.4532 C   0  0  0  0  0  0  0  0  0  0  0  0
  150.0850  135.1086  155.7580 N   0  0  0  0  0  0  0  0  0  0  0  0
  149.0335  134.0770  155.4838 C   0  0  2  0  0  0  0  0  0  0  0  0
  149.4570  132.8651  156.0327 O   0  0  0  0  0  0  0  0  0  0  0  0
  150.0929  132.0848  155.0256 C   0  0  1  0  0  0  0  0  0  0  0  0
  150.2067  130.6094  155.4472 C   0  0  0  0  0  0  0  0  0  0  0  0
  150.8506  129.8658  154.4343 O   0  0  0  0  0  0  0  0  0  0  0  0
  149.2028  132.3635  153.8089 C   0  0  1  0  0  0  0  0  0  0  0  0
  148.0360  131.5574  153.8520 O   0  0  0  0  0  0  0  0  0  0  0  0
  148.8966  133.8532  153.9649 C   0  0  1  0  0  0  0  0  0  0  0  0
  147.6235  134.2076  153.4577 O   0  0  0  0  0  0  0  0  0  0  0  0
  152.7113  142.1573  159.6564 C   0  0  0  0  0  0  0  0  0  0  0  0
  153.4974  141.2724  160.5665 C   0  0  0  0  0  0  0  0  0  0  0  0
  152.7448  143.4821  159.9718 O   0  0  0  0  0  0  0  0  0  0  0  0
  148.1367  134.4506  155.9801 H   0  0  0  0  0  0  0  0  0  0  0  0
  151.0854  132.4927  154.8237 H   0  0  0  0  0  0  0  0  0  0  0  0
  149.7223  132.1578  152.8725 H   0  0  0  0  0  0  0  0  0  0  0  0
  149.6582  134.4336  153.4412 H   0  0  0  0  0  0  0  0  0  0  0  0
  151.3910  146.0539  158.3423 H   0  0  0  0  0  0  0  0  0  0  0  0
  152.8583  146.0555  159.3218 H   0  0  0  0  0  0  0  0  0  0  0  0
  151.2824  145.8594  160.0929 H   0  0  0  0  0  0  0  0  0  0  0  0
  150.8110  143.4714  157.3415 H   0  0  0  0  0  0  0  0  0  0  0  0
  149.5838  141.2075  157.2877 H   0  0  0  0  0  0  0  0  0  0  0  0
  149.6885  140.3636  158.8275 H   0  0  0  0  0  0  0  0  0  0  0  0
  149.8347  139.4678  157.3184 H   0  0  0  0  0  0  0  0  0  0  0  0
  152.1838  139.6818  159.4245 H   0  0  0  0  0  0  0  0  0  0  0  0
  151.5233  141.1203  155.7090 H   0  0  0  0  0  0  0  0  0  0  0  0
  153.1415  141.0883  156.3815 H   0  0  0  0  0  0  0  0  0  0  0  0
  153.3724  138.9572  155.7976 H   0  0  0  0  0  0  0  0  0  0  0  0
  148.5780  138.8931  153.9042 H   0  0  0  0  0  0  0  0  0  0  0  0
  151.6013  134.0680  156.9042 H   0  0  0  0  0  0  0  0  0  0  0  0
  150.7420  130.5036  156.3912 H   0  0  0  0  0  0  0  0  0  0  0  0
  149.2136  130.1808  155.5853 H   0  0  0  0  0  0  0  0  0  0  0  0
  151.4569  130.4344  153.9846 H   0  0  0  0  0  0  0  0  0  0  0  0
  148.0728  131.0251  154.6325 H   0  0  0  0  0  0  0  0  0  0  0  0
  147.7379  134.9003  152.8245 H   0  0  0  0  0  0  0  0  0  0  0  0
  152.8789  140.4574  160.9423 H   0  0  0  0  0  0  0  0  0  0  0  0
  153.8775  141.8264  161.4254 H   0  0  0  0  0  0  0  0  0  0  0  0
  154.3493  140.8394  160.0423 H   0  0  0  0  0  0  0  0  0  0  0  0
  1  2  1  0  0  0  0
  1 35  1  0  0  0  0
  1 36  1  0  0  0  0
  1 37  1  0  0  0  0
  2 30  1  0  0  0  0
  2  3  2  0  0  0  0
  3  4  1  0  0  0  0
  3 38  1  0  0  0  0
  4  5  1  0  0  0  0
  4 28  2  0  0  0  0
  5  6  1  0  0  0  0
  5  7  1  0  0  0  0
  5  8  1  0  0  0  0
  6 39  1  0  0  0  0
  6 40  1  0  0  0  0
  6 41  1  0  0  0  0
  7 42  1  0  0  0  0
  8  9  1  0  0  0  0
  8 43  1  0  0  0  0
  8 44  1  0  0  0  0
  9 10  1  0  0  0  0
  9 45  1  0  0  0  0
 10 15  1  0  0  0  0
 10 11  2  0  0  0  0
 11 12  1  0  0  0  0
 12 13  2  0  0  0  0
 12 46  1  0  0  0  0
 13 14  1  0  0  0  0
 14 18  1  0  0  0  0
 14 15  2  0  0  0  0
 15 16  1  0  0  0  0
 16 17  2  0  0  0  0
 17 18  1  0  0  0  0
 17 47  1  0  0  0  0
 18 19  1  0  0  0  0
 19 31  1  0  0  0  0
 19 26  1  0  0  0  0
 19 20  1  0  0  0  0
 20 21  1  0  0  0  0
 21 32  1  0  0  0  0
 21 22  1  0  0  0  0
 21 24  1  0  0  0  0
 22 23  1  0  0  0  0
 22 48  1  0  0  0  0
 22 49  1  0  0  0  0
 23 50  1  0  0  0  0
 24 33  1  0  0  0  0
 24 25  1  0  0  0  0
 24 26  1  0  0  0  0
 25 51  1  0  0  0  0
 26 34  1  0  0  0  0
 26 27  1  0  0  0  0
 27 52  1  0  0  0  0
 28 29  1  0  0  0  0
 28 30  1  0  0  0  0
 29 53  1  0  0  0  0
 29 54  1  0  0  0  0
 29 55  1  0  0  0  0
M  END
> <s_m_source_file>
AV-unprocessed.smi

> <i_m_source_file_index>
287

> <i_lp_mmshare_version>
43012

> <i_f3d_flags>
0

> <s_epik_input>
W0NIM11jMVtjSF1jKGMobzEpW0NIM10pW0NAQF0oW0NIM10pKFtPSF0pW0NIMl1bTkhdYyhuW2NIXW4yKWMoYzIzKW5bY0hdbjNbQ0BASF00T1tDQEhdKFtDSDJdW09IXSlbQ0BASF0oW09IXSlbQ0BIXTRbT0hd

> <s_epik_cmdline>
J2VwaWtfcHl0aG9uJywgJy1waCcsICc3LjAnLCAnLXRuJywgJzgnLCAnLW1hJywgJzIwMCcsICctbWV0YWxfYmluZGluZycsICctaW1hZScsICc8aW5maWxlLm1hZT4nLCAnLW9tYWUnLCAnPG91dGZpbGUubWFlPic=

> <r_lp_tautomer_probability>
1

> <r_epik_Ionization_Penalty>
0.000992612

> <r_epik_Ionization_Penalty_Charging>
0

> <r_epik_Ionization_Penalty_Neutral>
0.000992612

> <r_epik_State_Penalty>
-0

> <r_epik_Charging_Adjusted_Penalty>
0

> <i_epik_Tot_Q>
0

> <i_epik_Tot_abs_Q>
0

> <r_epik_Metal_State_Penalty>
-0

> <b_epik_Metal_Only>
0

> <s_epik_Chemistry_Notes>
This compound contains an acetal/aminal-like group ( X-CH(R)-Y where X, Y are N, S, or O) that may be acid/base labile, releasing an aldehyde.

> <s_lp_Force_Field>
OPLS_2005

> <r_lp_Energy>
45.3255

> <b_lp_Chiralities_Consistent>
1

> <s_lp_Variant>
AV-unprocessed.smi:287-6

> <Gold.Version>
5.8.1

> <Gold.Id.Protein>
6NUR|6NUR_protein|mol2

> <Gold.PLP.Fitness>
48.5866

> <Gold.PLP.PLP>
-45.1918

> <Gold.PLP.part.hbond>
-2.0000

> <Gold.PLP.part.metal>
0.0000

> <Gold.PLP.part.buried>
-5.7019

> <Gold.PLP.part.nonpolar>
-37.9041

> <Gold.PLP.part.repulsive>
1.7462

> <Gold.PLP.ligand.clash>
0.0000

> <Gold.PLP.ligand.torsion>
0.8965

> <Gold.PLP.Chemscore.Hbond>
1.6420

> <Gold.PLP.Chemscore.CHOScore>
0.0000

> <Gold.PLP.Chemscore.Metal>
0.0000

> <Gold.Chemscore.Hbonds>
donor molecule, donor type, donor heavy atom, donor atom, acceptor molecule, acceptor atom, score
      L1  H    27    52       P1  7948  0.99
      P1  H 10752 10765       L1    16  0.65

> <Gold.PLP.Chemscore.Internal.Correction>
0.2618

> <Gold.Rescore>
     Score         DG    S(hbond)    S(metal)    S(lipo)     H(rot)  DE(clash)    DE(int)     intcor
      4.13      -7.83       0.94        0.00     108.46       5.27       1.93       1.77       ----

> <Gold.Chemscore.Fitness>
4.1255

> <Gold.Chemscore.DG>
-7.8270

> <Gold.Chemscore.ZeroCoef>
-5.4800

> <Gold.Chemscore.Hbond>
0.9406

> <Gold.Chemscore.Metal>
0.0000

> <Gold.Chemscore.Lipo>
108.4559

> <Gold.Chemscore.Internal_Hbond>
0.0000

> <Gold.Chemscore.DEClash>
1.9290

> <Gold.Chemscore.DEInternal>
1.7725

> <Gold.Chemscore.Rot>
5.2672

> <Gold.Chemscore.Internal.Correction>
   9.000000E+99

> <Gold.Chemscore.Hbonds>
donor molecule, donor type, donor heavy atom, donor atom, acceptor molecule, acceptor atom, score
      L1  H    27    52       P1  7948  0.86
      P1  H 10752 10765       L1    16  0.03

> <Gold.Chemscore.Hbond.Weighted>
-3.1416

> <Gold.Chemscore.Metal.Weighted>
-0.0000

> <Gold.Chemscore.Lipo.Weighted>
-12.6893

> <Gold.Chemscore.Internal_Hbond.Weighted>
0.0000

> <Gold.Chemscore.DEClash.Weighted>
1.9290

> <Gold.Chemscore.DEInternal.Weighted>
1.7725

> <Gold.Chemscore.Rot.Weighted>
13.4839

> <Gold.Chemscore.Internal.Correction.Weighted>
   9.000000E+99

> <Gold.Protein.RotatedTorsions>
[ 6907 6896 6895 6894 ] final   33.65 input  -60.11 | X-H torsion
[ 7974 7965 7964 7962 ] final   63.32 input  175.53 | X-H torsion
[ 8008 7997 7996 7995 ] final   85.74 input   59.86 | X-H torsion
[ 10167 10162 10161 10158 ] final  -65.57 input  -65.29 | X-H torsion
[ 10718 10713 10712 10709 ] final   47.78 input   66.30 | X-H torsion
[ 10763 10752 10751 10750 ] final -135.49 input  -60.55 | X-H torsion
[ 11005 11000 10999 10996 ] final   53.11 input  -57.11 | X-H torsion

> <Gold.Protein.ActiveResidues>
 VAL166  LYS551  ARG553  GLY616  TRP617  ASP618  TYR619  PRO620  LYS621  CYS622 
 ASP623  PHE694  ASN695  SER759  ASP760  ASP761  ALA762  ILE779  LEU786  VAL792 
 PHE793  MET794  SER795  GLU796  ALA797  LYS798  CYS799  TRP800  GLU811  SER814 

> <Gold.Protein.RotatedAtoms>
  152.0915  134.9404  160.0571 H   0  0  0  0  0  0  0  0  0  0  0  0  # atno 6907 bound_to 6896
  152.0653  133.4076  159.4444 H   0  0  0  0  0  0  0  0  0  0  0  0  # atno 6908 bound_to 6896
  150.6837  134.3073  159.4775 H   0  0  0  0  0  0  0  0  0  0  0  0  # atno 6909 bound_to 6896
  145.8632  139.3329  143.0806 H   0  0  0  0  0  0  0  0  0  0  0  0  # atno 7974 bound_to 7965
  155.9538  140.3399  155.6431 H   0  0  0  0  0  0  0  0  0  0  0  0  # atno 8008 bound_to 7997
  155.6886  140.0746  157.2475 H   0  0  0  0  0  0  0  0  0  0  0  0  # atno 8009 bound_to 7997
  154.4128  140.1661  156.2048 H   0  0  0  0  0  0  0  0  0  0  0  0  # atno 8010 bound_to 7997
  140.5720  143.2318  151.6519 H   0  0  0  0  0  0  0  0  0  0  0  0  # atno 10167 bound_to 10162
  157.4620  130.8202  149.7896 H   0  0  0  0  0  0  0  0  0  0  0  0  # atno 10718 bound_to 10713
  154.8702  135.3702  154.4906 H   0  0  0  0  0  0  0  0  0  0  0  0  # atno 10763 bound_to 10752
  153.5553  135.7024  153.5577 H   0  0  0  0  0  0  0  0  0  0  0  0  # atno 10764 bound_to 10752
  153.3677  135.4029  155.1729 H   0  0  0  0  0  0  0  0  0  0  0  0  # atno 10765 bound_to 10752
  140.0794  134.5359  155.8962 H   0  0  0  0  0  0  0  0  0  0  0  0  # atno 11005 bound_to 11000
  145.9223  140.9106  143.0398 LP  0  0  0  0  0  0  0  0  0  0  0  0  # atno 17320 bound_to 7965
  144.6726  140.1306  143.7444 LP  0  0  0  0  0  0  0  0  0  0  0  0  # atno 17321 bound_to 7965
  139.5122  144.3482  152.0677 LP  0  0  0  0  0  0  0  0  0  0  0  0  # atno 17342 bound_to 10162
  140.2621  144.4056  150.6182 LP  0  0  0  0  0  0  0  0  0  0  0  0  # atno 17343 bound_to 10162
  156.0033  130.3868  150.2525 LP  0  0  0  0  0  0  0  0  0  0  0  0  # atno 17370 bound_to 10713
  157.0703  131.0115  151.3192 LP  0  0  0  0  0  0  0  0  0  0  0  0  # atno 17371 bound_to 10713
  141.2041  133.6637  156.6103 LP  0  0  0  0  0  0  0  0  0  0  0  0  # atno 17394 bound_to 11000
  140.3510  134.7769  157.4466 LP  0  0  0  0  0  0  0  0  0  0  0  0  # atno 17395 bound_to 11000

$$$$
