AV-unprocessed.smi:2405|AV-procd|sdf|9515|dock7
  -GOLD-   2272013143D 1   1.00000     0.00000
 Structure written by MMmdl.
 36 37  0  0  0  0  0  0  0  0  2 V2000
  142.8375  136.5411  153.0363 C   0  0  0  0  0  0  0  0  0  0  0  0
  144.2653  136.0600  152.7575 C   0  0  0  0  0  0  0  0  0  0  0  0
  145.1823  137.1779  152.3898 C   0  0  0  0  0  0  0  0  0  0  0  0
  145.5602  138.1319  153.2446 N   0  0  0  0  0  0  0  0  0  0  0  0
  146.4625  139.0383  152.6768 C   0  0  0  0  0  0  0  0  0  0  0  0
  147.0000  140.1757  153.4950 C   0  0  0  0  0  0  0  0  0  0  0  0
  148.1461  139.6858  154.3805 C   0  0  0  0  0  0  0  0  0  0  0  0
  147.9779  139.5632  155.5937 O   0  0  0  0  0  0  0  0  0  0  0  0
  149.3052  139.4166  153.7601 N   0  0  0  0  0  0  0  0  0  0  0  0
  150.5295  138.9725  154.4186 C   0  0  1  0  0  0  0  0  0  0  0  0
  151.0940  140.0883  155.3179 C   0  0  0  0  0  0  0  0  0  0  0  0
  150.9177  139.6007  156.7597 C   0  0  0  0  0  0  0  0  0  0  0  0
  150.9872  138.0709  156.6727 C   0  0  2  0  0  0  0  0  0  0  0  0
  152.4538  137.5933  156.7010 C   0  0  0  0  0  0  0  0  0  0  0  0
  152.6966  136.3747  156.5519 O   0  0  0  0  0  0  0  0  0  0  0  0
  153.3216  138.4785  156.8669 O   0  5  0  0  0  0  0  0  0  0  0  0
  150.2661  137.7672  155.3460 C   0  0  0  0  0  0  0  0  0  0  0  0
  146.7612  138.7539  151.3671 C   0  0  0  0  0  0  0  0  0  0  0  0
  145.9335  137.3278  150.8058 S   0  0  0  0  0  0  0  0  0  0  0  0
  142.1903  135.7054  153.3029 H   0  0  0  0  0  0  0  0  0  0  0  0
  142.4087  137.0292  152.1604 H   0  0  0  0  0  0  0  0  0  0  0  0
  142.8173  137.2549  153.8605 H   0  0  0  0  0  0  0  0  0  0  0  0
  144.6660  135.5547  153.6368 H   0  0  0  0  0  0  0  0  0  0  0  0
  144.2611  135.3262  151.9505 H   0  0  0  0  0  0  0  0  0  0  0  0
  147.3631  140.9757  152.8486 H   0  0  0  0  0  0  0  0  0  0  0  0
  146.2184  140.6142  154.1172 H   0  0  0  0  0  0  0  0  0  0  0  0
  149.3509  139.5541  152.7607 H   0  0  0  0  0  0  0  0  0  0  0  0
  151.2814  138.7128  153.6708 H   0  0  0  0  0  0  0  0  0  0  0  0
  152.1568  140.2157  155.1071 H   0  0  0  0  0  0  0  0  0  0  0  0
  150.6198  141.0574  155.1568 H   0  0  0  0  0  0  0  0  0  0  0  0
  151.6589  140.0348  157.4326 H   0  0  0  0  0  0  0  0  0  0  0  0
  149.9354  139.8962  157.1301 H   0  0  0  0  0  0  0  0  0  0  0  0
  150.4671  137.6061  157.5112 H   0  0  0  0  0  0  0  0  0  0  0  0
  149.1985  137.6738  155.5518 H   0  0  0  0  0  0  0  0  0  0  0  0
  150.5670  136.8239  154.8879 H   0  0  0  0  0  0  0  0  0  0  0  0
  147.4247  139.2901  150.7048 H   0  0  0  0  0  0  0  0  0  0  0  0
  1  2  1  0  0  0  0
  1 20  1  0  0  0  0
  1 21  1  0  0  0  0
  1 22  1  0  0  0  0
  2  3  1  0  0  0  0
  2 23  1  0  0  0  0
  2 24  1  0  0  0  0
  3 19  1  0  0  0  0
  3  4  2  0  0  0  0
  4  5  1  0  0  0  0
  5  6  1  0  0  0  0
  5 18  2  0  0  0  0
  6  7  1  0  0  0  0
  6 25  1  0  0  0  0
  6 26  1  0  0  0  0
  7  8  2  0  0  0  0
  7  9  1  0  0  0  0
  9 10  1  0  0  0  0
  9 27  1  0  0  0  0
 10 17  1  0  0  0  0
 10 11  1  0  0  0  0
 10 28  1  0  0  0  0
 11 12  1  0  0  0  0
 11 29  1  0  0  0  0
 11 30  1  0  0  0  0
 12 13  1  0  0  0  0
 12 31  1  0  0  0  0
 12 32  1  0  0  0  0
 13 14  1  0  0  0  0
 13 17  1  0  0  0  0
 13 33  1  0  0  0  0
 14 15  2  0  0  0  0
 14 16  1  0  0  0  0
 17 34  1  0  0  0  0
 17 35  1  0  0  0  0
 18 19  1  0  0  0  0
 18 36  1  0  0  0  0
M  CHG  1  16  -1
M  END
> <s_m_source_file>
AV-unprocessed.smi

> <i_m_source_file_index>
2405

> <i_lp_mmshare_version>
43012

> <i_f3d_flags>
0

> <s_epik_input>
W0NIM11bQ0gyXWMxbmMoW2NIXXMxKVtDSDJdQyg9TylbTkhdW0NAQEhdMltDSDJdW0NIMl1bQ0BIXShbQ0gyXTIpQyg9TylbT0hd

> <s_epik_cmdline>
J2VwaWtfcHl0aG9uJywgJy1waCcsICc3LjAnLCAnLXRuJywgJzgnLCAnLW1hJywgJzIwMCcsICctbWV0YWxfYmluZGluZycsICctaW1hZScsICc8aW5maWxlLm1hZT4nLCAnLW9tYWUnLCAnPG91dGZpbGUubWFlPic=

> <r_epik_Ionization_Penalty>
0.000544611

> <r_epik_Ionization_Penalty_Charging>
0.000481685

> <r_epik_Ionization_Penalty_Neutral>
6.29266e-05

> <r_epik_State_Penalty>
0.00029893

> <r_epik_Charging_Adjusted_Penalty>
0.000780614

> <i_epik_Tot_Q>
-1

> <i_epik_Tot_abs_Q>
1

> <r_epik_Metal_State_Penalty>
-0

> <b_epik_Metal_Only>
0

> <s_lp_Force_Field>
OPLS_2005

> <r_lp_Energy>
7.82971

> <b_lp_Chiralities_Consistent>
1

> <s_lp_Variant>
AV-unprocessed.smi:2405-4

> <Gold.Version>
5.8.1

> <Gold.Id.Protein>
6NUR|6NUR_protein|mol2

> <Gold.PLP.Fitness>
42.6052

> <Gold.PLP.PLP>
-25.8540

> <Gold.PLP.part.hbond>
-3.0000

> <Gold.PLP.part.metal>
0.0000

> <Gold.PLP.part.buried>
3.9135

> <Gold.PLP.part.nonpolar>
-28.0371

> <Gold.PLP.part.repulsive>
0.3233

> <Gold.PLP.ligand.clash>
0.0000

> <Gold.PLP.ligand.torsion>
0.5688

> <Gold.PLP.Chemscore.Hbond>
4.9520

> <Gold.PLP.Chemscore.CHOScore>
0.9901

> <Gold.PLP.Chemscore.Metal>
0.0000

> <Gold.Chemscore.Hbonds>
donor molecule, donor type, donor heavy atom, donor atom, acceptor molecule, acceptor atom, score
      L1  H     9    27       P1  7957  1.00
      P1  H  7997  8008       L1    16  2.00
      P1  H 10752 10765       L1    15  2.00
      L1  C    18    36       P1  7957  0.98

> <Gold.PLP.Chemscore.Internal.Correction>
0.0625

> <Gold.Rescore>
     Score         DG    S(hbond)    S(metal)    S(lipo)     H(rot)  DE(clash)    DE(int)     intcor
     15.91     -19.02       2.92        0.00      77.41       2.06       1.72       1.40       ----

> <Gold.Chemscore.Fitness>
15.9078

> <Gold.Chemscore.DG>
-19.0233

> <Gold.Chemscore.ZeroCoef>
-5.4800

> <Gold.Chemscore.Hbond>
2.9247

> <Gold.Chemscore.Metal>
0.0000

> <Gold.Chemscore.Lipo>
77.4131

> <Gold.Chemscore.Internal_Hbond>
0.0000

> <Gold.Chemscore.DEClash>
1.7177

> <Gold.Chemscore.DEInternal>
1.3977

> <Gold.Chemscore.Rot>
2.0635

> <Gold.Chemscore.Internal.Correction>
   9.000000E+99

> <Gold.Chemscore.Hbonds>
donor molecule, donor type, donor heavy atom, donor atom, acceptor molecule, acceptor atom, score
      L1  H     9    27       P1  7957  1.00
      P1  H  7997  8008       L1    16  0.94
      P1  H 10752 10765       L1    15  0.96

> <Gold.Chemscore.Hbond.Weighted>
-9.7684

> <Gold.Chemscore.Metal.Weighted>
-0.0000

> <Gold.Chemscore.Lipo.Weighted>
-9.0573

> <Gold.Chemscore.Internal_Hbond.Weighted>
0.0000

> <Gold.Chemscore.DEClash.Weighted>
1.7177

> <Gold.Chemscore.DEInternal.Weighted>
1.3977

> <Gold.Chemscore.Rot.Weighted>
5.2825

> <Gold.Chemscore.Internal.Correction.Weighted>
   9.000000E+99

> <Gold.Protein.RotatedTorsions>
[ 6907 6896 6895 6894 ] final  155.66 input  -60.11 | X-H torsion
[ 7974 7965 7964 7962 ] final -115.06 input  175.53 | X-H torsion
[ 8008 7997 7996 7995 ] final  -64.73 input   59.86 | X-H torsion
[ 10167 10162 10161 10158 ] final  164.04 input  -65.29 | X-H torsion
[ 10718 10713 10712 10709 ] final  122.17 input   66.30 | X-H torsion
[ 10763 10752 10751 10750 ] final -120.09 input  -60.55 | X-H torsion
[ 11005 11000 10999 10996 ] final  -43.20 input  -57.11 | X-H torsion

> <Gold.Protein.ActiveResidues>
 VAL166  LYS551  ARG553  GLY616  TRP617  ASP618  TYR619  PRO620  LYS621  CYS622 
 ASP623  PHE694  ASN695  SER759  ASP760  ASP761  ALA762  ILE779  LEU786  VAL792 
 PHE793  MET794  SER795  GLU796  ALA797  LYS798  CYS799  TRP800  GLU811  SER814 

> <Gold.Protein.RotatedAtoms>
  152.0409  133.3977  159.4336 H   0  0  0  0  0  0  0  0  0  0  0  0  # atno 6907 bound_to 6896
  150.6875  134.3415  159.4879 H   0  0  0  0  0  0  0  0  0  0  0  0  # atno 6908 bound_to 6896
  152.1214  134.9202  160.0613 H   0  0  0  0  0  0  0  0  0  0  0  0  # atno 6909 bound_to 6896
  145.1128  140.8622  143.3860 H   0  0  0  0  0  0  0  0  0  0  0  0  # atno 7974 bound_to 7965
  154.4629  140.0948  156.6942 H   0  0  0  0  0  0  0  0  0  0  0  0  # atno 8008 bound_to 7997
  155.4942  140.3471  155.4341 H   0  0  0  0  0  0  0  0  0  0  0  0  # atno 8009 bound_to 7997
  156.0903  140.1395  156.9589 H   0  0  0  0  0  0  0  0  0  0  0  0  # atno 8010 bound_to 7997
  139.4883  144.4275  151.9111 H   0  0  0  0  0  0  0  0  0  0  0  0  # atno 10167 bound_to 10162
  157.5762  131.1079  150.8274 H   0  0  0  0  0  0  0  0  0  0  0  0  # atno 10718 bound_to 10713
  154.8635  135.4215  154.2403 H   0  0  0  0  0  0  0  0  0  0  0  0  # atno 10763 bound_to 10752
  153.3370  135.6991  153.6905 H   0  0  0  0  0  0  0  0  0  0  0  0  # atno 10764 bound_to 10752
  153.5899  135.3557  155.2880 H   0  0  0  0  0  0  0  0  0  0  0  0  # atno 10765 bound_to 10752
  141.0367  133.6797  156.2699 H   0  0  0  0  0  0  0  0  0  0  0  0  # atno 11005 bound_to 11000
  145.0828  139.2947  143.5775 LP  0  0  0  0  0  0  0  0  0  0  0  0  # atno 17320 bound_to 7965
  146.3525  140.0339  142.8648 LP  0  0  0  0  0  0  0  0  0  0  0  0  # atno 17321 bound_to 7965
  140.3722  144.2841  150.5918 LP  0  0  0  0  0  0  0  0  0  0  0  0  # atno 17342 bound_to 10162
  140.5309  143.2243  151.8240 LP  0  0  0  0  0  0  0  0  0  0  0  0  # atno 17343 bound_to 10162
  156.8732  130.5153  149.5295 LP  0  0  0  0  0  0  0  0  0  0  0  0  # atno 17370 bound_to 10713
  156.0807  130.5818  150.9558 LP  0  0  0  0  0  0  0  0  0  0  0  0  # atno 17371 bound_to 10713
  140.6308  134.5265  157.5559 LP  0  0  0  0  0  0  0  0  0  0  0  0  # atno 17394 bound_to 11000
  139.9246  134.8081  156.1107 LP  0  0  0  0  0  0  0  0  0  0  0  0  # atno 17395 bound_to 11000

$$$$
