AV-unprocessed.smi:3042|AV-procd|sdf|11602|dock5
  -GOLD-   2272016583D 1   1.00000     0.00000
 Structure written by MMmdl.
 32 33  0  0  0  0  0  0  0  0  1 V2000
  147.3565  138.2431  151.1327 N   0  0  0  0  0  0  0  0  0  0  0  0
  146.2991  138.2392  152.1571 C   0  0  0  0  0  0  0  0  0  0  0  0
  146.8506  138.1734  153.6040 C   0  0  1  0  0  0  0  0  0  0  0  0
  147.6551  139.4419  153.8852 C   0  0  0  0  0  0  0  0  0  0  0  0
  147.0353  140.7091  153.8566 C   0  0  0  0  0  0  0  0  0  0  0  0
  147.8112  141.8534  154.1241 C   0  0  0  0  0  0  0  0  0  0  0  0
  149.1799  141.6828  154.4121 C   0  0  0  0  0  0  0  0  0  0  0  0
  149.7862  140.4769  154.4441 N   0  0  0  0  0  0  0  0  0  0  0  0
  149.0345  139.3847  154.1866 C   0  0  0  0  0  0  0  0  0  0  0  0
  145.8199  137.9470  154.6387 N   0  0  0  0  0  0  0  0  0  0  0  0
  146.4082  137.8028  155.9754 C   0  0  0  0  0  0  0  0  0  0  0  0
  145.3487  137.5614  157.0640 C   0  0  0  0  0  0  0  0  0  0  0  0
  144.5861  136.4067  156.7375 O   0  0  0  0  0  0  0  0  0  0  0  0
  143.9443  136.5247  155.4745 C   0  0  0  0  0  0  0  0  0  0  0  0
  144.9959  136.7637  154.3769 C   0  0  0  0  0  0  0  0  0  0  0  0
  147.9593  139.0567  151.2461 H   0  0  0  0  0  0  0  0  0  0  0  0
  147.9470  137.4181  151.2276 H   0  0  0  0  0  0  0  0  0  0  0  0
  145.6759  139.1264  152.0411 H   0  0  0  0  0  0  0  0  0  0  0  0
  145.6521  137.3862  151.9597 H   0  0  0  0  0  0  0  0  0  0  0  0
  147.5488  137.3353  153.6401 H   0  0  0  0  0  0  0  0  0  0  0  0
  145.9829  140.8056  153.6330 H   0  0  0  0  0  0  0  0  0  0  0  0
  147.3679  142.8380  154.1097 H   0  0  0  0  0  0  0  0  0  0  0  0
  149.8041  142.5386  154.6232 H   0  0  0  0  0  0  0  0  0  0  0  0
  149.5505  138.4364  154.2204 H   0  0  0  0  0  0  0  0  0  0  0  0
  147.1193  136.9751  155.9773 H   0  0  0  0  0  0  0  0  0  0  0  0
  146.9713  138.6955  156.2464 H   0  0  0  0  0  0  0  0  0  0  0  0
  145.8276  137.4085  158.0311 H   0  0  0  0  0  0  0  0  0  0  0  0
  144.6917  138.4268  157.1643 H   0  0  0  0  0  0  0  0  0  0  0  0
  143.3871  135.6099  155.2721 H   0  0  0  0  0  0  0  0  0  0  0  0
  143.2209  137.3412  155.5002 H   0  0  0  0  0  0  0  0  0  0  0  0
  144.4610  136.8688  153.4348 H   0  0  0  0  0  0  0  0  0  0  0  0
  145.6319  135.8820  154.2855 H   0  0  0  0  0  0  0  0  0  0  0  0
  1  2  1  0  0  0  0
  1 16  1  0  0  0  0
  1 17  1  0  0  0  0
  2  3  1  0  0  0  0
  2 18  1  0  0  0  0
  2 19  1  0  0  0  0
  3  4  1  0  0  0  0
  3 10  1  0  0  0  0
  3 20  1  0  0  0  0
  4  9  1  0  0  0  0
  4  5  2  0  0  0  0
  5  6  1  0  0  0  0
  5 21  1  0  0  0  0
  6  7  2  0  0  0  0
  6 22  1  0  0  0  0
  7  8  1  0  0  0  0
  7 23  1  0  0  0  0
  8  9  2  0  0  0  0
  9 24  1  0  0  0  0
 10 15  1  0  0  0  0
 10 11  1  0  0  0  0
 11 12  1  0  0  0  0
 11 25  1  0  0  0  0
 11 26  1  0  0  0  0
 12 13  1  0  0  0  0
 12 27  1  0  0  0  0
 12 28  1  0  0  0  0
 13 14  1  0  0  0  0
 14 15  1  0  0  0  0
 14 29  1  0  0  0  0
 14 30  1  0  0  0  0
 15 31  1  0  0  0  0
 15 32  1  0  0  0  0
M  END
> <s_m_source_file>
AV-unprocessed.smi

> <i_m_source_file_index>
3042

> <i_lp_mmshare_version>
43012

> <i_f3d_flags>
0

> <s_epik_input>
W0NIMl0xW0NIMl1PW0NIMl1bQ0gyXU4xW0NASF0oW0NIMl1bTkgyXSljMltjSF1bY0hdW2NIXW5bY0hdMg==

> <s_epik_cmdline>
J2VwaWtfcHl0aG9uJywgJy1waCcsICc3LjAnLCAnLXRuJywgJzgnLCAnLW1hJywgJzIwMCcsICctbWV0YWxfYmluZGluZycsICctaW1hZScsICc8aW5maWxlLm1hZT4nLCAnLW9tYWUnLCAnPG91dGZpbGUubWFlPic=

> <r_epik_Ionization_Penalty>
2.62143

> <r_epik_Ionization_Penalty_Charging>
0

> <r_epik_Ionization_Penalty_Neutral>
2.62143

> <r_epik_State_Penalty>
2.72742

> <r_epik_Charging_Adjusted_Penalty>
2.72742

> <i_epik_Tot_Q>
0

> <i_epik_Tot_abs_Q>
0

> <r_epik_Metal_State_Penalty>
2.72081

> <b_epik_Metal_Only>
0

> <s_lp_Force_Field>
OPLS_2005

> <r_lp_Energy>
27.4396

> <b_lp_Chiralities_Consistent>
1

> <s_lp_Variant>
AV-unprocessed.smi:3042-4

> <Gold.Version>
5.8.1

> <Gold.Id.Protein>
6NUR|6NUR_protein|mol2

> <Gold.PLP.Fitness>
30.5778

> <Gold.PLP.PLP>
-19.6852

> <Gold.PLP.part.hbond>
-3.9392

> <Gold.PLP.part.metal>
0.0000

> <Gold.PLP.part.buried>
0.8960

> <Gold.PLP.part.nonpolar>
-15.8822

> <Gold.PLP.part.repulsive>
0.1928

> <Gold.PLP.ligand.clash>
0.0000

> <Gold.PLP.ligand.torsion>
0.0711

> <Gold.PLP.Chemscore.Hbond>
2.7670

> <Gold.PLP.Chemscore.CHOScore>
0.8845

> <Gold.PLP.Chemscore.Metal>
0.0000

> <Gold.Chemscore.Hbonds>
donor molecule, donor type, donor heavy atom, donor atom, acceptor molecule, acceptor atom, score
      L1  H     1    16       P1  7957  1.00
      L1  H     1    17       P1  7948  1.00
      P1  H  7989  7998       L1     8  0.68
      L1  C     7    23       P1  8028  0.77

> <Gold.PLP.Chemscore.Internal.Correction>
0.0803

> <Gold.Rescore>
     Score         DG    S(hbond)    S(metal)    S(lipo)     H(rot)  DE(clash)    DE(int)     intcor
     14.73     -14.95       2.29        0.00      46.99       1.44       0.11       0.11       ----

> <Gold.Chemscore.Fitness>
14.7286

> <Gold.Chemscore.DG>
-14.9499

> <Gold.Chemscore.ZeroCoef>
-5.4800

> <Gold.Chemscore.Hbond>
2.2897

> <Gold.Chemscore.Metal>
0.0000

> <Gold.Chemscore.Lipo>
46.9927

> <Gold.Chemscore.Internal_Hbond>
0.0000

> <Gold.Chemscore.DEClash>
0.1113

> <Gold.Chemscore.DEInternal>
0.1100

> <Gold.Chemscore.Rot>
1.4359

> <Gold.Chemscore.Internal.Correction>
   9.000000E+99

> <Gold.Chemscore.Hbonds>
donor molecule, donor type, donor heavy atom, donor atom, acceptor molecule, acceptor atom, score
      L1  H     1    16       P1  7957  0.59
      L1  H     1    17       P1  7948  0.99
      P1  H  7989  7998       L1     8  0.23

> <Gold.Chemscore.Hbond.Weighted>
-7.6477

> <Gold.Chemscore.Metal.Weighted>
-0.0000

> <Gold.Chemscore.Lipo.Weighted>
-5.4982

> <Gold.Chemscore.Internal_Hbond.Weighted>
0.0000

> <Gold.Chemscore.DEClash.Weighted>
0.1113

> <Gold.Chemscore.DEInternal.Weighted>
0.1100

> <Gold.Chemscore.Rot.Weighted>
3.6759

> <Gold.Chemscore.Internal.Correction.Weighted>
   9.000000E+99

> <Gold.Protein.RotatedTorsions>
[ 6907 6896 6895 6894 ] final  127.42 input  -60.11 | X-H torsion
[ 7974 7965 7964 7962 ] final   52.06 input  175.53 | X-H torsion
[ 8008 7997 7996 7995 ] final   10.55 input   59.86 | X-H torsion
[ 10167 10162 10161 10158 ] final -116.50 input  -65.29 | X-H torsion
[ 10718 10713 10712 10709 ] final  -19.57 input   66.30 | X-H torsion
[ 10763 10752 10751 10750 ] final   88.55 input  -60.55 | X-H torsion
[ 11005 11000 10999 10996 ] final   37.74 input  -57.11 | X-H torsion

> <Gold.Protein.ActiveResidues>
 VAL166  LYS551  ARG553  GLY616  TRP617  ASP618  TYR619  PRO620  LYS621  CYS622 
 ASP623  PHE694  ASN695  SER759  ASP760  ASP761  ALA762  ILE779  LEU786  VAL792 
 PHE793  MET794  SER795  GLU796  ALA797  LYS798  CYS799  TRP800  GLU811  SER814 

> <Gold.Protein.RotatedAtoms>
  152.3814  133.6551  159.6163 H   0  0  0  0  0  0  0  0  0  0  0  0  # atno 6907 bound_to 6896
  150.7744  133.9108  159.3377 H   0  0  0  0  0  0  0  0  0  0  0  0  # atno 6908 bound_to 6896
  151.6913  135.0947  160.0285 H   0  0  0  0  0  0  0  0  0  0  0  0  # atno 6909 bound_to 6896
  145.9851  139.4281  143.0108 H   0  0  0  0  0  0  0  0  0  0  0  0  # atno 7974 bound_to 7965
  154.7950  140.2842  155.5964 H   0  0  0  0  0  0  0  0  0  0  0  0  # atno 8008 bound_to 7997
  156.2969  140.2597  156.2734 H   0  0  0  0  0  0  0  0  0  0  0  0  # atno 8009 bound_to 7997
  154.9626  140.0377  157.2186 H   0  0  0  0  0  0  0  0  0  0  0  0  # atno 8010 bound_to 7997
  140.0786  143.4809  152.1939 H   0  0  0  0  0  0  0  0  0  0  0  0  # atno 10167 bound_to 10162
  156.5439  130.4685  149.6485 H   0  0  0  0  0  0  0  0  0  0  0  0  # atno 10718 bound_to 10713
  153.1780  135.4503  154.9990 H   0  0  0  0  0  0  0  0  0  0  0  0  # atno 10763 bound_to 10752
  154.8011  135.3256  154.7550 H   0  0  0  0  0  0  0  0  0  0  0  0  # atno 10764 bound_to 10752
  153.8018  135.6962  153.4909 H   0  0  0  0  0  0  0  0  0  0  0  0  # atno 10765 bound_to 10752
  140.2195  134.3658  155.8011 H   0  0  0  0  0  0  0  0  0  0  0  0  # atno 11005 bound_to 11000
  145.7713  140.9895  143.1148 LP  0  0  0  0  0  0  0  0  0  0  0  0  # atno 17320 bound_to 7965
  144.6872  139.9450  143.7476 LP  0  0  0  0  0  0  0  0  0  0  0  0  # atno 17321 bound_to 7965
  139.5793  144.7503  151.3682 LP  0  0  0  0  0  0  0  0  0  0  0  0  # atno 17342 bound_to 10162
  140.7089  143.7441  150.7532 LP  0  0  0  0  0  0  0  0  0  0  0  0  # atno 17343 bound_to 10162
  156.2946  130.7143  151.2000 LP  0  0  0  0  0  0  0  0  0  0  0  0  # atno 17370 bound_to 10713
  157.7400  131.0522  150.5194 LP  0  0  0  0  0  0  0  0  0  0  0  0  # atno 17371 bound_to 10713
  141.2223  133.7186  156.8552 LP  0  0  0  0  0  0  0  0  0  0  0  0  # atno 17394 bound_to 11000
  140.1865  134.8996  157.3010 LP  0  0  0  0  0  0  0  0  0  0  0  0  # atno 17395 bound_to 11000

$$$$
