AV-unprocessed.smi:2212|AV-procd|sdf|8955|dock5
  -GOLD-   2272012173D 1   1.00000     0.00000
 Structure written by MMmdl.
 30 31  0  0  0  0  0  0  0  0  2 V2000
  153.6394  141.7293  160.6245 C   0  0  0  0  0  0  0  0  0  0  0  0
  152.8937  142.9376  160.6919 O   0  0  0  0  0  0  0  0  0  0  0  0
  152.2304  143.3314  159.4900 C   0  0  0  0  0  0  0  0  0  0  0  0
  151.2251  142.2745  159.0104 C   0  0  0  0  0  0  0  0  0  0  0  0
  151.8922  141.2356  158.2361 N   0  0  0  0  0  0  0  0  0  0  0  0
  151.6251  140.9350  156.9585 C   0  0  0  0  0  0  0  0  0  0  0  0
  150.7535  141.5618  156.3513 O   0  0  0  0  0  0  0  0  0  0  0  0
  152.3812  139.9287  156.4646 N   0  5  0  0  0  0  0  0  0  0  0  0
  151.8405  139.0410  155.6144 C   0  0  0  0  0  0  0  0  0  0  0  0
  152.0695  137.7267  155.5917 N   0  0  0  0  0  0  0  0  0  0  0  0
  151.2936  137.2244  154.5585 C   0  0  0  0  0  0  0  0  0  0  0  0
  150.6140  138.2708  153.9971 C   0  0  0  0  0  0  0  0  0  0  0  0
  150.9476  139.4211  154.6571 O   0  0  0  0  0  0  0  0  0  0  0  0
  151.7191  144.7722  159.6800 C   0  0  0  0  0  0  0  0  0  0  0  0
  152.2892  145.1158  158.3028 C   0  0  0  0  0  0  0  0  0  0  0  0
  153.2278  143.9199  158.4718 C   0  0  0  0  0  0  0  0  0  0  0  0
  154.1911  141.5976  161.5552 H   0  0  0  0  0  0  0  0  0  0  0  0
  154.3632  141.7416  159.8093 H   0  0  0  0  0  0  0  0  0  0  0  0
  152.9918  140.8606  160.5069 H   0  0  0  0  0  0  0  0  0  0  0  0
  150.7330  141.8092  159.8658 H   0  0  0  0  0  0  0  0  0  0  0  0
  150.4300  142.7233  158.4148 H   0  0  0  0  0  0  0  0  0  0  0  0
  152.6145  140.7073  158.7037 H   0  0  0  0  0  0  0  0  0  0  0  0
  151.2861  136.1741  154.3082 H   0  0  0  0  0  0  0  0  0  0  0  0
  149.9082  138.3616  153.1854 H   0  0  0  0  0  0  0  0  0  0  0  0
  150.6357  144.8700  159.7564 H   0  0  0  0  0  0  0  0  0  0  0  0
  152.2249  145.3067  160.4862 H   0  0  0  0  0  0  0  0  0  0  0  0
  151.5655  144.9783  157.4977 H   0  0  0  0  0  0  0  0  0  0  0  0
  152.7873  146.0836  158.2422 H   0  0  0  0  0  0  0  0  0  0  0  0
  154.1840  144.2027  158.9156 H   0  0  0  0  0  0  0  0  0  0  0  0
  153.3658  143.3235  157.5696 H   0  0  0  0  0  0  0  0  0  0  0  0
  1  2  1  0  0  0  0
  1 17  1  0  0  0  0
  1 18  1  0  0  0  0
  1 19  1  0  0  0  0
  2  3  1  0  0  0  0
  3 16  1  0  0  0  0
  3  4  1  0  0  0  0
  3 14  1  0  0  0  0
  4  5  1  0  0  0  0
  4 20  1  0  0  0  0
  4 21  1  0  0  0  0
  5 22  1  0  0  0  0
  5  6  1  0  0  0  0
  6  8  1  0  0  0  0
  6  7  2  0  0  0  0
  8  9  1  0  0  0  0
  9 13  1  0  0  0  0
  9 10  2  0  0  0  0
 10 11  1  0  0  0  0
 11 23  1  0  0  0  0
 11 12  2  0  0  0  0
 12 24  1  0  0  0  0
 12 13  1  0  0  0  0
 14 15  1  0  0  0  0
 14 25  1  0  0  0  0
 14 26  1  0  0  0  0
 15 16  1  0  0  0  0
 15 27  1  0  0  0  0
 15 28  1  0  0  0  0
 16 29  1  0  0  0  0
 16 30  1  0  0  0  0
M  CHG  1   8  -1
M  END
> <s_m_source_file>
AV-unprocessed.smi

> <i_m_source_file_index>
2212

> <i_lp_mmshare_version>
43012

> <i_f3d_flags>
0

> <s_epik_input>
W0NIMl0xW0NIMl1bQ0gyXUMxKE9bQ0gzXSlbQ0gyXVtOSF1DKD1PKVtOSF1jMm5bY0hdW2NIXW8y

> <s_epik_cmdline>
J2VwaWtfcHl0aG9uJywgJy1waCcsICc3LjAnLCAnLXRuJywgJzgnLCAnLW1hJywgJzIwMCcsICctbWV0YWxfYmluZGluZycsICctaW1hZScsICc8aW5maWxlLm1hZT4nLCAnLW9tYWUnLCAnPG91dGZpbGUubWFlPic=

> <r_lp_tautomer_probability>
0.107061

> <r_epik_Ionization_Penalty>
10.8857

> <r_epik_Ionization_Penalty_Charging>
7.67908

> <r_epik_Ionization_Penalty_Neutral>
3.20665

> <r_epik_State_Penalty>
5.80296

> <r_epik_Charging_Adjusted_Penalty>
13.482

> <i_epik_Tot_Q>
-1

> <i_epik_Tot_abs_Q>
1

> <r_epik_Metal_State_Penalty>
1.73217

> <b_epik_Metal_Only>
1

> <s_lp_Force_Field>
OPLS_2005

> <r_lp_Energy>
11.9556

> <b_lp_Chiralities_Consistent>
1

> <s_lp_Variant>
AV-unprocessed.smi:2212-5

> <Gold.Version>
5.8.1

> <Gold.Id.Protein>
6NUR|6NUR_protein|mol2

> <Gold.PLP.Fitness>
48.6274

> <Gold.PLP.PLP>
-34.9303

> <Gold.PLP.part.hbond>
-2.0625

> <Gold.PLP.part.metal>
0.0000

> <Gold.PLP.part.buried>
-4.6991

> <Gold.PLP.part.nonpolar>
-28.5887

> <Gold.PLP.part.repulsive>
0.2938

> <Gold.PLP.ligand.clash>
0.0000

> <Gold.PLP.ligand.torsion>
1.0040

> <Gold.PLP.Chemscore.Hbond>
3.0000

> <Gold.PLP.Chemscore.CHOScore>
2.1441

> <Gold.PLP.Chemscore.Metal>
0.0000

> <Gold.Chemscore.Hbonds>
donor molecule, donor type, donor heavy atom, donor atom, acceptor molecule, acceptor atom, score
      P1  H  7989  7998       L1    13  1.00
      P1  H  7997  8009       L1     8  2.00
      L1  C    11    23       P1  7949  0.15
      L1  C    12    24       P1  7948  0.62
      L1  C    12    24       P1  7957  0.75

> <Gold.PLP.Chemscore.Internal.Correction>
0.2729

> <Gold.Rescore>
     Score         DG    S(hbond)    S(metal)    S(lipo)     H(rot)  DE(clash)    DE(int)     intcor
     14.96     -18.04       1.92        0.00      87.76       1.61       0.01       3.06       ----

> <Gold.Chemscore.Fitness>
14.9602

> <Gold.Chemscore.DG>
-18.0390

> <Gold.Chemscore.ZeroCoef>
-5.4800

> <Gold.Chemscore.Hbond>
1.9231

> <Gold.Chemscore.Metal>
0.0000

> <Gold.Chemscore.Lipo>
87.7610

> <Gold.Chemscore.Internal_Hbond>
0.0000

> <Gold.Chemscore.DEClash>
0.0145

> <Gold.Chemscore.DEInternal>
3.0643

> <Gold.Chemscore.Rot>
1.6141

> <Gold.Chemscore.Internal.Correction>
   9.000000E+99

> <Gold.Chemscore.Hbonds>
donor molecule, donor type, donor heavy atom, donor atom, acceptor molecule, acceptor atom, score
      P1  H  7989  7998       L1    13  0.74
      P1  H  7997  8009       L1     8  0.90

> <Gold.Chemscore.Hbond.Weighted>
-6.4230

> <Gold.Chemscore.Metal.Weighted>
-0.0000

> <Gold.Chemscore.Lipo.Weighted>
-10.2680

> <Gold.Chemscore.Internal_Hbond.Weighted>
0.0000

> <Gold.Chemscore.DEClash.Weighted>
0.0145

> <Gold.Chemscore.DEInternal.Weighted>
3.0643

> <Gold.Chemscore.Rot.Weighted>
4.1320

> <Gold.Chemscore.Internal.Correction.Weighted>
   9.000000E+99

> <Gold.Protein.RotatedTorsions>
[ 6907 6896 6895 6894 ] final -121.83 input  -60.11 | X-H torsion
[ 7974 7965 7964 7962 ] final   91.32 input  175.53 | X-H torsion
[ 8008 7997 7996 7995 ] final -168.95 input   59.86 | X-H torsion
[ 10167 10162 10161 10158 ] final    5.57 input  -65.29 | X-H torsion
[ 10718 10713 10712 10709 ] final   31.07 input   66.30 | X-H torsion
[ 10763 10752 10751 10750 ] final  -72.43 input  -60.55 | X-H torsion
[ 11005 11000 10999 10996 ] final    2.70 input  -57.11 | X-H torsion

> <Gold.Protein.ActiveResidues>
 VAL166  LYS551  ARG553  GLY616  TRP617  ASP618  TYR619  PRO620  LYS621  CYS622 
 ASP623  PHE694  ASN695  SER759  ASP760  ASP761  ALA762  ILE779  LEU786  VAL792 
 PHE793  MET794  SER795  GLU796  ALA797  LYS798  CYS799  TRP800  GLU811  SER814 

> <Gold.Protein.RotatedAtoms>
  150.8520  133.7773  159.3022 H   0  0  0  0  0  0  0  0  0  0  0  0  # atno 6907 bound_to 6896
  151.5442  135.1066  159.9943 H   0  0  0  0  0  0  0  0  0  0  0  0  # atno 6908 bound_to 6896
  152.4560  133.7680  159.6839 H   0  0  0  0  0  0  0  0  0  0  0  0  # atno 6909 bound_to 6896
  145.5072  139.2276  143.2744 H   0  0  0  0  0  0  0  0  0  0  0  0  # atno 7974 bound_to 7965
  155.8983  140.1036  157.1368 H   0  0  0  0  0  0  0  0  0  0  0  0  # atno 8008 bound_to 7997
  154.4023  140.1297  156.4468 H   0  0  0  0  0  0  0  0  0  0  0  0  # atno 8009 bound_to 7997
  155.7452  140.3466  155.5126 H   0  0  0  0  0  0  0  0  0  0  0  0  # atno 8010 bound_to 7997
  140.6475  143.7626  150.7522 H   0  0  0  0  0  0  0  0  0  0  0  0  # atno 10167 bound_to 10162
  157.2678  130.7193  149.6488 H   0  0  0  0  0  0  0  0  0  0  0  0  # atno 10718 bound_to 10713
  154.4455  135.5930  153.6157 H   0  0  0  0  0  0  0  0  0  0  0  0  # atno 10763 bound_to 10752
  152.9809  135.6008  154.3669 H   0  0  0  0  0  0  0  0  0  0  0  0  # atno 10764 bound_to 10752
  154.3524  135.2841  155.2343 H   0  0  0  0  0  0  0  0  0  0  0  0  # atno 10765 bound_to 10752
  140.6013  133.9833  155.8133 H   0  0  0  0  0  0  0  0  0  0  0  0  # atno 11005 bound_to 11000
  146.2189  140.5877  142.9026 LP  0  0  0  0  0  0  0  0  0  0  0  0  # atno 17320 bound_to 7965
  144.7747  140.5714  143.6646 LP  0  0  0  0  0  0  0  0  0  0  0  0  # atno 17321 bound_to 7965
  140.1270  143.4560  152.2278 LP  0  0  0  0  0  0  0  0  0  0  0  0  # atno 17342 bound_to 10162
  139.5687  144.7450  151.3951 LP  0  0  0  0  0  0  0  0  0  0  0  0  # atno 17343 bound_to 10162
  155.9663  130.4377  150.5187 LP  0  0  0  0  0  0  0  0  0  0  0  0  # atno 17370 bound_to 10713
  157.3105  131.0663  151.2004 LP  0  0  0  0  0  0  0  0  0  0  0  0  # atno 17371 bound_to 10713
  141.0870  133.9975  157.3298 LP  0  0  0  0  0  0  0  0  0  0  0  0  # atno 17394 bound_to 11000
  139.9231  135.0201  156.8137 LP  0  0  0  0  0  0  0  0  0  0  0  0  # atno 17395 bound_to 11000

$$$$
