AV-unprocessed.smi:434|AV-procd|sdf|2554|dock1
  -GOLD-   2262022523D 1   1.00000     0.00000
 Structure written by MMmdl.
 40 42  0  0  0  0  0  0  0  0  2 V2000
  149.9498  140.9439  155.1625 C   0  0  0  0  0  0  0  0  0  0  0  0
  150.6488  141.4865  156.3635 C   0  0  0  0  0  0  0  0  0  0  0  0
  150.6676  142.7904  156.7594 N   0  3  0  0  0  0  0  0  0  0  0  0
  151.4219  142.9185  157.9266 C   0  0  0  0  0  0  0  0  0  0  0  0
  151.7244  144.0373  158.6969 C   0  0  0  0  0  0  0  0  0  0  0  0
  152.5223  143.8220  159.8397 C   0  0  0  0  0  0  0  0  0  0  0  0
  152.9851  142.5345  160.1796 C   0  0  0  0  0  0  0  0  0  0  0  0
  152.6730  141.4080  159.3903 C   0  0  0  0  0  0  0  0  0  0  0  0
  151.8859  141.6290  158.2600 C   0  0  0  0  0  0  0  0  0  0  0  0
  151.3867  140.7785  157.2654 N   0  0  0  0  0  0  0  0  0  0  0  0
  151.6916  139.3390  157.3120 C   0  0  0  0  0  0  0  0  0  0  0  0
  151.1718  138.6586  158.5940 C   0  0  2  0  0  0  0  0  0  0  0  0
  152.2567  138.4143  159.4672 O   0  0  0  0  0  0  0  0  0  0  0  0
  150.4821  137.3186  158.2957 C   0  0  0  0  0  0  0  0  0  0  0  0
  149.8288  136.8712  159.4714 O   0  0  0  0  0  0  0  0  0  0  0  0
  148.4858  136.4836  159.2399 C   0  0  0  0  0  0  0  0  0  0  0  0
  147.8910  136.1972  160.5765 C   0  0  0  0  0  0  0  0  0  0  0  0
  147.4539  135.0544  161.1871 C   0  0  0  0  0  0  0  0  0  0  0  0
  146.9894  135.4405  162.4749 C   0  0  0  0  0  0  0  0  0  0  0  0
  147.1760  136.7914  162.5528 C   0  0  0  0  0  0  0  0  0  0  0  0
  147.7254  137.2687  161.4028 O   0  0  0  0  0  0  0  0  0  0  0  0
  149.3541  141.7204  154.6820 H   0  0  0  0  0  0  0  0  0  0  0  0
  149.2871  140.1269  155.4475 H   0  0  0  0  0  0  0  0  0  0  0  0
  150.6769  140.5683  154.4425 H   0  0  0  0  0  0  0  0  0  0  0  0
  151.3688  145.0243  158.4396 H   0  0  0  0  0  0  0  0  0  0  0  0
  152.7831  144.6606  160.4691 H   0  0  0  0  0  0  0  0  0  0  0  0
  153.5913  142.4073  161.0649 H   0  0  0  0  0  0  0  0  0  0  0  0
  153.0280  140.4259  159.6650 H   0  0  0  0  0  0  0  0  0  0  0  0
  151.2256  138.8851  156.4366 H   0  0  0  0  0  0  0  0  0  0  0  0
  152.7649  139.1912  157.1913 H   0  0  0  0  0  0  0  0  0  0  0  0
  150.4674  139.3285  159.0887 H   0  0  0  0  0  0  0  0  0  0  0  0
  152.9624  138.9984  159.2339 H   0  0  0  0  0  0  0  0  0  0  0  0
  149.7285  137.4551  157.5183 H   0  0  0  0  0  0  0  0  0  0  0  0
  151.1966  136.5799  157.9274 H   0  0  0  0  0  0  0  0  0  0  0  0
  147.9323  137.2812  158.7422 H   0  0  0  0  0  0  0  0  0  0  0  0
  148.4445  135.5960  158.6069 H   0  0  0  0  0  0  0  0  0  0  0  0
  147.4693  134.0627  160.7596 H   0  0  0  0  0  0  0  0  0  0  0  0
  146.5717  134.8105  163.2464 H   0  0  0  0  0  0  0  0  0  0  0  0
  146.9833  137.5326  163.3146 H   0  0  0  0  0  0  0  0  0  0  0  0
  150.1965  143.5374  156.2655 H   0  0  0  0  0  0  0  0  0  0  0  0
  1  2  1  0  0  0  0
  1 22  1  0  0  0  0
  1 23  1  0  0  0  0
  1 24  1  0  0  0  0
  2 10  1  0  0  0  0
  2  3  2  0  0  0  0
  3  4  1  0  0  0  0
  3 40  1  0  0  0  0
  4  9  2  0  0  0  0
  4  5  1  0  0  0  0
  5  6  2  0  0  0  0
  5 25  1  0  0  0  0
  6  7  1  0  0  0  0
  6 26  1  0  0  0  0
  7  8  2  0  0  0  0
  7 27  1  0  0  0  0
  8  9  1  0  0  0  0
  8 28  1  0  0  0  0
  9 10  1  0  0  0  0
 10 11  1  0  0  0  0
 11 12  1  0  0  0  0
 11 29  1  0  0  0  0
 11 30  1  0  0  0  0
 12 13  1  0  0  0  0
 12 14  1  0  0  0  0
 12 31  1  0  0  0  0
 13 32  1  0  0  0  0
 14 15  1  0  0  0  0
 14 33  1  0  0  0  0
 14 34  1  0  0  0  0
 15 16  1  0  0  0  0
 16 17  1  0  0  0  0
 16 35  1  0  0  0  0
 16 36  1  0  0  0  0
 17 21  1  0  0  0  0
 17 18  2  0  0  0  0
 18 19  1  0  0  0  0
 18 37  1  0  0  0  0
 19 20  2  0  0  0  0
 19 38  1  0  0  0  0
 20 21  1  0  0  0  0
 20 39  1  0  0  0  0
M  CHG  1   3   1
M  END
> <s_m_source_file>
AV-unprocessed.smi

> <i_m_source_file_index>
434

> <i_lp_mmshare_version>
43012

> <i_f3d_flags>
0

> <s_epik_input>
W2NIXTFbY0hdW2NIXVtjSF1jKGMxMiluKGMobjIpW0NIM10pW0NIMl1bQ0BIXShbT0hdKVtDSDJdT1tDSDJdYzNbY0hdW2NIXVtjSF1vMw==

> <s_epik_cmdline>
J2VwaWtfcHl0aG9uJywgJy1waCcsICc3LjAnLCAnLXRuJywgJzgnLCAnLW1hJywgJzIwMCcsICctbWV0YWxfYmluZGluZycsICctaW1hZScsICc8aW5maWxlLm1hZT4nLCAnLW9tYWUnLCAnPG91dGZpbGUubWFlPic=

> <r_epik_Ionization_Penalty>
0.976413

> <r_epik_Ionization_Penalty_Charging>
0.976412

> <r_epik_Ionization_Penalty_Neutral>
9.34185e-07

> <r_epik_State_Penalty>
1.02286

> <r_epik_Charging_Adjusted_Penalty>
1.99927

> <i_epik_Tot_Q>
1

> <i_epik_Tot_abs_Q>
1

> <r_epik_Metal_State_Penalty>
4.99966

> <b_epik_Metal_Only>
0

> <s_lp_Force_Field>
OPLS_2005

> <r_lp_Energy>
12.4411

> <b_lp_Chiralities_Consistent>
1

> <s_lp_Variant>
AV-unprocessed.smi:434-3

> <Gold.Version>
5.8.1

> <Gold.Id.Protein>
6NUR|6NUR_protein|mol2

> <Gold.PLP.Fitness>
61.6930

> <Gold.PLP.PLP>
-49.9261

> <Gold.PLP.part.hbond>
-3.7826

> <Gold.PLP.part.metal>
0.0000

> <Gold.PLP.part.buried>
-5.2554

> <Gold.PLP.part.nonpolar>
-40.3597

> <Gold.PLP.part.repulsive>
0.0431

> <Gold.PLP.ligand.clash>
0.0000

> <Gold.PLP.ligand.torsion>
1.0967

> <Gold.PLP.Chemscore.Hbond>
4.4946

> <Gold.PLP.Chemscore.CHOScore>
0.0000

> <Gold.PLP.Chemscore.Metal>
0.0000

> <Gold.Chemscore.Hbonds>
donor molecule, donor type, donor heavy atom, donor atom, acceptor molecule, acceptor atom, score
      L1  H     3    40       P1  8028  2.00
      P1  H  6896  6909       L1    15  0.49
      P1  H  6931  6943       L1    21  0.96
      P1  H  6934  6947       L1    21  0.77

> <Gold.PLP.Chemscore.Internal.Correction>
0.4765

> <Gold.Rescore>
     Score         DG    S(hbond)    S(metal)    S(lipo)     H(rot)  DE(clash)    DE(int)     intcor
     20.38     -21.61       2.48        0.00     120.84       2.45       0.01       1.22       ----

> <Gold.Chemscore.Fitness>
20.3844

> <Gold.Chemscore.DG>
-21.6147

> <Gold.Chemscore.ZeroCoef>
-5.4800

> <Gold.Chemscore.Hbond>
2.4787

> <Gold.Chemscore.Metal>
0.0000

> <Gold.Chemscore.Lipo>
120.8443

> <Gold.Chemscore.Internal_Hbond>
0.0000

> <Gold.Chemscore.DEClash>
0.0073

> <Gold.Chemscore.DEInternal>
1.2229

> <Gold.Chemscore.Rot>
2.4543

> <Gold.Chemscore.Internal.Correction>
   9.000000E+99

> <Gold.Chemscore.Hbonds>
donor molecule, donor type, donor heavy atom, donor atom, acceptor molecule, acceptor atom, score
      L1  H     3    40       P1  8028  1.00
      P1  H  6896  6909       L1    15  0.06
      P1  H  6931  6943       L1    21  0.46
      P1  H  6934  6947       L1    21  0.70

> <Gold.Chemscore.Hbond.Weighted>
-8.2788

> <Gold.Chemscore.Metal.Weighted>
-0.0000

> <Gold.Chemscore.Lipo.Weighted>
-14.1388

> <Gold.Chemscore.Internal_Hbond.Weighted>
0.0000

> <Gold.Chemscore.DEClash.Weighted>
0.0073

> <Gold.Chemscore.DEInternal.Weighted>
1.2229

> <Gold.Chemscore.Rot.Weighted>
6.2829

> <Gold.Chemscore.Internal.Correction.Weighted>
   9.000000E+99

> <Gold.Protein.RotatedTorsions>
[ 6907 6896 6895 6894 ] final   79.02 input  -60.11 | X-H torsion
[ 7974 7965 7964 7962 ] final   94.08 input  175.53 | X-H torsion
[ 8008 7997 7996 7995 ] final  -38.71 input   59.86 | X-H torsion
[ 10167 10162 10161 10158 ] final  -72.83 input  -65.29 | X-H torsion
[ 10718 10713 10712 10709 ] final   82.65 input   66.30 | X-H torsion
[ 10763 10752 10751 10750 ] final  -97.90 input  -60.55 | X-H torsion
[ 11005 11000 10999 10996 ] final   64.80 input  -57.11 | X-H torsion

> <Gold.Protein.ActiveResidues>
 VAL166  LYS551  ARG553  GLY616  TRP617  ASP618  TYR619  PRO620  LYS621  CYS622 
 ASP623  PHE694  ASN695  SER759  ASP760  ASP761  ALA762  ILE779  LEU786  VAL792 
 PHE793  MET794  SER795  GLU796  ALA797  LYS798  CYS799  TRP800  GLU811  SER814 

> <Gold.Protein.RotatedAtoms>
  152.5182  134.3576  159.9272 H   0  0  0  0  0  0  0  0  0  0  0  0  # atno 6907 bound_to 6896
  151.3527  133.3913  159.2689 H   0  0  0  0  0  0  0  0  0  0  0  0  # atno 6908 bound_to 6896
  150.9714  134.9105  159.7848 H   0  0  0  0  0  0  0  0  0  0  0  0  # atno 6909 bound_to 6896
  145.4703  139.2282  143.2938 H   0  0  0  0  0  0  0  0  0  0  0  0  # atno 7974 bound_to 7965
  154.4033  140.1570  156.2745 H   0  0  0  0  0  0  0  0  0  0  0  0  # atno 8008 bound_to 7997
  155.8924  140.3438  155.5944 H   0  0  0  0  0  0  0  0  0  0  0  0  # atno 8009 bound_to 7997
  155.7543  140.0809  157.2177 H   0  0  0  0  0  0  0  0  0  0  0  0  # atno 8010 bound_to 7997
  140.5160  143.2338  151.7511 H   0  0  0  0  0  0  0  0  0  0  0  0  # atno 10167 bound_to 10162
  157.6862  131.0057  150.2406 H   0  0  0  0  0  0  0  0  0  0  0  0  # atno 10718 bound_to 10713
  154.7368  135.5029  153.9055 H   0  0  0  0  0  0  0  0  0  0  0  0  # atno 10763 bound_to 10752
  153.1003  135.6683  153.9694 H   0  0  0  0  0  0  0  0  0  0  0  0  # atno 10764 bound_to 10752
  153.9481  135.3060  155.3419 H   0  0  0  0  0  0  0  0  0  0  0  0  # atno 10765 bound_to 10752
  139.9935  134.6554  156.0050 H   0  0  0  0  0  0  0  0  0  0  0  0  # atno 11005 bound_to 11000
  146.2400  140.5481  142.8938 LP  0  0  0  0  0  0  0  0  0  0  0  0  # atno 17320 bound_to 7965
  144.7949  140.6103  143.6517 LP  0  0  0  0  0  0  0  0  0  0  0  0  # atno 17321 bound_to 7965
  139.4909  144.4322  151.9859 LP  0  0  0  0  0  0  0  0  0  0  0  0  # atno 17342 bound_to 10162
  140.3417  144.3195  150.5966 LP  0  0  0  0  0  0  0  0  0  0  0  0  # atno 17343 bound_to 10162
  156.3021  130.3760  149.7741 LP  0  0  0  0  0  0  0  0  0  0  0  0  # atno 17370 bound_to 10713
  156.5367  130.8282  151.3255 LP  0  0  0  0  0  0  0  0  0  0  0  0  # atno 17371 bound_to 10713
  141.1585  133.6540  156.4241 LP  0  0  0  0  0  0  0  0  0  0  0  0  # atno 17394 bound_to 11000
  140.4863  134.6618  157.5192 LP  0  0  0  0  0  0  0  0  0  0  0  0  # atno 17395 bound_to 11000

$$$$
