AV-unprocessed.smi:121|AV-procd|sdf|1140|dock10
  -GOLD-   2262018273D 1   1.00000     0.00000
 Structure written by MMmdl.
 37 39  0  0  0  0  0  0  0  0  1 V2000
  156.2051  134.9903  156.2822 N   0  0  0  0  0  0  0  0  0  0  0  0
  156.2045  135.9302  156.9570 C   0  0  0  0  0  0  0  0  0  0  0  0
  156.2036  137.1110  157.8043 C   0  0  0  0  0  0  0  0  0  0  0  0
  157.3751  137.8824  157.9423 C   0  0  0  0  0  0  0  0  0  0  0  0
  157.3722  139.0232  158.7674 C   0  0  0  0  0  0  0  0  0  0  0  0
  156.1999  139.3953  159.4526 C   0  0  0  0  0  0  0  0  0  0  0  0
  155.0203  138.6342  159.3145 C   0  0  0  0  0  0  0  0  0  0  0  0
  153.7652  139.0625  160.0673 C   0  0  0  0  0  0  0  0  0  0  0  0
  153.0167  140.1566  159.4674 N   0  0  0  0  0  0  0  0  0  0  0  0
  152.2818  139.8640  158.2923 C   0  0  0  0  0  0  0  0  0  0  0  0
  152.2749  138.7385  157.7899 O   0  0  0  0  0  0  0  0  0  0  0  0
  151.5410  140.9937  157.7426 C   0  0  0  0  0  0  0  0  0  0  0  0
  150.8275  140.8355  156.6150 F   0  0  0  0  0  0  0  0  0  0  0  0
  151.5621  142.2010  158.3471 C   0  0  0  0  0  0  0  0  0  0  0  0
  152.2688  142.4513  159.5111 N   0  0  0  0  0  0  0  0  0  0  0  0
  152.2560  143.8221  160.1490 C   0  0  1  0  0  0  0  0  0  0  0  0
  152.4935  144.9036  159.0885 C   0  0  0  0  0  0  0  0  0  0  0  0
  151.0834  145.3580  158.7782 C   0  0  0  0  0  0  0  0  0  0  0  0
  150.4072  145.2071  160.1354 C   0  0  0  0  0  0  0  0  0  0  0  0
  150.9962  144.0467  160.7139 O   0  0  0  0  0  0  0  0  0  0  0  0
  153.0340  141.4221  160.1029 C   0  0  0  0  0  0  0  0  0  0  0  0
  153.6801  141.6279  161.1329 O   0  0  0  0  0  0  0  0  0  0  0  0
  155.0302  137.4857  158.4906 C   0  0  0  0  0  0  0  0  0  0  0  0
  158.2792  137.6041  157.4198 H   0  0  0  0  0  0  0  0  0  0  0  0
  158.2700  139.6140  158.8745 H   0  0  0  0  0  0  0  0  0  0  0  0
  156.2084  140.2728  160.0826 H   0  0  0  0  0  0  0  0  0  0  0  0
  153.1017  138.2070  160.1947 H   0  0  0  0  0  0  0  0  0  0  0  0
  154.0080  139.3752  161.0850 H   0  0  0  0  0  0  0  0  0  0  0  0
  150.9984  143.0009  157.8905 H   0  0  0  0  0  0  0  0  0  0  0  0
  153.0076  143.8077  160.9394 H   0  0  0  0  0  0  0  0  0  0  0  0
  153.0644  145.7150  159.5411 H   0  0  0  0  0  0  0  0  0  0  0  0
  153.0403  144.5259  158.2233 H   0  0  0  0  0  0  0  0  0  0  0  0
  151.0368  146.3759  158.3898 H   0  0  0  0  0  0  0  0  0  0  0  0
  150.6228  144.6913  158.0480 H   0  0  0  0  0  0  0  0  0  0  0  0
  150.6294  146.0671  160.7687 H   0  0  0  0  0  0  0  0  0  0  0  0
  149.3241  145.1107  160.0586 H   0  0  0  0  0  0  0  0  0  0  0  0
  154.1378  136.8865  158.3831 H   0  0  0  0  0  0  0  0  0  0  0  0
  1  2  3  0  0  0  0
  2  3  1  0  0  0  0
  3 23  1  0  0  0  0
  3  4  2  0  0  0  0
  4  5  1  0  0  0  0
  4 24  1  0  0  0  0
  5  6  2  0  0  0  0
  5 25  1  0  0  0  0
  6  7  1  0  0  0  0
  6 26  1  0  0  0  0
  7  8  1  0  0  0  0
  7 23  2  0  0  0  0
  8  9  1  0  0  0  0
  8 27  1  0  0  0  0
  8 28  1  0  0  0  0
  9 21  1  0  0  0  0
  9 10  1  0  0  0  0
 10 11  2  0  0  0  0
 10 12  1  0  0  0  0
 12 13  1  0  0  0  0
 12 14  2  0  0  0  0
 14 15  1  0  0  0  0
 14 29  1  0  0  0  0
 15 16  1  0  0  0  0
 15 21  1  0  0  0  0
 16 20  1  0  0  0  0
 16 17  1  0  0  0  0
 16 30  1  0  0  0  0
 17 18  1  0  0  0  0
 17 31  1  0  0  0  0
 17 32  1  0  0  0  0
 18 19  1  0  0  0  0
 18 33  1  0  0  0  0
 18 34  1  0  0  0  0
 19 20  1  0  0  0  0
 19 35  1  0  0  0  0
 19 36  1  0  0  0  0
 21 22  2  0  0  0  0
 23 37  1  0  0  0  0
M  END
> <s_m_source_file>
AV-unprocessed.smi

> <i_m_source_file_index>
121

> <i_lp_mmshare_version>
43012

> <i_f3d_flags>
0

> <s_epik_input>
TiNDYzFbY0hdW2NIXVtjSF1jKFtjSF0xKVtDSDJdbjJjKD1PKWMoRilbY0hdbihjMj1PKVtDQEBIXTNbQ0gyXVtDSDJdW0NIMl1PMw==

> <s_epik_cmdline>
J2VwaWtfcHl0aG9uJywgJy1waCcsICc3LjAnLCAnLXRuJywgJzgnLCAnLW1hJywgJzIwMCcsICctbWV0YWxfYmluZGluZycsICctaW1hZScsICc8aW5maWxlLm1hZT4nLCAnLW9tYWUnLCAnPG91dGZpbGUubWFlPic=

> <r_lp_tautomer_probability>
1

> <r_epik_Ionization_Penalty>
1.69864e-08

> <r_epik_Ionization_Penalty_Charging>
1.69802e-08

> <r_epik_Ionization_Penalty_Neutral>
6.20402e-12

> <r_epik_State_Penalty>
-0

> <r_epik_Charging_Adjusted_Penalty>
1.69802e-08

> <i_epik_Tot_Q>
0

> <i_epik_Tot_abs_Q>
0

> <r_epik_Metal_State_Penalty>
-0

> <b_epik_Metal_Only>
0

> <s_epik_Chemistry_Notes>
This compound contains an acetal/aminal-like group ( X-CH(R)-Y where X, Y are N, S, or O) that may be acid/base labile, releasing an aldehyde.

> <s_lp_Force_Field>
OPLS_2005

> <r_lp_Energy>
33.8546

> <b_lp_Chiralities_Consistent>
1

> <s_lp_Variant>
AV-unprocessed.smi:121-2

> <Gold.Version>
5.8.1

> <Gold.Id.Protein>
6NUR|6NUR_protein|mol2

> <Gold.PLP.Fitness>
40.6309

> <Gold.PLP.PLP>
-38.9278

> <Gold.PLP.part.hbond>
-1.4246

> <Gold.PLP.part.metal>
0.0000

> <Gold.PLP.part.buried>
-4.5688

> <Gold.PLP.part.nonpolar>
-31.3112

> <Gold.PLP.part.repulsive>
0.1342

> <Gold.PLP.ligand.clash>
0.0000

> <Gold.PLP.ligand.torsion>
0.6520

> <Gold.PLP.Chemscore.Hbond>
1.0000

> <Gold.PLP.Chemscore.CHOScore>
0.0000

> <Gold.PLP.Chemscore.Metal>
0.0000

> <Gold.Chemscore.Hbonds>
donor molecule, donor type, donor heavy atom, donor atom, acceptor molecule, acceptor atom, score
      P1  H 10752 10763       L1     1  1.00

> <Gold.PLP.Chemscore.Internal.Correction>
0.0072

> <Gold.Rescore>
     Score         DG    S(hbond)    S(metal)    S(lipo)     H(rot)  DE(clash)    DE(int)     intcor
     12.73     -13.55       0.93        0.00      77.31       1.59       0.06       0.76       ----

> <Gold.Chemscore.Fitness>
12.7345

> <Gold.Chemscore.DG>
-13.5541

> <Gold.Chemscore.ZeroCoef>
-5.4800

> <Gold.Chemscore.Hbond>
0.9265

> <Gold.Chemscore.Metal>
0.0000

> <Gold.Chemscore.Lipo>
77.3100

> <Gold.Chemscore.Internal_Hbond>
0.0000

> <Gold.Chemscore.DEClash>
0.0572

> <Gold.Chemscore.DEInternal>
0.7624

> <Gold.Chemscore.Rot>
1.5882

> <Gold.Chemscore.Internal.Correction>
   9.000000E+99

> <Gold.Chemscore.Hbonds>
donor molecule, donor type, donor heavy atom, donor atom, acceptor molecule, acceptor atom, score
      P1  H 10752 10763       L1     1  0.44

> <Gold.Chemscore.Hbond.Weighted>
-3.0946

> <Gold.Chemscore.Metal.Weighted>
-0.0000

> <Gold.Chemscore.Lipo.Weighted>
-9.0453

> <Gold.Chemscore.Internal_Hbond.Weighted>
0.0000

> <Gold.Chemscore.DEClash.Weighted>
0.0572

> <Gold.Chemscore.DEInternal.Weighted>
0.7624

> <Gold.Chemscore.Rot.Weighted>
4.0657

> <Gold.Chemscore.Internal.Correction.Weighted>
   9.000000E+99

> <Gold.Protein.RotatedTorsions>
[ 6907 6896 6895 6894 ] final -134.25 input  -60.11 | X-H torsion
[ 7974 7965 7964 7962 ] final    4.88 input  175.53 | X-H torsion
[ 8008 7997 7996 7995 ] final -126.40 input   59.86 | X-H torsion
[ 10167 10162 10161 10158 ] final   23.14 input  -65.29 | X-H torsion
[ 10718 10713 10712 10709 ] final  139.16 input   66.30 | X-H torsion
[ 10763 10752 10751 10750 ] final -170.69 input  -60.55 | X-H torsion
[ 11005 11000 10999 10996 ] final  -51.82 input  -57.11 | X-H torsion

> <Gold.Protein.ActiveResidues>
 VAL166  LYS551  ARG553  GLY616  TRP617  ASP618  TYR619  PRO620  LYS621  CYS622 
 ASP623  PHE694  ASN695  SER759  ASP760  ASP761  ALA762  ILE779  LEU786  VAL792 
 PHE793  MET794  SER795  GLU796  ALA797  LYS798  CYS799  TRP800  GLU811  SER814 

> <Gold.Protein.RotatedAtoms>
  150.9836  133.6220  159.2718 H   0  0  0  0  0  0  0  0  0  0  0  0  # atno 6907 bound_to 6896
  151.3466  135.0874  159.9399 H   0  0  0  0  0  0  0  0  0  0  0  0  # atno 6908 bound_to 6896
  152.5223  133.9437  159.7693 H   0  0  0  0  0  0  0  0  0  0  0  0  # atno 6909 bound_to 6896
  146.2442  140.0468  142.8378 H   0  0  0  0  0  0  0  0  0  0  0  0  # atno 7974 bound_to 7965
  155.2291  140.0424  157.2959 H   0  0  0  0  0  0  0  0  0  0  0  0  # atno 8008 bound_to 7997
  154.5900  140.2424  155.7905 H   0  0  0  0  0  0  0  0  0  0  0  0  # atno 8009 bound_to 7997
  156.2252  140.2957  156.0059 H   0  0  0  0  0  0  0  0  0  0  0  0  # atno 8010 bound_to 7997
  140.5292  143.9870  150.6457 H   0  0  0  0  0  0  0  0  0  0  0  0  # atno 10167 bound_to 10162
  157.4174  131.1035  151.0390 H   0  0  0  0  0  0  0  0  0  0  0  0  # atno 10718 bound_to 10713
  154.6388  135.2896  155.0129 H   0  0  0  0  0  0  0  0  0  0  0  0  # atno 10763 bound_to 10752
  154.1263  135.6540  153.4917 H   0  0  0  0  0  0  0  0  0  0  0  0  # atno 10764 bound_to 10752
  153.0316  135.5299  154.7246 H   0  0  0  0  0  0  0  0  0  0  0  0  # atno 10765 bound_to 10752
  141.0892  133.6636  156.3934 H   0  0  0  0  0  0  0  0  0  0  0  0  # atno 11005 bound_to 11000
  145.1019  140.9351  143.4707 LP  0  0  0  0  0  0  0  0  0  0  0  0  # atno 17320 bound_to 7965
  145.0663  139.3066  143.5854 LP  0  0  0  0  0  0  0  0  0  0  0  0  # atno 17321 bound_to 7965
  140.3240  143.3119  152.0755 LP  0  0  0  0  0  0  0  0  0  0  0  0  # atno 17342 bound_to 10162
  139.4948  144.6554  151.6583 LP  0  0  0  0  0  0  0  0  0  0  0  0  # atno 17343 bound_to 10162
  157.1333  130.6111  149.5535 LP  0  0  0  0  0  0  0  0  0  0  0  0  # atno 17370 bound_to 10713
  155.9869  130.4906  150.7102 LP  0  0  0  0  0  0  0  0  0  0  0  0  # atno 17371 bound_to 10713
  140.5293  134.6228  157.5344 LP  0  0  0  0  0  0  0  0  0  0  0  0  # atno 17394 bound_to 11000
  139.9714  134.7286  156.0033 LP  0  0  0  0  0  0  0  0  0  0  0  0  # atno 17395 bound_to 11000

$$$$
