AV-unprocessed.smi:3101|AV-procd|sdf|11811|dock1
  -GOLD-   2272017183D 1   1.00000     0.00000
 Structure written by MMmdl.
 28 29  0  0  0  0  0  0  0  0  1 V2000
  153.9541  141.7992  160.5429 C   0  0  0  0  0  0  0  0  0  0  0  0
  152.5804  142.2100  159.9895 C   0  0  1  0  0  0  0  0  0  0  0  0
  152.2291  143.6599  160.2545 C   0  0  0  0  0  0  0  0  0  0  0  0
  151.1203  143.9103  159.2383 C   0  0  0  0  0  0  0  0  0  0  0  0
  151.4081  143.0632  158.1298 O   0  0  0  0  0  0  0  0  0  0  0  0
  152.4572  142.1511  158.4581 C   0  0  2  0  0  0  0  0  0  0  0  0
  152.1457  140.7647  157.8732 C   0  0  0  0  0  0  0  0  0  0  0  0
  152.1170  139.7767  158.6074 O   0  0  0  0  0  0  0  0  0  0  0  0
  151.9334  140.7269  156.5443 N   0  0  0  0  0  0  0  0  0  0  0  0
  151.6260  139.6023  155.7346 C   0  0  0  0  0  0  0  0  0  0  0  0
  152.2620  138.3917  156.0978 C   0  0  0  0  0  0  0  0  0  0  0  0
  152.0704  137.2361  155.4236 N   0  0  0  0  0  0  0  0  0  0  0  0
  151.2300  137.2851  154.3680 C   0  0  0  0  0  0  0  0  0  0  0  0
  150.5873  138.4815  153.9920 C   0  0  0  0  0  0  0  0  0  0  0  0
  150.7833  139.6329  154.6704 N   0  0  0  0  0  0  0  0  0  0  0  0
  154.7532  142.4035  160.1125 H   0  0  0  0  0  0  0  0  0  0  0  0
  154.1746  140.7542  160.3255 H   0  0  0  0  0  0  0  0  0  0  0  0
  153.9893  141.9239  161.6252 H   0  0  0  0  0  0  0  0  0  0  0  0
  151.8116  141.5816  160.4434 H   0  0  0  0  0  0  0  0  0  0  0  0
  151.9128  143.8444  161.2815 H   0  0  0  0  0  0  0  0  0  0  0  0
  153.0827  144.3045  160.0394 H   0  0  0  0  0  0  0  0  0  0  0  0
  150.1535  143.6204  159.6513 H   0  0  0  0  0  0  0  0  0  0  0  0
  151.0600  144.9562  158.9367 H   0  0  0  0  0  0  0  0  0  0  0  0
  153.3732  142.5268  157.9998 H   0  0  0  0  0  0  0  0  0  0  0  0
  151.9876  141.6121  156.0613 H   0  0  0  0  0  0  0  0  0  0  0  0
  152.9356  138.3475  156.9414 H   0  0  0  0  0  0  0  0  0  0  0  0
  151.0693  136.3677  153.8215 H   0  0  0  0  0  0  0  0  0  0  0  0
  149.9158  138.5148  153.1469 H   0  0  0  0  0  0  0  0  0  0  0  0
  1  2  1  0  0  0  0
  1 16  1  0  0  0  0
  1 17  1  0  0  0  0
  1 18  1  0  0  0  0
  2  6  1  0  0  0  0
  2  3  1  0  0  0  0
  2 19  1  0  0  0  0
  3  4  1  0  0  0  0
  3 20  1  0  0  0  0
  3 21  1  0  0  0  0
  4  5  1  0  0  0  0
  4 22  1  0  0  0  0
  4 23  1  0  0  0  0
  5  6  1  0  0  0  0
  6  7  1  0  0  0  0
  6 24  1  0  0  0  0
  7  8  2  0  0  0  0
  7  9  1  0  0  0  0
  9 10  1  0  0  0  0
  9 25  1  0  0  0  0
 10 15  1  0  0  0  0
 10 11  2  0  0  0  0
 11 12  1  0  0  0  0
 11 26  1  0  0  0  0
 12 13  2  0  0  0  0
 13 14  1  0  0  0  0
 13 27  1  0  0  0  0
 14 15  2  0  0  0  0
 14 28  1  0  0  0  0
M  END
> <s_m_source_file>
AV-unprocessed.smi

> <i_m_source_file_index>
3101

> <i_lp_mmshare_version>
43012

> <i_f3d_flags>
0

> <s_epik_input>
W0NIM11bQ0BASF0xW0NIMl1bQ0gyXU9bQ0BIXTFDKD1PKVtOSF1jMltjSF1uW2NIXVtjSF1uMg==

> <s_epik_cmdline>
J2VwaWtfcHl0aG9uJywgJy1waCcsICc3LjAnLCAnLXRuJywgJzgnLCAnLW1hJywgJzIwMCcsICctbWV0YWxfYmluZGluZycsICctaW1hZScsICc8aW5maWxlLm1hZT4nLCAnLW9tYWUnLCAnPG91dGZpbGUubWFlPic=

> <r_lp_tautomer_probability>
1

> <r_epik_Ionization_Penalty>
2.83174e-06

> <r_epik_Ionization_Penalty_Charging>
0

> <r_epik_Ionization_Penalty_Neutral>
2.83174e-06

> <r_epik_State_Penalty>
-0

> <r_epik_Charging_Adjusted_Penalty>
0

> <i_epik_Tot_Q>
0

> <i_epik_Tot_abs_Q>
0

> <r_epik_Metal_State_Penalty>
-0

> <b_epik_Metal_Only>
0

> <s_lp_Force_Field>
OPLS_2005

> <r_lp_Energy>
26.5221

> <b_lp_Chiralities_Consistent>
1

> <s_lp_Variant>
AV-unprocessed.smi:3101-4

> <Gold.Version>
5.8.1

> <Gold.Id.Protein>
6NUR|6NUR_protein|mol2

> <Gold.PLP.Fitness>
40.2028

> <Gold.PLP.PLP>
-28.2837

> <Gold.PLP.part.hbond>
-2.0000

> <Gold.PLP.part.metal>
0.0000

> <Gold.PLP.part.buried>
-2.9832

> <Gold.PLP.part.nonpolar>
-23.7416

> <Gold.PLP.part.repulsive>
0.3583

> <Gold.PLP.ligand.clash>
0.0000

> <Gold.PLP.ligand.torsion>
0.3123

> <Gold.PLP.Chemscore.Hbond>
1.7722

> <Gold.PLP.Chemscore.CHOScore>
2.4083

> <Gold.PLP.Chemscore.Metal>
0.0000

> <Gold.Chemscore.Hbonds>
donor molecule, donor type, donor heavy atom, donor atom, acceptor molecule, acceptor atom, score
      P1  H  7989  7998       L1    15  1.00
      P1  H 10752 10765       L1    12  0.73
      L1  C    13    27       P1  7949  0.99
      L1  C    14    28       P1  7948  0.40
      L1  C    14    28       P1  7957  1.00

> <Gold.PLP.Chemscore.Internal.Correction>
0.0022

> <Gold.Rescore>
     Score         DG    S(hbond)    S(metal)    S(lipo)     H(rot)  DE(clash)    DE(int)     intcor
     13.06     -14.76       0.91        0.00      75.13       1.00       0.13       1.56       ----

> <Gold.Chemscore.Fitness>
13.0627

> <Gold.Chemscore.DG>
-14.7613

> <Gold.Chemscore.ZeroCoef>
-5.4800

> <Gold.Chemscore.Hbond>
0.9134

> <Gold.Chemscore.Metal>
0.0000

> <Gold.Chemscore.Lipo>
75.1314

> <Gold.Chemscore.Internal_Hbond>
0.0000

> <Gold.Chemscore.DEClash>
0.1347

> <Gold.Chemscore.DEInternal>
1.5639

> <Gold.Chemscore.Rot>
1.0000

> <Gold.Chemscore.Internal.Correction>
   9.000000E+99

> <Gold.Chemscore.Hbonds>
donor molecule, donor type, donor heavy atom, donor atom, acceptor molecule, acceptor atom, score
      P1  H  7989  7998       L1    15  0.26
      P1  H 10752 10765       L1    12  0.12

> <Gold.Chemscore.Hbond.Weighted>
-3.0509

> <Gold.Chemscore.Metal.Weighted>
-0.0000

> <Gold.Chemscore.Lipo.Weighted>
-8.7904

> <Gold.Chemscore.Internal_Hbond.Weighted>
0.0000

> <Gold.Chemscore.DEClash.Weighted>
0.1347

> <Gold.Chemscore.DEInternal.Weighted>
1.5639

> <Gold.Chemscore.Rot.Weighted>
2.5600

> <Gold.Chemscore.Internal.Correction.Weighted>
   9.000000E+99

> <Gold.Protein.RotatedTorsions>
[ 6907 6896 6895 6894 ] final -158.59 input  -60.11 | X-H torsion
[ 7974 7965 7964 7962 ] final  -66.43 input  175.53 | X-H torsion
[ 8008 7997 7996 7995 ] final  -19.31 input   59.86 | X-H torsion
[ 10167 10162 10161 10158 ] final -109.40 input  -65.29 | X-H torsion
[ 10718 10713 10712 10709 ] final  -32.18 input   66.30 | X-H torsion
[ 10763 10752 10751 10750 ] final -161.45 input  -60.55 | X-H torsion
[ 11005 11000 10999 10996 ] final -109.92 input  -57.11 | X-H torsion

> <Gold.Protein.ActiveResidues>
 VAL166  LYS551  ARG553  GLY616  TRP617  ASP618  TYR619  PRO620  LYS621  CYS622 
 ASP623  PHE694  ASN695  SER759  ASP760  ASP761  ALA762  ILE779  LEU786  VAL792 
 PHE793  MET794  SER795  GLU796  ALA797  LYS798  CYS799  TRP800  GLU811  SER814 

> <Gold.Protein.RotatedAtoms>
  151.3206  133.4041  159.2653 H   0  0  0  0  0  0  0  0  0  0  0  0  # atno 6907 bound_to 6896
  151.0038  134.9343  159.7979 H   0  0  0  0  0  0  0  0  0  0  0  0  # atno 6908 bound_to 6896
  152.5282  134.3171  159.9187 H   0  0  0  0  0  0  0  0  0  0  0  0  # atno 6909 bound_to 6896
  145.7419  140.8949  143.0525 H   0  0  0  0  0  0  0  0  0  0  0  0  # atno 7974 bound_to 7965
  154.4845  140.2092  155.9687 H   0  0  0  0  0  0  0  0  0  0  0  0  # atno 8008 bound_to 7997
  156.1215  140.3212  155.8185 H   0  0  0  0  0  0  0  0  0  0  0  0  # atno 8009 bound_to 7997
  155.4458  140.0513  157.2997 H   0  0  0  0  0  0  0  0  0  0  0  0  # atno 8010 bound_to 7997
  140.1557  143.4162  152.1463 H   0  0  0  0  0  0  0  0  0  0  0  0  # atno 10167 bound_to 10162
  156.3781  130.4351  149.7491 H   0  0  0  0  0  0  0  0  0  0  0  0  # atno 10718 bound_to 10713
  154.7302  135.3045  154.8903 H   0  0  0  0  0  0  0  0  0  0  0  0  # atno 10763 bound_to 10752
  153.9748  135.6737  153.4752 H   0  0  0  0  0  0  0  0  0  0  0  0  # atno 10764 bound_to 10752
  153.0912  135.4958  154.8613 H   0  0  0  0  0  0  0  0  0  0  0  0  # atno 10765 bound_to 10752
  141.0821  133.9202  157.2266 H   0  0  0  0  0  0  0  0  0  0  0  0  # atno 11005 bound_to 11000
  144.6869  139.9472  143.7477 LP  0  0  0  0  0  0  0  0  0  0  0  0  # atno 17320 bound_to 7965
  146.0440  139.3448  143.0680 LP  0  0  0  0  0  0  0  0  0  0  0  0  # atno 17321 bound_to 7965
  139.5405  144.7251  151.4750 LP  0  0  0  0  0  0  0  0  0  0  0  0  # atno 17342 bound_to 10162
  140.6675  143.8367  150.6959 LP  0  0  0  0  0  0  0  0  0  0  0  0  # atno 17343 bound_to 10162
  156.4592  130.7943  151.2964 LP  0  0  0  0  0  0  0  0  0  0  0  0  # atno 17370 bound_to 10713
  157.7490  131.0071  150.3177 LP  0  0  0  0  0  0  0  0  0  0  0  0  # atno 17371 bound_to 10713
  139.9636  135.0148  156.9326 LP  0  0  0  0  0  0  0  0  0  0  0  0  # atno 17394 bound_to 11000
  140.5445  134.0687  155.7351 LP  0  0  0  0  0  0  0  0  0  0  0  0  # atno 17395 bound_to 11000

$$$$
