AV-unprocessed.smi:490|AV-procd|sdf|2705|dock7
  -GOLD-   2262023143D 1   1.00000     0.00000
 Structure written by MMmdl.
 50 52  0  0  0  0  0  0  0  0  2 V2000
  151.3567  145.4512  160.2327 C   0  0  0  0  0  0  0  0  0  0  0  0
  151.9898  144.0848  160.4327 C   0  0  0  0  0  0  0  0  0  0  0  0
  152.3402  143.6796  161.7368 C   0  0  0  0  0  0  0  0  0  0  0  0
  152.9305  142.4230  161.9576 C   0  0  0  0  0  0  0  0  0  0  0  0
  153.1670  141.5522  160.8767 C   0  0  0  0  0  0  0  0  0  0  0  0
  153.8068  140.1998  161.1295 C   0  0  0  0  0  0  0  0  0  0  0  0
  152.8027  141.9412  159.5673 C   0  0  0  0  0  0  0  0  0  0  0  0
  153.0239  141.0748  158.5272 O   0  0  0  0  0  0  0  0  0  0  0  0
  152.1134  139.9850  158.4955 C   0  0  0  0  0  0  0  0  0  0  0  0
  150.9456  140.3293  157.5587 C   0  0  2  0  0  0  0  0  0  0  0  0
  149.9369  139.3509  157.7162 O   0  0  0  0  0  0  0  0  0  0  0  0
  151.3903  140.3694  156.0829 C   0  0  0  0  0  0  0  0  0  0  0  0
  150.4319  139.7175  155.1753 N   0  0  0  0  0  0  0  0  0  0  0  0
  150.4323  138.4512  154.6670 C   0  0  0  0  0  0  0  0  0  0  0  0
  151.4460  137.3839  154.9182 C   0  0  0  0  0  0  0  0  0  0  0  0
  152.1601  137.0363  153.7529 O   0  0  0  0  0  0  0  0  0  0  0  0
  149.3219  138.3281  153.8870 N   0  3  0  0  0  0  0  0  0  0  0  0
  148.6062  139.5255  153.8913 C   0  0  0  0  0  0  0  0  0  0  0  0
  147.4225  139.8797  153.2513 C   0  0  0  0  0  0  0  0  0  0  0  0
  146.9568  141.1936  153.4639 C   0  0  0  0  0  0  0  0  0  0  0  0
  147.6606  142.0976  154.2855 C   0  0  0  0  0  0  0  0  0  0  0  0
  148.8587  141.7263  154.9309 C   0  0  0  0  0  0  0  0  0  0  0  0
  149.3133  140.4248  154.7162 C   0  0  0  0  0  0  0  0  0  0  0  0
  152.2314  143.2185  159.3369 C   0  0  0  0  0  0  0  0  0  0  0  0
  151.8793  143.6572  157.9217 C   0  0  0  0  0  0  0  0  0  0  0  0
  151.1200  145.9225  161.1871 H   0  0  0  0  0  0  0  0  0  0  0  0
  150.4297  145.3675  159.6652 H   0  0  0  0  0  0  0  0  0  0  0  0
  152.0367  146.1106  159.6931 H   0  0  0  0  0  0  0  0  0  0  0  0
  152.1618  144.3346  162.5772 H   0  0  0  0  0  0  0  0  0  0  0  0
  153.1989  142.1299  162.9619 H   0  0  0  0  0  0  0  0  0  0  0  0
  154.5899  140.0010  160.3971 H   0  0  0  0  0  0  0  0  0  0  0  0
  153.0601  139.4088  161.0592 H   0  0  0  0  0  0  0  0  0  0  0  0
  154.2581  140.1549  162.1211 H   0  0  0  0  0  0  0  0  0  0  0  0
  152.6414  139.1103  158.1120 H   0  0  0  0  0  0  0  0  0  0  0  0
  151.7560  139.7247  159.4932 H   0  0  0  0  0  0  0  0  0  0  0  0
  150.5358  141.3024  157.8316 H   0  0  0  0  0  0  0  0  0  0  0  0
  149.3868  139.3610  156.9481 H   0  0  0  0  0  0  0  0  0  0  0  0
  151.4848  141.4048  155.7537 H   0  0  0  0  0  0  0  0  0  0  0  0
  152.3764  139.9233  155.9528 H   0  0  0  0  0  0  0  0  0  0  0  0
  152.1513  137.7237  155.6772 H   0  0  0  0  0  0  0  0  0  0  0  0
  150.9518  136.4967  155.3138 H   0  0  0  0  0  0  0  0  0  0  0  0
  151.5413  136.7821  153.0851 H   0  0  0  0  0  0  0  0  0  0  0  0
  146.8820  139.1885  152.6213 H   0  0  0  0  0  0  0  0  0  0  0  0
  146.0416  141.5141  152.9869 H   0  0  0  0  0  0  0  0  0  0  0  0
  147.2739  143.0971  154.4237 H   0  0  0  0  0  0  0  0  0  0  0  0
  149.3891  142.4297  155.5549 H   0  0  0  0  0  0  0  0  0  0  0  0
  152.3590  143.0348  157.1667 H   0  0  0  0  0  0  0  0  0  0  0  0
  152.2023  144.6820  157.7389 H   0  0  0  0  0  0  0  0  0  0  0  0
  150.8013  143.6037  157.7693 H   0  0  0  0  0  0  0  0  0  0  0  0
  149.0728  137.4822  153.3907 H   0  0  0  0  0  0  0  0  0  0  0  0
  1  2  1  0  0  0  0
  1 26  1  0  0  0  0
  1 27  1  0  0  0  0
  1 28  1  0  0  0  0
  2 24  1  0  0  0  0
  2  3  2  0  0  0  0
  3  4  1  0  0  0  0
  3 29  1  0  0  0  0
  4  5  2  0  0  0  0
  4 30  1  0  0  0  0
  5  6  1  0  0  0  0
  5  7  1  0  0  0  0
  6 31  1  0  0  0  0
  6 32  1  0  0  0  0
  6 33  1  0  0  0  0
  7  8  1  0  0  0  0
  7 24  2  0  0  0  0
  8  9  1  0  0  0  0
  9 10  1  0  0  0  0
  9 34  1  0  0  0  0
  9 35  1  0  0  0  0
 10 11  1  0  0  0  0
 10 12  1  0  0  0  0
 10 36  1  0  0  0  0
 11 37  1  0  0  0  0
 12 13  1  0  0  0  0
 12 38  1  0  0  0  0
 12 39  1  0  0  0  0
 13 23  1  0  0  0  0
 13 14  1  0  0  0  0
 14 15  1  0  0  0  0
 14 17  2  0  0  0  0
 15 16  1  0  0  0  0
 15 40  1  0  0  0  0
 15 41  1  0  0  0  0
 16 42  1  0  0  0  0
 17 18  1  0  0  0  0
 17 50  1  0  0  0  0
 18 23  2  0  0  0  0
 18 19  1  0  0  0  0
 19 20  2  0  0  0  0
 19 43  1  0  0  0  0
 20 21  1  0  0  0  0
 20 44  1  0  0  0  0
 21 22  2  0  0  0  0
 21 45  1  0  0  0  0
 22 23  1  0  0  0  0
 22 46  1  0  0  0  0
 24 25  1  0  0  0  0
 25 47  1  0  0  0  0
 25 48  1  0  0  0  0
 25 49  1  0  0  0  0
M  CHG  1  17   1
M  END
> <s_m_source_file>
AV-unprocessed.smi

> <i_m_source_file_index>
490

> <i_lp_mmshare_version>
43012

> <i_f3d_flags>
0

> <s_epik_input>
W0NIM11jMVtjSF1bY0hdYyhbQ0gzXSljKGMxW0NIM10pT1tDSDJdW0NASF0oW09IXSlbQ0gyXW4oYyhuMilbQ0gyXVtPSF0pYyhjMjMpW2NIXVtjSF1bY0hdW2NIXTM=

> <s_epik_cmdline>
J2VwaWtfcHl0aG9uJywgJy1waCcsICc3LjAnLCAnLXRuJywgJzgnLCAnLW1hJywgJzIwMCcsICctbWV0YWxfYmluZGluZycsICctaW1hZScsICc8aW5maWxlLm1hZT4nLCAnLW9tYWUnLCAnPG91dGZpbGUubWFlPic=

> <r_lp_tautomer_probability>
1

> <r_epik_Ionization_Penalty>
1.43125

> <r_epik_Ionization_Penalty_Charging>
1.43039

> <r_epik_Ionization_Penalty_Neutral>
0.000858184

> <r_epik_State_Penalty>
1.51493

> <r_epik_Charging_Adjusted_Penalty>
2.94531

> <i_epik_Tot_Q>
1

> <i_epik_Tot_abs_Q>
1

> <r_epik_Metal_State_Penalty>
5.5599

> <b_epik_Metal_Only>
0

> <s_lp_Force_Field>
OPLS_2005

> <r_lp_Energy>
24.6054

> <b_lp_Chiralities_Consistent>
1

> <s_lp_Variant>
AV-unprocessed.smi:490-3

> <Gold.Version>
5.8.1

> <Gold.Id.Protein>
6NUR|6NUR_protein|mol2

> <Gold.PLP.Fitness>
72.2155

> <Gold.PLP.PLP>
-62.7332

> <Gold.PLP.part.hbond>
-4.3525

> <Gold.PLP.part.metal>
0.0000

> <Gold.PLP.part.buried>
0.6621

> <Gold.PLP.part.nonpolar>
-58.6395

> <Gold.PLP.part.repulsive>
0.0402

> <Gold.PLP.ligand.clash>
0.0000

> <Gold.PLP.ligand.torsion>
1.4150

> <Gold.PLP.Chemscore.Hbond>
4.0682

> <Gold.PLP.Chemscore.CHOScore>
0.0000

> <Gold.PLP.Chemscore.Metal>
0.0000

> <Gold.Chemscore.Hbonds>
donor molecule, donor type, donor heavy atom, donor atom, acceptor molecule, acceptor atom, score
      L1  H    16    42       P1  7949  1.00
      L1  H    17    50       P1  7948  2.00
      P1  H 10752 10765       L1    16  1.00

> <Gold.PLP.Chemscore.Internal.Correction>
0.1075

> <Gold.Rescore>
     Score         DG    S(hbond)    S(metal)    S(lipo)     H(rot)  DE(clash)    DE(int)     intcor
     22.27     -25.41       2.38        0.00     168.33       3.02       1.61       1.54       ----

> <Gold.Chemscore.Fitness>
22.2654

> <Gold.Chemscore.DG>
-25.4123

> <Gold.Chemscore.ZeroCoef>
-5.4800

> <Gold.Chemscore.Hbond>
2.3844

> <Gold.Chemscore.Metal>
0.0000

> <Gold.Chemscore.Lipo>
168.3271

> <Gold.Chemscore.Internal_Hbond>
0.0000

> <Gold.Chemscore.DEClash>
1.6115

> <Gold.Chemscore.DEInternal>
1.5353

> <Gold.Chemscore.Rot>
3.0180

> <Gold.Chemscore.Internal.Correction>
   9.000000E+99

> <Gold.Chemscore.Hbonds>
donor molecule, donor type, donor heavy atom, donor atom, acceptor molecule, acceptor atom, score
      L1  H    16    42       P1  7949  0.89
      L1  H    17    50       P1  7948  0.97
      P1  H  7997  8010       L1     8  0.01
      P1  H 10752 10765       L1    16  0.36

> <Gold.Chemscore.Hbond.Weighted>
-7.9640

> <Gold.Chemscore.Metal.Weighted>
-0.0000

> <Gold.Chemscore.Lipo.Weighted>
-19.6943

> <Gold.Chemscore.Internal_Hbond.Weighted>
0.0000

> <Gold.Chemscore.DEClash.Weighted>
1.6115

> <Gold.Chemscore.DEInternal.Weighted>
1.5353

> <Gold.Chemscore.Rot.Weighted>
7.7260

> <Gold.Chemscore.Internal.Correction.Weighted>
   9.000000E+99

> <Gold.Protein.RotatedTorsions>
[ 6907 6896 6895 6894 ] final   17.21 input  -60.11 | X-H torsion
[ 7974 7965 7964 7962 ] final -124.25 input  175.53 | X-H torsion
[ 8008 7997 7996 7995 ] final   19.39 input   59.86 | X-H torsion
[ 10167 10162 10161 10158 ] final  106.71 input  -65.29 | X-H torsion
[ 10718 10713 10712 10709 ] final  135.66 input   66.30 | X-H torsion
[ 10763 10752 10751 10750 ] final  146.13 input  -60.55 | X-H torsion
[ 11005 11000 10999 10996 ] final  -91.96 input  -57.11 | X-H torsion

> <Gold.Protein.ActiveResidues>
 VAL166  LYS551  ARG553  GLY616  TRP617  ASP618  TYR619  PRO620  LYS621  CYS622 
 ASP623  PHE694  ASN695  SER759  ASP760  ASP761  ALA762  ILE779  LEU786  VAL792 
 PHE793  MET794  SER795  GLU796  ALA797  LYS798  CYS799  TRP800  GLU811  SER814 

> <Gold.Protein.RotatedAtoms>
  151.8460  135.0574  160.0453 H   0  0  0  0  0  0  0  0  0  0  0  0  # atno 6907 bound_to 6896
  152.2773  133.5432  159.5484 H   0  0  0  0  0  0  0  0  0  0  0  0  # atno 6908 bound_to 6896
  150.7175  134.0530  159.3847 H   0  0  0  0  0  0  0  0  0  0  0  0  # atno 6909 bound_to 6896
  145.0101  140.7898  143.4444 H   0  0  0  0  0  0  0  0  0  0  0  0  # atno 7974 bound_to 7965
  154.9200  140.3026  155.5221 H   0  0  0  0  0  0  0  0  0  0  0  0  # atno 8008 bound_to 7997
  156.3010  140.2373  156.4185 H   0  0  0  0  0  0  0  0  0  0  0  0  # atno 8009 bound_to 7997
  154.8340  140.0417  157.1485 H   0  0  0  0  0  0  0  0  0  0  0  0  # atno 8010 bound_to 7997
  139.6987  144.7097  151.1223 H   0  0  0  0  0  0  0  0  0  0  0  0  # atno 10167 bound_to 10162
  157.4547  131.1069  150.9991 H   0  0  0  0  0  0  0  0  0  0  0  0  # atno 10718 bound_to 10713
  154.0169  135.2909  155.3386 H   0  0  0  0  0  0  0  0  0  0  0  0  # atno 10763 bound_to 10752
  154.7070  135.5165  153.8612 H   0  0  0  0  0  0  0  0  0  0  0  0  # atno 10764 bound_to 10752
  153.0698  135.6644  154.0395 H   0  0  0  0  0  0  0  0  0  0  0  0  # atno 10765 bound_to 10752
  141.1533  133.7789  156.9953 H   0  0  0  0  0  0  0  0  0  0  0  0  # atno 11005 bound_to 11000
  145.2035  139.2240  143.5180 LP  0  0  0  0  0  0  0  0  0  0  0  0  # atno 17320 bound_to 7965
  146.3468  140.1858  142.8589 LP  0  0  0  0  0  0  0  0  0  0  0  0  # atno 17321 bound_to 7965
  140.7703  143.5455  150.9263 LP  0  0  0  0  0  0  0  0  0  0  0  0  # atno 17342 bound_to 10162
  139.9136  143.6690  152.3110 LP  0  0  0  0  0  0  0  0  0  0  0  0  # atno 17343 bound_to 10162
  157.0809  130.5903  149.5420 LP  0  0  0  0  0  0  0  0  0  0  0  0  # atno 17370 bound_to 10713
  156.0002  130.5080  150.7634 LP  0  0  0  0  0  0  0  0  0  0  0  0  # atno 17371 bound_to 10713
  140.0976  134.9555  157.1873 LP  0  0  0  0  0  0  0  0  0  0  0  0  # atno 17394 bound_to 11000
  140.3361  134.2755  155.7219 LP  0  0  0  0  0  0  0  0  0  0  0  0  # atno 17395 bound_to 11000

$$$$
