AV-unprocessed.smi:223|AV-procd|sdf|1704|dock3
  -GOLD-   2262020163D 1   1.00000     0.00000
 Structure written by MMmdl.
 47 50  0  0  0  0  0  0  0  0  1 V2000
  146.1481  130.8751  152.5953 C   0  0  0  0  0  0  0  0  0  0  0  0
  146.8900  132.1054  153.1298 C   0  0  1  0  0  0  0  0  0  0  0  0
  148.2177  131.7236  153.6386 C   0  0  0  0  0  0  0  0  0  0  0  0
  149.2613  131.4250  154.0395 N   0  0  0  0  0  0  0  0  0  0  0  0
  146.9641  133.2154  152.0601 C   0  0  0  0  0  0  0  0  0  0  0  0
  145.7524  134.0298  151.9626 N   0  0  0  0  0  0  0  0  0  0  0  0
  145.8514  135.3279  152.3580 C   0  0  0  0  0  0  0  0  0  0  0  0
  145.0818  136.2690  151.7476 N   0  0  0  0  0  0  0  0  0  0  0  0
  145.1768  137.5547  152.0957 C   0  0  0  0  0  0  0  0  0  0  0  0
  145.9624  138.1124  153.0174 N   0  0  0  0  0  0  0  0  0  0  0  0
  146.7292  137.1762  153.6455 C   0  0  0  0  0  0  0  0  0  0  0  0
  146.7407  135.7769  153.3780 C   0  0  0  0  0  0  0  0  0  0  0  0
  147.6538  135.1489  154.2175 N   0  0  0  0  0  0  0  0  0  0  0  0
  148.1575  136.1184  154.9302 C   0  0  0  0  0  0  0  0  0  0  0  0
  147.6497  137.3688  154.6618 N   0  0  0  0  0  0  0  0  0  0  0  0
  148.0283  138.6204  155.3015 C   0  0  0  0  0  0  0  0  0  0  0  0
  148.9610  139.5172  154.4470 C   0  0  1  0  0  0  0  0  0  0  0  0
  148.3788  139.7207  153.1729 O   0  0  0  0  0  0  0  0  0  0  0  0
  149.2732  140.8774  155.0760 C   0  0  0  0  0  0  0  0  0  0  0  0
  150.6491  140.6651  155.6911 C   0  0  0  0  0  0  0  0  0  0  0  0
  151.2920  139.8588  154.7209 O   0  0  0  0  0  0  0  0  0  0  0  0
  150.3568  138.8822  154.2799 C   0  0  0  0  0  0  0  0  0  0  0  0
  144.8058  133.7056  150.8978 C   0  0  0  0  0  0  0  0  0  0  0  0
  143.7013  132.7097  151.1739 C   0  0  0  0  0  0  0  0  0  0  0  0
  144.8570  132.3284  150.2791 C   0  0  0  0  0  0  0  0  0  0  0  0
  146.0683  130.1039  153.3620 H   0  0  0  0  0  0  0  0  0  0  0  0
  146.6671  130.4419  151.7398 H   0  0  0  0  0  0  0  0  0  0  0  0
  145.1368  131.1328  152.2795 H   0  0  0  0  0  0  0  0  0  0  0  0
  146.3325  132.4727  153.9915 H   0  0  0  0  0  0  0  0  0  0  0  0
  147.8040  133.8723  152.2892 H   0  0  0  0  0  0  0  0  0  0  0  0
  147.1939  132.7877  151.0855 H   0  0  0  0  0  0  0  0  0  0  0  0
  144.5322  138.2336  151.5572 H   0  0  0  0  0  0  0  0  0  0  0  0
  148.9150  135.9448  155.6808 H   0  0  0  0  0  0  0  0  0  0  0  0
  147.1149  139.1619  155.5511 H   0  0  0  0  0  0  0  0  0  0  0  0
  148.5080  138.3816  156.2516 H   0  0  0  0  0  0  0  0  0  0  0  0
  149.0720  139.8412  152.5423 H   0  0  0  0  0  0  0  0  0  0  0  0
  149.3516  141.6494  154.3086 H   0  0  0  0  0  0  0  0  0  0  0  0
  148.5397  141.2196  155.8039 H   0  0  0  0  0  0  0  0  0  0  0  0
  151.1854  141.5989  155.8608 H   0  0  0  0  0  0  0  0  0  0  0  0
  150.5796  140.1256  156.6370 H   0  0  0  0  0  0  0  0  0  0  0  0
  150.4653  137.9961  154.9071 H   0  0  0  0  0  0  0  0  0  0  0  0
  150.5762  138.5823  153.2542 H   0  0  0  0  0  0  0  0  0  0  0  0
  144.5484  134.5212  150.2257 H   0  0  0  0  0  0  0  0  0  0  0  0
  143.6605  132.2557  152.1623 H   0  0  0  0  0  0  0  0  0  0  0  0
  142.7371  132.8895  150.7034 H   0  0  0  0  0  0  0  0  0  0  0  0
  144.6626  132.2510  149.2113 H   0  0  0  0  0  0  0  0  0  0  0  0
  145.5826  131.6195  150.6735 H   0  0  0  0  0  0  0  0  0  0  0  0
  1  2  1  0  0  0  0
  1 26  1  0  0  0  0
  1 27  1  0  0  0  0
  1 28  1  0  0  0  0
  2  3  1  0  0  0  0
  2  5  1  0  0  0  0
  2 29  1  0  0  0  0
  3  4  3  0  0  0  0
  5  6  1  0  0  0  0
  5 30  1  0  0  0  0
  5 31  1  0  0  0  0
  6  7  1  0  0  0  0
  6 23  1  0  0  0  0
  7 12  1  0  0  0  0
  7  8  2  0  0  0  0
  8  9  1  0  0  0  0
  9 10  2  0  0  0  0
  9 32  1  0  0  0  0
 10 11  1  0  0  0  0
 11 15  1  0  0  0  0
 11 12  2  0  0  0  0
 12 13  1  0  0  0  0
 13 14  2  0  0  0  0
 14 15  1  0  0  0  0
 14 33  1  0  0  0  0
 15 16  1  0  0  0  0
 16 17  1  0  0  0  0
 16 34  1  0  0  0  0
 16 35  1  0  0  0  0
 17 22  1  0  0  0  0
 17 18  1  0  0  0  0
 17 19  1  0  0  0  0
 18 36  1  0  0  0  0
 19 20  1  0  0  0  0
 19 37  1  0  0  0  0
 19 38  1  0  0  0  0
 20 21  1  0  0  0  0
 20 39  1  0  0  0  0
 20 40  1  0  0  0  0
 21 22  1  0  0  0  0
 22 41  1  0  0  0  0
 22 42  1  0  0  0  0
 23 25  1  0  0  0  0
 23 24  1  0  0  0  0
 23 43  1  0  0  0  0
 24 25  1  0  0  0  0
 24 44  1  0  0  0  0
 24 45  1  0  0  0  0
 25 46  1  0  0  0  0
 25 47  1  0  0  0  0
M  END
> <s_m_source_file>
AV-unprocessed.smi

> <i_m_source_file_index>
223

> <i_lp_mmshare_version>
43012

> <i_f3d_flags>
0

> <s_epik_input>
TiNDW0NAQEhdKFtDSDNdKVtDSDJdTihbQ0hdMVtDSDJdW0NIMl0xKWMobltjSF1uMiljKGMyMyluW2NIXW4zW0NIMl1bQ0BAXTQoW09IXSlbQ0gyXVtDSDJdT1tDSDJdNA==

> <s_epik_cmdline>
J2VwaWtfcHl0aG9uJywgJy1waCcsICc3LjAnLCAnLXRuJywgJzgnLCAnLW1hJywgJzIwMCcsICctbWV0YWxfYmluZGluZycsICctaW1hZScsICc8aW5maWxlLm1hZT4nLCAnLW9tYWUnLCAnPG91dGZpbGUubWFlPic=

> <r_lp_tautomer_probability>
1

> <r_epik_Ionization_Penalty>
0.000756152

> <r_epik_Ionization_Penalty_Charging>
0

> <r_epik_Ionization_Penalty_Neutral>
0.000756152

> <r_epik_State_Penalty>
0.00038036

> <r_epik_Charging_Adjusted_Penalty>
0.00038036

> <i_epik_Tot_Q>
0

> <i_epik_Tot_abs_Q>
0

> <r_epik_Metal_State_Penalty>
-0

> <b_epik_Metal_Only>
0

> <s_lp_Force_Field>
OPLS_2005

> <r_lp_Energy>
37.1098

> <b_lp_Chiralities_Consistent>
1

> <s_lp_Variant>
AV-unprocessed.smi:223-2

> <Gold.Version>
5.8.1

> <Gold.Id.Protein>
6NUR|6NUR_protein|mol2

> <Gold.PLP.Fitness>
42.4563

> <Gold.PLP.PLP>
-31.6114

> <Gold.PLP.part.hbond>
-2.0000

> <Gold.PLP.part.metal>
0.0000

> <Gold.PLP.part.buried>
-1.4717

> <Gold.PLP.part.nonpolar>
-29.2451

> <Gold.PLP.part.repulsive>
1.8334

> <Gold.PLP.ligand.clash>
0.0000

> <Gold.PLP.ligand.torsion>
1.2748

> <Gold.PLP.Chemscore.Hbond>
2.0000

> <Gold.PLP.Chemscore.CHOScore>
2.0000

> <Gold.PLP.Chemscore.Metal>
0.0000

> <Gold.Chemscore.Hbonds>
donor molecule, donor type, donor heavy atom, donor atom, acceptor molecule, acceptor atom, score
      L1  H    18    36       P1  7957  0.91
      P1  H  7989  7998       L1    21  1.00
      L1  C     9    32       P1 10171  0.66
      L1  C     9    32       P1 10175  0.92

> <Gold.PLP.Chemscore.Internal.Correction>
1.3946

> <Gold.Rescore>
     Score         DG    S(hbond)    S(metal)    S(lipo)     H(rot)  DE(clash)    DE(int)     intcor
      8.45     -12.72       1.84        0.00      68.81       2.72       1.26       3.00       ----

> <Gold.Chemscore.Fitness>
8.4508

> <Gold.Chemscore.DG>
-12.7158

> <Gold.Chemscore.ZeroCoef>
-5.4800

> <Gold.Chemscore.Hbond>
1.8385

> <Gold.Chemscore.Metal>
0.0000

> <Gold.Chemscore.Lipo>
68.8106

> <Gold.Chemscore.Internal_Hbond>
0.0000

> <Gold.Chemscore.DEClash>
1.2605

> <Gold.Chemscore.DEInternal>
3.0044

> <Gold.Chemscore.Rot>
2.7171

> <Gold.Chemscore.Internal.Correction>
   9.000000E+99

> <Gold.Chemscore.Hbonds>
donor molecule, donor type, donor heavy atom, donor atom, acceptor molecule, acceptor atom, score
      L1  H    18    36       P1  7957  0.84
      P1  H  7989  7998       L1    21  0.37

> <Gold.Chemscore.Hbond.Weighted>
-6.1407

> <Gold.Chemscore.Metal.Weighted>
-0.0000

> <Gold.Chemscore.Lipo.Weighted>
-8.0508

> <Gold.Chemscore.Internal_Hbond.Weighted>
0.0000

> <Gold.Chemscore.DEClash.Weighted>
1.2605

> <Gold.Chemscore.DEInternal.Weighted>
3.0044

> <Gold.Chemscore.Rot.Weighted>
6.9558

> <Gold.Chemscore.Internal.Correction.Weighted>
   9.000000E+99

> <Gold.Protein.RotatedTorsions>
[ 6907 6896 6895 6894 ] final  -95.79 input  -60.11 | X-H torsion
[ 7974 7965 7964 7962 ] final  137.57 input  175.53 | X-H torsion
[ 8008 7997 7996 7995 ] final -138.17 input   59.86 | X-H torsion
[ 10167 10162 10161 10158 ] final   97.08 input  -65.29 | X-H torsion
[ 10718 10713 10712 10709 ] final   16.52 input   66.30 | X-H torsion
[ 10763 10752 10751 10750 ] final    7.67 input  -60.55 | X-H torsion
[ 11005 11000 10999 10996 ] final   41.96 input  -57.11 | X-H torsion

> <Gold.Protein.ActiveResidues>
 VAL166  LYS551  ARG553  GLY616  TRP617  ASP618  TYR619  PRO620  LYS621  CYS622 
 ASP623  PHE694  ASN695  SER759  ASP760  ASP761  ALA762  ILE779  LEU786  VAL792 
 PHE793  MET794  SER795  GLU796  ALA797  LYS798  CYS799  TRP800  GLU811  SER814 

> <Gold.Protein.RotatedAtoms>
  150.6972  134.1602  159.4173 H   0  0  0  0  0  0  0  0  0  0  0  0  # atno 6907 bound_to 6896
  151.9583  135.0133  160.0555 H   0  0  0  0  0  0  0  0  0  0  0  0  # atno 6908 bound_to 6896
  152.1949  133.4764  159.5064 H   0  0  0  0  0  0  0  0  0  0  0  0  # atno 6909 bound_to 6896
  144.9455  139.4879  143.5551 H   0  0  0  0  0  0  0  0  0  0  0  0  # atno 7974 bound_to 7965
  155.4240  140.0520  157.3023 H   0  0  0  0  0  0  0  0  0  0  0  0  # atno 8008 bound_to 7997
  154.4890  140.2112  155.9550 H   0  0  0  0  0  0  0  0  0  0  0  0  # atno 8009 bound_to 7997
  156.1315  140.3171  155.8361 H   0  0  0  0  0  0  0  0  0  0  0  0  # atno 8010 bound_to 7997
  139.7834  144.6880  150.9991 H   0  0  0  0  0  0  0  0  0  0  0  0  # atno 10167 bound_to 10162
  157.0691  130.6340  149.5802 H   0  0  0  0  0  0  0  0  0  0  0  0  # atno 10718 bound_to 10713
  153.2336  135.6895  153.7862 H   0  0  0  0  0  0  0  0  0  0  0  0  # atno 10763 bound_to 10752
  153.7017  135.3296  155.3227 H   0  0  0  0  0  0  0  0  0  0  0  0  # atno 10764 bound_to 10752
  154.8325  135.4569  154.1231 H   0  0  0  0  0  0  0  0  0  0  0  0  # atno 10765 bound_to 10752
  140.1785  134.4133  155.8214 H   0  0  0  0  0  0  0  0  0  0  0  0  # atno 11005 bound_to 11000
  146.3302  139.8505  142.8874 LP  0  0  0  0  0  0  0  0  0  0  0  0  # atno 17320 bound_to 7965
  145.2924  141.0171  143.3655 LP  0  0  0  0  0  0  0  0  0  0  0  0  # atno 17321 bound_to 7965
  140.7819  143.4458  151.0484 LP  0  0  0  0  0  0  0  0  0  0  0  0  # atno 17342 bound_to 10162
  139.8138  143.7914  152.3173 LP  0  0  0  0  0  0  0  0  0  0  0  0  # atno 17343 bound_to 10162
  155.9956  130.5023  150.7464 LP  0  0  0  0  0  0  0  0  0  0  0  0  # atno 17370 bound_to 10713
  157.4893  131.0909  151.0446 LP  0  0  0  0  0  0  0  0  0  0  0  0  # atno 17371 bound_to 10713
  141.2222  133.6989  156.7889 LP  0  0  0  0  0  0  0  0  0  0  0  0  # atno 17394 bound_to 11000
  140.2295  134.8696  157.3462 LP  0  0  0  0  0  0  0  0  0  0  0  0  # atno 17395 bound_to 11000

$$$$
