AV-unprocessed.smi:3231|AV-procd|sdf|12333|dock9
  -GOLD-   2272018183D 1   1.00000     0.00000
 Structure written by MMmdl.
 41 42  0  0  0  0  0  0  0  0  2 V2000
  147.1024  139.9036  151.8094 O   0  0  0  0  0  0  0  0  0  0  0  0
  147.0992  138.7119  152.5699 C   0  0  2  0  0  0  0  0  0  0  0  0
  145.9078  137.8674  152.0883 C   0  0  0  0  0  0  0  0  0  0  0  0
  146.1154  137.3882  150.7260 N   0  0  0  0  0  0  0  0  0  0  0  0
  146.2304  135.9360  150.6289 C   0  0  0  0  0  0  0  0  0  0  0  0
  144.8810  135.2845  150.2870 C   0  0  0  0  0  0  0  0  0  0  0  0
  144.9947  133.8475  150.1093 N   0  0  0  0  0  0  0  0  0  0  0  0
  143.9850  132.9227  149.9462 C   0  0  0  0  0  0  0  0  0  0  0  0
  144.5736  131.6987  149.8060 C   0  0  0  0  0  0  0  0  0  0  0  0
  145.9651  131.9800  149.9005 C   0  0  0  0  0  0  0  0  0  0  0  0
  146.2144  133.2671  150.0791 N   0  0  0  0  0  0  0  0  0  0  0  0
  146.9904  139.0828  154.0656 C   0  0  0  0  0  0  0  0  0  0  0  0
  148.3113  139.3179  154.7023 N   0  3  0  0  0  0  0  0  0  0  0  0
  149.3767  138.4658  154.1225 C   0  0  0  0  0  0  0  0  0  0  0  0
  150.7124  138.7034  154.8469 C   0  0  0  0  0  0  0  0  0  0  0  0
  151.0576  140.0806  154.7730 O   0  0  0  0  0  0  0  0  0  0  0  0
  150.0866  140.9065  155.4031 C   0  0  0  0  0  0  0  0  0  0  0  0
  148.7304  140.7420  154.6964 C   0  0  0  0  0  0  0  0  0  0  0  0
  147.9808  140.0706  151.5047 H   0  0  0  0  0  0  0  0  0  0  0  0
  148.0215  138.1715  152.3576 H   0  0  0  0  0  0  0  0  0  0  0  0
  145.7417  137.0281  152.7651 H   0  0  0  0  0  0  0  0  0  0  0  0
  145.0022  138.4752  152.1198 H   0  0  0  0  0  0  0  0  0  0  0  0
  145.3577  137.7063  150.1294 H   0  0  0  0  0  0  0  0  0  0  0  0
  146.9615  135.6758  149.8628 H   0  0  0  0  0  0  0  0  0  0  0  0
  146.6041  135.5240  151.5672 H   0  0  0  0  0  0  0  0  0  0  0  0
  144.1420  135.4975  151.0612 H   0  0  0  0  0  0  0  0  0  0  0  0
  144.4917  135.7086  149.3607 H   0  0  0  0  0  0  0  0  0  0  0  0
  142.9439  133.2101  149.9403 H   0  0  0  0  0  0  0  0  0  0  0  0
  144.0848  130.7474  149.6585 H   0  0  0  0  0  0  0  0  0  0  0  0
  146.7957  131.2919  149.8431 H   0  0  0  0  0  0  0  0  0  0  0  0
  146.3728  139.9778  154.1563 H   0  0  0  0  0  0  0  0  0  0  0  0
  146.4692  138.3018  154.6215 H   0  0  0  0  0  0  0  0  0  0  0  0
  149.0976  137.4147  154.2071 H   0  0  0  0  0  0  0  0  0  0  0  0
  149.4834  138.6856  153.0591 H   0  0  0  0  0  0  0  0  0  0  0  0
  150.6533  138.3856  155.8892 H   0  0  0  0  0  0  0  0  0  0  0  0
  151.5029  138.1160  154.3795 H   0  0  0  0  0  0  0  0  0  0  0  0
  150.0083  140.6548  156.4620 H   0  0  0  0  0  0  0  0  0  0  0  0
  150.4160  141.9440  155.3465 H   0  0  0  0  0  0  0  0  0  0  0  0
  148.8038  141.0979  153.6675 H   0  0  0  0  0  0  0  0  0  0  0  0
  147.9887  141.3635  155.1959 H   0  0  0  0  0  0  0  0  0  0  0  0
  148.2205  139.0368  155.6680 H   0  0  0  0  0  0  0  0  0  0  0  0
  1  2  1  0  0  0  0
  1 19  1  0  0  0  0
  2  3  1  0  0  0  0
  2 12  1  0  0  0  0
  2 20  1  0  0  0  0
  3  4  1  0  0  0  0
  3 21  1  0  0  0  0
  3 22  1  0  0  0  0
  4  5  1  0  0  0  0
  4 23  1  0  0  0  0
  5  6  1  0  0  0  0
  5 24  1  0  0  0  0
  5 25  1  0  0  0  0
  6  7  1  0  0  0  0
  6 26  1  0  0  0  0
  6 27  1  0  0  0  0
  7 11  1  0  0  0  0
  7  8  1  0  0  0  0
  8  9  2  0  0  0  0
  8 28  1  0  0  0  0
  9 10  1  0  0  0  0
  9 29  1  0  0  0  0
 10 11  2  0  0  0  0
 10 30  1  0  0  0  0
 12 13  1  0  0  0  0
 12 31  1  0  0  0  0
 12 32  1  0  0  0  0
 13 18  1  0  0  0  0
 13 14  1  0  0  0  0
 13 41  1  0  0  0  0
 14 15  1  0  0  0  0
 14 33  1  0  0  0  0
 14 34  1  0  0  0  0
 15 16  1  0  0  0  0
 15 35  1  0  0  0  0
 15 36  1  0  0  0  0
 16 17  1  0  0  0  0
 17 18  1  0  0  0  0
 17 37  1  0  0  0  0
 17 38  1  0  0  0  0
 18 39  1  0  0  0  0
 18 40  1  0  0  0  0
M  CHG  1  13   1
M  END
> <s_m_source_file>
AV-unprocessed.smi

> <i_m_source_file_index>
3231

> <i_lp_mmshare_version>
43012

> <i_f3d_flags>
0

> <s_epik_input>
W0NIMl0xW0NIMl1PW0NIMl1bQ0gyXU4xW0NIMl1bQ0BIXShbT0hdKVtDSDJdW05IXVtDSDJdW0NIMl1uMltjSF1bY0hdW2NIXW4y

> <s_epik_cmdline>
J2VwaWtfcHl0aG9uJywgJy1waCcsICc3LjAnLCAnLXRuJywgJzgnLCAnLW1hJywgJzIwMCcsICctbWV0YWxfYmluZGluZycsICctaW1hZScsICc8aW5maWxlLm1hZT4nLCAnLW9tYWUnLCAnPG91dGZpbGUubWFlPic=

> <r_epik_Ionization_Penalty>
0.33973

> <r_epik_Ionization_Penalty_Charging>
0.202493

> <r_epik_Ionization_Penalty_Neutral>
0.137237

> <r_epik_State_Penalty>
0.943915

> <r_epik_Charging_Adjusted_Penalty>
1.14641

> <i_epik_Tot_Q>
1

> <i_epik_Tot_abs_Q>
1

> <r_epik_Metal_State_Penalty>
0.94313

> <b_epik_Metal_Only>
0

> <s_lp_Force_Field>
OPLS_2005

> <r_lp_Energy>
21.8008

> <b_lp_Chiralities_Consistent>
1

> <s_lp_Variant>
AV-unprocessed.smi:3231-3

> <Gold.Version>
5.8.1

> <Gold.Id.Protein>
6NUR|6NUR_protein|mol2

> <Gold.PLP.Fitness>
48.2014

> <Gold.PLP.PLP>
-35.2334

> <Gold.PLP.part.hbond>
-3.5158

> <Gold.PLP.part.metal>
0.0000

> <Gold.PLP.part.buried>
-2.3223

> <Gold.PLP.part.nonpolar>
-29.2571

> <Gold.PLP.part.repulsive>
0.2687

> <Gold.PLP.ligand.clash>
0.0000

> <Gold.PLP.ligand.torsion>
1.4063

> <Gold.PLP.Chemscore.Hbond>
3.2188

> <Gold.PLP.Chemscore.CHOScore>
2.0000

> <Gold.PLP.Chemscore.Metal>
0.0000

> <Gold.Chemscore.Hbonds>
donor molecule, donor type, donor heavy atom, donor atom, acceptor molecule, acceptor atom, score
      L1  H     1    19       P1  7957  1.00
      L1  H     4    23       P1 10171  1.00
      P1  H  7954  7966       L1     4  0.34
      P1  H  7989  7998       L1    16  1.00
      L1  C     8    28       P1 10186  1.00
      L1  C    10    30       P1 10747  1.00

> <Gold.PLP.Chemscore.Internal.Correction>
0.1243

> <Gold.Rescore>
     Score         DG    S(hbond)    S(metal)    S(lipo)     H(rot)  DE(clash)    DE(int)     intcor
     15.85     -17.74       2.90        0.00      84.16       2.84       0.28       1.60       ----

> <Gold.Chemscore.Fitness>
15.8544

> <Gold.Chemscore.DG>
-17.7353

> <Gold.Chemscore.ZeroCoef>
-5.4800

> <Gold.Chemscore.Hbond>
2.8978

> <Gold.Chemscore.Metal>
0.0000

> <Gold.Chemscore.Lipo>
84.1567

> <Gold.Chemscore.Internal_Hbond>
0.0000

> <Gold.Chemscore.DEClash>
0.2777

> <Gold.Chemscore.DEInternal>
1.6032

> <Gold.Chemscore.Rot>
2.8397

> <Gold.Chemscore.Internal.Correction>
   9.000000E+99

> <Gold.Chemscore.Hbonds>
donor molecule, donor type, donor heavy atom, donor atom, acceptor molecule, acceptor atom, score
      L1  H     1    19       P1  7957  0.99
      L1  H     4    23       P1 10171  0.98
      P1  H  7954  7966       L1     4  0.04
      P1  H  7989  7998       L1    16  0.64

> <Gold.Chemscore.Hbond.Weighted>
-9.6786

> <Gold.Chemscore.Metal.Weighted>
-0.0000

> <Gold.Chemscore.Lipo.Weighted>
-9.8463

> <Gold.Chemscore.Internal_Hbond.Weighted>
0.0000

> <Gold.Chemscore.DEClash.Weighted>
0.2777

> <Gold.Chemscore.DEInternal.Weighted>
1.6032

> <Gold.Chemscore.Rot.Weighted>
7.2696

> <Gold.Chemscore.Internal.Correction.Weighted>
   9.000000E+99

> <Gold.Protein.RotatedTorsions>
[ 6907 6896 6895 6894 ] final -104.44 input  -60.11 | X-H torsion
[ 7974 7965 7964 7962 ] final -161.50 input  175.53 | X-H torsion
[ 8008 7997 7996 7995 ] final  108.38 input   59.86 | X-H torsion
[ 10167 10162 10161 10158 ] final -163.89 input  -65.29 | X-H torsion
[ 10718 10713 10712 10709 ] final  177.62 input   66.30 | X-H torsion
[ 10763 10752 10751 10750 ] final -164.65 input  -60.55 | X-H torsion
[ 11005 11000 10999 10996 ] final  -77.20 input  -57.11 | X-H torsion

> <Gold.Protein.ActiveResidues>
 VAL166  LYS551  ARG553  GLY616  TRP617  ASP618  TYR619  PRO620  LYS621  CYS622 
 ASP623  PHE694  ASN695  SER759  ASP760  ASP761  ALA762  ILE779  LEU786  VAL792 
 PHE793  MET794  SER795  GLU796  ALA797  LYS798  CYS799  TRP800  GLU811  SER814 

> <Gold.Protein.RotatedAtoms>
  150.7288  134.0277  159.3722 H   0  0  0  0  0  0  0  0  0  0  0  0  # atno 6907 bound_to 6896
  151.8244  135.0639  160.0438 H   0  0  0  0  0  0  0  0  0  0  0  0  # atno 6908 bound_to 6896
  152.2980  133.5590  159.5636 H   0  0  0  0  0  0  0  0  0  0  0  0  # atno 6909 bound_to 6896
  144.7389  140.3389  143.6138 H   0  0  0  0  0  0  0  0  0  0  0  0  # atno 7974 bound_to 7965
  156.1898  140.3077  155.9310 H   0  0  0  0  0  0  0  0  0  0  0  0  # atno 8008 bound_to 7997
  155.3198  140.0455  157.3056 H   0  0  0  0  0  0  0  0  0  0  0  0  # atno 8009 bound_to 7997
  154.5439  140.2270  155.8605 H   0  0  0  0  0  0  0  0  0  0  0  0  # atno 8010 bound_to 7997
  139.6289  144.0479  152.1998 H   0  0  0  0  0  0  0  0  0  0  0  0  # atno 10167 bound_to 10162
  156.9026  130.9884  151.3033 H   0  0  0  0  0  0  0  0  0  0  0  0  # atno 10718 bound_to 10713
  154.7008  135.2987  154.9344 H   0  0  0  0  0  0  0  0  0  0  0  0  # atno 10763 bound_to 10752
  154.0276  135.6674  153.4782 H   0  0  0  0  0  0  0  0  0  0  0  0  # atno 10764 bound_to 10752
  153.0680  135.5077  154.8151 H   0  0  0  0  0  0  0  0  0  0  0  0  # atno 10765 bound_to 10752
  141.1659  133.7013  156.7785 H   0  0  0  0  0  0  0  0  0  0  0  0  # atno 11005 bound_to 11000
  145.7395  139.1760  143.2384 LP  0  0  0  0  0  0  0  0  0  0  0  0  # atno 17320 bound_to 7965
  146.1145  140.7387  142.9487 LP  0  0  0  0  0  0  0  0  0  0  0  0  # atno 17321 bound_to 7965
  140.0139  144.6203  150.7623 LP  0  0  0  0  0  0  0  0  0  0  0  0  # atno 17342 bound_to 10162
  140.7427  143.2836  151.3528 LP  0  0  0  0  0  0  0  0  0  0  0  0  # atno 17343 bound_to 10162
  157.6016  130.8517  149.8811 LP  0  0  0  0  0  0  0  0  0  0  0  0  # atno 17370 bound_to 10713
  156.0574  130.3706  150.1059 LP  0  0  0  0  0  0  0  0  0  0  0  0  # atno 17371 bound_to 10713
  140.2412  134.8612  157.3575 LP  0  0  0  0  0  0  0  0  0  0  0  0  # atno 17394 bound_to 11000
  140.1794  134.4509  155.7781 LP  0  0  0  0  0  0  0  0  0  0  0  0  # atno 17395 bound_to 11000

$$$$
