AV-unprocessed.smi:1414|AV-procd|sdf|5762|dock2
  -GOLD-   22720 5403D 1   1.00000     0.00000
 Structure written by MMmdl.
 45 46  0  0  0  0  0  0  0  0  1 V2000
  148.6614  140.5650  153.9220 C   0  0  0  0  0  0  0  0  0  0  0  0
  149.6357  139.6579  154.6817 C   0  0  1  0  0  0  0  0  0  0  0  0
  149.5258  138.1939  154.2301 C   0  0  0  0  0  0  0  0  0  0  0  0
  150.5608  137.3652  154.8645 N   0  0  0  0  0  0  0  0  0  0  0  0
  150.1340  136.0057  155.8571 S   0  0  0  0  0  0  0  0  0  0  0  0
  151.3347  135.1639  155.9723 O   0  0  0  0  0  0  0  0  0  0  0  0
  149.4833  136.5227  157.0712 O   0  0  0  0  0  0  0  0  0  0  0  0
  148.8932  135.0855  154.8408 C   0  0  0  0  0  0  0  0  0  0  0  0
  149.3335  133.6393  154.5545 C   0  0  0  0  0  0  0  0  0  0  0  0
  148.7131  133.1060  153.3463 N   0  0  0  0  0  0  0  0  0  0  0  0
  147.4055  133.1402  153.0549 C   0  0  0  0  0  0  0  0  0  0  0  0
  146.5573  133.6489  153.7859 O   0  0  0  0  0  0  0  0  0  0  0  0
  147.1530  132.5313  151.8840 N   0  0  0  0  0  0  0  0  0  0  0  0
  145.9049  132.3917  151.2201 C   0  0  0  0  0  0  0  0  0  0  0  0
  145.9114  132.1945  149.8240 C   0  0  0  0  0  0  0  0  0  0  0  0
  144.6850  132.0751  149.1431 C   0  0  0  0  0  0  0  0  0  0  0  0
  143.4934  132.1690  149.8880 C   0  0  0  0  0  0  0  0  0  0  0  0
  143.4689  132.3738  151.2219 N   0  0  0  0  0  0  0  0  0  0  0  0
  144.6488  132.4844  151.8693 C   0  0  0  0  0  0  0  0  0  0  0  0
  151.9300  137.9101  154.8490 C   0  0  0  0  0  0  0  0  0  0  0  0
  151.9771  139.4263  155.1377 C   0  0  2  0  0  0  0  0  0  0  0  0
  151.9797  139.7751  156.6337 C   0  0  0  0  0  0  0  0  0  0  0  0
  150.9552  140.1281  154.4335 O   0  0  0  0  0  0  0  0  0  0  0  0
  147.6292  140.2529  154.0818 H   0  0  0  0  0  0  0  0  0  0  0  0
  148.8552  140.5439  152.8491 H   0  0  0  0  0  0  0  0  0  0  0  0
  148.7514  141.5988  154.2564 H   0  0  0  0  0  0  0  0  0  0  0  0
  149.4006  139.7348  155.7429 H   0  0  0  0  0  0  0  0  0  0  0  0
  148.5347  137.8045  154.4623 H   0  0  0  0  0  0  0  0  0  0  0  0
  149.6472  138.1242  153.1487 H   0  0  0  0  0  0  0  0  0  0  0  0
  147.9231  135.1339  155.3342 H   0  0  0  0  0  0  0  0  0  0  0  0
  148.7983  135.6246  153.8981 H   0  0  0  0  0  0  0  0  0  0  0  0
  150.4111  133.6052  154.3951 H   0  0  0  0  0  0  0  0  0  0  0  0
  149.1258  132.9929  155.4074 H   0  0  0  0  0  0  0  0  0  0  0  0
  149.3315  132.6626  152.6826 H   0  0  0  0  0  0  0  0  0  0  0  0
  147.9348  132.0704  151.4419 H   0  0  0  0  0  0  0  0  0  0  0  0
  146.8425  132.1301  149.2800 H   0  0  0  0  0  0  0  0  0  0  0  0
  144.6573  131.9167  148.0751 H   0  0  0  0  0  0  0  0  0  0  0  0
  142.5346  132.0834  149.3984 H   0  0  0  0  0  0  0  0  0  0  0  0
  144.5670  132.6743  152.9283 H   0  0  0  0  0  0  0  0  0  0  0  0
  152.5681  137.3694  155.5477 H   0  0  0  0  0  0  0  0  0  0  0  0
  152.3412  137.7268  153.8561 H   0  0  0  0  0  0  0  0  0  0  0  0
  152.9208  139.8003  154.7395 H   0  0  0  0  0  0  0  0  0  0  0  0
  152.8376  139.3295  157.1374 H   0  0  0  0  0  0  0  0  0  0  0  0
  151.0858  139.4133  157.1335 H   0  0  0  0  0  0  0  0  0  0  0  0
  152.0324  140.8534  156.7832 H   0  0  0  0  0  0  0  0  0  0  0  0
  1  2  1  0  0  0  0
  1 24  1  0  0  0  0
  1 25  1  0  0  0  0
  1 26  1  0  0  0  0
  2 23  1  0  0  0  0
  2  3  1  0  0  0  0
  2 27  1  0  0  0  0
  3  4  1  0  0  0  0
  3 28  1  0  0  0  0
  3 29  1  0  0  0  0
  4  5  1  0  0  0  0
  4 20  1  0  0  0  0
  5  6  2  0  0  0  0
  5  7  2  0  0  0  0
  5  8  1  0  0  0  0
  8  9  1  0  0  0  0
  8 30  1  0  0  0  0
  8 31  1  0  0  0  0
  9 10  1  0  0  0  0
  9 32  1  0  0  0  0
  9 33  1  0  0  0  0
 10 11  1  0  0  0  0
 10 34  1  0  0  0  0
 11 12  2  0  0  0  0
 11 13  1  0  0  0  0
 13 14  1  0  0  0  0
 13 35  1  0  0  0  0
 14 19  1  0  0  0  0
 14 15  2  0  0  0  0
 15 16  1  0  0  0  0
 15 36  1  0  0  0  0
 16 17  2  0  0  0  0
 16 37  1  0  0  0  0
 17 18  1  0  0  0  0
 17 38  1  0  0  0  0
 18 19  2  0  0  0  0
 19 39  1  0  0  0  0
 20 21  1  0  0  0  0
 20 40  1  0  0  0  0
 20 41  1  0  0  0  0
 21 22  1  0  0  0  0
 21 23  1  0  0  0  0
 21 42  1  0  0  0  0
 22 43  1  0  0  0  0
 22 44  1  0  0  0  0
 22 45  1  0  0  0  0
M  END
> <s_m_source_file>
AV-unprocessed.smi

> <i_m_source_file_index>
1414

> <i_lp_mmshare_version>
43012

> <i_f3d_flags>
0

> <s_epik_input>
W0NIM11bQ0BASF0xW0NIMl1OKFtDSDJdW0NASF0oTzEpW0NIM10pUyg9TykoPU8pW0NIMl1bQ0gyXVtOSF1DKD1PKVtOSF1jMltjSF1bY0hdW2NIXW5bY0hdMg==

> <s_epik_cmdline>
J2VwaWtfcHl0aG9uJywgJy1waCcsICc3LjAnLCAnLXRuJywgJzgnLCAnLW1hJywgJzIwMCcsICctbWV0YWxfYmluZGluZycsICctaW1hZScsICc8aW5maWxlLm1hZT4nLCAnLW9tYWUnLCAnPG91dGZpbGUubWFlPic=

> <r_epik_Ionization_Penalty>
0.00437531

> <r_epik_Ionization_Penalty_Charging>
0

> <r_epik_Ionization_Penalty_Neutral>
0.00437531

> <r_epik_State_Penalty>
0.00312896

> <r_epik_Charging_Adjusted_Penalty>
0.00312896

> <i_epik_Tot_Q>
0

> <i_epik_Tot_abs_Q>
0

> <r_epik_Metal_State_Penalty>
-0

> <b_epik_Metal_Only>
0

> <s_lp_Force_Field>
OPLS_2005

> <r_lp_Energy>
7.0755

> <b_lp_Chiralities_Consistent>
1

> <s_lp_Variant>
AV-unprocessed.smi:1414-3

> <Gold.Version>
5.8.1

> <Gold.Id.Protein>
6NUR|6NUR_protein|mol2

> <Gold.PLP.Fitness>
53.5571

> <Gold.PLP.PLP>
-40.1744

> <Gold.PLP.part.hbond>
-2.9524

> <Gold.PLP.part.metal>
0.0000

> <Gold.PLP.part.buried>
-4.5990

> <Gold.PLP.part.nonpolar>
-34.6535

> <Gold.PLP.part.repulsive>
0.4250

> <Gold.PLP.ligand.clash>
0.0000

> <Gold.PLP.ligand.torsion>
1.4870

> <Gold.PLP.Chemscore.Hbond>
2.9500

> <Gold.PLP.Chemscore.CHOScore>
1.7923

> <Gold.PLP.Chemscore.Metal>
0.0000

> <Gold.Chemscore.Hbonds>
donor molecule, donor type, donor heavy atom, donor atom, acceptor molecule, acceptor atom, score
      L1  H    13    35       P1 10747  1.00
      P1  H  7989  7998       L1    23  0.60
      P1  H 10752 10765       L1     6  0.99
      L1  C    17    38       P1 10186  0.25
      L1  C    17    38       P1 10952  1.00
      L1  C    19    39       P1 10957  0.30

> <Gold.PLP.Chemscore.Internal.Correction>
2.1299

> <Gold.Rescore>
     Score         DG    S(hbond)    S(metal)    S(lipo)     H(rot)  DE(clash)    DE(int)     intcor
     15.94     -19.17       1.91        0.00      96.87       1.57       0.43       2.80       ----

> <Gold.Chemscore.Fitness>
15.9437

> <Gold.Chemscore.DG>
-19.1700

> <Gold.Chemscore.ZeroCoef>
-5.4800

> <Gold.Chemscore.Hbond>
1.9078

> <Gold.Chemscore.Metal>
0.0000

> <Gold.Chemscore.Lipo>
96.8701

> <Gold.Chemscore.Internal_Hbond>
0.0000

> <Gold.Chemscore.DEClash>
0.4274

> <Gold.Chemscore.DEInternal>
2.7989

> <Gold.Chemscore.Rot>
1.5687

> <Gold.Chemscore.Internal.Correction>
   9.000000E+99

> <Gold.Chemscore.Hbonds>
donor molecule, donor type, donor heavy atom, donor atom, acceptor molecule, acceptor atom, score
      L1  H    13    35       P1 10747  0.98
      P1  H  7989  7998       L1    23  0.30
      P1  H 10752 10765       L1     6  0.89

> <Gold.Chemscore.Hbond.Weighted>
-6.3722

> <Gold.Chemscore.Metal.Weighted>
-0.0000

> <Gold.Chemscore.Lipo.Weighted>
-11.3338

> <Gold.Chemscore.Internal_Hbond.Weighted>
0.0000

> <Gold.Chemscore.DEClash.Weighted>
0.4274

> <Gold.Chemscore.DEInternal.Weighted>
2.7989

> <Gold.Chemscore.Rot.Weighted>
4.0160

> <Gold.Chemscore.Internal.Correction.Weighted>
   9.000000E+99

> <Gold.Protein.RotatedTorsions>
[ 6907 6896 6895 6894 ] final  -56.34 input  -60.11 | X-H torsion
[ 7974 7965 7964 7962 ] final   54.37 input  175.53 | X-H torsion
[ 8008 7997 7996 7995 ] final  131.62 input   59.86 | X-H torsion
[ 10167 10162 10161 10158 ] final  -95.20 input  -65.29 | X-H torsion
[ 10718 10713 10712 10709 ] final -123.09 input   66.30 | X-H torsion
[ 10763 10752 10751 10750 ] final -152.70 input  -60.55 | X-H torsion
[ 11005 11000 10999 10996 ] final   28.94 input  -57.11 | X-H torsion

> <Gold.Protein.ActiveResidues>
 VAL166  LYS551  ARG553  GLY616  TRP617  ASP618  TYR619  PRO620  LYS621  CYS622 
 ASP623  PHE694  ASN695  SER759  ASP760  ASP761  ALA762  ILE779  LEU786  VAL792 
 PHE793  MET794  SER795  GLU796  ALA797  LYS798  CYS799  TRP800  GLU811  SER814 

> <Gold.Protein.RotatedAtoms>
  150.8175  134.7365  159.6742 H   0  0  0  0  0  0  0  0  0  0  0  0  # atno 6907 bound_to 6896
  152.4293  134.5805  159.9956 H   0  0  0  0  0  0  0  0  0  0  0  0  # atno 6908 bound_to 6896
  151.5998  133.3320  159.3081 H   0  0  0  0  0  0  0  0  0  0  0  0  # atno 6909 bound_to 6896
  145.9616  139.4064  143.0245 H   0  0  0  0  0  0  0  0  0  0  0  0  # atno 7974 bound_to 7965
  156.2972  140.2567  156.2955 H   0  0  0  0  0  0  0  0  0  0  0  0  # atno 8008 bound_to 7997
  154.9468  140.0395  157.2143 H   0  0  0  0  0  0  0  0  0  0  0  0  # atno 8009 bound_to 7997
  154.8074  140.2838  155.5882 H   0  0  0  0  0  0  0  0  0  0  0  0  # atno 8010 bound_to 7997
  140.3066  143.3130  152.0193 H   0  0  0  0  0  0  0  0  0  0  0  0  # atno 10167 bound_to 10162
  156.1473  130.6509  150.9861 H   0  0  0  0  0  0  0  0  0  0  0  0  # atno 10718 bound_to 10713
  154.7976  135.3230  154.7628 H   0  0  0  0  0  0  0  0  0  0  0  0  # atno 10763 bound_to 10752
  153.8303  135.6880  153.4820 H   0  0  0  0  0  0  0  0  0  0  0  0  # atno 10764 bound_to 10752
  153.1676  135.4636  154.9801 H   0  0  0  0  0  0  0  0  0  0  0  0  # atno 10765 bound_to 10752
  140.3102  134.2658  155.7736 H   0  0  0  0  0  0  0  0  0  0  0  0  # atno 11005 bound_to 11000
  145.8032  140.9761  143.0988 LP  0  0  0  0  0  0  0  0  0  0  0  0  # atno 17320 bound_to 7965
  144.6816  139.9828  143.7483 LP  0  0  0  0  0  0  0  0  0  0  0  0  # atno 17321 bound_to 7965
  139.4903  144.6416  151.6864 LP  0  0  0  0  0  0  0  0  0  0  0  0  # atno 17342 bound_to 10162
  140.5605  144.0276  150.6167 LP  0  0  0  0  0  0  0  0  0  0  0  0  # atno 17343 bound_to 10162
  157.6627  131.0877  150.7800 LP  0  0  0  0  0  0  0  0  0  0  0  0  # atno 17370 bound_to 10713
  156.7871  130.4878  149.5391 LP  0  0  0  0  0  0  0  0  0  0  0  0  # atno 17371 bound_to 10713
  141.2110  133.7703  156.9896 LP  0  0  0  0  0  0  0  0  0  0  0  0  # atno 17394 bound_to 11000
  140.1031  134.9523  157.1954 LP  0  0  0  0  0  0  0  0  0  0  0  0  # atno 17395 bound_to 11000

$$$$
