AV-unprocessed.smi:2146|AV-procd|sdf|8740|dock8
  -GOLD-   2272011513D 1   1.00000     0.00000
 Structure written by MMmdl.
 45 46  0  0  0  0  0  0  0  0  2 V2000
  146.8102  138.6821  152.1167 C   0  0  0  0  0  0  0  0  0  0  0  0
  147.4781  139.8739  152.8473 C   0  0  2  0  0  0  0  0  0  0  0  0
  148.6572  139.3730  153.7199 C   0  0  0  0  0  0  0  0  0  0  0  0
  149.5115  140.4645  154.1745 N   0  0  0  0  0  0  0  0  0  0  0  0
  150.0610  140.5411  155.3949 C   0  0  0  0  0  0  0  0  0  0  0  0
  149.8818  139.6878  156.2652 O   0  0  0  0  0  0  0  0  0  0  0  0
  150.9365  141.7759  155.6566 C   0  0  0  0  0  0  0  0  0  0  0  0
  151.5639  141.7877  156.9893 N   0  0  0  0  0  0  0  0  0  0  0  0
  151.2563  142.8745  157.8313 C   0  0  0  0  0  0  0  0  0  0  0  0
  151.7540  143.0013  159.0767 C   0  0  0  0  0  0  0  0  0  0  0  0
  151.4485  144.2144  159.9418 C   0  0  0  0  0  0  0  0  0  0  0  0
  152.0322  144.1106  161.1360 F   0  0  0  0  0  0  0  0  0  0  0  0
  151.8745  145.3384  159.3641 F   0  0  0  0  0  0  0  0  0  0  0  0
  150.1336  144.3173  160.1301 F   0  0  0  0  0  0  0  0  0  0  0  0
  152.6669  141.9639  159.5147 C   0  0  0  0  0  0  0  0  0  0  0  0
  152.9760  140.9206  158.7202 C   0  0  0  0  0  0  0  0  0  0  0  0
  152.4082  140.7851  157.3769 C   0  0  0  0  0  0  0  0  0  0  0  0
  152.6746  139.8311  156.6457 O   0  0  0  0  0  0  0  0  0  0  0  0
  146.5150  140.6768  153.6725 N   0  3  0  0  0  0  0  0  0  0  0  0
  146.1188  139.9847  154.9304 C   0  0  0  0  0  0  0  0  0  0  0  0
  145.0752  140.8008  155.7103 C   0  0  0  0  0  0  0  0  0  0  0  0
  145.6022  142.0859  156.0023 O   0  0  0  0  0  0  0  0  0  0  0  0
  145.8879  142.8105  154.8159 C   0  0  0  0  0  0  0  0  0  0  0  0
  146.9507  142.0660  153.9891 C   0  0  0  0  0  0  0  0  0  0  0  0
  147.5323  138.0920  151.5531 H   0  0  0  0  0  0  0  0  0  0  0  0
  146.0726  139.0120  151.3852 H   0  0  0  0  0  0  0  0  0  0  0  0
  146.3185  138.0090  152.8200 H   0  0  0  0  0  0  0  0  0  0  0  0
  147.8778  140.5327  152.0746 H   0  0  0  0  0  0  0  0  0  0  0  0
  148.3023  138.8478  154.6053 H   0  0  0  0  0  0  0  0  0  0  0  0
  149.2630  138.6628  153.1546 H   0  0  0  0  0  0  0  0  0  0  0  0
  149.7038  141.2059  153.5159 H   0  0  0  0  0  0  0  0  0  0  0  0
  151.7001  141.8374  154.8789 H   0  0  0  0  0  0  0  0  0  0  0  0
  150.3222  142.6671  155.5202 H   0  0  0  0  0  0  0  0  0  0  0  0
  150.5846  143.6017  157.3989 H   0  0  0  0  0  0  0  0  0  0  0  0
  153.1067  142.0208  160.4997 H   0  0  0  0  0  0  0  0  0  0  0  0
  153.6571  140.1640  159.0812 H   0  0  0  0  0  0  0  0  0  0  0  0
  145.6966  139.0028  154.7278 H   0  0  0  0  0  0  0  0  0  0  0  0
  147.0008  139.8266  155.5530 H   0  0  0  0  0  0  0  0  0  0  0  0
  144.1454  140.8896  155.1458 H   0  0  0  0  0  0  0  0  0  0  0  0
  144.8318  140.3000  156.6475 H   0  0  0  0  0  0  0  0  0  0  0  0
  144.9754  142.9579  154.2359 H   0  0  0  0  0  0  0  0  0  0  0  0
  146.2527  143.8009  155.0889 H   0  0  0  0  0  0  0  0  0  0  0  0
  147.8965  142.0386  154.5326 H   0  0  0  0  0  0  0  0  0  0  0  0
  147.1117  142.6413  153.0782 H   0  0  0  0  0  0  0  0  0  0  0  0
  145.6781  140.7729  153.1150 H   0  0  0  0  0  0  0  0  0  0  0  0
  1  2  1  0  0  0  0
  1 25  1  0  0  0  0
  1 26  1  0  0  0  0
  1 27  1  0  0  0  0
  2  3  1  0  0  0  0
  2 19  1  0  0  0  0
  2 28  1  0  0  0  0
  3  4  1  0  0  0  0
  3 29  1  0  0  0  0
  3 30  1  0  0  0  0
  4  5  1  0  0  0  0
  4 31  1  0  0  0  0
  5  6  2  0  0  0  0
  5  7  1  0  0  0  0
  7  8  1  0  0  0  0
  7 32  1  0  0  0  0
  7 33  1  0  0  0  0
  8 17  1  0  0  0  0
  8  9  1  0  0  0  0
  9 10  2  0  0  0  0
  9 34  1  0  0  0  0
 10 11  1  0  0  0  0
 10 15  1  0  0  0  0
 11 12  1  0  0  0  0
 11 13  1  0  0  0  0
 11 14  1  0  0  0  0
 15 16  2  0  0  0  0
 15 35  1  0  0  0  0
 16 17  1  0  0  0  0
 16 36  1  0  0  0  0
 17 18  2  0  0  0  0
 19 24  1  0  0  0  0
 19 20  1  0  0  0  0
 19 45  1  0  0  0  0
 20 21  1  0  0  0  0
 20 37  1  0  0  0  0
 20 38  1  0  0  0  0
 21 22  1  0  0  0  0
 21 39  1  0  0  0  0
 21 40  1  0  0  0  0
 22 23  1  0  0  0  0
 23 24  1  0  0  0  0
 23 41  1  0  0  0  0
 23 42  1  0  0  0  0
 24 43  1  0  0  0  0
 24 44  1  0  0  0  0
M  CHG  1  19   1
M  END
> <s_m_source_file>
AV-unprocessed.smi

> <i_m_source_file_index>
2146

> <i_lp_mmshare_version>
43012

> <i_f3d_flags>
0

> <s_epik_input>
W0NIMl0xW0NIMl1PW0NIMl1bQ0gyXU4xW0NASF0oW0NIM10pW0NIMl1bTkhdQyg9TylbQ0gyXW4yW2NIXWMoQyhGKShGKUYpW2NIXVtjSF1jMj1P

> <s_epik_cmdline>
J2VwaWtfcHl0aG9uJywgJy1waCcsICc3LjAnLCAnLXRuJywgJzgnLCAnLW1hJywgJzIwMCcsICctbWV0YWxfYmluZGluZycsICctaW1hZScsICc8aW5maWxlLm1hZT4nLCAnLW9tYWUnLCAnPG91dGZpbGUubWFlPic=

> <r_lp_tautomer_probability>
1

> <r_epik_Ionization_Penalty>
0.656654

> <r_epik_Ionization_Penalty_Charging>
0.656653

> <r_epik_Ionization_Penalty_Neutral>
9.12373e-08

> <r_epik_State_Penalty>
0.675641

> <r_epik_Charging_Adjusted_Penalty>
1.33229

> <i_epik_Tot_Q>
1

> <i_epik_Tot_abs_Q>
1

> <r_epik_Metal_State_Penalty>
0.675692

> <b_epik_Metal_Only>
0

> <s_lp_Force_Field>
OPLS_2005

> <r_lp_Energy>
33.6044

> <b_lp_Chiralities_Consistent>
1

> <s_lp_Variant>
AV-unprocessed.smi:2146-3

> <Gold.Version>
5.8.1

> <Gold.Id.Protein>
6NUR|6NUR_protein|mol2

> <Gold.PLP.Fitness>
58.1621

> <Gold.PLP.PLP>
-47.1621

> <Gold.PLP.part.hbond>
-2.0363

> <Gold.PLP.part.metal>
0.0000

> <Gold.PLP.part.buried>
-5.1190

> <Gold.PLP.part.nonpolar>
-39.3763

> <Gold.PLP.part.repulsive>
0.2619

> <Gold.PLP.ligand.clash>
0.0000

> <Gold.PLP.ligand.torsion>
0.4981

> <Gold.PLP.Chemscore.Hbond>
3.0000

> <Gold.PLP.Chemscore.CHOScore>
0.9651

> <Gold.PLP.Chemscore.Metal>
0.0000

> <Gold.Chemscore.Hbonds>
donor molecule, donor type, donor heavy atom, donor atom, acceptor molecule, acceptor atom, score
      L1  H    19    45       P1 10175  1.62
      P1  H  7997  8009       L1    18  0.95
      L1  C     9    34       P1  8028  0.68

> <Gold.PLP.Chemscore.Internal.Correction>
0.1009

> <Gold.Rescore>
     Score         DG    S(hbond)    S(metal)    S(lipo)     H(rot)  DE(clash)    DE(int)     intcor
     14.86     -15.88       1.92        0.00      81.76       2.18       0.09       0.93       ----

> <Gold.Chemscore.Fitness>
14.8594

> <Gold.Chemscore.DG>
-15.8786

> <Gold.Chemscore.ZeroCoef>
-5.4800

> <Gold.Chemscore.Hbond>
1.9206

> <Gold.Chemscore.Metal>
0.0000

> <Gold.Chemscore.Lipo>
81.7601

> <Gold.Chemscore.Internal_Hbond>
0.0000

> <Gold.Chemscore.DEClash>
0.0878

> <Gold.Chemscore.DEInternal>
0.9315

> <Gold.Chemscore.Rot>
2.1805

> <Gold.Chemscore.Internal.Correction>
   9.000000E+99

> <Gold.Chemscore.Hbonds>
donor molecule, donor type, donor heavy atom, donor atom, acceptor molecule, acceptor atom, score
      L1  H    19    45       P1 10175  0.51
      P1  H  7997  8009       L1    18  0.22

> <Gold.Chemscore.Hbond.Weighted>
-6.4149

> <Gold.Chemscore.Metal.Weighted>
-0.0000

> <Gold.Chemscore.Lipo.Weighted>
-9.5659

> <Gold.Chemscore.Internal_Hbond.Weighted>
0.0000

> <Gold.Chemscore.DEClash.Weighted>
0.0878

> <Gold.Chemscore.DEInternal.Weighted>
0.9315

> <Gold.Chemscore.Rot.Weighted>
5.5822

> <Gold.Chemscore.Internal.Correction.Weighted>
   9.000000E+99

> <Gold.Protein.RotatedTorsions>
[ 6907 6896 6895 6894 ] final  -28.82 input  -60.11 | X-H torsion
[ 7974 7965 7964 7962 ] final -110.24 input  175.53 | X-H torsion
[ 8008 7997 7996 7995 ] final -168.36 input   59.86 | X-H torsion
[ 10167 10162 10161 10158 ] final  146.55 input  -65.29 | X-H torsion
[ 10718 10713 10712 10709 ] final   21.85 input   66.30 | X-H torsion
[ 10763 10752 10751 10750 ] final  129.11 input  -60.55 | X-H torsion
[ 11005 11000 10999 10996 ] final  -41.34 input  -57.11 | X-H torsion

> <Gold.Protein.ActiveResidues>
 VAL166  LYS551  ARG553  GLY616  TRP617  ASP618  TYR619  PRO620  LYS621  CYS622 
 ASP623  PHE694  ASN695  SER759  ASP760  ASP761  ALA762  ILE779  LEU786  VAL792 
 PHE793  MET794  SER795  GLU796  ALA797  LYS798  CYS799  TRP800  GLU811  SER814 

> <Gold.Protein.RotatedAtoms>
  151.1277  135.0113  159.8567 H   0  0  0  0  0  0  0  0  0  0  0  0  # atno 6907 bound_to 6896
  152.5450  134.1647  159.8582 H   0  0  0  0  0  0  0  0  0  0  0  0  # atno 6908 bound_to 6896
  151.1711  133.4739  159.2627 H   0  0  0  0  0  0  0  0  0  0  0  0  # atno 6909 bound_to 6896
  145.1706  140.8924  143.3537 H   0  0  0  0  0  0  0  0  0  0  0  0  # atno 7974 bound_to 7965
  155.8903  140.1023  157.1423 H   0  0  0  0  0  0  0  0  0  0  0  0  # atno 8008 bound_to 7997
  154.4014  140.1312  156.4371 H   0  0  0  0  0  0  0  0  0  0  0  0  # atno 8009 bound_to 7997
  155.7541  140.3464  155.5167 H   0  0  0  0  0  0  0  0  0  0  0  0  # atno 8010 bound_to 7997
  139.4905  144.5821  151.6851 H   0  0  0  0  0  0  0  0  0  0  0  0  # atno 10167 bound_to 10162
  157.1441  130.6646  149.5990 H   0  0  0  0  0  0  0  0  0  0  0  0  # atno 10718 bound_to 10713
  153.7365  135.3230  155.3296 H   0  0  0  0  0  0  0  0  0  0  0  0  # atno 10763 bound_to 10752
  154.8309  135.4534  154.1070 H   0  0  0  0  0  0  0  0  0  0  0  0  # atno 10764 bound_to 10752
  153.2232  135.6951  153.8057 H   0  0  0  0  0  0  0  0  0  0  0  0  # atno 10765 bound_to 10752
  141.0239  133.6850  156.2444 H   0  0  0  0  0  0  0  0  0  0  0  0  # atno 11005 bound_to 11000
  145.0236  139.3402  143.6060 LP  0  0  0  0  0  0  0  0  0  0  0  0  # atno 17320 bound_to 7965
  146.3469  139.9547  142.8724 LP  0  0  0  0  0  0  0  0  0  0  0  0  # atno 17321 bound_to 7965
  140.5429  144.0550  150.6095 LP  0  0  0  0  0  0  0  0  0  0  0  0  # atno 17342 bound_to 10162
  140.3578  143.2925  152.0417 LP  0  0  0  0  0  0  0  0  0  0  0  0  # atno 17343 bound_to 10162
  155.9783  130.4767  150.6645 LP  0  0  0  0  0  0  0  0  0  0  0  0  # atno 17370 bound_to 10713
  157.4280  131.0845  151.1066 LP  0  0  0  0  0  0  0  0  0  0  0  0  # atno 17371 bound_to 10713
  140.6526  134.5052  157.5578 LP  0  0  0  0  0  0  0  0  0  0  0  0  # atno 17394 bound_to 11000
  139.9163  134.8239  156.1355 LP  0  0  0  0  0  0  0  0  0  0  0  0  # atno 17395 bound_to 11000

$$$$
