AV-unprocessed.smi:1567|AV-procd|sdf|6306|dock4
  -GOLD-   22720 6503D 1   1.00000     0.00000
 Structure written by MMmdl.
 42 44  0  0  0  0  0  0  0  0  1 V2000
  148.9620  134.8594  154.4680 O   0  0  0  0  0  0  0  0  0  0  0  0
  149.4159  135.9496  155.2413 C   0  0  0  0  0  0  0  0  0  0  0  0
  150.7948  136.4193  154.7567 C   0  0  0  0  0  0  0  0  0  0  0  0
  151.1442  137.8494  155.2019 C   0  0  0  0  0  0  0  0  0  0  0  0
  150.0866  138.8481  154.8234 C   0  0  0  0  0  0  0  0  0  0  0  0
  149.0784  138.4946  154.0242 N   0  0  0  0  0  0  0  0  0  0  0  0
  148.3432  139.6569  153.9187 C   0  0  0  0  0  0  0  0  0  0  0  0
  147.1465  139.9258  153.2168 C   0  0  0  0  0  0  0  0  0  0  0  0
  146.5721  141.2131  153.2534 C   0  0  0  0  0  0  0  0  0  0  0  0
  147.1863  142.2474  153.9888 C   0  0  0  0  0  0  0  0  0  0  0  0
  148.3799  141.9998  154.6938 C   0  0  0  0  0  0  0  0  0  0  0  0
  148.9478  140.7118  154.6565 C   0  0  0  0  0  0  0  0  0  0  0  0
  150.0881  140.1496  155.2242 N   0  0  0  0  0  0  0  0  0  0  0  0
  151.0472  140.8738  156.0520 C   0  0  0  0  0  0  0  0  0  0  0  0
  150.7848  140.7017  157.5613 C   0  0  2  0  0  0  0  0  0  0  0  0
  149.3909  140.7979  157.7736 O   0  0  0  0  0  0  0  0  0  0  0  0
  151.5614  141.6938  158.4181 C   0  0  0  0  0  0  0  0  0  0  0  0
  151.3460  143.0820  158.2680 C   0  0  0  0  0  0  0  0  0  0  0  0
  152.0518  144.0032  159.0655 C   0  0  0  0  0  0  0  0  0  0  0  0
  151.8414  145.3317  158.9117 F   0  0  0  0  0  0  0  0  0  0  0  0
  152.9784  143.5430  160.0199 C   0  0  0  0  0  0  0  0  0  0  0  0
  153.2030  142.1613  160.1706 C   0  0  0  0  0  0  0  0  0  0  0  0
  152.5008  141.2380  159.3714 C   0  0  0  0  0  0  0  0  0  0  0  0
  152.7369  139.9130  159.5252 F   0  0  0  0  0  0  0  0  0  0  0  0
  149.0089  135.0965  153.5544 H   0  0  0  0  0  0  0  0  0  0  0  0
  148.6929  136.7607  155.1511 H   0  0  0  0  0  0  0  0  0  0  0  0
  149.4483  135.6636  156.2928 H   0  0  0  0  0  0  0  0  0  0  0  0
  151.5630  135.7208  155.0912 H   0  0  0  0  0  0  0  0  0  0  0  0
  150.8082  136.3786  153.6689 H   0  0  0  0  0  0  0  0  0  0  0  0
  151.3186  137.8483  156.2743 H   0  0  0  0  0  0  0  0  0  0  0  0
  152.0840  138.1613  154.7453 H   0  0  0  0  0  0  0  0  0  0  0  0
  146.6699  139.1403  152.6492 H   0  0  0  0  0  0  0  0  0  0  0  0
  145.6569  141.4079  152.7139 H   0  0  0  0  0  0  0  0  0  0  0  0
  146.7406  143.2310  154.0109 H   0  0  0  0  0  0  0  0  0  0  0  0
  148.8524  142.7906  155.2572 H   0  0  0  0  0  0  0  0  0  0  0  0
  152.0692  140.6067  155.7932 H   0  0  0  0  0  0  0  0  0  0  0  0
  150.9577  141.9296  155.7922 H   0  0  0  0  0  0  0  0  0  0  0  0
  151.0590  139.6878  157.8530 H   0  0  0  0  0  0  0  0  0  0  0  0
  148.9537  140.2409  157.1476 H   0  0  0  0  0  0  0  0  0  0  0  0
  150.6375  143.4454  157.5382 H   0  0  0  0  0  0  0  0  0  0  0  0
  153.5205  144.2489  160.6318 H   0  0  0  0  0  0  0  0  0  0  0  0
  153.9187  141.8086  160.8983 H   0  0  0  0  0  0  0  0  0  0  0  0
  1  2  1  0  0  0  0
  1 25  1  0  0  0  0
  2  3  1  0  0  0  0
  2 26  1  0  0  0  0
  2 27  1  0  0  0  0
  3  4  1  0  0  0  0
  3 28  1  0  0  0  0
  3 29  1  0  0  0  0
  4  5  1  0  0  0  0
  4 30  1  0  0  0  0
  4 31  1  0  0  0  0
  5 13  1  0  0  0  0
  5  6  2  0  0  0  0
  6  7  1  0  0  0  0
  7 12  2  0  0  0  0
  7  8  1  0  0  0  0
  8  9  2  0  0  0  0
  8 32  1  0  0  0  0
  9 10  1  0  0  0  0
  9 33  1  0  0  0  0
 10 11  2  0  0  0  0
 10 34  1  0  0  0  0
 11 12  1  0  0  0  0
 11 35  1  0  0  0  0
 12 13  1  0  0  0  0
 13 14  1  0  0  0  0
 14 15  1  0  0  0  0
 14 36  1  0  0  0  0
 14 37  1  0  0  0  0
 15 16  1  0  0  0  0
 15 17  1  0  0  0  0
 15 38  1  0  0  0  0
 16 39  1  0  0  0  0
 17 23  1  0  0  0  0
 17 18  2  0  0  0  0
 18 19  1  0  0  0  0
 18 40  1  0  0  0  0
 19 20  1  0  0  0  0
 19 21  2  0  0  0  0
 21 22  1  0  0  0  0
 21 41  1  0  0  0  0
 22 23  2  0  0  0  0
 22 42  1  0  0  0  0
 23 24  1  0  0  0  0
M  END
> <s_m_source_file>
AV-unprocessed.smi

> <i_m_source_file_index>
1567

> <i_lp_mmshare_version>
43012

> <i_f3d_flags>
0

> <s_epik_input>
W09IXVtDSDJdW0NIMl1bQ0gyXWMobjEpbihjKGMxMilbY0hdW2NIXVtjSF1bY0hdMilbQ0gyXVtDQEhdKFtPSF0pYzNbY0hdYyhGKVtjSF1bY0hdYzNG

> <s_epik_cmdline>
J2VwaWtfcHl0aG9uJywgJy1waCcsICc3LjAnLCAnLXRuJywgJzgnLCAnLW1hJywgJzIwMCcsICctbWV0YWxfYmluZGluZycsICctaW1hZScsICc8aW5maWxlLm1hZT4nLCAnLW9tYWUnLCAnPG91dGZpbGUubWFlPic=

> <r_epik_Ionization_Penalty>
0.182562

> <r_epik_Ionization_Penalty_Charging>
0

> <r_epik_Ionization_Penalty_Neutral>
0.182562

> <r_epik_State_Penalty>
0.172086

> <r_epik_Charging_Adjusted_Penalty>
0.172086

> <i_epik_Tot_Q>
0

> <i_epik_Tot_abs_Q>
0

> <r_epik_Metal_State_Penalty>
0.000199649

> <b_epik_Metal_Only>
0

> <s_lp_Force_Field>
OPLS_2005

> <r_lp_Energy>
11.8794

> <b_lp_Chiralities_Consistent>
1

> <s_lp_Variant>
AV-unprocessed.smi:1567-1

> <Gold.Version>
5.8.1

> <Gold.Id.Protein>
6NUR|6NUR_protein|mol2

> <Gold.PLP.Fitness>
52.8279

> <Gold.PLP.PLP>
-51.0189

> <Gold.PLP.part.hbond>
-1.0000

> <Gold.PLP.part.metal>
0.0000

> <Gold.PLP.part.buried>
-1.9401

> <Gold.PLP.part.nonpolar>
-49.8842

> <Gold.PLP.part.repulsive>
0.3904

> <Gold.PLP.ligand.clash>
0.0000

> <Gold.PLP.ligand.torsion>
0.6231

> <Gold.PLP.Chemscore.Hbond>
1.0000

> <Gold.PLP.Chemscore.CHOScore>
0.0000

> <Gold.PLP.Chemscore.Metal>
0.0000

> <Gold.Chemscore.Hbonds>
donor molecule, donor type, donor heavy atom, donor atom, acceptor molecule, acceptor atom, score
      L1  H     1    25       P1  7948  1.00

> <Gold.PLP.Chemscore.Internal.Correction>
0.0552

> <Gold.Rescore>
     Score         DG    S(hbond)    S(metal)    S(lipo)     H(rot)  DE(clash)    DE(int)     intcor
     12.89     -16.02       0.98        0.00     132.79       3.23       1.13       2.00       ----

> <Gold.Chemscore.Fitness>
12.8909

> <Gold.Chemscore.DG>
-16.0245

> <Gold.Chemscore.ZeroCoef>
-5.4800

> <Gold.Chemscore.Hbond>
0.9798

> <Gold.Chemscore.Metal>
0.0000

> <Gold.Chemscore.Lipo>
132.7856

> <Gold.Chemscore.Internal_Hbond>
0.0000

> <Gold.Chemscore.DEClash>
1.1342

> <Gold.Chemscore.DEInternal>
1.9994

> <Gold.Chemscore.Rot>
3.2281

> <Gold.Chemscore.Internal.Correction>
   9.000000E+99

> <Gold.Chemscore.Hbonds>
donor molecule, donor type, donor heavy atom, donor atom, acceptor molecule, acceptor atom, score
      L1  H     1    25       P1  7948  0.43

> <Gold.Chemscore.Hbond.Weighted>
-3.2724

> <Gold.Chemscore.Metal.Weighted>
-0.0000

> <Gold.Chemscore.Lipo.Weighted>
-15.5359

> <Gold.Chemscore.Internal_Hbond.Weighted>
0.0000

> <Gold.Chemscore.DEClash.Weighted>
1.1342

> <Gold.Chemscore.DEInternal.Weighted>
1.9994

> <Gold.Chemscore.Rot.Weighted>
8.2639

> <Gold.Chemscore.Internal.Correction.Weighted>
   9.000000E+99

> <Gold.Protein.RotatedTorsions>
[ 6907 6896 6895 6894 ] final   44.45 input  -60.11 | X-H torsion
[ 7974 7965 7964 7962 ] final  -82.26 input  175.53 | X-H torsion
[ 8008 7997 7996 7995 ] final  162.23 input   59.86 | X-H torsion
[ 10167 10162 10161 10158 ] final  -71.97 input  -65.29 | X-H torsion
[ 10718 10713 10712 10709 ] final   58.09 input   66.30 | X-H torsion
[ 10763 10752 10751 10750 ] final   -9.19 input  -60.55 | X-H torsion
[ 11005 11000 10999 10996 ] final   -8.18 input  -57.11 | X-H torsion

> <Gold.Protein.ActiveResidues>
 VAL166  LYS551  ARG553  GLY616  TRP617  ASP618  TYR619  PRO620  LYS621  CYS622 
 ASP623  PHE694  ASN695  SER759  ASP760  ASP761  ALA762  ILE779  LEU786  VAL792 
 PHE793  MET794  SER795  GLU796  ALA797  LYS798  CYS799  TRP800  GLU811  SER814 

> <Gold.Protein.RotatedAtoms>
  152.2327  134.8306  160.0471 H   0  0  0  0  0  0  0  0  0  0  0  0  # atno 6907 bound_to 6896
  151.9049  133.3542  159.3852 H   0  0  0  0  0  0  0  0  0  0  0  0  # atno 6908 bound_to 6896
  150.7030  134.4716  159.5472 H   0  0  0  0  0  0  0  0  0  0  0  0  # atno 6909 bound_to 6896
  145.5357  140.9516  143.1579 H   0  0  0  0  0  0  0  0  0  0  0  0  # atno 7974 bound_to 7965
  156.2046  140.1756  156.7827 H   0  0  0  0  0  0  0  0  0  0  0  0  # atno 8008 bound_to 7997
  154.5637  140.0695  156.8890 H   0  0  0  0  0  0  0  0  0  0  0  0  # atno 8009 bound_to 7997
  155.2800  140.3348  155.4261 H   0  0  0  0  0  0  0  0  0  0  0  0  # atno 8010 bound_to 7997
  140.5230  143.2329  151.7397 H   0  0  0  0  0  0  0  0  0  0  0  0  # atno 10167 bound_to 10162
  157.5568  130.8806  149.9048 H   0  0  0  0  0  0  0  0  0  0  0  0  # atno 10718 bound_to 10713
  153.4512  135.7015  153.6108 H   0  0  0  0  0  0  0  0  0  0  0  0  # atno 10763 bound_to 10752
  153.4442  135.3773  155.2246 H   0  0  0  0  0  0  0  0  0  0  0  0  # atno 10764 bound_to 10752
  154.8728  135.3981  154.3924 H   0  0  0  0  0  0  0  0  0  0  0  0  # atno 10765 bound_to 10752
  140.7207  133.8830  155.8819 H   0  0  0  0  0  0  0  0  0  0  0  0  # atno 11005 bound_to 11000
  144.7603  139.6974  143.7237 LP  0  0  0  0  0  0  0  0  0  0  0  0  # atno 17320 bound_to 7965
  146.2015  139.5312  142.9740 LP  0  0  0  0  0  0  0  0  0  0  0  0  # atno 17321 bound_to 7965
  139.4929  144.4227  151.9960 LP  0  0  0  0  0  0  0  0  0  0  0  0  # atno 17342 bound_to 10162
  140.3325  144.3300  150.5984 LP  0  0  0  0  0  0  0  0  0  0  0  0  # atno 17343 bound_to 10162
  156.0626  130.3697  150.0949 LP  0  0  0  0  0  0  0  0  0  0  0  0  # atno 17370 bound_to 10713
  156.9117  130.9654  151.3562 LP  0  0  0  0  0  0  0  0  0  0  0  0  # atno 17371 bound_to 10713
  141.0005  134.1156  157.4321 LP  0  0  0  0  0  0  0  0  0  0  0  0  # atno 17394 bound_to 11000
  139.8849  135.0067  156.6398 LP  0  0  0  0  0  0  0  0  0  0  0  0  # atno 17395 bound_to 11000

$$$$
