#       Name:                AV-unprocessed.smi:2763
#       Creating user name   scv26
#       Creation time:       Fri Mar 27 15:08:58 2020


#       File generated by GOLD software.
#

@<TRIPOS>MOLECULE
AV-unprocessed.smi:2763
    42    43     1
SMALL
NO_CHARGES


@<TRIPOS>ATOM
      1 ****        -1.1321   2.2780   0.5241 O.2            1 S1                 0.0000
      2 ****        -1.6030   1.1495   0.6684 C.2            1 S1                 0.0000
      3 ****        -0.8567   0.0394   0.7598 N.am           1 S1                 0.0000
      4 ****         0.6002  -0.0076   0.7050 C.3            1 S1                 0.0000
      5 ****         1.0694  -1.2401  -0.0829 C.3            1 S1                 0.0000
      6 ****         2.5998  -1.3823  -0.1209 C.3            1 S1                 0.0000
      7 ****         3.0401  -2.6815  -0.8240 C.3            1 S1                 0.0000
      8 ****         4.5686  -2.7560  -0.9165 C.3            1 S1                 0.0000
      9 ****         5.1113  -1.4758  -1.5604 C.3            1 S1                 0.0000
     10 ****         4.5678  -0.2387  -0.8286 C.3            1 S1                 0.0000
     11 ****         3.1438  -0.2665  -0.8237 O.3            1 S1                 0.0000
     12 ****        -2.9133   0.8608   0.7602 N.am           1 S1                 0.0000
     13 ****        -4.0171   1.7527   0.6945 C.ar           1 S1                 0.0000
     14 ****        -5.2845   1.1485   0.8589 C.ar           1 S1                 0.0000
     15 ****        -6.4447   1.9458   0.8082 C.ar           1 S1                 0.0000
     16 ****        -6.3055   3.3282   0.5925 C.ar           1 S1                 0.0000
     17 ****        -7.3917   4.1347   0.5353 F              1 S1                 0.0000
     18 ****        -5.0084   3.8513   0.4379 C.ar           1 S1                 0.0000
     19 ****        -3.8957   3.0882   0.4870 N.ar           1 S1                 0.0000
     20 ****        -1.3328  -0.8426   0.8794 H              1 S1                 0.0000
     21 ****         1.0058   0.8962   0.2474 H              1 S1                 0.0000
     22 ****         0.9825  -0.0443   1.7256 H              1 S1                 0.0000
     23 ****         0.6404  -2.1356   0.3689 H              1 S1                 0.0000
     24 ****         0.6815  -1.1937  -1.1015 H              1 S1                 0.0000
     25 ****         2.9772  -1.3804   0.9033 H              1 S1                 0.0000
     26 ****         2.6586  -3.5512  -0.2880 H              1 S1                 0.0000
     27 ****         2.6132  -2.7202  -1.8271 H              1 S1                 0.0000
     28 ****         4.9917  -2.8731   0.0820 H              1 S1                 0.0000
     29 ****         4.8738  -3.6305  -1.4917 H              1 S1                 0.0000
     30 ****         6.2015  -1.4771  -1.5437 H              1 S1                 0.0000
     31 ****         4.8135  -1.4372  -2.6090 H              1 S1                 0.0000
     32 ****         4.9454  -0.1932   0.1942 H              1 S1                 0.0000
     33 ****         4.9005   0.6700  -1.3307 H              1 S1                 0.0000
     34 ****        -3.1491  -0.1117   0.8911 H              1 S1                 0.0000
     35 ****        -5.3720   0.0841   1.0228 H              1 S1                 0.0000
     36 ****        -7.4222   1.5037   0.9319 H              1 S1                 0.0000
     37 ****        -4.8591   4.9077   0.2703 H              1 S1                 0.0000
     38 ****        -0.1415   2.4031   0.4689 LP             1 S1                 0.0000
     39 ****        -1.7402   3.0694   0.4621 LP             1 S1                 0.0000
     40 ****         2.8122   0.5722  -0.3917 LP             1 S1                 0.0000
     41 ****         2.8245  -0.3024  -1.7707 LP             1 S1                 0.0000
     42 ****        -2.9927   3.5023   0.3718 LP             1 S1                 0.0000
@<TRIPOS>BOND
    1    1    2 2     
    2    2    3 am    
    3    2   12 am    
    4    3    4 1     
    5    3   20 1     
    6    4    5 1     
    7    4   21 1     
    8    4   22 1     
    9    5    6 1     
   10    5   23 1     
   11    5   24 1     
   12    6   11 1     
   13    6    7 1     
   14    6   25 1     
   15    7    8 1     
   16    7   26 1     
   17    7   27 1     
   18    8    9 1     
   19    8   28 1     
   20    8   29 1     
   21    9   10 1     
   22    9   30 1     
   23    9   31 1     
   24   10   11 1     
   25   10   32 1     
   26   10   33 1     
   27   12   13 1     
   28   12   34 1     
   29   13   19 ar    
   30   13   14 ar    
   31   14   15 ar    
   32   14   35 1     
   33   15   16 ar    
   34   15   36 1     
   35   16   17 1     
   36   16   18 ar    
   37   18   19 ar    
   38   18   37 1     
   39    1   38 1     
   40    1   39 1     
   41   11   40 1     
   42   11   41 1     
   43   19   42 1     
@<TRIPOS>SUBSTRUCTURE
      1 S1             1
@<TRIPOS>SET
LONE_PAIRS      STATIC     ATOMS    <user>   **** ""
5 38 39 40 41 42
DONOR_HYDROGENS      STATIC     ATOMS    <user>   **** ""
2 20 34
ATOM$BLUE        STATIC     ATOMS    COLORGROUP SYSTEM
5 38 39 40 41 42
ATOM$RED        STATIC     ATOMS    COLORGROUP SYSTEM
2 20 34
