AV-unprocessed.smi:3316|AV-procd|sdf|12755|dock5
  -GOLD-   2272019 93D 1   1.00000     0.00000
 Structure written by MMmdl.
 41 43  0  0  0  0  0  0  0  0  2 V2000
  144.7574  135.3775  153.5453 C   0  0  0  0  0  0  0  0  0  0  0  0
  145.5709  135.0965  152.2724 C   0  0  2  0  0  0  0  0  0  0  0  0
  145.5364  136.2960  151.3049 C   0  0  0  0  0  0  0  0  0  0  0  0
  146.6033  137.2716  151.6099 N   0  3  0  0  0  0  0  0  0  0  0  0
  146.2714  138.2093  152.7005 C   0  0  0  0  0  0  0  0  0  0  0  0
  147.4102  139.2307  152.9312 C   0  0  1  0  0  0  0  0  0  0  0  0
  146.9596  140.7248  152.8198 C   0  0  0  0  0  0  0  0  0  0  0  0
  147.3799  141.3243  154.1810 C   0  0  2  0  0  0  0  0  0  0  0  0
  148.8910  141.2949  154.2602 C   0  0  0  0  0  0  0  0  0  0  0  0
  149.2567  140.0175  154.3775 C   0  0  0  0  0  0  0  0  0  0  0  0
  147.9917  139.1841  154.3697 C   0  0  1  0  0  0  0  0  0  0  0  0
  147.0392  140.1436  155.0942 C   0  0  0  0  0  0  0  0  0  0  0  0
  145.1153  133.8058  151.6014 C   0  0  0  0  0  0  0  0  0  0  0  0
  146.0568  132.8321  151.2055 C   0  0  0  0  0  0  0  0  0  0  0  0
  145.5915  131.6582  150.5794 C   0  0  0  0  0  0  0  0  0  0  0  0
  144.2862  131.4170  150.3335 N   0  0  0  0  0  0  0  0  0  0  0  0
  143.3885  132.3497  150.7155 C   0  0  0  0  0  0  0  0  0  0  0  0
  143.7487  133.5558  151.3493 C   0  0  0  0  0  0  0  0  0  0  0  0
  144.8331  134.5479  154.2489 H   0  0  0  0  0  0  0  0  0  0  0  0
  143.7007  135.5290  153.3225 H   0  0  0  0  0  0  0  0  0  0  0  0
  145.1192  136.2719  154.0534 H   0  0  0  0  0  0  0  0  0  0  0  0
  146.6076  134.9588  152.5835 H   0  0  0  0  0  0  0  0  0  0  0  0
  145.6422  135.9553  150.2741 H   0  0  0  0  0  0  0  0  0  0  0  0
  144.5718  136.8006  151.3732 H   0  0  0  0  0  0  0  0  0  0  0  0
  147.4417  136.7672  151.8611 H   0  0  0  0  0  0  0  0  0  0  0  0
  145.3353  138.7096  152.4518 H   0  0  0  0  0  0  0  0  0  0  0  0
  146.0792  137.6357  153.6083 H   0  0  0  0  0  0  0  0  0  0  0  0
  148.2157  139.0433  152.2179 H   0  0  0  0  0  0  0  0  0  0  0  0
  147.4421  141.2359  151.9857 H   0  0  0  0  0  0  0  0  0  0  0  0
  145.8825  140.8266  152.6838 H   0  0  0  0  0  0  0  0  0  0  0  0
  146.9236  142.2763  154.4531 H   0  0  0  0  0  0  0  0  0  0  0  0
  149.5295  142.1638  154.1983 H   0  0  0  0  0  0  0  0  0  0  0  0
  150.2588  139.6183  154.4299 H   0  0  0  0  0  0  0  0  0  0  0  0
  148.1014  138.1981  154.8220 H   0  0  0  0  0  0  0  0  0  0  0  0
  147.3187  140.3167  156.1357 H   0  0  0  0  0  0  0  0  0  0  0  0
  145.9900  139.8440  155.0578 H   0  0  0  0  0  0  0  0  0  0  0  0
  147.1141  132.9738  151.3761 H   0  0  0  0  0  0  0  0  0  0  0  0
  146.2870  130.8942  150.2653 H   0  0  0  0  0  0  0  0  0  0  0  0
  142.3516  132.1306  150.5078 H   0  0  0  0  0  0  0  0  0  0  0  0
  142.9876  134.2675  151.6335 H   0  0  0  0  0  0  0  0  0  0  0  0
  146.7890  137.8093  150.7750 H   0  0  0  0  0  0  0  0  0  0  0  0
  1  2  1  0  0  0  0
  1 19  1  0  0  0  0
  1 20  1  0  0  0  0
  1 21  1  0  0  0  0
  2  3  1  0  0  0  0
  2 13  1  0  0  0  0
  2 22  1  0  0  0  0
  3  4  1  0  0  0  0
  3 23  1  0  0  0  0
  3 24  1  0  0  0  0
  4  5  1  0  0  0  0
  4 25  1  0  0  0  0
  4 41  1  0  0  0  0
  5  6  1  0  0  0  0
  5 26  1  0  0  0  0
  5 27  1  0  0  0  0
  6 11  1  0  0  0  0
  6  7  1  0  0  0  0
  6 28  1  0  0  0  0
  7  8  1  0  0  0  0
  7 29  1  0  0  0  0
  7 30  1  0  0  0  0
  8 12  1  0  0  0  0
  8  9  1  0  0  0  0
  8 31  1  0  0  0  0
  9 10  2  0  0  0  0
  9 32  1  0  0  0  0
 10 11  1  0  0  0  0
 10 33  1  0  0  0  0
 11 12  1  0  0  0  0
 11 34  1  0  0  0  0
 12 35  1  0  0  0  0
 12 36  1  0  0  0  0
 13 18  1  0  0  0  0
 13 14  2  0  0  0  0
 14 15  1  0  0  0  0
 14 37  1  0  0  0  0
 15 16  2  0  0  0  0
 15 38  1  0  0  0  0
 16 17  1  0  0  0  0
 17 18  2  0  0  0  0
 17 39  1  0  0  0  0
 18 40  1  0  0  0  0
M  CHG  1   4   1
M  END
> <s_m_source_file>
AV-unprocessed.smi

> <i_m_source_file_index>
3316

> <i_lp_mmshare_version>
43012

> <i_f3d_flags>
0

> <s_epik_input>
W2NIXTFbY0hdbltjSF1bY0hdYzFbQ0BIXShbQ0gzXSlbQ0gyXVtOSF1bQ0gyXVtDQEhdKFtDSDJdW0NASF0yMylbQ0BIXShbQ0gyXTMpW0NIXT1bQ0hdMg==

> <s_epik_cmdline>
J2VwaWtfcHl0aG9uJywgJy1waCcsICc3LjAnLCAnLXRuJywgJzgnLCAnLW1hJywgJzIwMCcsICctbWV0YWxfYmluZGluZycsICctaW1hZScsICc8aW5maWxlLm1hZT4nLCAnLW9tYWUnLCAnPG91dGZpbGUubWFlPic=

> <r_lp_tautomer_probability>
1

> <r_epik_Ionization_Penalty>
0.00280406

> <r_epik_Ionization_Penalty_Charging>
0.000446589

> <r_epik_Ionization_Penalty_Neutral>
0.00235747

> <r_epik_State_Penalty>
-0

> <r_epik_Charging_Adjusted_Penalty>
0.000446589

> <i_epik_Tot_Q>
1

> <i_epik_Tot_abs_Q>
1

> <r_epik_Metal_State_Penalty>
-0

> <b_epik_Metal_Only>
0

> <s_lp_Force_Field>
OPLS_2005

> <r_lp_Energy>
68.7939

> <b_lp_Chiralities_Consistent>
1

> <s_lp_Variant>
AV-unprocessed.smi:3316-3

> <Gold.Version>
5.8.1

> <Gold.Id.Protein>
6NUR|6NUR_protein|mol2

> <Gold.PLP.Fitness>
44.7575

> <Gold.PLP.PLP>
-33.6377

> <Gold.PLP.part.hbond>
-2.0000

> <Gold.PLP.part.metal>
0.0000

> <Gold.PLP.part.buried>
-0.4432

> <Gold.PLP.part.nonpolar>
-32.9550

> <Gold.PLP.part.repulsive>
0.2467

> <Gold.PLP.ligand.clash>
0.0000

> <Gold.PLP.ligand.torsion>
1.5575

> <Gold.PLP.Chemscore.Hbond>
2.3788

> <Gold.PLP.Chemscore.CHOScore>
2.3359

> <Gold.PLP.Chemscore.Metal>
0.0000

> <Gold.Chemscore.Hbonds>
donor molecule, donor type, donor heavy atom, donor atom, acceptor molecule, acceptor atom, score
      L1  H     4    25       P1  7948  2.00
      P1  H 10785 10796       L1    16  0.19
      L1  C    15    38       P1 10747  0.64
      L1  C    17    39       P1 10186  0.19
      L1  C    17    39       P1 10952  1.00

> <Gold.PLP.Chemscore.Internal.Correction>
0.0908

> <Gold.Rescore>
     Score         DG    S(hbond)    S(metal)    S(lipo)     H(rot)  DE(clash)    DE(int)     intcor
     15.20     -16.79       1.12        0.00      94.65       1.36       0.24       1.35       ----

> <Gold.Chemscore.Fitness>
15.2046

> <Gold.Chemscore.DG>
-16.7883

> <Gold.Chemscore.ZeroCoef>
-5.4800

> <Gold.Chemscore.Hbond>
1.1158

> <Gold.Chemscore.Metal>
0.0000

> <Gold.Chemscore.Lipo>
94.6463

> <Gold.Chemscore.Internal_Hbond>
0.0000

> <Gold.Chemscore.DEClash>
0.2369

> <Gold.Chemscore.DEInternal>
1.3468

> <Gold.Chemscore.Rot>
1.3640

> <Gold.Chemscore.Internal.Correction>
   9.000000E+99

> <Gold.Chemscore.Hbonds>
donor molecule, donor type, donor heavy atom, donor atom, acceptor molecule, acceptor atom, score
      L1  H     4    25       P1  7948  0.97
      P1  H 10785 10796       L1    16  0.10

> <Gold.Chemscore.Hbond.Weighted>
-3.7267

> <Gold.Chemscore.Metal.Weighted>
-0.0000

> <Gold.Chemscore.Lipo.Weighted>
-11.0736

> <Gold.Chemscore.Internal_Hbond.Weighted>
0.0000

> <Gold.Chemscore.DEClash.Weighted>
0.2369

> <Gold.Chemscore.DEInternal.Weighted>
1.3468

> <Gold.Chemscore.Rot.Weighted>
3.4919

> <Gold.Chemscore.Internal.Correction.Weighted>
   9.000000E+99

> <Gold.Protein.RotatedTorsions>
[ 6907 6896 6895 6894 ] final   37.09 input  -60.11 | X-H torsion
[ 7974 7965 7964 7962 ] final -176.44 input  175.53 | X-H torsion
[ 8008 7997 7996 7995 ] final   32.25 input   59.86 | X-H torsion
[ 10167 10162 10161 10158 ] final  120.29 input  -65.29 | X-H torsion
[ 10718 10713 10712 10709 ] final -113.94 input   66.30 | X-H torsion
[ 10763 10752 10751 10750 ] final -104.55 input  -60.55 | X-H torsion
[ 11005 11000 10999 10996 ] final   88.20 input  -57.11 | X-H torsion

> <Gold.Protein.ActiveResidues>
 VAL166  LYS551  ARG553  GLY616  TRP617  ASP618  TYR619  PRO620  LYS621  CYS622 
 ASP623  PHE694  ASN695  SER759  ASP760  ASP761  ALA762  ILE779  LEU786  VAL792 
 PHE793  MET794  SER795  GLU796  ALA797  LYS798  CYS799  TRP800  GLU811  SER814 

> <Gold.Protein.RotatedAtoms>
  152.1385  134.9080  160.0554 H   0  0  0  0  0  0  0  0  0  0  0  0  # atno 6907 bound_to 6896
  152.0157  133.3874  159.4246 H   0  0  0  0  0  0  0  0  0  0  0  0  # atno 6908 bound_to 6896
  150.6863  134.3603  159.4991 H   0  0  0  0  0  0  0  0  0  0  0  0  # atno 6909 bound_to 6896
  144.7127  140.1169  143.6407 H   0  0  0  0  0  0  0  0  0  0  0  0  # atno 7974 bound_to 7965
  155.1194  140.3247  155.4501 H   0  0  0  0  0  0  0  0  0  0  0  0  # atno 8008 bound_to 7997
  156.2667  140.2030  156.6265 H   0  0  0  0  0  0  0  0  0  0  0  0  # atno 8009 bound_to 7997
  154.6695  140.0538  157.0137 H   0  0  0  0  0  0  0  0  0  0  0  0  # atno 8010 bound_to 7997
  139.5991  144.7051  151.3105 H   0  0  0  0  0  0  0  0  0  0  0  0  # atno 10167 bound_to 10162
  156.0798  130.6000  150.8708 H   0  0  0  0  0  0  0  0  0  0  0  0  # atno 10718 bound_to 10713
  154.7886  135.4782  154.0001 H   0  0  0  0  0  0  0  0  0  0  0  0  # atno 10763 bound_to 10752
  153.1597  135.6806  153.8768 H   0  0  0  0  0  0  0  0  0  0  0  0  # atno 10764 bound_to 10752
  153.8386  135.3182  155.3402 H   0  0  0  0  0  0  0  0  0  0  0  0  # atno 10765 bound_to 10752
  139.8902  134.8472  156.2967 H   0  0  0  0  0  0  0  0  0  0  0  0  # atno 11005 bound_to 11000
  145.9405  139.2666  143.1271 LP  0  0  0  0  0  0  0  0  0  0  0  0  # atno 17320 bound_to 7965
  145.9429  140.8966  143.0298 LP  0  0  0  0  0  0  0  0  0  0  0  0  # atno 17321 bound_to 7965
  140.7236  143.7068  150.7801 LP  0  0  0  0  0  0  0  0  0  0  0  0  # atno 17342 bound_to 10162
  140.0640  143.5126  152.2613 LP  0  0  0  0  0  0  0  0  0  0  0  0  # atno 17343 bound_to 10162
  157.5910  131.0944  150.9119 LP  0  0  0  0  0  0  0  0  0  0  0  0  # atno 17370 bound_to 10713
  156.9295  130.5344  149.5279 LP  0  0  0  0  0  0  0  0  0  0  0  0  # atno 17371 bound_to 10713
  140.9940  133.7191  156.0858 LP  0  0  0  0  0  0  0  0  0  0  0  0  # atno 17394 bound_to 11000
  140.7587  134.3964  157.5529 LP  0  0  0  0  0  0  0  0  0  0  0  0  # atno 17395 bound_to 11000

$$$$
