AV-unprocessed.smi:3212|AV-procd|sdf|12279|dock2
  -GOLD-   2272018113D 1   1.00000     0.00000
 Structure written by MMmdl.
 40 40  0  0  0  0  0  0  0  0  2 V2000
  146.8574  138.9138  151.4096 C   0  0  0  0  0  0  0  0  0  0  0  0
  146.4090  138.2085  152.6988 C   0  0  1  0  0  0  0  0  0  0  0  0
  146.4311  136.7409  152.5007 N   0  3  0  0  0  0  0  0  0  0  0  0
  145.6849  136.2569  151.3198 C   0  0  0  0  0  0  0  0  0  0  0  0
  144.5850  135.2689  151.7322 C   0  0  0  0  0  0  0  0  0  0  0  0
  144.8567  133.9303  151.2457 N   0  0  0  0  0  0  0  0  0  0  0  0
  144.1002  133.1560  150.3913 C   0  0  0  0  0  0  0  0  0  0  0  0
  144.7609  131.9728  150.2240 C   0  0  0  0  0  0  0  0  0  0  0  0
  145.9286  132.1211  151.0234 C   0  0  0  0  0  0  0  0  0  0  0  0
  145.9829  133.2943  151.6334 N   0  0  0  0  0  0  0  0  0  0  0  0
  147.3028  138.6392  153.8699 C   0  0  0  0  0  0  0  0  0  0  0  0
  146.8128  139.2293  154.8329 O   0  0  0  0  0  0  0  0  0  0  0  0
  148.6062  138.3224  153.7670 N   0  0  0  0  0  0  0  0  0  0  0  0
  149.6898  138.6029  154.7168 C   0  0  0  0  0  0  0  0  0  0  0  0
  149.8087  140.1334  154.8218 C   0  0  0  0  0  0  0  0  0  0  0  0
  151.0273  138.0310  154.2014 C   0  0  0  0  0  0  0  0  0  0  0  0
  149.3540  138.0307  156.1104 C   0  0  0  0  0  0  0  0  0  0  0  0
  146.8292  139.9989  151.5188 H   0  0  0  0  0  0  0  0  0  0  0  0
  146.2045  138.6549  150.5754 H   0  0  0  0  0  0  0  0  0  0  0  0
  147.8751  138.6341  151.1326 H   0  0  0  0  0  0  0  0  0  0  0  0
  145.3802  138.5078  152.9076 H   0  0  0  0  0  0  0  0  0  0  0  0
  147.3934  136.4549  152.3923 H   0  0  0  0  0  0  0  0  0  0  0  0
  145.2439  137.1042  150.7928 H   0  0  0  0  0  0  0  0  0  0  0  0
  146.3778  135.7743  150.6291 H   0  0  0  0  0  0  0  0  0  0  0  0
  144.4941  135.2317  152.8186 H   0  0  0  0  0  0  0  0  0  0  0  0
  143.6173  135.5886  151.3425 H   0  0  0  0  0  0  0  0  0  0  0  0
  143.1653  133.5057  149.9784 H   0  0  0  0  0  0  0  0  0  0  0  0
  144.4574  131.1298  149.6210 H   0  0  0  0  0  0  0  0  0  0  0  0
  146.7327  131.4166  151.1773 H   0  0  0  0  0  0  0  0  0  0  0  0
  148.8857  137.8288  152.9314 H   0  0  0  0  0  0  0  0  0  0  0  0
  150.6001  140.4230  155.5142 H   0  0  0  0  0  0  0  0  0  0  0  0
  148.8812  140.5823  155.1803 H   0  0  0  0  0  0  0  0  0  0  0  0
  150.0395  140.5831  153.8552 H   0  0  0  0  0  0  0  0  0  0  0  0
  151.2596  138.4026  153.2026 H   0  0  0  0  0  0  0  0  0  0  0  0
  151.0186  136.9421  154.1547 H   0  0  0  0  0  0  0  0  0  0  0  0
  151.8522  138.3145  154.8560 H   0  0  0  0  0  0  0  0  0  0  0  0
  150.1078  138.3182  156.8441 H   0  0  0  0  0  0  0  0  0  0  0  0
  149.3117  136.9415  156.1090 H   0  0  0  0  0  0  0  0  0  0  0  0
  148.3920  138.3981  156.4697 H   0  0  0  0  0  0  0  0  0  0  0  0
  146.0555  136.3028  153.3302 H   0  0  0  0  0  0  0  0  0  0  0  0
  1  2  1  0  0  0  0
  1 18  1  0  0  0  0
  1 19  1  0  0  0  0
  1 20  1  0  0  0  0
  2  3  1  0  0  0  0
  2 11  1  0  0  0  0
  2 21  1  0  0  0  0
  3  4  1  0  0  0  0
  3 22  1  0  0  0  0
  3 40  1  0  0  0  0
  4  5  1  0  0  0  0
  4 23  1  0  0  0  0
  4 24  1  0  0  0  0
  5  6  1  0  0  0  0
  5 25  1  0  0  0  0
  5 26  1  0  0  0  0
  6 10  1  0  0  0  0
  6  7  1  0  0  0  0
  7  8  2  0  0  0  0
  7 27  1  0  0  0  0
  8  9  1  0  0  0  0
  8 28  1  0  0  0  0
  9 10  2  0  0  0  0
  9 29  1  0  0  0  0
 11 12  2  0  0  0  0
 11 13  1  0  0  0  0
 13 14  1  0  0  0  0
 13 30  1  0  0  0  0
 14 15  1  0  0  0  0
 14 16  1  0  0  0  0
 14 17  1  0  0  0  0
 15 31  1  0  0  0  0
 15 32  1  0  0  0  0
 15 33  1  0  0  0  0
 16 34  1  0  0  0  0
 16 35  1  0  0  0  0
 16 36  1  0  0  0  0
 17 37  1  0  0  0  0
 17 38  1  0  0  0  0
 17 39  1  0  0  0  0
M  CHG  1   3   1
M  END
> <s_m_source_file>
AV-unprocessed.smi

> <i_m_source_file_index>
3212

> <i_lp_mmshare_version>
43012

> <i_f3d_flags>
0

> <s_epik_input>
W0NIM11DKFtDSDNdKShbQ0gzXSlbTkhdQyg9TylbQ0BIXShbQ0gzXSlbTkhdW0NIMl1bQ0gyXW4xW2NIXVtjSF1bY0hdbjE=

> <s_epik_cmdline>
J2VwaWtfcHl0aG9uJywgJy1waCcsICc3LjAnLCAnLXRuJywgJzgnLCAnLW1hJywgJzIwMCcsICctbWV0YWxfYmluZGluZycsICctaW1hZScsICc8aW5maWxlLm1hZT4nLCAnLW9tYWUnLCAnPG91dGZpbGUubWFlPic=

> <r_lp_tautomer_probability>
1

> <r_epik_Ionization_Penalty>
0.198377

> <r_epik_Ionization_Penalty_Charging>
0.198374

> <r_epik_Ionization_Penalty_Neutral>
3.0924e-06

> <r_epik_State_Penalty>
0.188176

> <r_epik_Charging_Adjusted_Penalty>
0.38655

> <i_epik_Tot_Q>
1

> <i_epik_Tot_abs_Q>
1

> <r_epik_Metal_State_Penalty>
0.188456

> <b_epik_Metal_Only>
0

> <s_lp_Force_Field>
OPLS_2005

> <r_lp_Energy>
5.64446

> <b_lp_Chiralities_Consistent>
1

> <s_lp_Variant>
AV-unprocessed.smi:3212-2

> <Gold.Version>
5.8.1

> <Gold.Id.Protein>
6NUR|6NUR_protein|mol2

> <Gold.PLP.Fitness>
46.6373

> <Gold.PLP.PLP>
-33.0418

> <Gold.PLP.part.hbond>
-2.4255

> <Gold.PLP.part.metal>
0.0000

> <Gold.PLP.part.buried>
-2.5797

> <Gold.PLP.part.nonpolar>
-28.7180

> <Gold.PLP.part.repulsive>
0.2728

> <Gold.PLP.ligand.clash>
0.0000

> <Gold.PLP.ligand.torsion>
0.7761

> <Gold.PLP.Chemscore.Hbond>
2.9920

> <Gold.PLP.Chemscore.CHOScore>
2.0000

> <Gold.PLP.Chemscore.Metal>
0.0000

> <Gold.Chemscore.Hbonds>
donor molecule, donor type, donor heavy atom, donor atom, acceptor molecule, acceptor atom, score
      L1  H     3    22       P1  7948  2.00
      L1  H    13    30       P1  7948  1.00
      L1  C     7    27       P1 10186  1.00
      L1  C     9    29       P1 10747  1.00

> <Gold.PLP.Chemscore.Internal.Correction>
0.1718

> <Gold.Rescore>
     Score         DG    S(hbond)    S(metal)    S(lipo)     H(rot)  DE(clash)    DE(int)     intcor
     15.41     -16.37       1.99        0.00      81.53       2.07       0.08       0.88       ----

> <Gold.Chemscore.Fitness>
15.4146

> <Gold.Chemscore.DG>
-16.3720

> <Gold.Chemscore.ZeroCoef>
-5.4800

> <Gold.Chemscore.Hbond>
1.9884

> <Gold.Chemscore.Metal>
0.0000

> <Gold.Chemscore.Lipo>
81.5326

> <Gold.Chemscore.Internal_Hbond>
0.0000

> <Gold.Chemscore.DEClash>
0.0756

> <Gold.Chemscore.DEInternal>
0.8817

> <Gold.Chemscore.Rot>
2.0659

> <Gold.Chemscore.Internal.Correction>
   9.000000E+99

> <Gold.Chemscore.Hbonds>
donor molecule, donor type, donor heavy atom, donor atom, acceptor molecule, acceptor atom, score
      L1  H     3    22       P1  7948  1.00
      L1  H    13    30       P1  7948  0.97

> <Gold.Chemscore.Hbond.Weighted>
-6.6413

> <Gold.Chemscore.Metal.Weighted>
-0.0000

> <Gold.Chemscore.Lipo.Weighted>
-9.5393

> <Gold.Chemscore.Internal_Hbond.Weighted>
0.0000

> <Gold.Chemscore.DEClash.Weighted>
0.0756

> <Gold.Chemscore.DEInternal.Weighted>
0.8817

> <Gold.Chemscore.Rot.Weighted>
5.2886

> <Gold.Chemscore.Internal.Correction.Weighted>
   9.000000E+99

> <Gold.Protein.RotatedTorsions>
[ 6907 6896 6895 6894 ] final -160.20 input  -60.11 | X-H torsion
[ 7974 7965 7964 7962 ] final  -89.02 input  175.53 | X-H torsion
[ 8008 7997 7996 7995 ] final  -46.05 input   59.86 | X-H torsion
[ 10167 10162 10161 10158 ] final  110.95 input  -65.29 | X-H torsion
[ 10718 10713 10712 10709 ] final   55.26 input   66.30 | X-H torsion
[ 10763 10752 10751 10750 ] final -104.08 input  -60.55 | X-H torsion
[ 11005 11000 10999 10996 ] final  -90.62 input  -57.11 | X-H torsion

> <Gold.Protein.ActiveResidues>
 VAL166  LYS551  ARG553  GLY616  TRP617  ASP618  TYR619  PRO620  LYS621  CYS622 
 ASP623  PHE694  ASN695  SER759  ASP760  ASP761  ALA762  ILE779  LEU786  VAL792 
 PHE793  MET794  SER795  GLU796  ALA797  LYS798  CYS799  TRP800  GLU811  SER814 

> <Gold.Protein.RotatedAtoms>
  151.3453  133.3946  159.2674 H   0  0  0  0  0  0  0  0  0  0  0  0  # atno 6907 bound_to 6896
  150.9844  134.9193  159.7874 H   0  0  0  0  0  0  0  0  0  0  0  0  # atno 6908 bound_to 6896
  152.5227  134.3418  159.9272 H   0  0  0  0  0  0  0  0  0  0  0  0  # atno 6909 bound_to 6896
  145.4453  140.9560  143.2052 H   0  0  0  0  0  0  0  0  0  0  0  0  # atno 7974 bound_to 7965
  154.4004  140.1381  156.3947 H   0  0  0  0  0  0  0  0  0  0  0  0  # atno 8008 bound_to 7997
  155.7881  140.3479  155.5313 H   0  0  0  0  0  0  0  0  0  0  0  0  # atno 8009 bound_to 7997
  155.8607  140.0956  157.1605 H   0  0  0  0  0  0  0  0  0  0  0  0  # atno 8010 bound_to 7997
  139.6649  144.7128  151.1796 H   0  0  0  0  0  0  0  0  0  0  0  0  # atno 10167 bound_to 10162
  157.5329  130.8643  149.8713 H   0  0  0  0  0  0  0  0  0  0  0  0  # atno 10718 bound_to 10713
  154.7853  135.4799  153.9933 H   0  0  0  0  0  0  0  0  0  0  0  0  # atno 10763 bound_to 10752
  153.1551  135.6798  153.8831 H   0  0  0  0  0  0  0  0  0  0  0  0  # atno 10764 bound_to 10752
  153.8463  135.3173  155.3407 H   0  0  0  0  0  0  0  0  0  0  0  0  # atno 10765 bound_to 10752
  141.1562  133.7704  156.9764 H   0  0  0  0  0  0  0  0  0  0  0  0  # atno 11005 bound_to 11000
  144.8095  139.5988  143.7036 LP  0  0  0  0  0  0  0  0  0  0  0  0  # atno 17320 bound_to 7965
  146.2534  139.6249  142.9412 LP  0  0  0  0  0  0  0  0  0  0  0  0  # atno 17321 bound_to 7965
  140.7595  143.5935  150.8772 LP  0  0  0  0  0  0  0  0  0  0  0  0  # atno 17342 bound_to 10162
  139.9596  143.6179  152.3006 LP  0  0  0  0  0  0  0  0  0  0  0  0  # atno 17343 bound_to 10162
  156.0436  130.3733  150.1372 LP  0  0  0  0  0  0  0  0  0  0  0  0  # atno 17370 bound_to 10713
  156.9556  130.9788  151.3489 LP  0  0  0  0  0  0  0  0  0  0  0  0  # atno 17371 bound_to 10713
  140.1095  134.9485  157.2044 LP  0  0  0  0  0  0  0  0  0  0  0  0  # atno 17394 bound_to 11000
  140.3212  134.2914  155.7246 LP  0  0  0  0  0  0  0  0  0  0  0  0  # atno 17395 bound_to 11000

$$$$
