AV-unprocessed.smi:2431|AV-procd|sdf|9586|dock5
  -GOLD-   2272013213D 1   1.00000     0.00000
 Structure written by MMmdl.
 36 37  0  0  0  0  0  0  0  0  3 V2000
  150.5424  142.0969  158.0824 O   0  0  0  0  0  0  0  0  0  0  0  0
  151.5753  141.4609  157.8708 C   0  0  0  0  0  0  0  0  0  0  0  0
  152.6584  141.5263  158.6583 N   0  0  0  0  0  0  0  0  0  0  0  0
  152.7672  142.3416  159.8625 C   0  0  0  0  0  0  0  0  0  0  0  0
  153.7024  141.6926  160.8965 C   0  0  0  0  0  0  0  0  0  0  0  0
  153.9118  142.5621  162.1206 C   0  0  0  0  0  0  0  0  0  0  0  0
  153.3226  143.7295  162.3759 C   0  0  0  0  0  0  0  0  0  0  0  0
  153.7758  144.3357  163.6755 C   0  0  0  0  0  0  0  0  0  0  0  0
  154.8264  143.3360  164.2086 C   0  0  0  0  0  0  0  0  0  0  0  0
  154.8825  142.1642  163.2027 C   0  0  0  0  0  0  0  0  0  0  0  0
  151.7651  140.6040  156.8529 N   0  0  0  0  0  0  0  0  0  0  0  0
  150.8551  140.2391  155.8197 C   0  0  0  0  0  0  0  0  0  0  0  0
  149.7560  141.0599  155.4660 C   0  0  0  0  0  0  0  0  0  0  0  0
  148.8914  140.6389  154.4385 C   0  0  0  0  0  0  0  0  0  0  0  0
  149.0562  139.4875  153.7583 N   0  0  0  0  0  0  0  0  0  0  0  0
  150.1131  138.7137  154.0807 C   0  0  0  0  0  0  0  0  0  0  0  0
  151.0532  139.0363  155.0864 C   0  0  0  0  0  0  0  0  0  0  0  0
  152.1784  138.1165  155.3416 N   0  3  0  0  0  0  0  0  0  0  0  0
  152.0408  136.9456  155.0042 O   0  0  0  0  0  0  0  0  0  0  0  0
  153.2018  138.5631  155.8499 O   0  5  0  0  0  0  0  0  0  0  0  0
  153.4627  140.9674  158.4130 H   0  0  0  0  0  0  0  0  0  0  0  0
  153.1535  143.3197  159.5748 H   0  0  0  0  0  0  0  0  0  0  0  0
  151.7760  142.5114  160.2861 H   0  0  0  0  0  0  0  0  0  0  0  0
  153.3021  140.7326  161.2241 H   0  0  0  0  0  0  0  0  0  0  0  0
  154.6711  141.4881  160.4385 H   0  0  0  0  0  0  0  0  0  0  0  0
  152.5969  144.2141  161.7394 H   0  0  0  0  0  0  0  0  0  0  0  0
  154.2060  145.3231  163.5049 H   0  0  0  0  0  0  0  0  0  0  0  0
  152.9309  144.4354  164.3575 H   0  0  0  0  0  0  0  0  0  0  0  0
  155.8028  143.8158  164.2883 H   0  0  0  0  0  0  0  0  0  0  0  0
  154.5578  142.9821  165.2046 H   0  0  0  0  0  0  0  0  0  0  0  0
  154.5747  141.2267  163.6663 H   0  0  0  0  0  0  0  0  0  0  0  0
  155.8833  142.0358  162.7890 H   0  0  0  0  0  0  0  0  0  0  0  0
  152.6308  140.0840  156.8684 H   0  0  0  0  0  0  0  0  0  0  0  0
  149.5657  142.0029  155.9557 H   0  0  0  0  0  0  0  0  0  0  0  0
  148.0454  141.2469  154.1537 H   0  0  0  0  0  0  0  0  0  0  0  0
  150.2165  137.8071  153.5025 H   0  0  0  0  0  0  0  0  0  0  0  0
  1  2  2  0  0  0  0
  2  3  1  0  0  0  0
  2 11  1  0  0  0  0
  3  4  1  0  0  0  0
  3 21  1  0  0  0  0
  4  5  1  0  0  0  0
  4 22  1  0  0  0  0
  4 23  1  0  0  0  0
  5  6  1  0  0  0  0
  5 24  1  0  0  0  0
  5 25  1  0  0  0  0
  6 10  1  0  0  0  0
  6  7  2  0  0  0  0
  7  8  1  0  0  0  0
  7 26  1  0  0  0  0
  8  9  1  0  0  0  0
  8 27  1  0  0  0  0
  8 28  1  0  0  0  0
  9 10  1  0  0  0  0
  9 29  1  0  0  0  0
  9 30  1  0  0  0  0
 10 31  1  0  0  0  0
 10 32  1  0  0  0  0
 11 12  1  0  0  0  0
 11 33  1  0  0  0  0
 12 17  1  0  0  0  0
 12 13  2  0  0  0  0
 13 14  1  0  0  0  0
 13 34  1  0  0  0  0
 14 15  2  0  0  0  0
 14 35  1  0  0  0  0
 15 16  1  0  0  0  0
 16 17  2  0  0  0  0
 16 36  1  0  0  0  0
 17 18  1  0  0  0  0
 18 19  2  0  0  0  0
 18 20  1  0  0  0  0
M  CHG  1  18   1
M  CHG  1  20  -1
M  END
> <s_m_source_file>
AV-unprocessed.smi

> <i_m_source_file_index>
2431

> <i_lp_mmshare_version>
43012

> <i_f3d_flags>
0

> <s_epik_input>
W0NIMl0xW0NIMl1bQ0gyXVtDSF09QzFbQ0gyXVtDSDJdW05IXUMoPU8pW05IXWMyW2NIXVtjSF1uW2NIXWMyW04rXSg9TylbTy1d

> <s_epik_cmdline>
J2VwaWtfcHl0aG9uJywgJy1waCcsICc3LjAnLCAnLXRuJywgJzgnLCAnLW1hJywgJzIwMCcsICctbWV0YWxfYmluZGluZycsICctaW1hZScsICc8aW5maWxlLm1hZT4nLCAnLW9tYWUnLCAnPG91dGZpbGUubWFlPic=

> <r_lp_tautomer_probability>
1

> <r_epik_Ionization_Penalty>
0.000148912

> <r_epik_Ionization_Penalty_Charging>
0

> <r_epik_Ionization_Penalty_Neutral>
0.000148912

> <r_epik_State_Penalty>
-0

> <r_epik_Charging_Adjusted_Penalty>
0

> <i_epik_Tot_Q>
0

> <i_epik_Tot_abs_Q>
2

> <r_epik_Metal_State_Penalty>
-0

> <b_epik_Metal_Only>
0

> <s_lp_Force_Field>
OPLS_2005

> <r_lp_Energy>
28.1068

> <b_lp_Chiralities_Consistent>
1

> <s_lp_Variant>
AV-unprocessed.smi:2431-1

> <Gold.Version>
5.8.1

> <Gold.Id.Protein>
6NUR|6NUR_protein|mol2

> <Gold.PLP.Fitness>
47.4214

> <Gold.PLP.PLP>
-39.2646

> <Gold.PLP.part.hbond>
-2.0000

> <Gold.PLP.part.metal>
0.0000

> <Gold.PLP.part.buried>
-3.5084

> <Gold.PLP.part.nonpolar>
-37.2610

> <Gold.PLP.part.repulsive>
3.5886

> <Gold.PLP.ligand.clash>
0.0000

> <Gold.PLP.ligand.torsion>
0.5509

> <Gold.PLP.Chemscore.Hbond>
1.9840

> <Gold.PLP.Chemscore.CHOScore>
1.0889

> <Gold.PLP.Chemscore.Metal>
0.0000

> <Gold.Chemscore.Hbonds>
donor molecule, donor type, donor heavy atom, donor atom, acceptor molecule, acceptor atom, score
      P1  H  7997  8009       L1    20  0.98
      P1  H 10752 10764       L1    19  0.98
      L1  C    16    36       P1  7948  0.94
      L1  C    16    36       P1  7949  0.05

> <Gold.PLP.Chemscore.Internal.Correction>
0.0399

> <Gold.Rescore>
     Score         DG    S(hbond)    S(metal)    S(lipo)     H(rot)  DE(clash)    DE(int)     intcor
     15.30     -20.73       1.77        0.00     112.14       1.48       2.25       3.18       ----

> <Gold.Chemscore.Fitness>
15.3002

> <Gold.Chemscore.DG>
-20.7277

> <Gold.Chemscore.ZeroCoef>
-5.4800

> <Gold.Chemscore.Hbond>
1.7736

> <Gold.Chemscore.Metal>
0.0000

> <Gold.Chemscore.Lipo>
112.1359

> <Gold.Chemscore.Internal_Hbond>
0.0000

> <Gold.Chemscore.DEClash>
2.2467

> <Gold.Chemscore.DEInternal>
3.1809

> <Gold.Chemscore.Rot>
1.4828

> <Gold.Chemscore.Internal.Correction>
   9.000000E+99

> <Gold.Chemscore.Hbonds>
donor molecule, donor type, donor heavy atom, donor atom, acceptor molecule, acceptor atom, score
      P1  H  7997  8009       L1    20  0.92
      P1  H 10752 10764       L1    19  0.93

> <Gold.Chemscore.Hbond.Weighted>
-5.9238

> <Gold.Chemscore.Metal.Weighted>
-0.0000

> <Gold.Chemscore.Lipo.Weighted>
-13.1199

> <Gold.Chemscore.Internal_Hbond.Weighted>
0.0000

> <Gold.Chemscore.DEClash.Weighted>
2.2467

> <Gold.Chemscore.DEInternal.Weighted>
3.1809

> <Gold.Chemscore.Rot.Weighted>
3.7960

> <Gold.Chemscore.Internal.Correction.Weighted>
   9.000000E+99

> <Gold.Protein.RotatedTorsions>
[ 6907 6896 6895 6894 ] final -147.03 input  -60.11 | X-H torsion
[ 7974 7965 7964 7962 ] final    9.57 input  175.53 | X-H torsion
[ 8008 7997 7996 7995 ] final -157.37 input   59.86 | X-H torsion
[ 10167 10162 10161 10158 ] final  -85.55 input  -65.29 | X-H torsion
[ 10718 10713 10712 10709 ] final  176.96 input   66.30 | X-H torsion
[ 10763 10752 10751 10750 ] final  -62.26 input  -60.55 | X-H torsion
[ 11005 11000 10999 10996 ] final  178.29 input  -57.11 | X-H torsion

> <Gold.Protein.ActiveResidues>
 VAL166  LYS551  ARG553  GLY616  TRP617  ASP618  TYR619  PRO620  LYS621  CYS622 
 ASP623  PHE694  ASN695  SER759  ASP760  ASP761  ALA762  ILE779  LEU786  VAL792 
 PHE793  MET794  SER795  GLU796  ALA797  LYS798  CYS799  TRP800  GLU811  SER814 

> <Gold.Protein.RotatedAtoms>
  151.1500  133.4914  159.2595 H   0  0  0  0  0  0  0  0  0  0  0  0  # atno 6907 bound_to 6896
  151.1564  135.0252  159.8701 H   0  0  0  0  0  0  0  0  0  0  0  0  # atno 6908 bound_to 6896
  152.5463  134.1378  159.8519 H   0  0  0  0  0  0  0  0  0  0  0  0  # atno 6909 bound_to 6896
  146.2401  139.9764  142.8441 H   0  0  0  0  0  0  0  0  0  0  0  0  # atno 7974 bound_to 7965
  155.7315  140.0802  157.2287 H   0  0  0  0  0  0  0  0  0  0  0  0  # atno 8008 bound_to 7997
  154.4032  140.1594  156.2568 H   0  0  0  0  0  0  0  0  0  0  0  0  # atno 8009 bound_to 7997
  155.9105  140.3404  155.6098 H   0  0  0  0  0  0  0  0  0  0  0  0  # atno 8010 bound_to 7997
  140.4026  143.2656  151.9122 H   0  0  0  0  0  0  0  0  0  0  0  0  # atno 10167 bound_to 10162
  156.9125  130.9914  151.3018 H   0  0  0  0  0  0  0  0  0  0  0  0  # atno 10718 bound_to 10713
  154.2972  135.6242  153.5410 H   0  0  0  0  0  0  0  0  0  0  0  0  # atno 10763 bound_to 10752
  152.9845  135.5670  154.5324 H   0  0  0  0  0  0  0  0  0  0  0  0  # atno 10764 bound_to 10752
  154.4947  135.2869  155.1445 H   0  0  0  0  0  0  0  0  0  0  0  0  # atno 10765 bound_to 10752
  140.3934  134.6841  157.4521 H   0  0  0  0  0  0  0  0  0  0  0  0  # atno 11005 bound_to 11000
  145.1633  140.9684  143.4364 LP  0  0  0  0  0  0  0  0  0  0  0  0  # atno 17320 bound_to 7965
  145.0096  139.3522  143.6127 LP  0  0  0  0  0  0  0  0  0  0  0  0  # atno 17321 bound_to 7965
  139.4784  144.5618  151.8227 LP  0  0  0  0  0  0  0  0  0  0  0  0  # atno 17342 bound_to 10162
  140.4723  144.1569  150.5920 LP  0  0  0  0  0  0  0  0  0  0  0  0  # atno 17343 bound_to 10162
  157.5959  130.8477  149.8728 LP  0  0  0  0  0  0  0  0  0  0  0  0  # atno 17370 bound_to 10713
  156.0529  130.3714  150.1158 LP  0  0  0  0  0  0  0  0  0  0  0  0  # atno 17371 bound_to 10713
  140.0389  134.6296  155.9006 LP  0  0  0  0  0  0  0  0  0  0  0  0  # atno 17394 bound_to 11000
  141.1882  133.6562  156.5316 LP  0  0  0  0  0  0  0  0  0  0  0  0  # atno 17395 bound_to 11000

$$$$
