AV-unprocessed.smi:3323|AV-procd|sdf|12779|dock3
  -GOLD-   2272019123D 1   1.00000     0.00000
 Structure written by MMmdl.
 37 38  0  0  0  0  0  0  0  0  1 V2000
  151.7369  138.3690  154.4412 C   0  0  0  0  0  0  0  0  0  0  0  0
  150.4403  139.1167  154.7709 C   0  0  2  0  0  0  0  0  0  0  0  0
  149.3109  138.7884  153.7765 C   0  0  0  0  0  0  0  0  0  0  0  0
  148.0439  139.6006  154.0916 C   0  0  2  0  0  0  0  0  0  0  0  0
  146.9255  139.3048  153.0719 C   0  0  0  0  0  0  0  0  0  0  0  0
  146.9683  137.9259  152.5929 N   0  0  0  0  0  0  0  0  0  0  0  0
  145.9061  137.1269  152.4157 C   0  0  0  0  0  0  0  0  0  0  0  0
  144.7480  137.4765  152.6411 O   0  0  0  0  0  0  0  0  0  0  0  0
  146.2834  135.9204  151.9584 N   0  0  0  0  0  0  0  0  0  0  0  0
  145.4831  134.7889  151.6404 C   0  0  0  0  0  0  0  0  0  0  0  0
  144.1355  134.6147  152.0410 C   0  0  0  0  0  0  0  0  0  0  0  0
  143.4619  133.4360  151.6661 C   0  0  0  0  0  0  0  0  0  0  0  0
  144.1588  132.4727  150.9117 C   0  0  0  0  0  0  0  0  0  0  0  0
  145.4453  132.6198  150.5323 N   0  0  0  0  0  0  0  0  0  0  0  0
  146.0844  133.7524  150.8947 C   0  0  0  0  0  0  0  0  0  0  0  0
  148.4218  141.0918  154.1642 C   0  0  0  0  0  0  0  0  0  0  0  0
  149.6004  141.3118  155.1261 C   0  0  0  0  0  0  0  0  0  0  0  0
  150.7112  140.5144  154.7308 O   0  0  0  0  0  0  0  0  0  0  0  0
  151.5855  137.2897  154.4703 H   0  0  0  0  0  0  0  0  0  0  0  0
  152.5202  138.6133  155.1591 H   0  0  0  0  0  0  0  0  0  0  0  0
  152.1020  138.6296  153.4473 H   0  0  0  0  0  0  0  0  0  0  0  0
  150.1311  138.8421  155.7810 H   0  0  0  0  0  0  0  0  0  0  0  0
  149.6441  139.0050  152.7601 H   0  0  0  0  0  0  0  0  0  0  0  0
  149.0872  137.7214  153.8100 H   0  0  0  0  0  0  0  0  0  0  0  0
  147.6893  139.2943  155.0770 H   0  0  0  0  0  0  0  0  0  0  0  0
  145.9497  139.5467  153.4967 H   0  0  0  0  0  0  0  0  0  0  0  0
  147.0433  139.9525  152.2028 H   0  0  0  0  0  0  0  0  0  0  0  0
  147.8812  137.5517  152.3789 H   0  0  0  0  0  0  0  0  0  0  0  0
  147.2700  135.8101  151.7751 H   0  0  0  0  0  0  0  0  0  0  0  0
  143.6072  135.3451  152.6326 H   0  0  0  0  0  0  0  0  0  0  0  0
  142.4341  133.2722  151.9540 H   0  0  0  0  0  0  0  0  0  0  0  0
  143.6716  131.5577  150.6089 H   0  0  0  0  0  0  0  0  0  0  0  0
  147.1131  133.8338  150.5746 H   0  0  0  0  0  0  0  0  0  0  0  0
  148.6910  141.4538  153.1711 H   0  0  0  0  0  0  0  0  0  0  0  0
  147.5717  141.6893  154.4941 H   0  0  0  0  0  0  0  0  0  0  0  0
  149.9001  142.3598  155.1163 H   0  0  0  0  0  0  0  0  0  0  0  0
  149.3150  141.0735  156.1518 H   0  0  0  0  0  0  0  0  0  0  0  0
  1  2  1  0  0  0  0
  1 19  1  0  0  0  0
  1 20  1  0  0  0  0
  1 21  1  0  0  0  0
  2 18  1  0  0  0  0
  2  3  1  0  0  0  0
  2 22  1  0  0  0  0
  3  4  1  0  0  0  0
  3 23  1  0  0  0  0
  3 24  1  0  0  0  0
  4  5  1  0  0  0  0
  4 16  1  0  0  0  0
  4 25  1  0  0  0  0
  5  6  1  0  0  0  0
  5 26  1  0  0  0  0
  5 27  1  0  0  0  0
  6  7  1  0  0  0  0
  6 28  1  0  0  0  0
  7  8  2  0  0  0  0
  7  9  1  0  0  0  0
  9 10  1  0  0  0  0
  9 29  1  0  0  0  0
 10 15  1  0  0  0  0
 10 11  2  0  0  0  0
 11 12  1  0  0  0  0
 11 30  1  0  0  0  0
 12 13  2  0  0  0  0
 12 31  1  0  0  0  0
 13 14  1  0  0  0  0
 13 32  1  0  0  0  0
 14 15  2  0  0  0  0
 15 33  1  0  0  0  0
 16 17  1  0  0  0  0
 16 34  1  0  0  0  0
 16 35  1  0  0  0  0
 17 18  1  0  0  0  0
 17 36  1  0  0  0  0
 17 37  1  0  0  0  0
M  END
> <s_m_source_file>
AV-unprocessed.smi

> <i_m_source_file_index>
3323

> <i_lp_mmshare_version>
43012

> <i_f3d_flags>
0

> <s_epik_input>
W0NIM11bQ0BASF0xW0NIMl1bQ0BIXShbQ0gyXVtDSDJdTzEpW0NIMl1bTkhdQyg9TylbTkhdYzJbY0hdW2NIXVtjSF1uW2NIXTI=

> <s_epik_cmdline>
J2VwaWtfcHl0aG9uJywgJy1waCcsICc3LjAnLCAnLXRuJywgJzgnLCAnLW1hJywgJzIwMCcsICctbWV0YWxfYmluZGluZycsICctaW1hZScsICc8aW5maWxlLm1hZT4nLCAnLW9tYWUnLCAnPG91dGZpbGUubWFlPic=

> <r_epik_Ionization_Penalty>
0.00485293

> <r_epik_Ionization_Penalty_Charging>
0

> <r_epik_Ionization_Penalty_Neutral>
0.00485293

> <r_epik_State_Penalty>
0.00349083

> <r_epik_Charging_Adjusted_Penalty>
0.00349083

> <i_epik_Tot_Q>
0

> <i_epik_Tot_abs_Q>
0

> <r_epik_Metal_State_Penalty>
-0

> <b_epik_Metal_Only>
0

> <s_lp_Force_Field>
OPLS_2005

> <r_lp_Energy>
12.0355

> <b_lp_Chiralities_Consistent>
1

> <s_lp_Variant>
AV-unprocessed.smi:3323-3

> <Gold.Version>
5.8.1

> <Gold.Id.Protein>
6NUR|6NUR_protein|mol2

> <Gold.PLP.Fitness>
41.8049

> <Gold.PLP.PLP>
-33.7289

> <Gold.PLP.part.hbond>
-3.0000

> <Gold.PLP.part.metal>
0.0000

> <Gold.PLP.part.buried>
-3.7030

> <Gold.PLP.part.nonpolar>
-28.3481

> <Gold.PLP.part.repulsive>
0.6583

> <Gold.PLP.ligand.clash>
0.0000

> <Gold.PLP.ligand.torsion>
0.4637

> <Gold.PLP.Chemscore.Hbond>
3.0000

> <Gold.PLP.Chemscore.CHOScore>
0.0000

> <Gold.PLP.Chemscore.Metal>
0.0000

> <Gold.Chemscore.Hbonds>
donor molecule, donor type, donor heavy atom, donor atom, acceptor molecule, acceptor atom, score
      L1  H     6    28       P1  7948  1.00
      L1  H     9    29       P1  7948  1.00
      P1  H  7989  7998       L1    18  1.00

> <Gold.PLP.Chemscore.Internal.Correction>
0.0035

> <Gold.Rescore>
     Score         DG    S(hbond)    S(metal)    S(lipo)     H(rot)  DE(clash)    DE(int)     intcor
     19.16     -20.71       2.82        0.00      76.39       1.23       0.02       1.53       ----

> <Gold.Chemscore.Fitness>
19.1574

> <Gold.Chemscore.DG>
-20.7085

> <Gold.Chemscore.ZeroCoef>
-5.4800

> <Gold.Chemscore.Hbond>
2.8243

> <Gold.Chemscore.Metal>
0.0000

> <Gold.Chemscore.Lipo>
76.3859

> <Gold.Chemscore.Internal_Hbond>
0.0000

> <Gold.Chemscore.DEClash>
0.0199

> <Gold.Chemscore.DEInternal>
1.5312

> <Gold.Chemscore.Rot>
1.2273

> <Gold.Chemscore.Internal.Correction>
   9.000000E+99

> <Gold.Chemscore.Hbonds>
donor molecule, donor type, donor heavy atom, donor atom, acceptor molecule, acceptor atom, score
      L1  H     6    28       P1  7948  0.96
      L1  H     9    29       P1  7948  0.99
      P1  H  7989  7998       L1    18  0.73

> <Gold.Chemscore.Hbond.Weighted>
-9.4332

> <Gold.Chemscore.Metal.Weighted>
-0.0000

> <Gold.Chemscore.Lipo.Weighted>
-8.9371

> <Gold.Chemscore.Internal_Hbond.Weighted>
0.0000

> <Gold.Chemscore.DEClash.Weighted>
0.0199

> <Gold.Chemscore.DEInternal.Weighted>
1.5312

> <Gold.Chemscore.Rot.Weighted>
3.1418

> <Gold.Chemscore.Internal.Correction.Weighted>
   9.000000E+99

> <Gold.Protein.RotatedTorsions>
[ 6907 6896 6895 6894 ] final  -74.20 input  -60.11 | X-H torsion
[ 7974 7965 7964 7962 ] final -174.21 input  175.53 | X-H torsion
[ 8008 7997 7996 7995 ] final -124.65 input   59.86 | X-H torsion
[ 10167 10162 10161 10158 ] final -139.40 input  -65.29 | X-H torsion
[ 10718 10713 10712 10709 ] final  -24.89 input   66.30 | X-H torsion
[ 10763 10752 10751 10750 ] final   26.14 input  -60.55 | X-H torsion
[ 11005 11000 10999 10996 ] final   17.43 input  -57.11 | X-H torsion

> <Gold.Protein.ActiveResidues>
 VAL166  LYS551  ARG553  GLY616  TRP617  ASP618  TYR619  PRO620  LYS621  CYS622 
 ASP623  PHE694  ASN695  SER759  ASP760  ASP761  ALA762  ILE779  LEU786  VAL792 
 PHE793  MET794  SER795  GLU796  ALA797  LYS798  CYS799  TRP800  GLU811  SER814 

> <Gold.Protein.RotatedAtoms>
  150.7102  134.4904  159.5512 H   0  0  0  0  0  0  0  0  0  0  0  0  # atno 6907 bound_to 6896
  152.2523  134.8117  160.0453 H   0  0  0  0  0  0  0  0  0  0  0  0  # atno 6908 bound_to 6896
  151.8860  133.3470  159.3819 H   0  0  0  0  0  0  0  0  0  0  0  0  # atno 6909 bound_to 6896
  144.7133  140.1506  143.6384 H   0  0  0  0  0  0  0  0  0  0  0  0  # atno 7974 bound_to 7965
  155.2004  140.0416  157.2916 H   0  0  0  0  0  0  0  0  0  0  0  0  # atno 8008 bound_to 7997
  154.6078  140.2469  155.7679 H   0  0  0  0  0  0  0  0  0  0  0  0  # atno 8009 bound_to 7997
  156.2361  140.2921  156.0326 H   0  0  0  0  0  0  0  0  0  0  0  0  # atno 8010 bound_to 7997
  139.8383  143.7355  152.2664 H   0  0  0  0  0  0  0  0  0  0  0  0  # atno 10167 bound_to 10162
  156.4716  130.4525  149.6866 H   0  0  0  0  0  0  0  0  0  0  0  0  # atno 10718 bound_to 10713
  153.0643  135.6567  154.0391 H   0  0  0  0  0  0  0  0  0  0  0  0  # atno 10763 bound_to 10752
  154.0051  135.2933  155.3400 H   0  0  0  0  0  0  0  0  0  0  0  0  # atno 10764 bound_to 10752
  154.6994  135.5250  153.8574 H   0  0  0  0  0  0  0  0  0  0  0  0  # atno 10765 bound_to 10752
  140.4360  134.1371  155.7685 H   0  0  0  0  0  0  0  0  0  0  0  0  # atno 11005 bound_to 11000
  145.9120  139.2493  143.1432 LP  0  0  0  0  0  0  0  0  0  0  0  0  # atno 17320 bound_to 7965
  145.9707  140.8763  143.0164 LP  0  0  0  0  0  0  0  0  0  0  0  0  # atno 17321 bound_to 7965
  139.7584  144.7514  151.0401 LP  0  0  0  0  0  0  0  0  0  0  0  0  # atno 17342 bound_to 10162
  140.7800  143.4779  151.0058 LP  0  0  0  0  0  0  0  0  0  0  0  0  # atno 17343 bound_to 10162
  156.3613  130.7483  151.2455 LP  0  0  0  0  0  0  0  0  0  0  0  0  # atno 17370 bound_to 10713
  157.7491  131.0349  150.4340 LP  0  0  0  0  0  0  0  0  0  0  0  0  # atno 17371 bound_to 10713
  141.1726  133.8579  157.1524 LP  0  0  0  0  0  0  0  0  0  0  0  0  # atno 17394 bound_to 11000
  140.0102  134.9991  157.0378 LP  0  0  0  0  0  0  0  0  0  0  0  0  # atno 17395 bound_to 11000

$$$$
