AV-unprocessed.smi:1492|AV-procd|sdf|6039|dock9
  -GOLD-   22720 6143D 1   1.00000     0.00000
 Structure written by MMmdl.
 53 54  0  0  0  0  0  0  0  0  2 V2000
  145.5167  134.8572  156.2420 C   0  0  0  0  0  0  0  0  0  0  0  0
  145.3925  134.6728  154.7188 C   0  0  0  0  0  0  0  0  0  0  0  0
  146.5092  135.3490  153.8646 C   0  0  2  0  0  0  0  0  0  0  0  0
  147.8631  134.7311  154.3033 C   0  0  0  0  0  0  0  0  0  0  0  0
  146.5199  136.8821  154.1556 C   0  0  0  0  0  0  0  0  0  0  0  0
  147.8459  137.4869  154.0431 N   0  0  0  0  0  0  0  0  0  0  0  0
  148.2001  138.7008  154.4919 C   0  0  0  0  0  0  0  0  0  0  0  0
  147.4245  139.4695  155.0591 O   0  0  0  0  0  0  0  0  0  0  0  0
  149.6514  139.1148  154.2465 C   0  0  0  0  0  0  0  0  0  0  0  0
  150.2048  140.1657  155.2072 C   0  0  0  0  0  0  0  0  0  0  0  0
  151.3092  139.9557  155.9818 C   0  0  0  0  0  0  0  0  0  0  0  0
  152.0917  138.6543  155.9640 C   0  0  0  0  0  0  0  0  0  0  0  0
  151.7931  140.9409  156.8539 N   0  0  0  0  0  0  0  0  0  0  0  0
  151.1712  142.0718  156.9208 C   0  0  0  0  0  0  0  0  0  0  0  0
  151.5930  143.2157  157.8187 C   0  0  0  0  0  0  0  0  0  0  0  0
  150.0384  142.3500  156.1575 N   0  0  0  0  0  0  0  0  0  0  0  0
  149.5076  141.4642  155.2855 C   0  0  0  0  0  0  0  0  0  0  0  0
  148.5204  141.7652  154.6158 O   0  0  0  0  0  0  0  0  0  0  0  0
  146.2748  135.0867  152.3976 N   0  3  0  0  0  0  0  0  0  0  0  0
  146.3752  133.6635  151.9658 C   0  0  0  0  0  0  0  0  0  0  0  0
  146.3336  133.5630  150.4328 C   0  0  0  0  0  0  0  0  0  0  0  0
  145.1280  134.1409  149.9529 O   0  0  0  0  0  0  0  0  0  0  0  0
  145.0405  135.5207  150.2798 C   0  0  0  0  0  0  0  0  0  0  0  0
  145.0499  135.6986  151.8080 C   0  0  0  0  0  0  0  0  0  0  0  0
  149.5965  143.2531  156.2491 H   0  0  0  0  0  0  0  0  0  0  0  0
  144.6961  134.3533  156.7531 H   0  0  0  0  0  0  0  0  0  0  0  0
  145.4768  135.9078  156.5279 H   0  0  0  0  0  0  0  0  0  0  0  0
  146.4448  134.4374  156.6296 H   0  0  0  0  0  0  0  0  0  0  0  0
  145.3330  133.6080  154.4953 H   0  0  0  0  0  0  0  0  0  0  0  0
  144.4183  135.0636  154.4222 H   0  0  0  0  0  0  0  0  0  0  0  0
  147.9550  134.6887  155.3891 H   0  0  0  0  0  0  0  0  0  0  0  0
  148.7134  135.3134  153.9481 H   0  0  0  0  0  0  0  0  0  0  0  0
  147.9841  133.7130  153.9326 H   0  0  0  0  0  0  0  0  0  0  0  0
  145.8175  137.4086  153.5089 H   0  0  0  0  0  0  0  0  0  0  0  0
  146.1896  137.0799  155.1747 H   0  0  0  0  0  0  0  0  0  0  0  0
  148.5567  136.9348  153.5840 H   0  0  0  0  0  0  0  0  0  0  0  0
  150.2753  138.2199  154.2615 H   0  0  0  0  0  0  0  0  0  0  0  0
  149.7360  139.4875  153.2254 H   0  0  0  0  0  0  0  0  0  0  0  0
  151.4762  137.8330  156.3314 H   0  0  0  0  0  0  0  0  0  0  0  0
  152.9777  138.7161  156.5970 H   0  0  0  0  0  0  0  0  0  0  0  0
  152.4218  138.4159  154.9529 H   0  0  0  0  0  0  0  0  0  0  0  0
  152.6036  143.5372  157.5663 H   0  0  0  0  0  0  0  0  0  0  0  0
  151.5851  142.8976  158.8615 H   0  0  0  0  0  0  0  0  0  0  0  0
  150.9270  144.0739  157.7186 H   0  0  0  0  0  0  0  0  0  0  0  0
  147.3010  133.2046  152.3063 H   0  0  0  0  0  0  0  0  0  0  0  0
  145.5535  133.0809  152.3830 H   0  0  0  0  0  0  0  0  0  0  0  0
  147.1970  134.0583  149.9853 H   0  0  0  0  0  0  0  0  0  0  0  0
  146.3709  132.5181  150.1243 H   0  0  0  0  0  0  0  0  0  0  0  0
  145.8642  136.0689  149.8194 H   0  0  0  0  0  0  0  0  0  0  0  0
  144.1182  135.9232  149.8611 H   0  0  0  0  0  0  0  0  0  0  0  0
  144.1562  135.2409  152.2329 H   0  0  0  0  0  0  0  0  0  0  0  0
  144.9931  136.7659  152.0133 H   0  0  0  0  0  0  0  0  0  0  0  0
  147.0428  135.5549  151.9384 H   0  0  0  0  0  0  0  0  0  0  0  0
  1  2  1  0  0  0  0
  1 26  1  0  0  0  0
  1 27  1  0  0  0  0
  1 28  1  0  0  0  0
  2  3  1  0  0  0  0
  2 29  1  0  0  0  0
  2 30  1  0  0  0  0
  3  4  1  0  0  0  0
  3  5  1  0  0  0  0
  3 19  1  0  0  0  0
  4 31  1  0  0  0  0
  4 32  1  0  0  0  0
  4 33  1  0  0  0  0
  5  6  1  0  0  0  0
  5 34  1  0  0  0  0
  5 35  1  0  0  0  0
  6  7  1  0  0  0  0
  6 36  1  0  0  0  0
  7  8  2  0  0  0  0
  7  9  1  0  0  0  0
  9 10  1  0  0  0  0
  9 37  1  0  0  0  0
  9 38  1  0  0  0  0
 10 17  1  0  0  0  0
 10 11  2  0  0  0  0
 11 12  1  0  0  0  0
 11 13  1  0  0  0  0
 12 39  1  0  0  0  0
 12 40  1  0  0  0  0
 12 41  1  0  0  0  0
 13 14  2  0  0  0  0
 14 15  1  0  0  0  0
 14 16  1  0  0  0  0
 15 42  1  0  0  0  0
 15 43  1  0  0  0  0
 15 44  1  0  0  0  0
 16 25  1  0  0  0  0
 16 17  1  0  0  0  0
 17 18  2  0  0  0  0
 19 24  1  0  0  0  0
 19 20  1  0  0  0  0
 19 53  1  0  0  0  0
 20 21  1  0  0  0  0
 20 45  1  0  0  0  0
 20 46  1  0  0  0  0
 21 22  1  0  0  0  0
 21 47  1  0  0  0  0
 21 48  1  0  0  0  0
 22 23  1  0  0  0  0
 23 24  1  0  0  0  0
 23 49  1  0  0  0  0
 23 50  1  0  0  0  0
 24 51  1  0  0  0  0
 24 52  1  0  0  0  0
M  CHG  1  19   1
M  END
> <s_m_source_file>
AV-unprocessed.smi

> <i_m_source_file_index>
1492

> <i_lp_mmshare_version>
43012

> <i_f3d_flags>
0

> <s_epik_input>
W0NIMl0xW0NIMl1PW0NIMl1bQ0gyXU4xW0NAQF0oW0NIM10pKFtDSDJdW0NIM10pW0NIMl1bTkhdQyg9TylbQ0gyXWMyYyhbQ0gzXSluYyhbQ0gzXSlbbkhdYzI9Tw==

> <s_epik_cmdline>
J2VwaWtfcHl0aG9uJywgJy1waCcsICc3LjAnLCAnLXRuJywgJzgnLCAnLW1hJywgJzIwMCcsICctbWV0YWxfYmluZGluZycsICctaW1hZScsICc8aW5maWxlLm1hZT4nLCAnLW9tYWUnLCAnPG91dGZpbGUubWFlPic=

> <r_lp_tautomer_probability>
0.839158

> <r_epik_Ionization_Penalty>
0.506959

> <r_epik_Ionization_Penalty_Charging>
0.506936

> <r_epik_Ionization_Penalty_Neutral>
2.27768e-05

> <r_epik_State_Penalty>
0.6046

> <r_epik_Charging_Adjusted_Penalty>
1.11154

> <i_epik_Tot_Q>
1

> <i_epik_Tot_abs_Q>
1

> <r_epik_Metal_State_Penalty>
0.783136

> <b_epik_Metal_Only>
0

> <s_lp_Force_Field>
OPLS_2005

> <r_lp_Energy>
29.7621

> <b_lp_Chiralities_Consistent>
1

> <s_lp_Variant>
AV-unprocessed.smi:1492-4

> <Gold.Version>
5.8.1

> <Gold.Id.Protein>
6NUR|6NUR_protein|mol2

> <Gold.PLP.Fitness>
42.3579

> <Gold.PLP.PLP>
-33.0092

> <Gold.PLP.part.hbond>
-3.0000

> <Gold.PLP.part.metal>
0.0000

> <Gold.PLP.part.buried>
0.3540

> <Gold.PLP.part.nonpolar>
-29.7410

> <Gold.PLP.part.repulsive>
1.4216

> <Gold.PLP.ligand.clash>
0.0000

> <Gold.PLP.ligand.torsion>
1.0391

> <Gold.PLP.Chemscore.Hbond>
3.7665

> <Gold.PLP.Chemscore.CHOScore>
0.0000

> <Gold.PLP.Chemscore.Metal>
0.0000

> <Gold.Chemscore.Hbonds>
donor molecule, donor type, donor heavy atom, donor atom, acceptor molecule, acceptor atom, score
      L1  H     6    36       P1  7948  0.80
      L1  H    16    25       P1  8028  1.00
      L1  H    19    53       P1  7948  2.00

> <Gold.PLP.Chemscore.Internal.Correction>
0.1274

> <Gold.Rescore>
     Score         DG    S(hbond)    S(metal)    S(lipo)     H(rot)  DE(clash)    DE(int)     intcor
     13.43     -17.29       2.79        0.00      69.42       2.19       0.31       3.55       ----

> <Gold.Chemscore.Fitness>
13.4259

> <Gold.Chemscore.DG>
-17.2913

> <Gold.Chemscore.ZeroCoef>
-5.4800

> <Gold.Chemscore.Hbond>
2.7851

> <Gold.Chemscore.Metal>
0.0000

> <Gold.Chemscore.Lipo>
69.4197

> <Gold.Chemscore.Internal_Hbond>
0.0000

> <Gold.Chemscore.DEClash>
0.3130

> <Gold.Chemscore.DEInternal>
3.5524

> <Gold.Chemscore.Rot>
2.1926

> <Gold.Chemscore.Internal.Correction>
   9.000000E+99

> <Gold.Chemscore.Hbonds>
donor molecule, donor type, donor heavy atom, donor atom, acceptor molecule, acceptor atom, score
      L1  H     6    36       P1  7948  0.79
      L1  H    16    25       P1  8028  0.98
      L1  H    19    53       P1  7948  0.94

> <Gold.Chemscore.Hbond.Weighted>
-9.3022

> <Gold.Chemscore.Metal.Weighted>
-0.0000

> <Gold.Chemscore.Lipo.Weighted>
-8.1221

> <Gold.Chemscore.Internal_Hbond.Weighted>
0.0000

> <Gold.Chemscore.DEClash.Weighted>
0.3130

> <Gold.Chemscore.DEInternal.Weighted>
3.5524

> <Gold.Chemscore.Rot.Weighted>
5.6129

> <Gold.Chemscore.Internal.Correction.Weighted>
   9.000000E+99

> <Gold.Protein.RotatedTorsions>
[ 6907 6896 6895 6894 ] final  -84.23 input  -60.11 | X-H torsion
[ 7974 7965 7964 7962 ] final  -94.87 input  175.53 | X-H torsion
[ 8008 7997 7996 7995 ] final  -59.89 input   59.86 | X-H torsion
[ 10167 10162 10161 10158 ] final -122.24 input  -65.29 | X-H torsion
[ 10718 10713 10712 10709 ] final  114.19 input   66.30 | X-H torsion
[ 10763 10752 10751 10750 ] final -134.51 input  -60.55 | X-H torsion
[ 11005 11000 10999 10996 ] final -117.52 input  -57.11 | X-H torsion

> <Gold.Protein.ActiveResidues>
 VAL166  LYS551  ARG553  GLY616  TRP617  ASP618  TYR619  PRO620  LYS621  CYS622 
 ASP623  PHE694  ASN695  SER759  ASP760  ASP761  ALA762  ILE779  LEU786  VAL792 
 PHE793  MET794  SER795  GLU796  ALA797  LYS798  CYS799  TRP800  GLU811  SER814 

> <Gold.Protein.RotatedAtoms>
  150.6878  134.3390  159.4859 H   0  0  0  0  0  0  0  0  0  0  0  0  # atno 6907 bound_to 6896
  152.1245  134.9178  160.0571 H   0  0  0  0  0  0  0  0  0  0  0  0  # atno 6908 bound_to 6896
  152.0371  133.3927  159.4358 H   0  0  0  0  0  0  0  0  0  0  0  0  # atno 6909 bound_to 6896
  145.3676  140.9501  143.2465 H   0  0  0  0  0  0  0  0  0  0  0  0  # atno 7974 bound_to 7965
  154.4373  140.1051  156.6187 H   0  0  0  0  0  0  0  0  0  0  0  0  # atno 8008 bound_to 7997
  155.5730  140.3489  155.4501 H   0  0  0  0  0  0  0  0  0  0  0  0  # atno 8009 bound_to 7997
  156.0375  140.1274  157.0181 H   0  0  0  0  0  0  0  0  0  0  0  0  # atno 8010 bound_to 7997
  140.0164  143.5389  152.2240 H   0  0  0  0  0  0  0  0  0  0  0  0  # atno 10167 bound_to 10162
  157.6295  131.0995  150.7150 H   0  0  0  0  0  0  0  0  0  0  0  0  # atno 10718 bound_to 10713
  154.8718  135.3732  154.4748 H   0  0  0  0  0  0  0  0  0  0  0  0  # atno 10763 bound_to 10752
  153.5405  135.7026  153.5644 H   0  0  0  0  0  0  0  0  0  0  0  0  # atno 10764 bound_to 10752
  153.3807  135.3997  155.1819 H   0  0  0  0  0  0  0  0  0  0  0  0  # atno 10765 bound_to 10752
  141.0349  133.9925  157.3086 H   0  0  0  0  0  0  0  0  0  0  0  0  # atno 11005 bound_to 11000
  144.8600  139.5192  143.6817 LP  0  0  0  0  0  0  0  0  0  0  0  0  # atno 17320 bound_to 7965
  146.2900  139.7111  142.9168 LP  0  0  0  0  0  0  0  0  0  0  0  0  # atno 17321 bound_to 7965
  139.6169  144.7621  151.2825 LP  0  0  0  0  0  0  0  0  0  0  0  0  # atno 17342 bound_to 10162
  140.7360  143.6719  150.8074 LP  0  0  0  0  0  0  0  0  0  0  0  0  # atno 17343 bound_to 10162
  156.7492  130.4763  149.5460 LP  0  0  0  0  0  0  0  0  0  0  0  0  # atno 17370 bound_to 10713
  156.1489  130.6296  151.0569 LP  0  0  0  0  0  0  0  0  0  0  0  0  # atno 17371 bound_to 10713
  139.9234  135.0201  156.8146 LP  0  0  0  0  0  0  0  0  0  0  0  0  # atno 17394 bound_to 11000
  140.6340  133.9879  155.7675 LP  0  0  0  0  0  0  0  0  0  0  0  0  # atno 17395 bound_to 11000

$$$$
