AV-unprocessed.smi:3068|AV-procd|sdf|11708|dock1
  -GOLD-   2272017113D 1   1.00000     0.00000
 Structure written by MMmdl.
 39 41  0  0  0  0  0  0  0  0  1 V2000
  154.1939  140.6444  159.3810 N   0  0  0  0  0  0  0  0  0  0  0  0
  153.4141  141.4871  159.2361 C   0  0  0  0  0  0  0  0  0  0  0  0
  152.4321  142.5485  159.0532 C   0  0  0  0  0  0  0  0  0  0  0  0
  152.8375  143.8067  159.3429 N   0  0  0  0  0  0  0  0  0  0  0  0
  151.9382  144.7997  159.1772 C   0  0  0  0  0  0  0  0  0  0  0  0
  150.6308  144.5419  158.7220 C   0  0  0  0  0  0  0  0  0  0  0  0
  150.2177  143.2902  158.4321 N   0  0  0  0  0  0  0  0  0  0  0  0
  151.1118  142.2823  158.5920 C   0  0  0  0  0  0  0  0  0  0  0  0
  150.6954  140.9707  158.2967 N   0  0  0  0  0  0  0  0  0  0  0  0
  151.4297  140.1235  157.3641 C   0  0  0  0  0  0  0  0  0  0  0  0
  151.5376  140.7503  155.9572 C   0  0  2  0  0  0  0  0  0  0  0  0
  150.3776  141.7138  155.6429 C   0  0  0  0  0  0  0  0  0  0  0  0
  149.1148  141.0227  155.4124 N   0  0  0  0  0  0  0  0  0  0  0  0
  148.0464  141.9707  155.0986 C   0  0  0  0  0  0  0  0  0  0  0  0
  146.6920  141.2787  154.8811 C   0  0  0  0  0  0  0  0  0  0  0  0
  146.8068  140.2251  153.7708 C   0  0  0  0  0  0  0  0  0  0  0  0
  147.9625  139.2610  154.0788 C   0  0  0  0  0  0  0  0  0  0  0  0
  149.2729  140.0319  154.3442 C   0  0  2  0  0  0  0  0  0  0  0  0
  150.4166  139.0504  154.6675 C   0  0  0  0  0  0  0  0  0  0  0  0
  151.6249  139.7593  154.9311 O   0  0  0  0  0  0  0  0  0  0  0  0
  152.2623  145.8034  159.4089 H   0  0  0  0  0  0  0  0  0  0  0  0
  149.9156  145.3404  158.5907 H   0  0  0  0  0  0  0  0  0  0  0  0
  149.9999  140.5343  158.8849 H   0  0  0  0  0  0  0  0  0  0  0  0
  152.4187  139.9334  157.7793 H   0  0  0  0  0  0  0  0  0  0  0  0
  150.9483  139.1471  157.3029 H   0  0  0  0  0  0  0  0  0  0  0  0
  152.4605  141.3290  155.9130 H   0  0  0  0  0  0  0  0  0  0  0  0
  150.2666  142.4305  156.4574 H   0  0  0  0  0  0  0  0  0  0  0  0
  150.6375  142.2957  154.7571 H   0  0  0  0  0  0  0  0  0  0  0  0
  147.9490  142.6939  155.9093 H   0  0  0  0  0  0  0  0  0  0  0  0
  148.3085  142.5418  154.2066 H   0  0  0  0  0  0  0  0  0  0  0  0
  146.3698  140.8045  155.8090 H   0  0  0  0  0  0  0  0  0  0  0  0
  145.9297  142.0147  154.6247 H   0  0  0  0  0  0  0  0  0  0  0  0
  145.8702  139.6759  153.6700 H   0  0  0  0  0  0  0  0  0  0  0  0
  146.9863  140.7181  152.8145 H   0  0  0  0  0  0  0  0  0  0  0  0
  147.7070  138.6565  154.9504 H   0  0  0  0  0  0  0  0  0  0  0  0
  148.0943  138.5668  153.2482 H   0  0  0  0  0  0  0  0  0  0  0  0
  149.5413  140.5558  153.4249 H   0  0  0  0  0  0  0  0  0  0  0  0
  150.1594  138.4169  155.5169 H   0  0  0  0  0  0  0  0  0  0  0  0
  150.5890  138.3813  153.8243 H   0  0  0  0  0  0  0  0  0  0  0  0
  1  2  3  0  0  0  0
  2  3  1  0  0  0  0
  3  8  1  0  0  0  0
  3  4  2  0  0  0  0
  4  5  1  0  0  0  0
  5  6  2  0  0  0  0
  5 21  1  0  0  0  0
  6  7  1  0  0  0  0
  6 22  1  0  0  0  0
  7  8  2  0  0  0  0
  8  9  1  0  0  0  0
  9 10  1  0  0  0  0
  9 23  1  0  0  0  0
 10 11  1  0  0  0  0
 10 24  1  0  0  0  0
 10 25  1  0  0  0  0
 11 20  1  0  0  0  0
 11 12  1  0  0  0  0
 11 26  1  0  0  0  0
 12 13  1  0  0  0  0
 12 27  1  0  0  0  0
 12 28  1  0  0  0  0
 13 18  1  0  0  0  0
 13 14  1  0  0  0  0
 14 15  1  0  0  0  0
 14 29  1  0  0  0  0
 14 30  1  0  0  0  0
 15 16  1  0  0  0  0
 15 31  1  0  0  0  0
 15 32  1  0  0  0  0
 16 17  1  0  0  0  0
 16 33  1  0  0  0  0
 16 34  1  0  0  0  0
 17 18  1  0  0  0  0
 17 35  1  0  0  0  0
 17 36  1  0  0  0  0
 18 19  1  0  0  0  0
 18 37  1  0  0  0  0
 19 20  1  0  0  0  0
 19 38  1  0  0  0  0
 19 39  1  0  0  0  0
M  END
> <s_m_source_file>
AV-unprocessed.smi

> <i_m_source_file_index>
3068

> <i_lp_mmshare_version>
43012

> <i_f3d_flags>
0

> <s_epik_input>
TiNDYzFuW2NIXVtjSF1uYzFbTkhdW0NIMl1bQ0BIXShbQ0gyXTIpT1tDSDJdW0NAQEhdKE4yMylbQ0gyXVtDSDJdW0NIMl1bQ0gyXTM=

> <s_epik_cmdline>
J2VwaWtfcHl0aG9uJywgJy1waCcsICc3LjAnLCAnLXRuJywgJzgnLCAnLW1hJywgJzIwMCcsICctbWV0YWxfYmluZGluZycsICctaW1hZScsICc8aW5maWxlLm1hZT4nLCAnLW9tYWUnLCAnPG91dGZpbGUubWFlPic=

> <r_epik_Ionization_Penalty>
1.22359

> <r_epik_Ionization_Penalty_Charging>
0

> <r_epik_Ionization_Penalty_Neutral>
1.22359

> <r_epik_State_Penalty>
1.29103

> <r_epik_Charging_Adjusted_Penalty>
1.29103

> <i_epik_Tot_Q>
0

> <i_epik_Tot_abs_Q>
0

> <r_epik_Metal_State_Penalty>
1.29103

> <b_epik_Metal_Only>
0

> <s_lp_Force_Field>
OPLS_2005

> <r_lp_Energy>
49.2937

> <b_lp_Chiralities_Consistent>
1

> <s_lp_Variant>
AV-unprocessed.smi:3068-11

> <Gold.Version>
5.8.1

> <Gold.Id.Protein>
6NUR|6NUR_protein|mol2

> <Gold.PLP.Fitness>
40.1793

> <Gold.PLP.PLP>
-35.1968

> <Gold.PLP.part.hbond>
-1.8937

> <Gold.PLP.part.metal>
0.0000

> <Gold.PLP.part.buried>
-2.7119

> <Gold.PLP.part.nonpolar>
-28.9193

> <Gold.PLP.part.repulsive>
0.4308

> <Gold.PLP.ligand.clash>
0.0000

> <Gold.PLP.ligand.torsion>
0.8906

> <Gold.PLP.Chemscore.Hbond>
1.2544

> <Gold.PLP.Chemscore.CHOScore>
0.9972

> <Gold.PLP.Chemscore.Metal>
0.0000

> <Gold.Chemscore.Hbonds>
donor molecule, donor type, donor heavy atom, donor atom, acceptor molecule, acceptor atom, score
      P1  H  7989  7998       L1    20  0.90
      P1  H  7997  8009       L1     1  0.23
      L1  C     6    22       P1  8029  1.00

> <Gold.PLP.Chemscore.Internal.Correction>
0.0090

> <Gold.Rescore>
     Score         DG    S(hbond)    S(metal)    S(lipo)     H(rot)  DE(clash)    DE(int)     intcor
     11.92     -12.85       0.01        0.00      91.16       1.30       0.07       0.86       ----

> <Gold.Chemscore.Fitness>
11.9173

> <Gold.Chemscore.DG>
-12.8475

> <Gold.Chemscore.ZeroCoef>
-5.4800

> <Gold.Chemscore.Hbond>
0.0102

> <Gold.Chemscore.Metal>
0.0000

> <Gold.Chemscore.Lipo>
91.1631

> <Gold.Chemscore.Internal_Hbond>
0.0000

> <Gold.Chemscore.DEClash>
0.0686

> <Gold.Chemscore.DEInternal>
0.8616

> <Gold.Chemscore.Rot>
1.3019

> <Gold.Chemscore.Internal.Correction>
   9.000000E+99

> <Gold.Chemscore.Hbonds>
donor molecule, donor type, donor heavy atom, donor atom, acceptor molecule, acceptor atom, score
      P1  H  7989  7998       L1    20  0.05
      P1  H  7997  8009       L1     1  0.16

> <Gold.Chemscore.Hbond.Weighted>
-0.0342

> <Gold.Chemscore.Metal.Weighted>
-0.0000

> <Gold.Chemscore.Lipo.Weighted>
-10.6661

> <Gold.Chemscore.Internal_Hbond.Weighted>
0.0000

> <Gold.Chemscore.DEClash.Weighted>
0.0686

> <Gold.Chemscore.DEInternal.Weighted>
0.8616

> <Gold.Chemscore.Rot.Weighted>
3.3327

> <Gold.Chemscore.Internal.Correction.Weighted>
   9.000000E+99

> <Gold.Protein.RotatedTorsions>
[ 6907 6896 6895 6894 ] final -142.58 input  -60.11 | X-H torsion
[ 7974 7965 7964 7962 ] final -145.17 input  175.53 | X-H torsion
[ 8008 7997 7996 7995 ] final  126.50 input   59.86 | X-H torsion
[ 10167 10162 10161 10158 ] final  -61.05 input  -65.29 | X-H torsion
[ 10718 10713 10712 10709 ] final -107.02 input   66.30 | X-H torsion
[ 10763 10752 10751 10750 ] final  144.49 input  -60.55 | X-H torsion
[ 11005 11000 10999 10996 ] final   95.29 input  -57.11 | X-H torsion

> <Gold.Protein.ActiveResidues>
 VAL166  LYS551  ARG553  GLY616  TRP617  ASP618  TYR619  PRO620  LYS621  CYS622 
 ASP623  PHE694  ASN695  SER759  ASP760  ASP761  ALA762  ILE779  LEU786  VAL792 
 PHE793  MET794  SER795  GLU796  ALA797  LYS798  CYS799  TRP800  GLU811  SER814 

> <Gold.Protein.RotatedAtoms>
  151.0890  133.5330  159.2615 H   0  0  0  0  0  0  0  0  0  0  0  0  # atno 6907 bound_to 6896
  151.2205  135.0516  159.8957 H   0  0  0  0  0  0  0  0  0  0  0  0  # atno 6908 bound_to 6896
  152.5432  134.0693  159.8240 H   0  0  0  0  0  0  0  0  0  0  0  0  # atno 6909 bound_to 6896
  144.8246  140.5617  143.5556 H   0  0  0  0  0  0  0  0  0  0  0  0  # atno 7974 bound_to 7965
  156.2865  140.2691  156.2122 H   0  0  0  0  0  0  0  0  0  0  0  0  # atno 8008 bound_to 7997
  155.0253  140.0386  157.2471 H   0  0  0  0  0  0  0  0  0  0  0  0  # atno 8009 bound_to 7997
  154.7401  140.2723  155.6386 H   0  0  0  0  0  0  0  0  0  0  0  0  # atno 8010 bound_to 7997
  140.6031  143.2366  151.5882 H   0  0  0  0  0  0  0  0  0  0  0  0  # atno 10167 bound_to 10162
  156.0417  130.5642  150.7763 H   0  0  0  0  0  0  0  0  0  0  0  0  # atno 10718 bound_to 10713
  153.9897  135.2933  155.3413 H   0  0  0  0  0  0  0  0  0  0  0  0  # atno 10763 bound_to 10752
  154.7222  135.5104  153.8833 H   0  0  0  0  0  0  0  0  0  0  0  0  # atno 10764 bound_to 10752
  153.0816  135.6680  154.0150 H   0  0  0  0  0  0  0  0  0  0  0  0  # atno 10765 bound_to 10752
  139.8790  134.8891  156.3990 H   0  0  0  0  0  0  0  0  0  0  0  0  # atno 11005 bound_to 11000
  145.5029  139.1482  143.3647 LP  0  0  0  0  0  0  0  0  0  0  0  0  # atno 17320 bound_to 7965
  146.2551  140.5169  142.8877 LP  0  0  0  0  0  0  0  0  0  0  0  0  # atno 17321 bound_to 7965
  139.5305  144.2929  152.1137 LP  0  0  0  0  0  0  0  0  0  0  0  0  # atno 17342 bound_to 10162
  140.2114  144.4559  150.6384 LP  0  0  0  0  0  0  0  0  0  0  0  0  # atno 17343 bound_to 10162
  157.5243  131.0933  151.0038 LP  0  0  0  0  0  0  0  0  0  0  0  0  # atno 17370 bound_to 10713
  157.0361  130.5730  149.5349 LP  0  0  0  0  0  0  0  0  0  0  0  0  # atno 17371 bound_to 10713
  140.9280  133.7599  155.9989 LP  0  0  0  0  0  0  0  0  0  0  0  0  # atno 17394 bound_to 11000
  140.8363  134.3119  157.5330 LP  0  0  0  0  0  0  0  0  0  0  0  0  # atno 17395 bound_to 11000

$$$$
