AV-unprocessed.smi:1823|AV-procd|sdf|7392|dock5
  -GOLD-   22720 9 63D 1   1.00000     0.00000
 Structure written by MMmdl.
 43 44  0  0  0  0  0  0  0  0  1 V2000
  146.0247  142.8495  158.6192 C   0  0  0  0  0  0  0  0  0  0  0  0
  146.0886  142.6953  157.1385 C   0  0  0  0  0  0  0  0  0  0  0  0
  145.0994  143.1218  156.3630 N   0  0  0  0  0  0  0  0  0  0  0  0
  145.5445  142.8093  155.0707 O   0  0  0  0  0  0  0  0  0  0  0  0
  146.7525  142.2155  155.2288 C   0  0  0  0  0  0  0  0  0  0  0  0
  147.5280  141.8202  154.0131 C   0  0  0  0  0  0  0  0  0  0  0  0
  149.0315  141.5954  154.2690 C   0  0  0  0  0  0  0  0  0  0  0  0
  149.3141  141.1873  155.6437 N   0  0  0  0  0  0  0  0  0  0  0  0
  150.4423  140.5899  156.0597 C   0  0  0  0  0  0  0  0  0  0  0  0
  151.3938  140.3494  155.3153 O   0  0  0  0  0  0  0  0  0  0  0  0
  150.4991  140.1825  157.5401 C   0  0  1  0  0  0  0  0  0  0  0  0
  151.7397  139.3138  157.8274 C   0  0  0  0  0  0  0  0  0  0  0  0
  152.6484  140.2320  158.6279 C   0  0  0  0  0  0  0  0  0  0  0  0
  153.7980  139.9254  158.9400 O   0  0  0  0  0  0  0  0  0  0  0  0
  152.0332  141.3867  158.9093 N   0  0  0  0  0  0  0  0  0  0  0  0
  152.5882  142.5177  159.6510 C   0  0  0  0  0  0  0  0  0  0  0  0
  151.7293  143.7965  159.5262 C   0  0  0  0  0  0  0  0  0  0  0  0
  152.0663  144.6402  158.2841 C   0  0  0  0  0  0  0  0  0  0  0  0
  151.8429  144.6467  160.8005 C   0  0  0  0  0  0  0  0  0  0  0  0
  150.6443  141.3970  158.4808 C   0  0  0  0  0  0  0  0  0  0  0  0
  147.1442  142.1222  156.4971 N   0  0  0  0  0  0  0  0  0  0  0  0
  145.1649  142.3110  159.0182 H   0  0  0  0  0  0  0  0  0  0  0  0
  145.9300  143.9025  158.8852 H   0  0  0  0  0  0  0  0  0  0  0  0
  146.9267  142.4556  159.0885 H   0  0  0  0  0  0  0  0  0  0  0  0
  147.0866  140.9119  153.6019 H   0  0  0  0  0  0  0  0  0  0  0  0
  147.3965  142.5938  153.2556 H   0  0  0  0  0  0  0  0  0  0  0  0
  149.4219  140.8599  153.5638 H   0  0  0  0  0  0  0  0  0  0  0  0
  149.5751  142.5192  154.0715 H   0  0  0  0  0  0  0  0  0  0  0  0
  148.5856  141.3470  156.3245 H   0  0  0  0  0  0  0  0  0  0  0  0
  149.5910  139.6321  157.7923 H   0  0  0  0  0  0  0  0  0  0  0  0
  151.4796  138.4438  158.4308 H   0  0  0  0  0  0  0  0  0  0  0  0
  152.2473  138.9612  156.9280 H   0  0  0  0  0  0  0  0  0  0  0  0
  152.6713  142.2313  160.7003 H   0  0  0  0  0  0  0  0  0  0  0  0
  153.6073  142.7179  159.3154 H   0  0  0  0  0  0  0  0  0  0  0  0
  150.6862  143.4896  159.4371 H   0  0  0  0  0  0  0  0  0  0  0  0
  153.1192  144.9233  158.2711 H   0  0  0  0  0  0  0  0  0  0  0  0
  151.4752  145.5560  158.2604 H   0  0  0  0  0  0  0  0  0  0  0  0
  151.8524  144.1005  157.3616 H   0  0  0  0  0  0  0  0  0  0  0  0
  152.8633  145.0014  160.9503 H   0  0  0  0  0  0  0  0  0  0  0  0
  151.5561  144.0741  161.6830 H   0  0  0  0  0  0  0  0  0  0  0  0
  151.1909  145.5195  160.7510 H   0  0  0  0  0  0  0  0  0  0  0  0
  150.3917  142.3438  158.0001 H   0  0  0  0  0  0  0  0  0  0  0  0
  149.9980  141.2889  159.3530 H   0  0  0  0  0  0  0  0  0  0  0  0
  1  2  1  0  0  0  0
  1 22  1  0  0  0  0
  1 23  1  0  0  0  0
  1 24  1  0  0  0  0
  2 21  1  0  0  0  0
  2  3  2  0  0  0  0
  3  4  1  0  0  0  0
  4  5  1  0  0  0  0
  5  6  1  0  0  0  0
  5 21  2  0  0  0  0
  6  7  1  0  0  0  0
  6 25  1  0  0  0  0
  6 26  1  0  0  0  0
  7  8  1  0  0  0  0
  7 27  1  0  0  0  0
  7 28  1  0  0  0  0
  8  9  1  0  0  0  0
  8 29  1  0  0  0  0
  9 10  2  0  0  0  0
  9 11  1  0  0  0  0
 11 20  1  0  0  0  0
 11 12  1  0  0  0  0
 11 30  1  0  0  0  0
 12 13  1  0  0  0  0
 12 31  1  0  0  0  0
 12 32  1  0  0  0  0
 13 14  2  0  0  0  0
 13 15  1  0  0  0  0
 15 16  1  0  0  0  0
 15 20  1  0  0  0  0
 16 17  1  0  0  0  0
 16 33  1  0  0  0  0
 16 34  1  0  0  0  0
 17 18  1  0  0  0  0
 17 19  1  0  0  0  0
 17 35  1  0  0  0  0
 18 36  1  0  0  0  0
 18 37  1  0  0  0  0
 18 38  1  0  0  0  0
 19 39  1  0  0  0  0
 19 40  1  0  0  0  0
 19 41  1  0  0  0  0
 20 42  1  0  0  0  0
 20 43  1  0  0  0  0
M  END
> <s_m_source_file>
AV-unprocessed.smi

> <i_m_source_file_index>
1823

> <i_lp_mmshare_version>
43012

> <i_f3d_flags>
0

> <s_epik_input>
W0NIM11jMW5vYyhuMSlbQ0gyXVtDSDJdW05IXUMoPU8pW0NAQEhdMltDSDJdQyg9TylOKFtDSDJdMilbQ0gyXVtDSF0oW0NIM10pW0NIM10=

> <s_epik_cmdline>
J2VwaWtfcHl0aG9uJywgJy1waCcsICc3LjAnLCAnLXRuJywgJzgnLCAnLW1hJywgJzIwMCcsICctbWV0YWxfYmluZGluZycsICctaW1hZScsICc8aW5maWxlLm1hZT4nLCAnLW9tYWUnLCAnPG91dGZpbGUubWFlPic=

> <r_lp_tautomer_probability>
1

> <r_epik_Ionization_Penalty>
3.64678e-08

> <r_epik_Ionization_Penalty_Charging>
0

> <r_epik_Ionization_Penalty_Neutral>
3.64678e-08

> <r_epik_State_Penalty>
-0

> <r_epik_Charging_Adjusted_Penalty>
0

> <i_epik_Tot_Q>
0

> <i_epik_Tot_abs_Q>
0

> <r_epik_Metal_State_Penalty>
-0

> <b_epik_Metal_Only>
0

> <s_lp_Force_Field>
OPLS_2005

> <r_lp_Energy>
11.154

> <b_lp_Chiralities_Consistent>
1

> <s_lp_Variant>
AV-unprocessed.smi:1823-2

> <Gold.Version>
5.8.1

> <Gold.Id.Protein>
6NUR|6NUR_protein|mol2

> <Gold.PLP.Fitness>
43.7833

> <Gold.PLP.PLP>
-40.2508

> <Gold.PLP.part.hbond>
-2.0000

> <Gold.PLP.part.metal>
0.0000

> <Gold.PLP.part.buried>
-5.5678

> <Gold.PLP.part.nonpolar>
-33.1906

> <Gold.PLP.part.repulsive>
0.7982

> <Gold.PLP.ligand.clash>
0.0000

> <Gold.PLP.ligand.torsion>
1.2981

> <Gold.PLP.Chemscore.Hbond>
2.0000

> <Gold.PLP.Chemscore.CHOScore>
0.0000

> <Gold.PLP.Chemscore.Metal>
0.0000

> <Gold.Chemscore.Hbonds>
donor molecule, donor type, donor heavy atom, donor atom, acceptor molecule, acceptor atom, score
      P1  H  7989  7998       L1    10  0.94
      P1  H  7997  8009       L1    14  1.00

> <Gold.PLP.Chemscore.Internal.Correction>
0.1286

> <Gold.Rescore>
     Score         DG    S(hbond)    S(metal)    S(lipo)     H(rot)  DE(clash)    DE(int)     intcor
     12.15     -14.97       1.96        0.00      77.59       2.40       0.03       2.78       ----

> <Gold.Chemscore.Fitness>
12.1526

> <Gold.Chemscore.DG>
-14.9652

> <Gold.Chemscore.ZeroCoef>
-5.4800

> <Gold.Chemscore.Hbond>
1.9582

> <Gold.Chemscore.Metal>
0.0000

> <Gold.Chemscore.Lipo>
77.5866

> <Gold.Chemscore.Internal_Hbond>
0.0000

> <Gold.Chemscore.DEClash>
0.0329

> <Gold.Chemscore.DEInternal>
2.7797

> <Gold.Chemscore.Rot>
2.3957

> <Gold.Chemscore.Internal.Correction>
   9.000000E+99

> <Gold.Chemscore.Hbonds>
donor molecule, donor type, donor heavy atom, donor atom, acceptor molecule, acceptor atom, score
      P1  H  7989  7998       L1    10  0.91
      P1  H  7997  8009       L1    14  0.52

> <Gold.Chemscore.Hbond.Weighted>
-6.5404

> <Gold.Chemscore.Metal.Weighted>
-0.0000

> <Gold.Chemscore.Lipo.Weighted>
-9.0776

> <Gold.Chemscore.Internal_Hbond.Weighted>
0.0000

> <Gold.Chemscore.DEClash.Weighted>
0.0329

> <Gold.Chemscore.DEInternal.Weighted>
2.7797

> <Gold.Chemscore.Rot.Weighted>
6.1329

> <Gold.Chemscore.Internal.Correction.Weighted>
   9.000000E+99

> <Gold.Protein.RotatedTorsions>
[ 6907 6896 6895 6894 ] final   88.20 input  -60.11 | X-H torsion
[ 7974 7965 7964 7962 ] final -142.60 input  175.53 | X-H torsion
[ 8008 7997 7996 7995 ] final  134.91 input   59.86 | X-H torsion
[ 10167 10162 10161 10158 ] final  -82.25 input  -65.29 | X-H torsion
[ 10718 10713 10712 10709 ] final   98.04 input   66.30 | X-H torsion
[ 10763 10752 10751 10750 ] final  170.59 input  -60.55 | X-H torsion
[ 11005 11000 10999 10996 ] final   93.59 input  -57.11 | X-H torsion

> <Gold.Protein.ActiveResidues>
 VAL166  LYS551  ARG553  GLY616  TRP617  ASP618  TYR619  PRO620  LYS621  CYS622 
 ASP623  PHE694  ASN695  SER759  ASP760  ASP761  ALA762  ILE779  LEU786  VAL792 
 PHE793  MET794  SER795  GLU796  ALA797  LYS798  CYS799  TRP800  GLU811  SER814 

> <Gold.Protein.RotatedAtoms>
  152.5422  134.2158  159.8767 H   0  0  0  0  0  0  0  0  0  0  0  0  # atno 6907 bound_to 6896
  151.2138  133.4534  159.2606 H   0  0  0  0  0  0  0  0  0  0  0  0  # atno 6908 bound_to 6896
  151.0871  134.9906  159.8440 H   0  0  0  0  0  0  0  0  0  0  0  0  # atno 6909 bound_to 6896
  144.8431  140.5937  143.5439 H   0  0  0  0  0  0  0  0  0  0  0  0  # atno 7974 bound_to 7965
  156.3001  140.2484  156.3494 H   0  0  0  0  0  0  0  0  0  0  0  0  # atno 8008 bound_to 7997
  154.8980  140.0407  157.1896 H   0  0  0  0  0  0  0  0  0  0  0  0  # atno 8009 bound_to 7997
  154.8530  140.2909  155.5590 H   0  0  0  0  0  0  0  0  0  0  0  0  # atno 8010 bound_to 7997
  140.4337  143.2539  151.8724 H   0  0  0  0  0  0  0  0  0  0  0  0  # atno 10167 bound_to 10162
  157.6902  131.0628  150.4736 H   0  0  0  0  0  0  0  0  0  0  0  0  # atno 10718 bound_to 10713
  154.3998  135.2755  155.2104 H   0  0  0  0  0  0  0  0  0  0  0  0  # atno 10763 bound_to 10752
  154.4135  135.6017  153.5970 H   0  0  0  0  0  0  0  0  0  0  0  0  # atno 10764 bound_to 10752
  152.9831  135.5955  154.4264 H   0  0  0  0  0  0  0  0  0  0  0  0  # atno 10765 bound_to 10752
  139.8808  134.8799  156.3741 H   0  0  0  0  0  0  0  0  0  0  0  0  # atno 11005 bound_to 11000
  145.4653  139.1508  143.3844 LP  0  0  0  0  0  0  0  0  0  0  0  0  # atno 17320 bound_to 7965
  146.2720  140.4784  142.8810 LP  0  0  0  0  0  0  0  0  0  0  0  0  # atno 17321 bound_to 7965
  139.4786  144.5306  151.8671 LP  0  0  0  0  0  0  0  0  0  0  0  0  # atno 17342 bound_to 10162
  140.4398  144.2002  150.5891 LP  0  0  0  0  0  0  0  0  0  0  0  0  # atno 17343 bound_to 10162
  156.5072  130.4131  149.6321 LP  0  0  0  0  0  0  0  0  0  0  0  0  # atno 17370 bound_to 10713
  156.3274  130.7313  151.2236 LP  0  0  0  0  0  0  0  0  0  0  0  0  # atno 17371 bound_to 10713
  140.9444  133.7493  156.0189 LP  0  0  0  0  0  0  0  0  0  0  0  0  # atno 17394 bound_to 11000
  140.8181  134.3321  157.5390 LP  0  0  0  0  0  0  0  0  0  0  0  0  # atno 17395 bound_to 11000

$$$$
