AV-unprocessed.smi:3342|AV-procd|sdf|12887|dock5
  -GOLD-   2272019293D 1   1.00000     0.00000
 Structure written by MMmdl.
 42 43  0  0  0  0  0  0  0  0  2 V2000
  148.8196  141.2835  157.0480 C   0  0  0  0  0  0  0  0  0  0  0  0
  150.2857  141.3311  157.5077 C   0  0  2  0  0  0  0  0  0  0  0  0
  151.0396  142.5802  157.0012 C   0  0  0  0  0  0  0  0  0  0  0  0
  151.5519  143.4189  158.0885 N   0  0  0  0  0  0  0  0  0  0  0  0
  151.0949  144.6559  158.4637 C   0  0  0  0  0  0  0  0  0  0  0  0
  151.8642  145.0506  159.5278 C   0  0  0  0  0  0  0  0  0  0  0  0
  152.7550  144.0367  159.7591 N   0  3  0  0  0  0  0  0  0  0  0  0
  152.5618  143.0440  158.8847 C   0  0  0  0  0  0  0  0  0  0  0  0
  150.9692  140.1214  157.0598 N   0  0  0  0  0  0  0  0  0  0  0  0
  151.0641  139.7051  155.7849 C   0  0  0  0  0  0  0  0  0  0  0  0
  150.5971  140.3568  154.8493 O   0  0  0  0  0  0  0  0  0  0  0  0
  151.7099  138.5231  155.6193 N   0  0  0  0  0  0  0  0  0  0  0  0
  152.4041  137.7558  156.6666 C   0  0  0  0  0  0  0  0  0  0  0  0
  151.5127  136.5696  157.0763 C   0  0  0  0  0  0  0  0  0  0  0  0
  151.1683  135.6832  155.8548 C   0  0  0  0  0  0  0  0  0  0  0  0
  150.1627  134.5881  156.2347 C   0  0  0  0  0  0  0  0  0  0  0  0
  149.7611  133.7661  155.2622 N   0  0  0  0  0  0  0  0  0  0  0  0
  149.7538  134.4828  157.3896 O   0  0  0  0  0  0  0  0  0  0  0  0
  150.6370  136.5397  154.6805 C   0  0  0  0  0  0  0  0  0  0  0  0
  151.5705  137.7301  154.3924 C   0  0  0  0  0  0  0  0  0  0  0  0
  148.2506  142.1279  157.4372 H   0  0  0  0  0  0  0  0  0  0  0  0
  148.3288  140.3750  157.3990 H   0  0  0  0  0  0  0  0  0  0  0  0
  148.7441  141.3028  155.9603 H   0  0  0  0  0  0  0  0  0  0  0  0
  150.2839  141.3419  158.5992 H   0  0  0  0  0  0  0  0  0  0  0  0
  151.8954  142.2930  156.3889 H   0  0  0  0  0  0  0  0  0  0  0  0
  150.3918  143.1901  156.3694 H   0  0  0  0  0  0  0  0  0  0  0  0
  150.2773  145.1493  157.9575 H   0  0  0  0  0  0  0  0  0  0  0  0
  151.8439  145.9519  160.1231 H   0  0  0  0  0  0  0  0  0  0  0  0
  153.1143  142.1226  158.8319 H   0  0  0  0  0  0  0  0  0  0  0  0
  151.3840  139.5408  157.7742 H   0  0  0  0  0  0  0  0  0  0  0  0
  153.3528  137.3878  156.2730 H   0  0  0  0  0  0  0  0  0  0  0  0
  152.6693  138.3447  157.5446 H   0  0  0  0  0  0  0  0  0  0  0  0
  152.0195  135.9754  157.8379 H   0  0  0  0  0  0  0  0  0  0  0  0
  150.6018  136.9527  157.5395 H   0  0  0  0  0  0  0  0  0  0  0  0
  152.0918  135.2049  155.5234 H   0  0  0  0  0  0  0  0  0  0  0  0
  149.1015  133.0290  155.4638 H   0  0  0  0  0  0  0  0  0  0  0  0
  150.1213  133.8849  154.3265 H   0  0  0  0  0  0  0  0  0  0  0  0
  150.5382  135.9260  153.7842 H   0  0  0  0  0  0  0  0  0  0  0  0
  149.6382  136.9171  154.9067 H   0  0  0  0  0  0  0  0  0  0  0  0
  151.1856  138.3131  153.5545 H   0  0  0  0  0  0  0  0  0  0  0  0
  152.5508  137.3717  154.0752 H   0  0  0  0  0  0  0  0  0  0  0  0
  153.4580  144.0353  160.4876 H   0  0  0  0  0  0  0  0  0  0  0  0
  1  2  1  0  0  0  0
  1 21  1  0  0  0  0
  1 22  1  0  0  0  0
  1 23  1  0  0  0  0
  2  3  1  0  0  0  0
  2  9  1  0  0  0  0
  2 24  1  0  0  0  0
  3  4  1  0  0  0  0
  3 25  1  0  0  0  0
  3 26  1  0  0  0  0
  4  8  1  0  0  0  0
  4  5  1  0  0  0  0
  5  6  2  0  0  0  0
  5 27  1  0  0  0  0
  6  7  1  0  0  0  0
  6 28  1  0  0  0  0
  7  8  2  0  0  0  0
  7 42  1  0  0  0  0
  8 29  1  0  0  0  0
  9 10  1  0  0  0  0
  9 30  1  0  0  0  0
 10 11  2  0  0  0  0
 10 12  1  0  0  0  0
 12 20  1  0  0  0  0
 12 13  1  0  0  0  0
 13 14  1  0  0  0  0
 13 31  1  0  0  0  0
 13 32  1  0  0  0  0
 14 15  1  0  0  0  0
 14 33  1  0  0  0  0
 14 34  1  0  0  0  0
 15 16  1  0  0  0  0
 15 19  1  0  0  0  0
 15 35  1  0  0  0  0
 16 17  1  0  0  0  0
 16 18  2  0  0  0  0
 17 36  1  0  0  0  0
 17 37  1  0  0  0  0
 19 20  1  0  0  0  0
 19 38  1  0  0  0  0
 19 39  1  0  0  0  0
 20 40  1  0  0  0  0
 20 41  1  0  0  0  0
M  CHG  1   7   1
M  END
> <s_m_source_file>
AV-unprocessed.smi

> <i_m_source_file_index>
3342

> <i_lp_mmshare_version>
43012

> <i_f3d_flags>
0

> <s_epik_input>
W2NIXTFuW2NIXVtjSF1uMVtDSDJdW0NAQEhdKFtDSDNdKVtOSF1DKD1PKU4yW0NIMl1bQ0gyXVtDSF0oQyg9TylbTkgyXSlbQ0gyXVtDSDJdMg==

> <s_epik_cmdline>
J2VwaWtfcHl0aG9uJywgJy1waCcsICc3LjAnLCAnLXRuJywgJzgnLCAnLW1hJywgJzIwMCcsICctbWV0YWxfYmluZGluZycsICctaW1hZScsICc8aW5maWxlLm1hZT4nLCAnLW9tYWUnLCAnPG91dGZpbGUubWFlPic=

> <r_lp_tautomer_probability>
1

> <r_epik_Ionization_Penalty>
0.254015

> <r_epik_Ionization_Penalty_Charging>
0

> <r_epik_Ionization_Penalty_Neutral>
0.254015

> <r_epik_State_Penalty>
0.245417

> <r_epik_Charging_Adjusted_Penalty>
0.245417

> <i_epik_Tot_Q>
1

> <i_epik_Tot_abs_Q>
1

> <r_epik_Metal_State_Penalty>
0.535589

> <b_epik_Metal_Only>
0

> <s_lp_Force_Field>
OPLS_2005

> <r_lp_Energy>
30.9276

> <b_lp_Chiralities_Consistent>
1

> <s_lp_Variant>
AV-unprocessed.smi:3342-1

> <Gold.Version>
5.8.1

> <Gold.Id.Protein>
6NUR|6NUR_protein|mol2

> <Gold.PLP.Fitness>
42.6469

> <Gold.PLP.PLP>
-35.8794

> <Gold.PLP.part.hbond>
-2.0000

> <Gold.PLP.part.metal>
0.0000

> <Gold.PLP.part.buried>
-4.7746

> <Gold.PLP.part.nonpolar>
-30.5990

> <Gold.PLP.part.repulsive>
0.1723

> <Gold.PLP.ligand.clash>
0.0000

> <Gold.PLP.ligand.torsion>
0.9915

> <Gold.PLP.Chemscore.Hbond>
1.9675

> <Gold.PLP.Chemscore.CHOScore>
0.9139

> <Gold.PLP.Chemscore.Metal>
0.0000

> <Gold.Chemscore.Hbonds>
donor molecule, donor type, donor heavy atom, donor atom, acceptor molecule, acceptor atom, score
      P1  H  6896  6907       L1    18  0.60
      P1  H  7989  7998       L1    11  1.00
      L1  C     5    27       P1  8028  0.28
      L1  C     5    27       P1  8029  0.56

> <Gold.PLP.Chemscore.Internal.Correction>
0.1065

> <Gold.Rescore>
     Score         DG    S(hbond)    S(metal)    S(lipo)     H(rot)  DE(clash)    DE(int)     intcor
     11.99     -14.31       1.98        0.00      70.32       2.34       0.04       2.28       ----

> <Gold.Chemscore.Fitness>
11.9909

> <Gold.Chemscore.DG>
-14.3150

> <Gold.Chemscore.ZeroCoef>
-5.4800

> <Gold.Chemscore.Hbond>
1.9755

> <Gold.Chemscore.Metal>
0.0000

> <Gold.Chemscore.Lipo>
70.3187

> <Gold.Chemscore.Internal_Hbond>
0.0000

> <Gold.Chemscore.DEClash>
0.0402

> <Gold.Chemscore.DEInternal>
2.2839

> <Gold.Chemscore.Rot>
2.3400

> <Gold.Chemscore.Internal.Correction>
   9.000000E+99

> <Gold.Chemscore.Hbonds>
donor molecule, donor type, donor heavy atom, donor atom, acceptor molecule, acceptor atom, score
      P1  H  6896  6907       L1    18  0.56
      P1  H  7989  7998       L1    11  0.97

> <Gold.Chemscore.Hbond.Weighted>
-6.5980

> <Gold.Chemscore.Metal.Weighted>
-0.0000

> <Gold.Chemscore.Lipo.Weighted>
-8.2273

> <Gold.Chemscore.Internal_Hbond.Weighted>
0.0000

> <Gold.Chemscore.DEClash.Weighted>
0.0402

> <Gold.Chemscore.DEInternal.Weighted>
2.2839

> <Gold.Chemscore.Rot.Weighted>
5.9904

> <Gold.Chemscore.Internal.Correction.Weighted>
   9.000000E+99

> <Gold.Protein.RotatedTorsions>
[ 6907 6896 6895 6894 ] final  -99.90 input  -60.11 | X-H torsion
[ 7974 7965 7964 7962 ] final  -99.09 input  175.53 | X-H torsion
[ 8008 7997 7996 7995 ] final -150.17 input   59.86 | X-H torsion
[ 10167 10162 10161 10158 ] final  172.90 input  -65.29 | X-H torsion
[ 10718 10713 10712 10709 ] final -169.83 input   66.30 | X-H torsion
[ 10763 10752 10751 10750 ] final  -25.20 input  -60.55 | X-H torsion
[ 11005 11000 10999 10996 ] final -135.23 input  -57.11 | X-H torsion

> <Gold.Protein.ActiveResidues>
 VAL166  LYS551  ARG553  GLY616  TRP617  ASP618  TYR619  PRO620  LYS621  CYS622 
 ASP623  PHE694  ASN695  SER759  ASP760  ASP761  ALA762  ILE779  LEU786  VAL792 
 PHE793  MET794  SER795  GLU796  ALA797  LYS798  CYS799  TRP800  GLU811  SER814 

> <Gold.Protein.RotatedAtoms>
  150.7096  134.0970  159.3951 H   0  0  0  0  0  0  0  0  0  0  0  0  # atno 6907 bound_to 6896
  151.8956  135.0397  160.0511 H   0  0  0  0  0  0  0  0  0  0  0  0  # atno 6908 bound_to 6896
  152.2456  133.5136  159.5332 H   0  0  0  0  0  0  0  0  0  0  0  0  # atno 6909 bound_to 6896
  145.3120  140.9402  143.2764 H   0  0  0  0  0  0  0  0  0  0  0  0  # atno 7974 bound_to 7965
  155.6192  140.0680  157.2683 H   0  0  0  0  0  0  0  0  0  0  0  0  # atno 8008 bound_to 7997
  154.4233  140.1787  156.1403 H   0  0  0  0  0  0  0  0  0  0  0  0  # atno 8009 bound_to 7997
  156.0023  140.3335  155.6861 H   0  0  0  0  0  0  0  0  0  0  0  0  # atno 8010 bound_to 7997
  139.5091  144.3322  152.0100 H   0  0  0  0  0  0  0  0  0  0  0  0  # atno 10167 bound_to 10162
  156.7173  130.9256  151.3094 H   0  0  0  0  0  0  0  0  0  0  0  0  # atno 10718 bound_to 10713
  153.6960  135.6959  153.5076 H   0  0  0  0  0  0  0  0  0  0  0  0  # atno 10763 bound_to 10752
  153.2377  135.4316  155.0664 H   0  0  0  0  0  0  0  0  0  0  0  0  # atno 10764 bound_to 10752
  154.8358  135.3500  154.6501 H   0  0  0  0  0  0  0  0  0  0  0  0  # atno 10765 bound_to 10752
  140.8917  134.1803  157.4523 H   0  0  0  0  0  0  0  0  0  0  0  0  # atno 11005 bound_to 11000
  144.9008  139.4652  143.6633 LP  0  0  0  0  0  0  0  0  0  0  0  0  # atno 17320 bound_to 7965
  146.3114  139.7760  142.9017 LP  0  0  0  0  0  0  0  0  0  0  0  0  # atno 17321 bound_to 7965
  140.2761  144.3911  150.6134 LP  0  0  0  0  0  0  0  0  0  0  0  0  # atno 17342 bound_to 10162
  140.6052  143.2167  151.6994 LP  0  0  0  0  0  0  0  0  0  0  0  0  # atno 17343 bound_to 10162
  157.6912  130.9235  150.0519 LP  0  0  0  0  0  0  0  0  0  0  0  0  # atno 17370 bound_to 10713
  156.1619  130.3644  149.9287 LP  0  0  0  0  0  0  0  0  0  0  0  0  # atno 17371 bound_to 10713
  139.8730  134.9861  156.5310 LP  0  0  0  0  0  0  0  0  0  0  0  0  # atno 17394 bound_to 11000
  140.8339  133.8257  155.9010 LP  0  0  0  0  0  0  0  0  0  0  0  0  # atno 17395 bound_to 11000

$$$$
