AV-unprocessed.smi:36|AV-procd|sdf|286|dock2
  -GOLD-   2262016 63D 1   1.00000     0.00000
 Structure written by MMmdl.
 64 67  0  0  0  0  0  0  0  0  1 V2000
  146.3269  133.1018  159.8448 C   0  0  0  0  0  0  0  0  0  0  0  0
  146.5561  131.6168  159.5176 C   0  0  0  0  0  0  0  0  0  0  0  0
  147.7485  131.0804  160.3275 C   0  0  0  0  0  0  0  0  0  0  0  0
  145.2945  130.8056  159.8562 C   0  0  0  0  0  0  0  0  0  0  0  0
  146.9358  131.4284  157.6547 Si  0  0  0  0  0  0  0  0  0  0  0  0
  147.3449  129.6266  157.2129 C   0  0  0  0  0  0  0  0  0  0  0  0
  145.4801  132.0352  156.5947 C   0  0  0  0  0  0  0  0  0  0  0  0
  148.2883  132.3812  157.3025 O   0  0  0  0  0  0  0  0  0  0  0  0
  148.9962  132.3069  156.0829 C   0  0  0  0  0  0  0  0  0  0  0  0
  149.2854  133.7240  155.5731 C   0  0  1  0  0  0  0  0  0  0  0  0
  150.4138  134.2585  156.2604 O   0  0  0  0  0  0  0  0  0  0  0  0
  151.1625  135.0693  155.4036 C   0  0  2  0  0  0  0  0  0  0  0  0
  151.2271  136.4367  155.9962 N   0  0  0  0  0  0  0  0  0  0  0  0
  150.7439  136.8707  157.2116 C   0  0  0  0  0  0  0  0  0  0  0  0
  150.9537  138.1327  157.4766 N   0  0  0  0  0  0  0  0  0  0  0  0
  151.6289  138.6040  156.3574 C   0  0  0  0  0  0  0  0  0  0  0  0
  152.1559  139.8684  155.9859 C   0  0  0  0  0  0  0  0  0  0  0  0
  152.0468  140.9239  156.8267 N   0  0  0  0  0  0  0  0  0  0  0  0
  152.6047  141.0709  158.1595 C   0  0  0  0  0  0  0  0  0  0  0  0
  153.3637  140.2335  158.6482 O   0  0  0  0  0  0  0  0  0  0  0  0
  152.2722  142.3475  158.8755 C   0  0  0  0  0  0  0  0  0  0  0  0
  151.9862  143.5183  158.1375 C   0  0  0  0  0  0  0  0  0  0  0  0
  151.6960  144.7264  158.8010 C   0  0  0  0  0  0  0  0  0  0  0  0
  151.6972  144.7761  160.2079 C   0  0  0  0  0  0  0  0  0  0  0  0
  151.9905  143.6171  160.9510 C   0  0  0  0  0  0  0  0  0  0  0  0
  152.2807  142.4083  160.2886 C   0  0  0  0  0  0  0  0  0  0  0  0
  152.7691  139.9592  154.7761 N   0  0  0  0  0  0  0  0  0  0  0  0
  152.8593  138.8860  153.9846 C   0  0  0  0  0  0  0  0  0  0  0  0
  152.4162  137.6464  154.2059 N   0  0  0  0  0  0  0  0  0  0  0  0
  151.8013  137.5482  155.4198 C   0  0  0  0  0  0  0  0  0  0  0  0
  150.4371  135.1064  154.0583 C   0  0  0  0  0  0  0  0  0  0  0  0
  149.6808  133.7962  154.0960 C   0  0  2  0  0  0  0  0  0  0  0  0
  148.5592  133.8355  153.2378 O   0  0  0  0  0  0  0  0  0  0  0  0
  146.1076  133.2448  160.9033 H   0  0  0  0  0  0  0  0  0  0  0  0
  145.4891  133.5088  159.2782 H   0  0  0  0  0  0  0  0  0  0  0  0
  147.2063  133.7014  159.6084 H   0  0  0  0  0  0  0  0  0  0  0  0
  148.6589  131.6413  160.1149 H   0  0  0  0  0  0  0  0  0  0  0  0
  147.9453  130.0332  160.0959 H   0  0  0  0  0  0  0  0  0  0  0  0
  147.5636  131.1516  161.3999 H   0  0  0  0  0  0  0  0  0  0  0  0
  145.0534  130.8724  160.9177 H   0  0  0  0  0  0  0  0  0  0  0  0
  145.4250  129.7503  159.6141 H   0  0  0  0  0  0  0  0  0  0  0  0
  144.4286  131.1659  159.3004 H   0  0  0  0  0  0  0  0  0  0  0  0
  146.5168  128.9582  157.4475 H   0  0  0  0  0  0  0  0  0  0  0  0
  148.2174  129.2684  157.7587 H   0  0  0  0  0  0  0  0  0  0  0  0
  147.5595  129.5147  156.1504 H   0  0  0  0  0  0  0  0  0  0  0  0
  144.5706  131.4722  156.8033 H   0  0  0  0  0  0  0  0  0  0  0  0
  145.6887  131.9278  155.5305 H   0  0  0  0  0  0  0  0  0  0  0  0
  145.2613  133.0867  156.7776 H   0  0  0  0  0  0  0  0  0  0  0  0
  149.9304  131.7675  156.2427 H   0  0  0  0  0  0  0  0  0  0  0  0
  148.4158  131.7447  155.3507 H   0  0  0  0  0  0  0  0  0  0  0  0
  148.4359  134.3810  155.7695 H   0  0  0  0  0  0  0  0  0  0  0  0
  152.1907  134.7111  155.3442 H   0  0  0  0  0  0  0  0  0  0  0  0
  150.2299  136.2163  157.9007 H   0  0  0  0  0  0  0  0  0  0  0  0
  151.4821  141.6930  156.4976 H   0  0  0  0  0  0  0  0  0  0  0  0
  151.9847  143.4974  157.0569 H   0  0  0  0  0  0  0  0  0  0  0  0
  151.4750  145.6160  158.2299 H   0  0  0  0  0  0  0  0  0  0  0  0
  151.4769  145.7032  160.7163 H   0  0  0  0  0  0  0  0  0  0  0  0
  151.9971  143.6558  162.0305 H   0  0  0  0  0  0  0  0  0  0  0  0
  152.5143  141.5337  160.8784 H   0  0  0  0  0  0  0  0  0  0  0  0
  153.3584  139.0436  153.0398 H   0  0  0  0  0  0  0  0  0  0  0  0
  149.7476  135.9526  154.0309 H   0  0  0  0  0  0  0  0  0  0  0  0
  151.1408  135.1906  153.2298 H   0  0  0  0  0  0  0  0  0  0  0  0
  150.3392  132.9691  153.8262 H   0  0  0  0  0  0  0  0  0  0  0  0
  147.7822  133.9379  153.7666 H   0  0  0  0  0  0  0  0  0  0  0  0
  1  2  1  0  0  0  0
  1 34  1  0  0  0  0
  1 35  1  0  0  0  0
  1 36  1  0  0  0  0
  2  3  1  0  0  0  0
  2  4  1  0  0  0  0
  2  5  1  0  0  0  0
  3 37  1  0  0  0  0
  3 38  1  0  0  0  0
  3 39  1  0  0  0  0
  4 40  1  0  0  0  0
  4 41  1  0  0  0  0
  4 42  1  0  0  0  0
  5  6  1  0  0  0  0
  5  7  1  0  0  0  0
  5  8  1  0  0  0  0
  6 43  1  0  0  0  0
  6 44  1  0  0  0  0
  6 45  1  0  0  0  0
  7 46  1  0  0  0  0
  7 47  1  0  0  0  0
  7 48  1  0  0  0  0
  8  9  1  0  0  0  0
  9 10  1  0  0  0  0
  9 49  1  0  0  0  0
  9 50  1  0  0  0  0
 10 32  1  0  0  0  0
 10 11  1  0  0  0  0
 10 51  1  0  0  0  0
 11 12  1  0  0  0  0
 12 13  1  0  0  0  0
 12 31  1  0  0  0  0
 12 52  1  0  0  0  0
 13 30  1  0  0  0  0
 13 14  1  0  0  0  0
 14 15  2  0  0  0  0
 14 53  1  0  0  0  0
 15 16  1  0  0  0  0
 16 30  2  0  0  0  0
 16 17  1  0  0  0  0
 17 18  1  0  0  0  0
 17 27  2  0  0  0  0
 18 19  1  0  0  0  0
 18 54  1  0  0  0  0
 19 20  2  0  0  0  0
 19 21  1  0  0  0  0
 21 26  1  0  0  0  0
 21 22  2  0  0  0  0
 22 23  1  0  0  0  0
 22 55  1  0  0  0  0
 23 24  2  0  0  0  0
 23 56  1  0  0  0  0
 24 25  1  0  0  0  0
 24 57  1  0  0  0  0
 25 26  2  0  0  0  0
 25 58  1  0  0  0  0
 26 59  1  0  0  0  0
 27 28  1  0  0  0  0
 28 29  2  0  0  0  0
 28 60  1  0  0  0  0
 29 30  1  0  0  0  0
 31 32  1  0  0  0  0
 31 61  1  0  0  0  0
 31 62  1  0  0  0  0
 32 33  1  0  0  0  0
 32 63  1  0  0  0  0
 33 64  1  0  0  0  0
M  END
> <s_m_source_file>
AV-unprocessed.smi

> <i_m_source_file_index>
36

> <i_lp_mmshare_version>
43012

> <i_f3d_flags>
0

> <s_epik_input>
W0NIM11DKFtDSDNdKShbQ0gzXSlbU2ldKFtDSDNdKShbQ0gzXSlPW0NIMl1bQ0BASF0xT1tDQEhdKFtDSDJdW0NASF0xW09IXSluKFtjSF1uMiljKGMyMyluW2NIXW5jM1tOSF1DKD1PKWM0W2NIXVtjSF1bY0hdW2NIXVtjSF00

> <s_epik_cmdline>
J2VwaWtfcHl0aG9uJywgJy1waCcsICc3LjAnLCAnLXRuJywgJzgnLCAnLW1hJywgJzIwMCcsICctbWV0YWxfYmluZGluZycsICctaW1hZScsICc8aW5maWxlLm1hZT4nLCAnLW9tYWUnLCAnPG91dGZpbGUubWFlPic=

> <r_lp_tautomer_probability>
1

> <r_epik_Ionization_Penalty>
0.00150433

> <r_epik_Ionization_Penalty_Charging>
0

> <r_epik_Ionization_Penalty_Neutral>
0.00150433

> <r_epik_State_Penalty>
0.00724046

> <r_epik_Charging_Adjusted_Penalty>
0.00724046

> <i_epik_Tot_Q>
0

> <i_epik_Tot_abs_Q>
0

> <r_epik_Metal_State_Penalty>
0.323355

> <b_epik_Metal_Only>
0

> <s_epik_Chemistry_Notes>
This compound contains an acetal/aminal-like group ( X-CH(R)-Y where X, Y are N, S, or O) that may be acid/base labile, releasing an aldehyde.

> <s_lp_Force_Field>
OPLS_2005

> <r_lp_Energy>
35.7954

> <b_lp_Chiralities_Consistent>
1

> <s_lp_Variant>
AV-unprocessed.smi:36-8

> <Gold.Version>
5.8.1

> <Gold.Id.Protein>
6NUR|6NUR_protein|mol2

> <Gold.PLP.Fitness>
56.7105

> <Gold.PLP.PLP>
-49.2131

> <Gold.PLP.part.hbond>
-4.0000

> <Gold.PLP.part.metal>
0.0000

> <Gold.PLP.part.buried>
-7.6849

> <Gold.PLP.part.nonpolar>
-38.8994

> <Gold.PLP.part.repulsive>
0.2634

> <Gold.PLP.ligand.clash>
0.0000

> <Gold.PLP.ligand.torsion>
1.5425

> <Gold.PLP.Chemscore.Hbond>
3.3517

> <Gold.PLP.Chemscore.CHOScore>
0.0000

> <Gold.PLP.Chemscore.Metal>
0.0000

> <Gold.Chemscore.Hbonds>
donor molecule, donor type, donor heavy atom, donor atom, acceptor molecule, acceptor atom, score
      P1  H  7989  7998       L1    27  0.23
      P1  H  7997  8008       L1    27  0.17
      P1  H  7997  8010       L1    20  0.93
      P1  H 10752 10765       L1    29  0.48

> <Gold.PLP.Chemscore.Internal.Correction>
0.5274

> <Gold.Rescore>
     Score         DG    S(hbond)    S(metal)    S(lipo)     H(rot)  DE(clash)    DE(int)     intcor
     18.31     -20.05       2.59        0.00     109.79       2.70       0.09       1.65       ----

> <Gold.Chemscore.Fitness>
18.3111

> <Gold.Chemscore.DG>
-20.0456

> <Gold.Chemscore.ZeroCoef>
-5.4800

> <Gold.Chemscore.Hbond>
2.5875

> <Gold.Chemscore.Metal>
0.0000

> <Gold.Chemscore.Lipo>
109.7925

> <Gold.Chemscore.Internal_Hbond>
0.0000

> <Gold.Chemscore.DEClash>
0.0853

> <Gold.Chemscore.DEInternal>
1.6491

> <Gold.Chemscore.Rot>
2.7041

> <Gold.Chemscore.Internal.Correction>
   9.000000E+99

> <Gold.Chemscore.Hbonds>
donor molecule, donor type, donor heavy atom, donor atom, acceptor molecule, acceptor atom, score
      P1  H  7989  7998       L1    27  0.01
      P1  H  7997  8008       L1    27  0.02
      P1  H  7997  8010       L1    20  0.22
      P1  H 10752 10765       L1    29  0.05

> <Gold.Chemscore.Hbond.Weighted>
-8.6424

> <Gold.Chemscore.Metal.Weighted>
-0.0000

> <Gold.Chemscore.Lipo.Weighted>
-12.8457

> <Gold.Chemscore.Internal_Hbond.Weighted>
0.0000

> <Gold.Chemscore.DEClash.Weighted>
0.0853

> <Gold.Chemscore.DEInternal.Weighted>
1.6491

> <Gold.Chemscore.Rot.Weighted>
6.9225

> <Gold.Chemscore.Internal.Correction.Weighted>
   9.000000E+99

> <Gold.Protein.RotatedTorsions>
[ 6907 6896 6895 6894 ] final -128.76 input  -60.11 | X-H torsion
[ 7974 7965 7964 7962 ] final   84.46 input  175.53 | X-H torsion
[ 8008 7997 7996 7995 ] final   25.42 input   59.86 | X-H torsion
[ 10167 10162 10161 10158 ] final   32.44 input  -65.29 | X-H torsion
[ 10718 10713 10712 10709 ] final  120.54 input   66.30 | X-H torsion
[ 10763 10752 10751 10750 ] final  155.76 input  -60.55 | X-H torsion
[ 11005 11000 10999 10996 ] final -105.56 input  -57.11 | X-H torsion

> <Gold.Protein.ActiveResidues>
 VAL166  LYS551  ARG553  GLY616  TRP617  ASP618  TYR619  PRO620  LYS621  CYS622 
 ASP623  PHE694  ASN695  SER759  ASP760  ASP761  ALA762  ILE779  LEU786  VAL792 
 PHE793  MET794  SER795  GLU796  ALA797  LYS798  CYS799  TRP800  GLU811  SER814 

> <Gold.Protein.RotatedAtoms>
  150.9213  133.6877  159.2831 H   0  0  0  0  0  0  0  0  0  0  0  0  # atno 6907 bound_to 6896
  151.4330  135.1010  159.9657 H   0  0  0  0  0  0  0  0  0  0  0  0  # atno 6908 bound_to 6896
  152.4981  133.8639  159.7319 H   0  0  0  0  0  0  0  0  0  0  0  0  # atno 6909 bound_to 6896
  145.5985  139.2348  143.2259 H   0  0  0  0  0  0  0  0  0  0  0  0  # atno 7974 bound_to 7965
  155.0114  140.3137  155.4828 H   0  0  0  0  0  0  0  0  0  0  0  0  # atno 8008 bound_to 7997
  156.2908  140.2214  156.5170 H   0  0  0  0  0  0  0  0  0  0  0  0  # atno 8009 bound_to 7997
  154.7531  140.0464  157.0898 H   0  0  0  0  0  0  0  0  0  0  0  0  # atno 8010 bound_to 7997
  140.4498  144.1065  150.6189 H   0  0  0  0  0  0  0  0  0  0  0  0  # atno 10167 bound_to 10162
  157.5883  131.1067  150.8049 H   0  0  0  0  0  0  0  0  0  0  0  0  # atno 10718 bound_to 10713
  154.1735  135.2803  155.3074 H   0  0  0  0  0  0  0  0  0  0  0  0  # atno 10763 bound_to 10752
  154.6057  135.5515  153.7424 H   0  0  0  0  0  0  0  0  0  0  0  0  # atno 10764 bound_to 10752
  153.0158  135.6403  154.1875 H   0  0  0  0  0  0  0  0  0  0  0  0  # atno 10765 bound_to 10752
  141.1047  133.8818  157.1749 H   0  0  0  0  0  0  0  0  0  0  0  0  # atno 11005 bound_to 11000
  146.1594  140.6810  142.9284 LP  0  0  0  0  0  0  0  0  0  0  0  0  # atno 17320 bound_to 7965
  144.7320  140.4700  143.6931 LP  0  0  0  0  0  0  0  0  0  0  0  0  # atno 17321 bound_to 7965
  140.4220  143.2607  151.9703 LP  0  0  0  0  0  0  0  0  0  0  0  0  # atno 17342 bound_to 10162
  139.4796  144.5822  151.7913 LP  0  0  0  0  0  0  0  0  0  0  0  0  # atno 17343 bound_to 10162
  156.8477  130.5070  149.5315 LP  0  0  0  0  0  0  0  0  0  0  0  0  # atno 17370 bound_to 10713
  156.0935  130.5914  150.9774 LP  0  0  0  0  0  0  0  0  0  0  0  0  # atno 17371 bound_to 10713
  139.9913  135.0063  156.9981 LP  0  0  0  0  0  0  0  0  0  0  0  0  # atno 17394 bound_to 11000
  140.4931  134.1172  155.7236 LP  0  0  0  0  0  0  0  0  0  0  0  0  # atno 17395 bound_to 11000

$$$$
