AV-unprocessed.smi:490|AV-procd|sdf|2704|dock5
  -GOLD-   2262023143D 1   1.00000     0.00000
 Structure written by MMmdl.
 49 51  0  0  0  0  0  0  0  0  1 V2000
  148.5434  129.8596  153.3305 C   0  0  0  0  0  0  0  0  0  0  0  0
  149.4920  130.6923  154.1758 C   0  0  0  0  0  0  0  0  0  0  0  0
  150.4594  130.0373  154.9647 C   0  0  0  0  0  0  0  0  0  0  0  0
  151.3531  130.7786  155.7571 C   0  0  0  0  0  0  0  0  0  0  0  0
  151.2964  132.1856  155.7596 C   0  0  0  0  0  0  0  0  0  0  0  0
  152.2672  132.9770  156.6157 C   0  0  0  0  0  0  0  0  0  0  0  0
  150.3406  132.8531  154.9611 C   0  0  0  0  0  0  0  0  0  0  0  0
  150.3118  134.2249  154.9685 O   0  0  0  0  0  0  0  0  0  0  0  0
  149.9055  134.7841  156.2107 C   0  0  0  0  0  0  0  0  0  0  0  0
  149.5770  136.2742  156.0014 C   0  0  1  0  0  0  0  0  0  0  0  0
  149.8649  136.9689  157.1969 O   0  0  0  0  0  0  0  0  0  0  0  0
  150.3750  136.9435  154.8615 C   0  0  0  0  0  0  0  0  0  0  0  0
  150.2382  138.3956  154.8475 N   0  0  0  0  0  0  0  0  0  0  0  0
  151.1670  139.3261  155.1866 C   0  0  0  0  0  0  0  0  0  0  0  0
  152.5534  138.9579  155.6201 C   0  0  0  0  0  0  0  0  0  0  0  0
  153.5503  139.5600  154.8227 O   0  0  0  0  0  0  0  0  0  0  0  0
  150.7749  140.5973  155.0986 N   0  0  0  0  0  0  0  0  0  0  0  0
  149.4766  140.4842  154.6431 C   0  0  0  0  0  0  0  0  0  0  0  0
  148.5177  141.4803  154.3511 C   0  0  0  0  0  0  0  0  0  0  0  0
  147.2342  141.1224  153.8900 C   0  0  0  0  0  0  0  0  0  0  0  0
  146.8927  139.7662  153.7121 C   0  0  0  0  0  0  0  0  0  0  0  0
  147.8333  138.7581  153.9972 C   0  0  0  0  0  0  0  0  0  0  0  0
  149.1120  139.1197  154.4639 C   0  0  0  0  0  0  0  0  0  0  0  0
  149.4189  132.1076  154.1805 C   0  0  0  0  0  0  0  0  0  0  0  0
  148.3553  132.8172  153.3515 C   0  0  0  0  0  0  0  0  0  0  0  0
  148.8041  128.8015  153.3657 H   0  0  0  0  0  0  0  0  0  0  0  0
  148.5800  130.1764  152.2877 H   0  0  0  0  0  0  0  0  0  0  0  0
  147.5198  129.9643  153.6904 H   0  0  0  0  0  0  0  0  0  0  0  0
  150.5190  128.9588  154.9693 H   0  0  0  0  0  0  0  0  0  0  0  0
  152.0845  130.2607  156.3603 H   0  0  0  0  0  0  0  0  0  0  0  0
  151.7274  133.6733  157.2578 H   0  0  0  0  0  0  0  0  0  0  0  0
  152.9495  133.5476  155.9858 H   0  0  0  0  0  0  0  0  0  0  0  0
  152.8611  132.3220  157.2534 H   0  0  0  0  0  0  0  0  0  0  0  0
  149.0546  134.2382  156.6205 H   0  0  0  0  0  0  0  0  0  0  0  0
  150.7102  134.6734  156.9343 H   0  0  0  0  0  0  0  0  0  0  0  0
  148.5116  136.3816  155.7993 H   0  0  0  0  0  0  0  0  0  0  0  0
  150.7939  137.1405  157.2260 H   0  0  0  0  0  0  0  0  0  0  0  0
  151.4342  136.6999  154.9489 H   0  0  0  0  0  0  0  0  0  0  0  0
  150.0559  136.5509  153.8954 H   0  0  0  0  0  0  0  0  0  0  0  0
  152.7015  139.2700  156.6547 H   0  0  0  0  0  0  0  0  0  0  0  0
  152.6798  137.8765  155.6011 H   0  0  0  0  0  0  0  0  0  0  0  0
  153.1548  139.8465  154.0139 H   0  0  0  0  0  0  0  0  0  0  0  0
  148.7707  142.5220  154.4823 H   0  0  0  0  0  0  0  0  0  0  0  0
  146.5085  141.8918  153.6709 H   0  0  0  0  0  0  0  0  0  0  0  0
  145.9074  139.5002  153.3583 H   0  0  0  0  0  0  0  0  0  0  0  0
  147.5715  137.7185  153.8667 H   0  0  0  0  0  0  0  0  0  0  0  0
  148.2677  133.8740  153.6015 H   0  0  0  0  0  0  0  0  0  0  0  0
  147.3750  132.3701  153.5153 H   0  0  0  0  0  0  0  0  0  0  0  0
  148.5947  132.7407  152.2909 H   0  0  0  0  0  0  0  0  0  0  0  0
  1  2  1  0  0  0  0
  1 26  1  0  0  0  0
  1 27  1  0  0  0  0
  1 28  1  0  0  0  0
  2 24  1  0  0  0  0
  2  3  2  0  0  0  0
  3  4  1  0  0  0  0
  3 29  1  0  0  0  0
  4  5  2  0  0  0  0
  4 30  1  0  0  0  0
  5  6  1  0  0  0  0
  5  7  1  0  0  0  0
  6 31  1  0  0  0  0
  6 32  1  0  0  0  0
  6 33  1  0  0  0  0
  7  8  1  0  0  0  0
  7 24  2  0  0  0  0
  8  9  1  0  0  0  0
  9 10  1  0  0  0  0
  9 34  1  0  0  0  0
  9 35  1  0  0  0  0
 10 11  1  0  0  0  0
 10 12  1  0  0  0  0
 10 36  1  0  0  0  0
 11 37  1  0  0  0  0
 12 13  1  0  0  0  0
 12 38  1  0  0  0  0
 12 39  1  0  0  0  0
 13 23  1  0  0  0  0
 13 14  1  0  0  0  0
 14 15  1  0  0  0  0
 14 17  2  0  0  0  0
 15 16  1  0  0  0  0
 15 40  1  0  0  0  0
 15 41  1  0  0  0  0
 16 42  1  0  0  0  0
 17 18  1  0  0  0  0
 18 23  2  0  0  0  0
 18 19  1  0  0  0  0
 19 20  2  0  0  0  0
 19 43  1  0  0  0  0
 20 21  1  0  0  0  0
 20 44  1  0  0  0  0
 21 22  2  0  0  0  0
 21 45  1  0  0  0  0
 22 23  1  0  0  0  0
 22 46  1  0  0  0  0
 24 25  1  0  0  0  0
 25 47  1  0  0  0  0
 25 48  1  0  0  0  0
 25 49  1  0  0  0  0
M  END
> <s_m_source_file>
AV-unprocessed.smi

> <i_m_source_file_index>
490

> <i_lp_mmshare_version>
43012

> <i_f3d_flags>
0

> <s_epik_input>
W0NIM11jMVtjSF1bY0hdYyhbQ0gzXSljKGMxW0NIM10pT1tDSDJdW0NASF0oW09IXSlbQ0gyXW4oYyhuMilbQ0gyXVtPSF0pYyhjMjMpW2NIXVtjSF1bY0hdW2NIXTM=

> <s_epik_cmdline>
J2VwaWtfcHl0aG9uJywgJy1waCcsICc3LjAnLCAnLXRuJywgJzgnLCAnLW1hJywgJzIwMCcsICctbWV0YWxfYmluZGluZycsICctaW1hZScsICc8aW5maWxlLm1hZT4nLCAnLW9tYWUnLCAnPG91dGZpbGUubWFlPic=

> <r_lp_tautomer_probability>
1

> <r_epik_Ionization_Penalty>
0.0555874

> <r_epik_Ionization_Penalty_Charging>
0

> <r_epik_Ionization_Penalty_Neutral>
0.0555874

> <r_epik_State_Penalty>
0.0478234

> <r_epik_Charging_Adjusted_Penalty>
0.0478234

> <i_epik_Tot_Q>
0

> <i_epik_Tot_abs_Q>
0

> <r_epik_Metal_State_Penalty>
4.98044e-05

> <b_epik_Metal_Only>
0

> <s_lp_Force_Field>
OPLS_2005

> <r_lp_Energy>
21.221

> <b_lp_Chiralities_Consistent>
1

> <s_lp_Variant>
AV-unprocessed.smi:490-2

> <Gold.Version>
5.8.1

> <Gold.Id.Protein>
6NUR|6NUR_protein|mol2

> <Gold.PLP.Fitness>
51.2695

> <Gold.PLP.PLP>
-46.4363

> <Gold.PLP.part.hbond>
-2.3705

> <Gold.PLP.part.metal>
0.0000

> <Gold.PLP.part.buried>
-2.7484

> <Gold.PLP.part.nonpolar>
-40.8333

> <Gold.PLP.part.repulsive>
0.1897

> <Gold.PLP.ligand.clash>
0.0000

> <Gold.PLP.ligand.torsion>
0.7038

> <Gold.PLP.Chemscore.Hbond>
2.0000

> <Gold.PLP.Chemscore.CHOScore>
0.0000

> <Gold.PLP.Chemscore.Metal>
0.0000

> <Gold.Chemscore.Hbonds>
donor molecule, donor type, donor heavy atom, donor atom, acceptor molecule, acceptor atom, score
      P1  H  7989  7998       L1    17  0.67
      P1  H  7997  8010       L1    16  0.94

> <Gold.PLP.Chemscore.Internal.Correction>
0.2407

> <Gold.Rescore>
     Score         DG    S(hbond)    S(metal)    S(lipo)     H(rot)  DE(clash)    DE(int)     intcor
     12.85     -14.24       1.22        0.00     104.02       2.93       0.34       1.05       ----

> <Gold.Chemscore.Fitness>
12.8536

> <Gold.Chemscore.DG>
-14.2362

> <Gold.Chemscore.ZeroCoef>
-5.4800

> <Gold.Chemscore.Hbond>
1.2218

> <Gold.Chemscore.Metal>
0.0000

> <Gold.Chemscore.Lipo>
104.0239

> <Gold.Chemscore.Internal_Hbond>
0.0000

> <Gold.Chemscore.DEClash>
0.3353

> <Gold.Chemscore.DEInternal>
1.0473

> <Gold.Chemscore.Rot>
2.9279

> <Gold.Chemscore.Internal.Correction>
   9.000000E+99

> <Gold.Chemscore.Hbonds>
donor molecule, donor type, donor heavy atom, donor atom, acceptor molecule, acceptor atom, score
      P1  H  7989  7998       L1    17  0.02
      P1  H  7997  8010       L1    16  0.50

> <Gold.Chemscore.Hbond.Weighted>
-4.0808

> <Gold.Chemscore.Metal.Weighted>
-0.0000

> <Gold.Chemscore.Lipo.Weighted>
-12.1708

> <Gold.Chemscore.Internal_Hbond.Weighted>
0.0000

> <Gold.Chemscore.DEClash.Weighted>
0.3353

> <Gold.Chemscore.DEInternal.Weighted>
1.0473

> <Gold.Chemscore.Rot.Weighted>
7.4954

> <Gold.Chemscore.Internal.Correction.Weighted>
   9.000000E+99

> <Gold.Protein.RotatedTorsions>
[ 6907 6896 6895 6894 ] final   96.17 input  -60.11 | X-H torsion
[ 7974 7965 7964 7962 ] final  162.42 input  175.53 | X-H torsion
[ 8008 7997 7996 7995 ] final  111.05 input   59.86 | X-H torsion
[ 10167 10162 10161 10158 ] final  107.00 input  -65.29 | X-H torsion
[ 10718 10713 10712 10709 ] final  -85.71 input   66.30 | X-H torsion
[ 10763 10752 10751 10750 ] final  176.21 input  -60.55 | X-H torsion
[ 11005 11000 10999 10996 ] final -119.02 input  -57.11 | X-H torsion

> <Gold.Protein.ActiveResidues>
 VAL166  LYS551  ARG553  GLY616  TRP617  ASP618  TYR619  PRO620  LYS621  CYS622 
 ASP623  PHE694  ASN695  SER759  ASP760  ASP761  ALA762  ILE779  LEU786  VAL792 
 PHE793  MET794  SER795  GLU796  ALA797  LYS798  CYS799  TRP800  GLU811  SER814 

> <Gold.Protein.RotatedAtoms>
  152.5437  134.0927  159.8283 H   0  0  0  0  0  0  0  0  0  0  0  0  # atno 6907 bound_to 6896
  151.1015  133.5233  159.2617 H   0  0  0  0  0  0  0  0  0  0  0  0  # atno 6908 bound_to 6896
  151.1986  135.0442  159.8917 H   0  0  0  0  0  0  0  0  0  0  0  0  # atno 6909 bound_to 6896
  144.7637  139.8038  143.6323 H   0  0  0  0  0  0  0  0  0  0  0  0  # atno 7974 bound_to 7965
  156.2096  140.3027  155.9704 H   0  0  0  0  0  0  0  0  0  0  0  0  # atno 8008 bound_to 7997
  155.2755  140.0435  157.3028 H   0  0  0  0  0  0  0  0  0  0  0  0  # atno 8009 bound_to 7997
  154.5681  140.2340  155.8241 H   0  0  0  0  0  0  0  0  0  0  0  0  # atno 8010 bound_to 7997
  139.6963  144.7101  151.1262 H   0  0  0  0  0  0  0  0  0  0  0  0  # atno 10167 bound_to 10162
  155.9994  130.4740  150.4604 H   0  0  0  0  0  0  0  0  0  0  0  0  # atno 10718 bound_to 10713
  154.4781  135.2773  155.1592 H   0  0  0  0  0  0  0  0  0  0  0  0  # atno 10763 bound_to 10752
  154.3313  135.6189  153.5556 H   0  0  0  0  0  0  0  0  0  0  0  0  # atno 10764 bound_to 10752
  152.9872  135.5766  154.5175 H   0  0  0  0  0  0  0  0  0  0  0  0  # atno 10765 bound_to 10752
  141.0245  134.0074  157.3234 H   0  0  0  0  0  0  0  0  0  0  0  0  # atno 11005 bound_to 11000
  146.1725  139.4882  142.9918 LP  0  0  0  0  0  0  0  0  0  0  0  0  # atno 17320 bound_to 7965
  145.6537  141.0257  143.1746 LP  0  0  0  0  0  0  0  0  0  0  0  0  # atno 17321 bound_to 7965
  140.7697  143.5487  150.9229 LP  0  0  0  0  0  0  0  0  0  0  0  0  # atno 17342 bound_to 10162
  139.9167  143.6655  152.3105 LP  0  0  0  0  0  0  0  0  0  0  0  0  # atno 17343 bound_to 10162
  157.2628  131.0570  151.2309 LP  0  0  0  0  0  0  0  0  0  0  0  0  # atno 17370 bound_to 10713
  157.3417  130.7037  149.6386 LP  0  0  0  0  0  0  0  0  0  0  0  0  # atno 17371 bound_to 10713
  139.9167  135.0197  156.7908 LP  0  0  0  0  0  0  0  0  0  0  0  0  # atno 17394 bound_to 11000
  140.6515  133.9727  155.7758 LP  0  0  0  0  0  0  0  0  0  0  0  0  # atno 17395 bound_to 11000

$$$$
