AV-unprocessed.smi:199|AV-procd|sdf|1568|dock3
  -GOLD-   2262019443D 1   1.00000     0.00000
 Structure written by MMmdl.
 51 55  0  0  0  0  0  0  0  0  1 V2000
  145.3099  135.0490  151.8936 C   0  0  0  0  0  0  0  0  0  0  0  0
  146.1859  133.9230  151.3223 C   0  0  2  0  0  0  0  0  0  0  0  0
  145.3962  133.1835  150.3946 O   0  0  0  0  0  0  0  0  0  0  0  0
  145.8572  131.8444  150.3711 C   0  0  0  0  0  0  0  0  0  0  0  0
  146.1244  131.5681  151.8426 C   0  0  0  0  0  0  0  0  0  0  0  0
  146.7365  132.8777  152.3344 C   0  0  1  0  0  0  0  0  0  0  0  0
  148.1399  132.7983  152.1453 O   0  0  0  0  0  0  0  0  0  0  0  0
  146.4699  133.1618  153.8366 C   0  0  0  0  0  0  0  0  0  0  0  0
  147.1291  134.3648  154.3237 N   0  0  0  0  0  0  0  0  0  0  0  0
  146.5382  135.5801  154.5826 C   0  0  0  0  0  0  0  0  0  0  0  0
  147.3472  136.5122  155.0045 N   0  0  0  0  0  0  0  0  0  0  0  0
  148.5911  135.8937  155.0557 C   0  0  0  0  0  0  0  0  0  0  0  0
  149.9040  136.3168  155.4173 C   0  0  0  0  0  0  0  0  0  0  0  0
  150.2111  137.5768  155.8326 N   0  0  0  0  0  0  0  0  0  0  0  0
  151.5965  138.0175  155.9111 C   0  0  1  0  0  0  0  0  0  0  0  0
  152.0008  138.2340  154.4401 C   0  0  0  0  0  0  0  0  0  0  0  0
  150.6831  138.7479  153.8411 C   0  0  0  0  0  0  0  0  0  0  0  0
  149.7602  138.7416  155.0825 C   0  0  2  0  0  0  0  0  0  0  0  0
  150.1163  139.8827  156.0597 C   0  0  2  0  0  0  0  0  0  0  0  0
  150.1117  141.3091  155.4793 C   0  0  0  0  0  0  0  0  0  0  0  0
  150.2758  142.2511  156.5179 O   0  0  0  0  0  0  0  0  0  0  0  0
  151.4728  139.3901  156.5982 C   0  0  0  0  0  0  0  0  0  0  0  0
  150.9039  135.4022  155.3027 N   0  0  0  0  0  0  0  0  0  0  0  0
  150.6439  134.1577  154.8943 C   0  0  0  0  0  0  0  0  0  0  0  0
  149.4742  133.6242  154.5413 N   0  0  0  0  0  0  0  0  0  0  0  0
  148.4675  134.5394  154.6297 C   0  0  0  0  0  0  0  0  0  0  0  0
  145.8612  135.6587  152.6095 H   0  0  0  0  0  0  0  0  0  0  0  0
  144.4228  134.6547  152.3895 H   0  0  0  0  0  0  0  0  0  0  0  0
  144.9700  135.7109  151.0967 H   0  0  0  0  0  0  0  0  0  0  0  0
  147.0055  134.3783  150.7628 H   0  0  0  0  0  0  0  0  0  0  0  0
  145.1164  131.1700  149.9414 H   0  0  0  0  0  0  0  0  0  0  0  0
  146.7738  131.7766  149.7832 H   0  0  0  0  0  0  0  0  0  0  0  0
  145.1694  131.3906  152.3383 H   0  0  0  0  0  0  0  0  0  0  0  0
  146.7536  130.6929  152.0111 H   0  0  0  0  0  0  0  0  0  0  0  0
  148.3250  132.0659  151.5777 H   0  0  0  0  0  0  0  0  0  0  0  0
  145.3997  133.2642  154.0212 H   0  0  0  0  0  0  0  0  0  0  0  0
  146.8099  132.3267  154.4496 H   0  0  0  0  0  0  0  0  0  0  0  0
  145.4824  135.7574  154.4386 H   0  0  0  0  0  0  0  0  0  0  0  0
  152.2755  137.3581  156.4482 H   0  0  0  0  0  0  0  0  0  0  0  0
  152.8230  138.9417  154.3281 H   0  0  0  0  0  0  0  0  0  0  0  0
  152.2962  137.2940  153.9722 H   0  0  0  0  0  0  0  0  0  0  0  0
  150.7776  139.7230  153.3661 H   0  0  0  0  0  0  0  0  0  0  0  0
  150.3181  138.0540  153.0828 H   0  0  0  0  0  0  0  0  0  0  0  0
  148.6991  138.7348  154.8300 H   0  0  0  0  0  0  0  0  0  0  0  0
  149.3884  139.8469  156.8729 H   0  0  0  0  0  0  0  0  0  0  0  0
  150.9095  141.4525  154.7509 H   0  0  0  0  0  0  0  0  0  0  0  0
  149.1656  141.5094  154.9757 H   0  0  0  0  0  0  0  0  0  0  0  0
  149.7789  143.0257  156.3031 H   0  0  0  0  0  0  0  0  0  0  0  0
  151.4359  139.2846  157.6831 H   0  0  0  0  0  0  0  0  0  0  0  0
  152.3041  140.0529  156.3544 H   0  0  0  0  0  0  0  0  0  0  0  0
  151.4954  133.4957  154.8410 H   0  0  0  0  0  0  0  0  0  0  0  0
  1  2  1  0  0  0  0
  1 27  1  0  0  0  0
  1 28  1  0  0  0  0
  1 29  1  0  0  0  0
  2  6  1  0  0  0  0
  2  3  1  0  0  0  0
  2 30  1  0  0  0  0
  3  4  1  0  0  0  0
  4  5  1  0  0  0  0
  4 31  1  0  0  0  0
  4 32  1  0  0  0  0
  5  6  1  0  0  0  0
  5 33  1  0  0  0  0
  5 34  1  0  0  0  0
  6  7  1  0  0  0  0
  6  8  1  0  0  0  0
  7 35  1  0  0  0  0
  8  9  1  0  0  0  0
  8 36  1  0  0  0  0
  8 37  1  0  0  0  0
  9 26  1  0  0  0  0
  9 10  1  0  0  0  0
 10 11  2  0  0  0  0
 10 38  1  0  0  0  0
 11 12  1  0  0  0  0
 12 26  2  0  0  0  0
 12 13  1  0  0  0  0
 13 14  1  0  0  0  0
 13 23  2  0  0  0  0
 14 18  1  0  0  0  0
 14 15  1  0  0  0  0
 15 22  1  0  0  0  0
 15 16  1  0  0  0  0
 15 39  1  0  0  0  0
 16 17  1  0  0  0  0
 16 40  1  0  0  0  0
 16 41  1  0  0  0  0
 17 18  1  0  0  0  0
 17 42  1  0  0  0  0
 17 43  1  0  0  0  0
 18 19  1  0  0  0  0
 18 44  1  0  0  0  0
 19 20  1  0  0  0  0
 19 22  1  0  0  0  0
 19 45  1  0  0  0  0
 20 21  1  0  0  0  0
 20 46  1  0  0  0  0
 20 47  1  0  0  0  0
 21 48  1  0  0  0  0
 22 49  1  0  0  0  0
 22 50  1  0  0  0  0
 23 24  1  0  0  0  0
 24 25  2  0  0  0  0
 24 51  1  0  0  0  0
 25 26  1  0  0  0  0
M  END
> <s_m_source_file>
AV-unprocessed.smi

> <i_m_source_file_index>
199

> <i_lp_mmshare_version>
43012

> <i_f3d_flags>
0

> <s_epik_input>
W0NIMl0xW0NIMl1PW0NAQEhdKFtDSDNdKVtDQEBdMShbT0hdKVtDSDJdbihbY0hdbjIpYyhjMjMpbltjSF1uYzNOKFtDQEBIXTQ1KVtDQEhdKFtDSDJdW0NIMl00KVtDQEhdKFtDSDJdNSlbQ0gyXVtPSF0=

> <s_epik_cmdline>
J2VwaWtfcHl0aG9uJywgJy1waCcsICc3LjAnLCAnLXRuJywgJzgnLCAnLW1hJywgJzIwMCcsICctbWV0YWxfYmluZGluZycsICctaW1hZScsICc8aW5maWxlLm1hZT4nLCAnLW9tYWUnLCAnPG91dGZpbGUubWFlPic=

> <r_lp_tautomer_probability>
1

> <r_epik_Ionization_Penalty>
0.00583903

> <r_epik_Ionization_Penalty_Charging>
0

> <r_epik_Ionization_Penalty_Neutral>
0.00583903

> <r_epik_State_Penalty>
-0

> <r_epik_Charging_Adjusted_Penalty>
0

> <i_epik_Tot_Q>
0

> <i_epik_Tot_abs_Q>
0

> <r_epik_Metal_State_Penalty>
-0

> <b_epik_Metal_Only>
0

> <s_lp_Force_Field>
OPLS_2005

> <r_lp_Energy>
83.953

> <b_lp_Chiralities_Consistent>
1

> <s_lp_Variant>
AV-unprocessed.smi:199-9

> <Gold.Version>
5.8.1

> <Gold.Id.Protein>
6NUR|6NUR_protein|mol2

> <Gold.PLP.Fitness>
38.6690

> <Gold.PLP.PLP>
-31.8200

> <Gold.PLP.part.hbond>
-2.6631

> <Gold.PLP.part.metal>
0.0000

> <Gold.PLP.part.buried>
-5.1824

> <Gold.PLP.part.nonpolar>
-23.0464

> <Gold.PLP.part.repulsive>
0.4765

> <Gold.PLP.ligand.clash>
0.0000

> <Gold.PLP.ligand.torsion>
0.4833

> <Gold.PLP.Chemscore.Hbond>
2.6012

> <Gold.PLP.Chemscore.CHOScore>
0.0000

> <Gold.PLP.Chemscore.Metal>
0.0000

> <Gold.Chemscore.Hbonds>
donor molecule, donor type, donor heavy atom, donor atom, acceptor molecule, acceptor atom, score
      L1  H     7    35       P1 10747  1.00
      L1  H    21    48       P1  8028  1.00
      P1  H 10752 10765       L1    23  0.68

> <Gold.PLP.Chemscore.Internal.Correction>
0.0118

> <Gold.Rescore>
     Score         DG    S(hbond)    S(metal)    S(lipo)     H(rot)  DE(clash)    DE(int)     intcor
     10.86     -14.30       2.06        0.00      83.91       3.07       0.57       2.86       ----

> <Gold.Chemscore.Fitness>
10.8636

> <Gold.Chemscore.DG>
-14.3016

> <Gold.Chemscore.ZeroCoef>
-5.4800

> <Gold.Chemscore.Hbond>
2.0572

> <Gold.Chemscore.Metal>
0.0000

> <Gold.Chemscore.Lipo>
83.9076

> <Gold.Chemscore.Internal_Hbond>
0.0000

> <Gold.Chemscore.DEClash>
0.5734

> <Gold.Chemscore.DEInternal>
2.8646

> <Gold.Chemscore.Rot>
3.0729

> <Gold.Chemscore.Internal.Correction>
   9.000000E+99

> <Gold.Chemscore.Hbonds>
donor molecule, donor type, donor heavy atom, donor atom, acceptor molecule, acceptor atom, score
      L1  H     7    35       P1 10747  1.00
      L1  H    21    48       P1  8028  0.94
      P1  H 10752 10765       L1    23  0.15

> <Gold.Chemscore.Hbond.Weighted>
-6.8711

> <Gold.Chemscore.Metal.Weighted>
-0.0000

> <Gold.Chemscore.Lipo.Weighted>
-9.8172

> <Gold.Chemscore.Internal_Hbond.Weighted>
0.0000

> <Gold.Chemscore.DEClash.Weighted>
0.5734

> <Gold.Chemscore.DEInternal.Weighted>
2.8646

> <Gold.Chemscore.Rot.Weighted>
7.8667

> <Gold.Chemscore.Internal.Correction.Weighted>
   9.000000E+99

> <Gold.Protein.RotatedTorsions>
[ 6907 6896 6895 6894 ] final   80.39 input  -60.11 | X-H torsion
[ 7974 7965 7964 7962 ] final  100.57 input  175.53 | X-H torsion
[ 8008 7997 7996 7995 ] final  148.00 input   59.86 | X-H torsion
[ 10167 10162 10161 10158 ] final    6.43 input  -65.29 | X-H torsion
[ 10718 10713 10712 10709 ] final  -98.23 input   66.30 | X-H torsion
[ 10763 10752 10751 10750 ] final -167.74 input  -60.55 | X-H torsion
[ 11005 11000 10999 10996 ] final -162.69 input  -57.11 | X-H torsion

> <Gold.Protein.ActiveResidues>
 VAL166  LYS551  ARG553  GLY616  TRP617  ASP618  TYR619  PRO620  LYS621  CYS622 
 ASP623  PHE694  ASN695  SER759  ASP760  ASP761  ALA762  ILE779  LEU786  VAL792 
 PHE793  MET794  SER795  GLU796  ALA797  LYS798  CYS799  TRP800  GLU811  SER814 

> <Gold.Protein.RotatedAtoms>
  152.5233  134.3365  159.9201 H   0  0  0  0  0  0  0  0  0  0  0  0  # atno 6907 bound_to 6896
  151.3314  133.3992  159.2670 H   0  0  0  0  0  0  0  0  0  0  0  0  # atno 6908 bound_to 6896
  150.9877  134.9236  159.7939 H   0  0  0  0  0  0  0  0  0  0  0  0  # atno 6909 bound_to 6896
  145.3838  139.2375  143.3389 H   0  0  0  0  0  0  0  0  0  0  0  0  # atno 7974 bound_to 7965
  156.2806  140.2140  156.5628 H   0  0  0  0  0  0  0  0  0  0  0  0  # atno 8008 bound_to 7997
  154.7199  140.0504  157.0652 H   0  0  0  0  0  0  0  0  0  0  0  0  # atno 8009 bound_to 7997
  155.0492  140.3154  155.4701 H   0  0  0  0  0  0  0  0  0  0  0  0  # atno 8010 bound_to 7997
  140.6428  143.7734  150.7453 H   0  0  0  0  0  0  0  0  0  0  0  0  # atno 10167 bound_to 10162
  156.0102  130.5229  150.6492 H   0  0  0  0  0  0  0  0  0  0  0  0  # atno 10718 bound_to 10713
  154.6701  135.2938  154.9753 H   0  0  0  0  0  0  0  0  0  0  0  0  # atno 10763 bound_to 10752
  154.0783  135.6608  153.4838 H   0  0  0  0  0  0  0  0  0  0  0  0  # atno 10764 bound_to 10752
  153.0481  135.5191  154.7693 H   0  0  0  0  0  0  0  0  0  0  0  0  # atno 10765 bound_to 10752
  140.6064  134.4894  157.5211 H   0  0  0  0  0  0  0  0  0  0  0  0  # atno 11005 bound_to 11000
  146.2829  140.4510  142.8769 LP  0  0  0  0  0  0  0  0  0  0  0  0  # atno 17320 bound_to 7965
  144.8488  140.6970  143.6181 LP  0  0  0  0  0  0  0  0  0  0  0  0  # atno 17321 bound_to 7965
  140.1368  143.4476  152.2219 LP  0  0  0  0  0  0  0  0  0  0  0  0  # atno 17342 bound_to 10162
  139.5637  144.7422  151.4081 LP  0  0  0  0  0  0  0  0  0  0  0  0  # atno 17343 bound_to 10162
  157.4256  131.0842  151.1088 LP  0  0  0  0  0  0  0  0  0  0  0  0  # atno 17370 bound_to 10713
  157.1677  130.6253  149.5630 LP  0  0  0  0  0  0  0  0  0  0  0  0  # atno 17371 bound_to 10713
  139.9210  134.8148  156.1211 LP  0  0  0  0  0  0  0  0  0  0  0  0  # atno 17394 bound_to 11000
  141.0837  133.6743  156.2391 LP  0  0  0  0  0  0  0  0  0  0  0  0  # atno 17395 bound_to 11000

$$$$
