AV-unprocessed.smi:3193|AV-procd|sdf|12205|dock4
  -GOLD-   2272018 43D 1   1.00000     0.00000
 Structure written by MMmdl.
 41 42  0  0  0  0  0  0  0  0  3 V2000
  151.9689  144.6596  160.6613 C   0  0  0  0  0  0  0  0  0  0  0  0
  152.0927  143.1504  160.3838 C   0  0  2  0  0  0  0  0  0  0  0  0
  153.3724  142.6076  161.0547 C   0  0  0  0  0  0  0  0  0  0  0  0
  153.5271  141.0934  160.8619 C   0  0  0  0  0  0  0  0  0  0  0  0
  153.5085  140.7302  159.3734 C   0  0  0  0  0  0  0  0  0  0  0  0
  152.2337  141.2560  158.6989 C   0  0  0  0  0  0  0  0  0  0  0  0
  152.0666  142.7827  158.8700 C   0  0  1  0  0  0  0  0  0  0  0  0
  150.7821  143.2420  158.1425 C   0  0  0  0  0  0  0  0  0  0  0  0
  150.7412  142.7812  156.7397 N   0  3  0  0  0  0  0  0  0  0  0  0
  150.0236  141.5064  156.5438 C   0  0  0  0  0  0  0  0  0  0  0  0
  149.8338  141.2032  155.0507 C   0  0  0  0  0  0  0  0  0  0  0  0
  150.3416  139.8764  154.6930 N   0  0  0  0  0  0  0  0  0  0  0  0
  151.5477  139.3247  155.0429 C   0  0  0  0  0  0  0  0  0  0  0  0
  151.5816  138.0725  154.4849 C   0  0  0  0  0  0  0  0  0  0  0  0
  150.3968  137.9135  153.8172 N   0  3  0  0  0  0  0  0  0  0  0  0
  149.6438  139.0111  153.9451 C   0  0  0  0  0  0  0  0  0  0  0  0
  152.7323  145.2269  160.1281 H   0  0  0  0  0  0  0  0  0  0  0  0
  152.0840  144.8715  161.7248 H   0  0  0  0  0  0  0  0  0  0  0  0
  150.9917  145.0449  160.3729 H   0  0  0  0  0  0  0  0  0  0  0  0
  151.2419  142.6643  160.8642 H   0  0  0  0  0  0  0  0  0  0  0  0
  154.2468  143.1167  160.6462 H   0  0  0  0  0  0  0  0  0  0  0  0
  153.3592  142.8311  162.1222 H   0  0  0  0  0  0  0  0  0  0  0  0
  154.4574  140.7523  161.3172 H   0  0  0  0  0  0  0  0  0  0  0  0
  152.7195  140.5725  161.3779 H   0  0  0  0  0  0  0  0  0  0  0  0
  154.3865  141.1499  158.8809 H   0  0  0  0  0  0  0  0  0  0  0  0
  153.5740  139.6483  159.2543 H   0  0  0  0  0  0  0  0  0  0  0  0
  152.2637  140.9985  157.6394 H   0  0  0  0  0  0  0  0  0  0  0  0
  151.3663  140.7413  159.1149 H   0  0  0  0  0  0  0  0  0  0  0  0
  152.9225  143.2538  158.3832 H   0  0  0  0  0  0  0  0  0  0  0  0
  149.9009  142.8334  158.6392 H   0  0  0  0  0  0  0  0  0  0  0  0
  150.6902  144.3282  158.1871 H   0  0  0  0  0  0  0  0  0  0  0  0
  150.2833  143.4940  156.1895 H   0  0  0  0  0  0  0  0  0  0  0  0
  150.5824  140.7010  157.0226 H   0  0  0  0  0  0  0  0  0  0  0  0
  149.0529  141.5649  157.0378 H   0  0  0  0  0  0  0  0  0  0  0  0
  148.7786  141.2485  154.7761 H   0  0  0  0  0  0  0  0  0  0  0  0
  150.3574  141.9382  154.4376 H   0  0  0  0  0  0  0  0  0  0  0  0
  152.2751  139.8488  155.6459 H   0  0  0  0  0  0  0  0  0  0  0  0
  152.3403  137.3037  154.5105 H   0  0  0  0  0  0  0  0  0  0  0  0
  148.6655  139.1655  153.5255 H   0  0  0  0  0  0  0  0  0  0  0  0
  151.6900  142.6783  156.4081 H   0  0  0  0  0  0  0  0  0  0  0  0
  150.1282  137.0860  153.2987 H   0  0  0  0  0  0  0  0  0  0  0  0
  1  2  1  0  0  0  0
  1 17  1  0  0  0  0
  1 18  1  0  0  0  0
  1 19  1  0  0  0  0
  2  7  1  0  0  0  0
  2  3  1  0  0  0  0
  2 20  1  0  0  0  0
  3  4  1  0  0  0  0
  3 21  1  0  0  0  0
  3 22  1  0  0  0  0
  4  5  1  0  0  0  0
  4 23  1  0  0  0  0
  4 24  1  0  0  0  0
  5  6  1  0  0  0  0
  5 25  1  0  0  0  0
  5 26  1  0  0  0  0
  6  7  1  0  0  0  0
  6 27  1  0  0  0  0
  6 28  1  0  0  0  0
  7  8  1  0  0  0  0
  7 29  1  0  0  0  0
  8  9  1  0  0  0  0
  8 30  1  0  0  0  0
  8 31  1  0  0  0  0
  9 10  1  0  0  0  0
  9 32  1  0  0  0  0
  9 40  1  0  0  0  0
 10 11  1  0  0  0  0
 10 33  1  0  0  0  0
 10 34  1  0  0  0  0
 11 12  1  0  0  0  0
 11 35  1  0  0  0  0
 11 36  1  0  0  0  0
 12 16  1  0  0  0  0
 12 13  1  0  0  0  0
 13 14  2  0  0  0  0
 13 37  1  0  0  0  0
 14 15  1  0  0  0  0
 14 38  1  0  0  0  0
 15 16  2  0  0  0  0
 15 41  1  0  0  0  0
 16 39  1  0  0  0  0
M  CHG  1   9   1
M  CHG  1  15   1
M  END
> <s_m_source_file>
AV-unprocessed.smi

> <i_m_source_file_index>
3193

> <i_lp_mmshare_version>
43012

> <i_f3d_flags>
0

> <s_epik_input>
W0NIM11bQ0BASF0xW0NIMl1bQ0gyXVtDSDJdW0NIMl1bQ0BIXTFbQ0gyXVtOSF1bQ0gyXVtDSDJdbjJbY0hdW2NIXW5bY0hdMg==

> <s_epik_cmdline>
J2VwaWtfcHl0aG9uJywgJy1waCcsICc3LjAnLCAnLXRuJywgJzgnLCAnLW1hJywgJzIwMCcsICctbWV0YWxfYmluZGluZycsICctaW1hZScsICc8aW5maWxlLm1hZT4nLCAnLW9tYWUnLCAnPG91dGZpbGUubWFlPic=

> <r_lp_tautomer_probability>
1

> <r_epik_Ionization_Penalty>
1.50262

> <r_epik_Ionization_Penalty_Charging>
0.00193432

> <r_epik_Ionization_Penalty_Neutral>
1.50068

> <r_epik_State_Penalty>
1.11854

> <r_epik_Charging_Adjusted_Penalty>
1.12048

> <i_epik_Tot_Q>
2

> <i_epik_Tot_abs_Q>
2

> <r_epik_Metal_State_Penalty>
5.11322

> <b_epik_Metal_Only>
0

> <s_lp_Force_Field>
OPLS_2005

> <r_lp_Energy>
26.3387

> <b_lp_Chiralities_Consistent>
1

> <s_lp_Variant>
AV-unprocessed.smi:3193-5

> <Gold.Version>
5.8.1

> <Gold.Id.Protein>
6NUR|6NUR_protein|mol2

> <Gold.PLP.Fitness>
51.6081

> <Gold.PLP.PLP>
-40.7972

> <Gold.PLP.part.hbond>
-2.5259

> <Gold.PLP.part.metal>
0.0000

> <Gold.PLP.part.buried>
-1.3650

> <Gold.PLP.part.nonpolar>
-35.8261

> <Gold.PLP.part.repulsive>
0.1171

> <Gold.PLP.ligand.clash>
0.0000

> <Gold.PLP.ligand.torsion>
0.7805

> <Gold.PLP.Chemscore.Hbond>
4.0000

> <Gold.PLP.Chemscore.CHOScore>
0.1055

> <Gold.PLP.Chemscore.Metal>
0.0000

> <Gold.Chemscore.Hbonds>
donor molecule, donor type, donor heavy atom, donor atom, acceptor molecule, acceptor atom, score
      L1  H     9    32       P1  8028  2.00
      L1  H    15    41       P1  7948  1.59
      L1  C    16    39       P1  7957  0.17

> <Gold.PLP.Chemscore.Internal.Correction>
0.0556

> <Gold.Rescore>
     Score         DG    S(hbond)    S(metal)    S(lipo)     H(rot)  DE(clash)    DE(int)     intcor
     18.89     -19.82       1.94        0.00     110.44       1.98       0.09       0.85       ----

> <Gold.Chemscore.Fitness>
18.8856

> <Gold.Chemscore.DG>
-19.8226

> <Gold.Chemscore.ZeroCoef>
-5.4800

> <Gold.Chemscore.Hbond>
1.9411

> <Gold.Chemscore.Metal>
0.0000

> <Gold.Chemscore.Lipo>
110.4400

> <Gold.Chemscore.Internal_Hbond>
0.0000

> <Gold.Chemscore.DEClash>
0.0899

> <Gold.Chemscore.DEInternal>
0.8471

> <Gold.Chemscore.Rot>
1.9774

> <Gold.Chemscore.Internal.Correction>
   9.000000E+99

> <Gold.Chemscore.Hbonds>
donor molecule, donor type, donor heavy atom, donor atom, acceptor molecule, acceptor atom, score
      L1  H     9    32       P1  8028  0.99
      L1  H    15    41       P1  7948  0.11

> <Gold.Chemscore.Hbond.Weighted>
-6.4833

> <Gold.Chemscore.Metal.Weighted>
-0.0000

> <Gold.Chemscore.Lipo.Weighted>
-12.9215

> <Gold.Chemscore.Internal_Hbond.Weighted>
0.0000

> <Gold.Chemscore.DEClash.Weighted>
0.0899

> <Gold.Chemscore.DEInternal.Weighted>
0.8471

> <Gold.Chemscore.Rot.Weighted>
5.0622

> <Gold.Chemscore.Internal.Correction.Weighted>
   9.000000E+99

> <Gold.Protein.RotatedTorsions>
[ 6907 6896 6895 6894 ] final -135.54 input  -60.11 | X-H torsion
[ 7974 7965 7964 7962 ] final -134.91 input  175.53 | X-H torsion
[ 8008 7997 7996 7995 ] final   11.03 input   59.86 | X-H torsion
[ 10167 10162 10161 10158 ] final  -37.22 input  -65.29 | X-H torsion
[ 10718 10713 10712 10709 ] final  -58.56 input   66.30 | X-H torsion
[ 10763 10752 10751 10750 ] final  121.95 input  -60.55 | X-H torsion
[ 11005 11000 10999 10996 ] final -116.99 input  -57.11 | X-H torsion

> <Gold.Protein.ActiveResidues>
 VAL166  LYS551  ARG553  GLY616  TRP617  ASP618  TYR619  PRO620  LYS621  CYS622 
 ASP623  PHE694  ASN695  SER759  ASP760  ASP761  ALA762  ILE779  LEU786  VAL792 
 PHE793  MET794  SER795  GLU796  ALA797  LYS798  CYS799  TRP800  GLU811  SER814 

> <Gold.Protein.RotatedAtoms>
  150.9991  133.6074  159.2697 H   0  0  0  0  0  0  0  0  0  0  0  0  # atno 6907 bound_to 6896
  151.3267  135.0831  159.9334 H   0  0  0  0  0  0  0  0  0  0  0  0  # atno 6908 bound_to 6896
  152.5268  133.9628  159.7779 H   0  0  0  0  0  0  0  0  0  0  0  0  # atno 6909 bound_to 6896
  144.9060  140.6834  143.5055 H   0  0  0  0  0  0  0  0  0  0  0  0  # atno 7974 bound_to 7965
  154.8014  140.2852  155.5918 H   0  0  0  0  0  0  0  0  0  0  0  0  # atno 8008 bound_to 7997
  156.2977  140.2585  156.2813 H   0  0  0  0  0  0  0  0  0  0  0  0  # atno 8009 bound_to 7997
  154.9553  140.0378  157.2153 H   0  0  0  0  0  0  0  0  0  0  0  0  # atno 8010 bound_to 7997
  140.7124  143.3356  151.2470 H   0  0  0  0  0  0  0  0  0  0  0  0  # atno 10167 bound_to 10162
  156.1126  130.4173  150.0594 H   0  0  0  0  0  0  0  0  0  0  0  0  # atno 10718 bound_to 10713
  153.6221  135.3411  155.3014 H   0  0  0  0  0  0  0  0  0  0  0  0  # atno 10763 bound_to 10752
  154.8598  135.4275  154.2196 H   0  0  0  0  0  0  0  0  0  0  0  0  # atno 10764 bound_to 10752
  153.3072  135.7029  153.7222 H   0  0  0  0  0  0  0  0  0  0  0  0  # atno 10765 bound_to 10752
  141.0385  133.9872  157.3032 H   0  0  0  0  0  0  0  0  0  0  0  0  # atno 11005 bound_to 11000
  145.3534  139.1700  143.4422 LP  0  0  0  0  0  0  0  0  0  0  0  0  # atno 17320 bound_to 7965
  146.3134  140.3589  142.8663 LP  0  0  0  0  0  0  0  0  0  0  0  0  # atno 17321 bound_to 7965
  139.6850  143.9788  152.2829 LP  0  0  0  0  0  0  0  0  0  0  0  0  # atno 17342 bound_to 10162
  139.9431  144.6669  150.8246 LP  0  0  0  0  0  0  0  0  0  0  0  0  # atno 17343 bound_to 10162
  156.8553  130.9473  151.3622 LP  0  0  0  0  0  0  0  0  0  0  0  0  # atno 17370 bound_to 10713
  157.6308  130.8728  149.9271 LP  0  0  0  0  0  0  0  0  0  0  0  0  # atno 17371 bound_to 10713
  139.9258  135.0201  156.8229 LP  0  0  0  0  0  0  0  0  0  0  0  0  # atno 17394 bound_to 11000
  140.6278  133.9934  155.7647 LP  0  0  0  0  0  0  0  0  0  0  0  0  # atno 17395 bound_to 11000

$$$$
