AV-unprocessed.smi:109|AV-procd|sdf|1035|dock1
  -GOLD-   2262018 53D 1   1.00000     0.00000
 Structure written by MMmdl.
 58 61  0  0  0  0  0  0  0  0  1 V2000
  153.3662  139.2141  158.1232 O   0  0  0  0  0  0  0  0  0  0  0  0
  152.5463  139.3207  159.2671 C   0  0  0  0  0  0  0  0  0  0  0  0
  152.1801  140.7945  159.5107 C   0  0  0  0  0  0  0  0  0  0  0  0
  151.2050  141.3927  158.4663 C   0  0  2  0  0  0  0  0  0  0  0  0
  151.5843  140.9397  157.1262 N   0  0  0  0  0  0  0  0  0  0  0  0
  150.6756  140.7518  156.1428 C   0  0  0  0  0  0  0  0  0  0  0  0
  150.9882  140.0811  155.0043 N   0  0  0  0  0  0  0  0  0  0  0  0
  150.0671  139.9168  154.0512 C   0  0  0  0  0  0  0  0  0  0  0  0
  148.8003  140.3358  154.0355 N   0  0  0  0  0  0  0  0  0  0  0  0
  148.4768  141.0155  155.1753 C   0  0  0  0  0  0  0  0  0  0  0  0
  149.3554  141.2561  156.2692 C   0  0  0  0  0  0  0  0  0  0  0  0
  148.6880  141.9533  157.2656 N   0  0  0  0  0  0  0  0  0  0  0  0
  147.4822  142.1042  156.7897 C   0  0  0  0  0  0  0  0  0  0  0  0
  147.2723  141.6044  155.5206 N   0  0  0  0  0  0  0  0  0  0  0  0
  145.9871  141.6027  154.7349 C   0  0  2  0  0  0  0  0  0  0  0  0
  145.7196  142.9004  154.3006 O   0  0  0  0  0  0  0  0  0  0  0  0
  144.9292  143.5636  155.2778 C   0  0  1  0  0  0  0  0  0  0  0  0
  144.3327  144.8684  154.7242 C   0  0  0  0  0  0  0  0  0  0  0  0
  143.9452  144.6825  153.3797 O   0  0  0  0  0  0  0  0  0  0  0  0
  143.9234  142.4646  155.6404 C   0  0  1  0  0  0  0  0  0  0  0  0
  142.8710  142.4114  154.6895 O   0  0  0  0  0  0  0  0  0  0  0  0
  144.7946  141.2051  155.6340 C   0  0  1  0  0  0  0  0  0  0  0  0
  144.1084  140.0581  155.1697 O   0  0  0  0  0  0  0  0  0  0  0  0
  151.1550  142.9485  158.4862 C   0  0  0  0  0  0  0  0  0  0  0  0
  152.5569  143.6084  158.5243 C   0  0  0  0  0  0  0  0  0  0  0  0
  152.4820  145.1437  158.5742 C   0  0  0  0  0  0  0  0  0  0  0  0
  151.6439  145.6285  159.7630 C   0  0  0  0  0  0  0  0  0  0  0  0
  150.2448  145.0029  159.7272 C   0  0  0  0  0  0  0  0  0  0  0  0
  150.3233  143.4689  159.6871 C   0  0  0  0  0  0  0  0  0  0  0  0
  146.1798  140.9281  153.8996 H   0  0  0  0  0  0  0  0  0  0  0  0
  145.5431  143.7767  156.1559 H   0  0  0  0  0  0  0  0  0  0  0  0
  143.4806  142.6392  156.6216 H   0  0  0  0  0  0  0  0  0  0  0  0
  145.1357  141.0150  156.6516 H   0  0  0  0  0  0  0  0  0  0  0  0
  153.5929  138.3050  158.0000 H   0  0  0  0  0  0  0  0  0  0  0  0
  151.6562  138.7109  159.1124 H   0  0  0  0  0  0  0  0  0  0  0  0
  153.0814  138.9110  160.1242 H   0  0  0  0  0  0  0  0  0  0  0  0
  151.7350  140.8425  160.5028 H   0  0  0  0  0  0  0  0  0  0  0  0
  153.0883  141.3974  159.5517 H   0  0  0  0  0  0  0  0  0  0  0  0
  150.2007  141.0486  158.7139 H   0  0  0  0  0  0  0  0  0  0  0  0
  152.5783  140.8815  156.9581 H   0  0  0  0  0  0  0  0  0  0  0  0
  150.3916  139.3741  153.1757 H   0  0  0  0  0  0  0  0  0  0  0  0
  146.7059  142.5936  157.3601 H   0  0  0  0  0  0  0  0  0  0  0  0
  143.4832  145.2047  155.3193 H   0  0  0  0  0  0  0  0  0  0  0  0
  145.0806  145.6617  154.7427 H   0  0  0  0  0  0  0  0  0  0  0  0
  143.6216  143.7996  153.2821 H   0  0  0  0  0  0  0  0  0  0  0  0
  143.2341  142.5798  153.8331 H   0  0  0  0  0  0  0  0  0  0  0  0
  144.0060  140.1335  154.2330 H   0  0  0  0  0  0  0  0  0  0  0  0
  150.6619  143.2785  157.5702 H   0  0  0  0  0  0  0  0  0  0  0  0
  153.1142  143.2407  159.3871 H   0  0  0  0  0  0  0  0  0  0  0  0
  153.1373  143.3427  157.6426 H   0  0  0  0  0  0  0  0  0  0  0  0
  153.4870  145.5621  158.6349 H   0  0  0  0  0  0  0  0  0  0  0  0
  152.0481  145.5170  157.6456 H   0  0  0  0  0  0  0  0  0  0  0  0
  152.1420  145.3643  160.6966 H   0  0  0  0  0  0  0  0  0  0  0  0
  151.5672  146.7161  159.7474 H   0  0  0  0  0  0  0  0  0  0  0  0
  149.6738  145.3227  160.5994 H   0  0  0  0  0  0  0  0  0  0  0  0
  149.7027  145.3641  158.8522 H   0  0  0  0  0  0  0  0  0  0  0  0
  149.3062  143.0781  159.6540 H   0  0  0  0  0  0  0  0  0  0  0  0
  150.7584  143.1045  160.6187 H   0  0  0  0  0  0  0  0  0  0  0  0
  1  2  1  0  0  0  0
  1 34  1  0  0  0  0
  2  3  1  0  0  0  0
  2 35  1  0  0  0  0
  2 36  1  0  0  0  0
  3  4  1  0  0  0  0
  3 37  1  0  0  0  0
  3 38  1  0  0  0  0
  4  5  1  0  0  0  0
  4 24  1  0  0  0  0
  4 39  1  0  0  0  0
  5  6  1  0  0  0  0
  5 40  1  0  0  0  0
  6 11  1  0  0  0  0
  6  7  2  0  0  0  0
  7  8  1  0  0  0  0
  8  9  2  0  0  0  0
  8 41  1  0  0  0  0
  9 10  1  0  0  0  0
 10 14  1  0  0  0  0
 10 11  2  0  0  0  0
 11 12  1  0  0  0  0
 12 13  2  0  0  0  0
 13 14  1  0  0  0  0
 13 42  1  0  0  0  0
 14 15  1  0  0  0  0
 15 30  1  0  0  0  0
 15 22  1  0  0  0  0
 15 16  1  0  0  0  0
 16 17  1  0  0  0  0
 17 31  1  0  0  0  0
 17 18  1  0  0  0  0
 17 20  1  0  0  0  0
 18 19  1  0  0  0  0
 18 43  1  0  0  0  0
 18 44  1  0  0  0  0
 19 45  1  0  0  0  0
 20 32  1  0  0  0  0
 20 21  1  0  0  0  0
 20 22  1  0  0  0  0
 21 46  1  0  0  0  0
 22 33  1  0  0  0  0
 22 23  1  0  0  0  0
 23 47  1  0  0  0  0
 24 29  1  0  0  0  0
 24 25  1  0  0  0  0
 24 48  1  0  0  0  0
 25 26  1  0  0  0  0
 25 49  1  0  0  0  0
 25 50  1  0  0  0  0
 26 27  1  0  0  0  0
 26 51  1  0  0  0  0
 26 52  1  0  0  0  0
 27 28  1  0  0  0  0
 27 53  1  0  0  0  0
 27 54  1  0  0  0  0
 28 29  1  0  0  0  0
 28 55  1  0  0  0  0
 28 56  1  0  0  0  0
 29 57  1  0  0  0  0
 29 58  1  0  0  0  0
M  END
> <s_m_source_file>
AV-unprocessed.smi

> <i_m_source_file_index>
109

> <i_lp_mmshare_version>
43012

> <i_f3d_flags>
0

> <s_epik_input>
W0NIMl0xW0NIMl1bQ0gyXVtDSDJdW0NIMl1bQ0hdMVtDQEhdKFtDSDJdW0NIMl1bT0hdKVtOSF1jKG5bY0hdbjIpYyhjMjMpbltjSF1uM1tDQEBIXTRPW0NASF0oW0NIMl1bT0hdKVtDQEBIXShbT0hdKVtDQEhdNFtPSF0=

> <s_epik_cmdline>
J2VwaWtfcHl0aG9uJywgJy1waCcsICc3LjAnLCAnLXRuJywgJzgnLCAnLW1hJywgJzIwMCcsICctbWV0YWxfYmluZGluZycsICctaW1hZScsICc8aW5maWxlLm1hZT4nLCAnLW9tYWUnLCAnPG91dGZpbGUubWFlPic=

> <r_lp_tautomer_probability>
1

> <r_epik_Ionization_Penalty>
0.000793976

> <r_epik_Ionization_Penalty_Charging>
0

> <r_epik_Ionization_Penalty_Neutral>
0.000793976

> <r_epik_State_Penalty>
-0

> <r_epik_Charging_Adjusted_Penalty>
0

> <i_epik_Tot_Q>
0

> <i_epik_Tot_abs_Q>
0

> <r_epik_Metal_State_Penalty>
-0

> <b_epik_Metal_Only>
0

> <s_epik_Chemistry_Notes>
This compound contains an acetal/aminal-like group ( X-CH(R)-Y where X, Y are N, S, or O) that may be acid/base labile, releasing an aldehyde.

> <s_lp_Force_Field>
OPLS_2005

> <r_lp_Energy>
57.9127

> <b_lp_Chiralities_Consistent>
1

> <s_lp_Variant>
AV-unprocessed.smi:109-5

> <Gold.Version>
5.8.1

> <Gold.Id.Protein>
6NUR|6NUR_protein|mol2

> <Gold.PLP.Fitness>
54.3653

> <Gold.PLP.PLP>
-43.3359

> <Gold.PLP.part.hbond>
-6.0302

> <Gold.PLP.part.metal>
0.0000

> <Gold.PLP.part.buried>
-3.3427

> <Gold.PLP.part.nonpolar>
-34.8787

> <Gold.PLP.part.repulsive>
1.0629

> <Gold.PLP.ligand.clash>
0.0000

> <Gold.PLP.ligand.torsion>
1.2830

> <Gold.PLP.Chemscore.Hbond>
3.6724

> <Gold.PLP.Chemscore.CHOScore>
0.8255

> <Gold.PLP.Chemscore.Metal>
0.0000

> <Gold.Chemscore.Hbonds>
donor molecule, donor type, donor heavy atom, donor atom, acceptor molecule, acceptor atom, score
      L1  H    19    45       P1 10174  0.93
      L1  H    21    46       P1 10174  0.66
      L1  H    23    47       P1 10175  1.00
      P1  H  7997  8010       L1     1  1.00
      L1  C     8    41       P1  7957  0.78

> <Gold.PLP.Chemscore.Internal.Correction>
0.1016

> <Gold.Rescore>
     Score         DG    S(hbond)    S(metal)    S(lipo)     H(rot)  DE(clash)    DE(int)     intcor
      7.78     -12.54       2.68        0.00     103.45       5.47       1.15       3.61       ----

> <Gold.Chemscore.Fitness>
7.7812

> <Gold.Chemscore.DG>
-12.5354

> <Gold.Chemscore.ZeroCoef>
-5.4800

> <Gold.Chemscore.Hbond>
2.6781

> <Gold.Chemscore.Metal>
0.0000

> <Gold.Chemscore.Lipo>
103.4534

> <Gold.Chemscore.Internal_Hbond>
0.0000

> <Gold.Chemscore.DEClash>
1.1470

> <Gold.Chemscore.DEInternal>
3.6072

> <Gold.Chemscore.Rot>
5.4662

> <Gold.Chemscore.Internal.Correction>
   9.000000E+99

> <Gold.Chemscore.Hbonds>
donor molecule, donor type, donor heavy atom, donor atom, acceptor molecule, acceptor atom, score
      L1  H    19    45       P1 10174  0.79
      L1  H    21    46       P1 10174  0.13
      L1  H    23    47       P1 10175  1.00
      P1  H  7997  8010       L1     1  0.30

> <Gold.Chemscore.Hbond.Weighted>
-8.9449

> <Gold.Chemscore.Metal.Weighted>
-0.0000

> <Gold.Chemscore.Lipo.Weighted>
-12.1040

> <Gold.Chemscore.Internal_Hbond.Weighted>
0.0000

> <Gold.Chemscore.DEClash.Weighted>
1.1470

> <Gold.Chemscore.DEInternal.Weighted>
3.6072

> <Gold.Chemscore.Rot.Weighted>
13.9935

> <Gold.Chemscore.Internal.Correction.Weighted>
   9.000000E+99

> <Gold.Protein.RotatedTorsions>
[ 6907 6896 6895 6894 ] final  120.03 input  -60.11 | X-H torsion
[ 7974 7965 7964 7962 ] final   99.66 input  175.53 | X-H torsion
[ 8008 7997 7996 7995 ] final   50.21 input   59.86 | X-H torsion
[ 10167 10162 10161 10158 ] final  134.40 input  -65.29 | X-H torsion
[ 10718 10713 10712 10709 ] final   78.86 input   66.30 | X-H torsion
[ 10763 10752 10751 10750 ] final  -25.81 input  -60.55 | X-H torsion
[ 11005 11000 10999 10996 ] final  -42.73 input  -57.11 | X-H torsion

> <Gold.Protein.ActiveResidues>
 VAL166  LYS551  ARG553  GLY616  TRP617  ASP618  TYR619  PRO620  LYS621  CYS622 
 ASP623  PHE694  ASN695  SER759  ASP760  ASP761  ALA762  ILE779  LEU786  VAL792 
 PHE793  MET794  SER795  GLU796  ALA797  LYS798  CYS799  TRP800  GLU811  SER814 

> <Gold.Protein.RotatedAtoms>
  152.4428  133.7480  159.6677 H   0  0  0  0  0  0  0  0  0  0  0  0  # atno 6907 bound_to 6896
  150.8322  133.8062  159.3100 H   0  0  0  0  0  0  0  0  0  0  0  0  # atno 6908 bound_to 6896
  151.5712  135.1065  160.0047 H   0  0  0  0  0  0  0  0  0  0  0  0  # atno 6909 bound_to 6896
  145.3959  139.2355  143.3326 H   0  0  0  0  0  0  0  0  0  0  0  0  # atno 7974 bound_to 7965
  155.4150  140.3444  155.4266 H   0  0  0  0  0  0  0  0  0  0  0  0  # atno 8008 bound_to 7997
  156.1426  140.1546  156.8928 H   0  0  0  0  0  0  0  0  0  0  0  0  # atno 8009 bound_to 7997
  154.4984  140.0821  156.7726 H   0  0  0  0  0  0  0  0  0  0  0  0  # atno 8010 bound_to 7997
  139.5258  144.6569  151.5134 H   0  0  0  0  0  0  0  0  0  0  0  0  # atno 10167 bound_to 10162
  157.6759  130.9888  150.1849 H   0  0  0  0  0  0  0  0  0  0  0  0  # atno 10718 bound_to 10713
  153.7059  135.6953  153.5050 H   0  0  0  0  0  0  0  0  0  0  0  0  # atno 10763 bound_to 10752
  153.2308  135.4338  155.0592 H   0  0  0  0  0  0  0  0  0  0  0  0  # atno 10764 bound_to 10752
  154.8330  135.3484  154.6597 H   0  0  0  0  0  0  0  0  0  0  0  0  # atno 10765 bound_to 10752
  141.0336  133.6809  156.2635 H   0  0  0  0  0  0  0  0  0  0  0  0  # atno 11005 bound_to 11000
  146.2775  140.4650  142.8789 LP  0  0  0  0  0  0  0  0  0  0  0  0  # atno 17320 bound_to 7965
  144.8407  140.6853  143.6231 LP  0  0  0  0  0  0  0  0  0  0  0  0  # atno 17321 bound_to 7965
  140.6399  143.8910  150.6682 LP  0  0  0  0  0  0  0  0  0  0  0  0  # atno 17342 bound_to 10162
  140.2241  143.3786  152.1619 LP  0  0  0  0  0  0  0  0  0  0  0  0  # atno 17343 bound_to 10162
  156.2573  130.3707  149.8168 LP  0  0  0  0  0  0  0  0  0  0  0  0  # atno 17370 bound_to 10713
  156.5923  130.8511  151.3411 LP  0  0  0  0  0  0  0  0  0  0  0  0  # atno 17371 bound_to 10713
  140.6363  134.5212  157.5565 LP  0  0  0  0  0  0  0  0  0  0  0  0  # atno 17394 bound_to 11000
  139.9225  134.8121  156.1169 LP  0  0  0  0  0  0  0  0  0  0  0  0  # atno 17395 bound_to 11000

$$$$
