#       Name:                AV-unprocessed.smi:431
#       Creating user name   scv26
#       Creation time:       Thu Mar 26 22:51:11 2020


#       File generated by GOLD software.
#

@<TRIPOS>MOLECULE
AV-unprocessed.smi:431
    49    50     1
SMALL
NO_CHARGES


@<TRIPOS>ATOM
      1 ****        -3.4685  -0.7669  -0.8453 C.3            1 S1                 0.0000
      2 ****        -3.5298  -2.1307  -1.5520 C.3            1 S1                 0.0000
      3 ****        -2.6213  -2.2455  -2.7966 C.3            1 S1                 0.0000
      4 ****        -2.8469  -3.5836  -3.5207 C.3            1 S1                 0.0000
      5 ****        -1.1366  -2.0827  -2.4383 C.2            1 S1                 0.0000
      6 ****        -0.5961  -2.8685  -1.6593 O.2            1 S1                 0.0000
      7 ****        -0.4936  -1.0490  -3.0036 N.am           1 S1                 0.0000
      8 ****         0.8996  -0.6954  -2.7526 C.3            1 S1                 0.0000
      9 ****         1.1282   0.0145  -1.4259 C.ar           1 S1                 0.0000
     10 ****         0.1850   0.9159  -0.8904 C.ar           1 S1                 0.0000
     11 ****         0.4573   1.5388   0.3422 C.ar           1 S1                 0.0000
     12 ****         1.6703   1.2474   1.0110 C.ar           1 S1                 0.0000
     13 ****         1.9626   1.8546   2.2524 N.3            1 S1                 0.0000
     14 ****         0.9214   1.7476   3.2719 C.3            1 S1                 0.0000
     15 ****         1.2222   2.6933   4.4475 C.3            1 S1                 0.0000
     16 ****         2.5244   2.4293   4.9587 O.3            1 S1                 0.0000
     17 ****         3.5321   2.6518   3.9780 C.3            1 S1                 0.0000
     18 ****         3.3147   1.7024   2.7877 C.3            1 S1                 0.0000
     19 ****         2.5816   0.3929   0.4832 N.ar           1 S1                 0.0000
     20 ****         2.3146  -0.2030  -0.6980 C.ar           1 S1                 0.0000
     21 ****        -4.1888  -0.7240  -0.0285 H              1 S1                 0.0000
     22 ****        -3.7003   0.0451  -1.5347 H              1 S1                 0.0000
     23 ****        -2.4831  -0.5766  -0.4199 H              1 S1                 0.0000
     24 ****        -3.2868  -2.9181  -0.8369 H              1 S1                 0.0000
     25 ****        -4.5622  -2.3128  -1.8527 H              1 S1                 0.0000
     26 ****        -2.8969  -1.4480  -3.4890 H              1 S1                 0.0000
     27 ****        -2.1988  -3.6785  -4.3930 H              1 S1                 0.0000
     28 ****        -3.8761  -3.6684  -3.8703 H              1 S1                 0.0000
     29 ****        -2.6505  -4.4332  -2.8653 H              1 S1                 0.0000
     30 ****        -1.0106  -0.4549  -3.6354 H              1 S1                 0.0000
     31 ****         1.5224  -1.5900  -2.8095 H              1 S1                 0.0000
     32 ****         1.2329  -0.0363  -3.5542 H              1 S1                 0.0000
     33 ****        -0.7350   1.1338  -1.4125 H              1 S1                 0.0000
     34 ****        -0.2568   2.2389   0.7487 H              1 S1                 0.0000
     35 ****        -0.0633   1.9849   2.8724 H              1 S1                 0.0000
     36 ****         0.8801   0.7161   3.6246 H              1 S1                 0.0000
     37 ****         1.1464   3.7366   4.1359 H              1 S1                 0.0000
     38 ****         0.4918   2.5456   5.2432 H              1 S1                 0.0000
     39 ****         3.5162   3.6936   3.6531 H              1 S1                 0.0000
     40 ****         4.5095   2.4735   4.4265 H              1 S1                 0.0000
     41 ****         3.4639   0.6688   3.1031 H              1 S1                 0.0000
     42 ****         4.0540   1.9187   2.0154 H              1 S1                 0.0000
     43 ****         3.0724  -0.8769  -1.0699 H              1 S1                 0.0000
     44 ****        -1.1241  -3.6165  -1.2571 LP             1 S1                 0.0000
     45 ****         0.3707  -2.7587  -1.4289 LP             1 S1                 0.0000
     46 ****         1.9544   2.8111   1.9609 LP             1 S1                 0.0000
     47 ****         2.5679   1.4758   5.2571 LP             1 S1                 0.0000
     48 ****         2.6938   3.0309   5.7393 LP             1 S1                 0.0000
     49 ****         3.4393   0.2069   0.9624 LP             1 S1                 0.0000
@<TRIPOS>BOND
    1    1    2 1     
    2    1   21 1     
    3    1   22 1     
    4    1   23 1     
    5    2    3 1     
    6    2   24 1     
    7    2   25 1     
    8    3    4 1     
    9    3    5 1     
   10    3   26 1     
   11    4   27 1     
   12    4   28 1     
   13    4   29 1     
   14    5    6 2     
   15    5    7 am    
   16    7    8 1     
   17    7   30 1     
   18    8    9 1     
   19    8   31 1     
   20    8   32 1     
   21    9   20 ar    
   22    9   10 ar    
   23   10   11 ar    
   24   10   33 1     
   25   11   12 ar    
   26   11   34 1     
   27   12   13 1     
   28   12   19 ar    
   29   13   18 1     
   30   13   14 1     
   31   14   15 1     
   32   14   35 1     
   33   14   36 1     
   34   15   16 1     
   35   15   37 1     
   36   15   38 1     
   37   16   17 1     
   38   17   18 1     
   39   17   39 1     
   40   17   40 1     
   41   18   41 1     
   42   18   42 1     
   43   19   20 ar    
   44   20   43 1     
   45    6   44 1     
   46    6   45 1     
   47   13   46 1     
   48   16   47 1     
   49   16   48 1     
   50   19   49 1     
@<TRIPOS>SUBSTRUCTURE
      1 S1             1
@<TRIPOS>SET
LONE_PAIRS      STATIC     ATOMS    <user>   **** ""
6 44 45 46 47 48 49
DONOR_HYDROGENS      STATIC     ATOMS    <user>   **** ""
1 30
ATOM$BLUE        STATIC     ATOMS    COLORGROUP SYSTEM
6 44 45 46 47 48 49
ATOM$RED        STATIC     ATOMS    COLORGROUP SYSTEM
1 30
