#       Name:                AV-unprocessed.smi:434
#       Creating user name   scv26
#       Creation time:       Thu Mar 26 22:52:15 2020


#       File generated by GOLD software.
#

@<TRIPOS>MOLECULE
AV-unprocessed.smi:434
    46    48     1
SMALL
NO_CHARGES


@<TRIPOS>ATOM
      1 ****        -1.8595   1.1888  -2.8409 C.3            1 S1                 0.0000
      2 ****        -2.3998   1.4355  -1.4725 C.2            1 S1                 0.0000
      3 ****        -3.7165   1.5423  -1.1376 N.pl3          1 S1                 1.0000
      4 ****        -3.8377   1.7728   0.2335 C.ar           1 S1                 0.0000
      5 ****        -4.9644   1.9477   1.0312 C.ar           1 S1                 0.0000
      6 ****        -4.7390   2.1615   2.4069 C.ar           1 S1                 0.0000
      7 ****        -3.4345   2.1932   2.9405 C.ar           1 S1                 0.0000
      8 ****        -2.2998   2.0159   2.1217 C.ar           1 S1                 0.0000
      9 ****        -2.5304   1.8079   0.7617 C.ar           1 S1                 0.0000
     10 ****        -1.6762   1.5983  -0.3284 N.pl3          1 S1                 0.0000
     11 ****        -0.2186   1.5775  -0.1232 C.3            1 S1                 0.0000
     12 ****         0.3404   0.1517   0.0537 C.3            1 S1                 0.0000
     13 ****        -0.2488  -0.4443   1.1924 O.3            1 S1                 0.0000
     14 ****         1.8650   0.1503   0.2434 C.3            1 S1                 0.0000
     15 ****         2.3631  -1.1362  -0.0823 O.3            1 S1                 0.0000
     16 ****         3.7644  -1.2443   0.0974 C.3            1 S1                 0.0000
     17 ****         4.1369  -2.6316  -0.3013 C.2            1 S1                 0.0000
     18 ****         4.5278  -3.7394   0.3986 C.2            1 S1                 0.0000
     19 ****         4.7420  -4.7659  -0.5626 C.2            1 S1                 0.0000
     20 ****         4.4676  -4.2064  -1.7781 C.2            1 S1                 0.0000
     21 ****         4.0968  -2.9046  -1.6363 O.3            1 S1                 0.0000
     22 ****        -2.6700   0.9970  -3.5445 H              1 S1                 0.0000
     23 ****        -1.1953   0.3247  -2.8352 H              1 S1                 0.0000
     24 ****        -1.2986   2.0576  -3.1855 H              1 S1                 0.0000
     25 ****        -5.9649   1.9214   0.6248 H              1 S1                 0.0000
     26 ****        -5.5833   2.3022   3.0663 H              1 S1                 0.0000
     27 ****        -3.3007   2.3558   4.0002 H              1 S1                 0.0000
     28 ****        -1.3060   2.0357   2.5435 H              1 S1                 0.0000
     29 ****         0.2340   2.0471  -0.9973 H              1 S1                 0.0000
     30 ****         0.0377   2.2124   0.7251 H              1 S1                 0.0000
     31 ****         0.0823  -0.4404  -0.8252 H              1 S1                 0.0000
     32 ****         0.0934  -1.3213   1.2786 H              1 S1                 0.0000
     33 ****         2.3229   0.8741  -0.4329 H              1 S1                 0.0000
     34 ****         2.1368   0.4406   1.2601 H              1 S1                 0.0000
     35 ****         4.2920  -0.5177  -0.5222 H              1 S1                 0.0000
     36 ****         4.0346  -1.0620   1.1385 H              1 S1                 0.0000
     37 ****         4.6428  -3.8029   1.4706 H              1 S1                 0.0000
     38 ****         5.0568  -5.7841  -0.3875 H              1 S1                 0.0000
     39 ****         4.4841  -4.5736  -2.7938 H              1 S1                 0.0000
     40 ****        -4.4763   1.4617  -1.8010 H              1 S1                 0.0000
     41 ****        -1.2420  -0.4782   1.0807 LP             1 S1                 0.0000
     42 ****        -0.0231   0.0885   2.0080 LP             1 S1                 0.0000
     43 ****         2.1479  -1.3291  -1.0396 LP             1 S1                 0.0000
     44 ****         1.9130  -1.8106   0.5029 LP             1 S1                 0.0000
     45 ****         4.7312  -2.3094  -2.1294 LP             1 S1                 0.0000
     46 ****         3.1707  -2.7692  -1.9885 LP             1 S1                 0.0000
@<TRIPOS>BOND
    1    1    2 1     
    2    1   22 1     
    3    1   23 1     
    4    1   24 1     
    5    2   10 1     
    6    2    3 2     
    7    3    4 1     
    8    3   40 1     
    9    4    9 ar    
   10    4    5 ar    
   11    5    6 ar    
   12    5   25 1     
   13    6    7 ar    
   14    6   26 1     
   15    7    8 ar    
   16    7   27 1     
   17    8    9 ar    
   18    8   28 1     
   19    9   10 1     
   20   10   11 1     
   21   11   12 1     
   22   11   29 1     
   23   11   30 1     
   24   12   13 1     
   25   12   14 1     
   26   12   31 1     
   27   13   32 1     
   28   14   15 1     
   29   14   33 1     
   30   14   34 1     
   31   15   16 1     
   32   16   17 1     
   33   16   35 1     
   34   16   36 1     
   35   17   21 1     
   36   17   18 2     
   37   18   19 1     
   38   18   37 1     
   39   19   20 2     
   40   19   38 1     
   41   20   21 1     
   42   20   39 1     
   43   13   41 1     
   44   13   42 1     
   45   15   43 1     
   46   15   44 1     
   47   21   45 1     
   48   21   46 1     
@<TRIPOS>SUBSTRUCTURE
      1 S1             1
@<TRIPOS>SET
LONE_PAIRS      STATIC     ATOMS    <user>   **** ""
6 41 42 43 44 45 46
DONOR_HYDROGENS      STATIC     ATOMS    <user>   **** ""
2 40 32
ATOM$BLUE        STATIC     ATOMS    COLORGROUP SYSTEM
6 41 42 43 44 45 46
ATOM$RED        STATIC     ATOMS    COLORGROUP SYSTEM
2 40 32
