#       Name:                AV-unprocessed.smi:1887
#       Creating user name   scv26
#       Creation time:       Fri Mar 27 09:39:07 2020


#       File generated by GOLD software.
#

@<TRIPOS>MOLECULE
AV-unprocessed.smi:1887
    52    54     1
SMALL
NO_CHARGES


@<TRIPOS>ATOM
      1 ****        -2.3284   2.4269   1.5795 C.3            1 S1                 0.0000
      2 ****        -1.8794   1.2452   0.9420 O.3            1 S1                 0.0000
      3 ****        -2.3222   0.0681   1.5967 C.3            1 S1                 0.0000
      4 ****        -1.7572  -1.1640   0.8767 C.3            1 S1                 0.0000
      5 ****        -0.2963  -1.1869   0.8907 N.pl3          1 S1                 0.0000
      6 ****         0.5556  -0.7474  -0.0714 C.2            1 S1                 0.0000
      7 ****         0.0845  -0.1725  -1.2702 N.pl3          1 S1                 0.0000
      8 ****        -0.4869  -0.9492  -2.2139 N.2            1 S1                 0.0000
      9 ****        -0.7994  -0.1186  -3.1939 C.2            1 S1                 0.0000
     10 ****        -1.4807  -0.6615  -4.4169 C.3            1 S1                 0.0000
     11 ****        -0.4185   1.2257  -2.9099 C.2            1 S1                 0.0000
     12 ****        -0.6079   2.4351  -3.7840 C.3            1 S1                 0.0000
     13 ****         0.1523   1.1504  -1.6678 C.2            1 S1                 0.0000
     14 ****         0.7605   2.2194  -0.8153 C.3            1 S1                 0.0000
     15 ****         1.8514  -0.8722   0.2215 N.2            1 S1                 0.0000
     16 ****         1.8225  -1.4476   1.4838 C.2            1 S1                 0.0000
     17 ****         0.5448  -1.6399   1.9106 C.2            1 S1                 0.0000
     18 ****         0.1927  -2.2129   3.2277 C.2            1 S1                 0.0000
     19 ****        -0.9811  -2.3546   3.5647 O.2            1 S1                 0.0000
     20 ****         1.3032  -2.5325   3.9651 N.pl3          1 S1                -1.0000
     21 ****         2.6134  -2.3565   3.5741 C.2            1 S1                 0.0000
     22 ****         3.5564  -2.6657   4.3037 O.2            1 S1                 0.0000
     23 ****         2.8915  -1.8219   2.3431 N.am           1 S1                 0.0000
     24 ****         4.2748  -1.6215   1.9021 C.3            1 S1                 0.0000
     25 ****        -1.9636   3.2966   1.0333 H              1 S1                 0.0000
     26 ****        -1.9529   2.4893   2.6016 H              1 S1                 0.0000
     27 ****        -3.4178   2.4743   1.6013 H              1 S1                 0.0000
     28 ****        -2.0001   0.0749   2.6389 H              1 S1                 0.0000
     29 ****        -3.4123   0.0304   1.5932 H              1 S1                 0.0000
     30 ****        -2.1322  -2.0797   1.3319 H              1 S1                 0.0000
     31 ****        -2.1181  -1.1857  -0.1502 H              1 S1                 0.0000
     32 ****        -1.4542   0.0527  -5.2397 H              1 S1                 0.0000
     33 ****        -2.5263  -0.8905  -4.2110 H              1 S1                 0.0000
     34 ****        -1.0004  -1.5775  -4.7621 H              1 S1                 0.0000
     35 ****         0.0094   3.2746  -3.4641 H              1 S1                 0.0000
     36 ****        -1.6432   2.7758  -3.7755 H              1 S1                 0.0000
     37 ****        -0.3449   2.2286  -4.8213 H              1 S1                 0.0000
     38 ****         0.3023   3.1874  -1.0164 H              1 S1                 0.0000
     39 ****         1.8294   2.3035  -1.0106 H              1 S1                 0.0000
     40 ****         0.6289   2.0100   0.2463 H              1 S1                 0.0000
     41 ****         4.8315  -2.5588   1.9431 H              1 S1                 0.0000
     42 ****         4.7766  -0.8977   2.5455 H              1 S1                 0.0000
     43 ****         4.3408  -1.2524   0.8787 H              1 S1                 0.0000
     44 ****        -0.8794   1.2480   0.9305 LP             1 S1                 0.0000
     45 ****        -2.2234   1.2377   0.0030 LP             1 S1                 0.0000
     46 ****        -0.6404  -1.9368  -2.1797 LP             1 S1                 0.0000
     47 ****         2.6447  -0.6154  -0.3305 LP             1 S1                 0.0000
     48 ****        -1.7159  -2.0806   2.9443 LP             1 S1                 0.0000
     49 ****        -1.2010  -2.7439   4.4592 LP             1 S1                 0.0000
     50 ****         1.1488  -2.9298   4.8697 LP             1 S1                 0.0000
     51 ****         3.3821  -3.0564   5.2075 LP             1 S1                 0.0000
     52 ****         4.4964  -2.5261   3.9921 LP             1 S1                 0.0000
@<TRIPOS>BOND
    1    1    2 1     
    2    1   25 1     
    3    1   26 1     
    4    1   27 1     
    5    2    3 1     
    6    3    4 1     
    7    3   28 1     
    8    3   29 1     
    9    4    5 1     
   10    4   30 1     
   11    4   31 1     
   12    5   17 1     
   13    5    6 1     
   14    6    7 1     
   15    6   15 2     
   16    7   13 1     
   17    7    8 1     
   18    8    9 2     
   19    9   10 1     
   20    9   11 1     
   21   10   32 1     
   22   10   33 1     
   23   10   34 1     
   24   11   12 1     
   25   11   13 2     
   26   12   35 1     
   27   12   36 1     
   28   12   37 1     
   29   13   14 1     
   30   14   38 1     
   31   14   39 1     
   32   14   40 1     
   33   15   16 1     
   34   16   23 1     
   35   16   17 2     
   36   17   18 1     
   37   18   19 2     
   38   18   20 1     
   39   20   21 1     
   40   21   22 2     
   41   21   23 am    
   42   23   24 1     
   43   24   41 1     
   44   24   42 1     
   45   24   43 1     
   46    2   44 1     
   47    2   45 1     
   48    8   46 1     
   49   15   47 1     
   50   19   48 1     
   51   19   49 1     
   52   20   50 1     
   53   22   51 1     
   54   22   52 1     
@<TRIPOS>SUBSTRUCTURE
      1 S1             1
@<TRIPOS>SET
LONE_PAIRS      STATIC     ATOMS    <user>   **** ""
9 44 45 46 47 48 49 50 51 52
ATOM$BLUE        STATIC     ATOMS    COLORGROUP SYSTEM
9 44 45 46 47 48 49 50 51 52
