AV-unprocessed.smi:2954|AV-procd|sdf|11297|dock6
  -GOLD-   2272016193D 1   1.00000     0.00000
 Structure written by MMmdl.
 42 44  0  0  0  0  0  0  0  0  1 V2000
  153.1585  138.3439  158.0168 C   0  0  0  0  0  0  0  0  0  0  0  0
  152.1313  139.3155  157.4063 C   0  0  2  0  0  0  0  0  0  0  0  0
  152.3430  139.5727  155.9799 N   0  0  0  0  0  0  0  0  0  0  0  0
  152.3962  138.6598  154.9992 C   0  0  0  0  0  0  0  0  0  0  0  0
  152.2634  137.4548  155.1975 O   0  0  0  0  0  0  0  0  0  0  0  0
  152.0408  140.6240  158.1564 C   0  0  0  0  0  0  0  0  0  0  0  0
  152.7861  140.8743  159.2365 N   0  0  0  0  0  0  0  0  0  0  0  0
  152.3833  142.1407  159.6073 C   0  0  0  0  0  0  0  0  0  0  0  0
  152.7960  142.9567  160.6847 C   0  0  0  0  0  0  0  0  0  0  0  0
  152.2261  144.2329  160.8722 C   0  0  0  0  0  0  0  0  0  0  0  0
  151.2384  144.7100  159.9866 C   0  0  0  0  0  0  0  0  0  0  0  0
  150.8162  143.9136  158.9049 C   0  0  0  0  0  0  0  0  0  0  0  0
  151.3892  142.6404  158.7213 C   0  0  0  0  0  0  0  0  0  0  0  0
  151.2013  141.6273  157.7850 N   0  0  0  0  0  0  0  0  0  0  0  0
  150.2680  141.6701  156.6668 C   0  0  0  0  0  0  0  0  0  0  0  0
  149.0921  140.7042  156.8690 C   0  0  0  0  0  0  0  0  0  0  0  0
  147.9345  141.4627  157.1911 O   0  0  0  0  0  0  0  0  0  0  0  0
  147.1904  142.0036  156.1652 C   0  0  0  0  0  0  0  0  0  0  0  0
  147.4529  141.7722  154.7911 C   0  0  0  0  0  0  0  0  0  0  0  0
  146.6439  142.3628  153.8010 C   0  0  0  0  0  0  0  0  0  0  0  0
  145.5671  143.1901  154.1688 C   0  0  0  0  0  0  0  0  0  0  0  0
  145.2999  143.4272  155.5296 C   0  0  0  0  0  0  0  0  0  0  0  0
  146.1070  142.8371  156.5220 C   0  0  0  0  0  0  0  0  0  0  0  0
  145.7552  143.1366  158.1870 Cl  0  0  0  0  0  0  0  0  0  0  0  0
  152.8920  138.0992  159.0455 H   0  0  0  0  0  0  0  0  0  0  0  0
  154.1639  138.7658  158.0335 H   0  0  0  0  0  0  0  0  0  0  0  0
  153.1972  137.4095  157.4563 H   0  0  0  0  0  0  0  0  0  0  0  0
  151.1732  138.8035  157.4545 H   0  0  0  0  0  0  0  0  0  0  0  0
  152.4566  140.5399  155.7139 H   0  0  0  0  0  0  0  0  0  0  0  0
  152.5664  139.1186  154.0135 H   0  0  0  0  0  0  0  0  0  0  0  0
  153.5498  142.5984  161.3700 H   0  0  0  0  0  0  0  0  0  0  0  0
  152.5470  144.8475  161.7004 H   0  0  0  0  0  0  0  0  0  0  0  0
  150.8040  145.6873  160.1388 H   0  0  0  0  0  0  0  0  0  0  0  0
  150.0558  144.2759  158.2293 H   0  0  0  0  0  0  0  0  0  0  0  0
  149.8908  142.6884  156.5686 H   0  0  0  0  0  0  0  0  0  0  0  0
  150.7973  141.4614  155.7375 H   0  0  0  0  0  0  0  0  0  0  0  0
  148.9270  140.1278  155.9576 H   0  0  0  0  0  0  0  0  0  0  0  0
  149.3228  140.0057  157.6746 H   0  0  0  0  0  0  0  0  0  0  0  0
  148.2715  141.1463  154.4700 H   0  0  0  0  0  0  0  0  0  0  0  0
  146.8509  142.1804  152.7570 H   0  0  0  0  0  0  0  0  0  0  0  0
  144.9472  143.6423  153.4087 H   0  0  0  0  0  0  0  0  0  0  0  0
  144.4732  144.0623  155.8124 H   0  0  0  0  0  0  0  0  0  0  0  0
  1  2  1  0  0  0  0
  1 25  1  0  0  0  0
  1 26  1  0  0  0  0
  1 27  1  0  0  0  0
  2  3  1  0  0  0  0
  2  6  1  0  0  0  0
  2 28  1  0  0  0  0
  3  4  1  0  0  0  0
  3 29  1  0  0  0  0
  4  5  2  0  0  0  0
  4 30  1  0  0  0  0
  6 14  1  0  0  0  0
  6  7  2  0  0  0  0
  7  8  1  0  0  0  0
  8 13  2  0  0  0  0
  8  9  1  0  0  0  0
  9 10  2  0  0  0  0
  9 31  1  0  0  0  0
 10 11  1  0  0  0  0
 10 32  1  0  0  0  0
 11 12  2  0  0  0  0
 11 33  1  0  0  0  0
 12 13  1  0  0  0  0
 12 34  1  0  0  0  0
 13 14  1  0  0  0  0
 14 15  1  0  0  0  0
 15 16  1  0  0  0  0
 15 35  1  0  0  0  0
 15 36  1  0  0  0  0
 16 17  1  0  0  0  0
 16 37  1  0  0  0  0
 16 38  1  0  0  0  0
 17 18  1  0  0  0  0
 18 23  1  0  0  0  0
 18 19  2  0  0  0  0
 19 20  1  0  0  0  0
 19 39  1  0  0  0  0
 20 21  2  0  0  0  0
 20 40  1  0  0  0  0
 21 22  1  0  0  0  0
 21 41  1  0  0  0  0
 22 23  2  0  0  0  0
 22 42  1  0  0  0  0
 23 24  1  0  0  0  0
M  END
> <s_m_source_file>
AV-unprocessed.smi

> <i_m_source_file_index>
2954

> <i_lp_mmshare_version>
43012

> <i_f3d_flags>
0

> <s_epik_input>
Tz1bQ0hdW05IXVtDQEBIXShbQ0gzXSljKG4xKW4oYyhjMTIpW2NIXVtjSF1bY0hdW2NIXTIpW0NIMl1bQ0gyXU9jM1tjSF1bY0hdW2NIXVtjSF1jM0Ns

> <s_epik_cmdline>
J2VwaWtfcHl0aG9uJywgJy1waCcsICc3LjAnLCAnLXRuJywgJzgnLCAnLW1hJywgJzIwMCcsICctbWV0YWxfYmluZGluZycsICctaW1hZScsICc8aW5maWxlLm1hZT4nLCAnLW9tYWUnLCAnPG91dGZpbGUubWFlPic=

> <r_lp_tautomer_probability>
1

> <r_epik_Ionization_Penalty>
0.0861383

> <r_epik_Ionization_Penalty_Charging>
0

> <r_epik_Ionization_Penalty_Neutral>
0.0861383

> <r_epik_State_Penalty>
0.0766841

> <r_epik_Charging_Adjusted_Penalty>
0.0766841

> <i_epik_Tot_Q>
0

> <i_epik_Tot_abs_Q>
0

> <r_epik_Metal_State_Penalty>
0.0668745

> <b_epik_Metal_Only>
0

> <s_lp_Force_Field>
OPLS_2005

> <r_lp_Energy>
13.8103

> <b_lp_Chiralities_Consistent>
1

> <s_lp_Variant>
AV-unprocessed.smi:2954-1

> <Gold.Version>
5.8.1

> <Gold.Id.Protein>
6NUR|6NUR_protein|mol2

> <Gold.PLP.Fitness>
48.2085

> <Gold.PLP.PLP>
-47.3594

> <Gold.PLP.part.hbond>
-1.0000

> <Gold.PLP.part.metal>
0.0000

> <Gold.PLP.part.buried>
-8.9129

> <Gold.PLP.part.nonpolar>
-38.4229

> <Gold.PLP.part.repulsive>
0.5196

> <Gold.PLP.ligand.clash>
0.0000

> <Gold.PLP.ligand.torsion>
0.6446

> <Gold.PLP.Chemscore.Hbond>
0.6786

> <Gold.PLP.Chemscore.CHOScore>
0.0000

> <Gold.PLP.Chemscore.Metal>
0.0000

> <Gold.Chemscore.Hbonds>
donor molecule, donor type, donor heavy atom, donor atom, acceptor molecule, acceptor atom, score
      P1  H 10752 10763       L1     5  0.68

> <Gold.PLP.Chemscore.Internal.Correction>
0.1026

> <Gold.Rescore>
     Score         DG    S(hbond)    S(metal)    S(lipo)     H(rot)  DE(clash)    DE(int)     intcor
     14.56     -16.38       0.86        0.00     118.60       2.28       0.10       1.71       ----

> <Gold.Chemscore.Fitness>
14.5607

> <Gold.Chemscore.DG>
-16.3778

> <Gold.Chemscore.ZeroCoef>
-5.4800

> <Gold.Chemscore.Hbond>
0.8596

> <Gold.Chemscore.Metal>
0.0000

> <Gold.Chemscore.Lipo>
118.5990

> <Gold.Chemscore.Internal_Hbond>
0.0000

> <Gold.Chemscore.DEClash>
0.1049

> <Gold.Chemscore.DEInternal>
1.7122

> <Gold.Chemscore.Rot>
2.2849

> <Gold.Chemscore.Internal.Correction>
   9.000000E+99

> <Gold.Chemscore.Hbonds>
donor molecule, donor type, donor heavy atom, donor atom, acceptor molecule, acceptor atom, score
      P1  H 10752 10763       L1     5  0.65

> <Gold.Chemscore.Hbond.Weighted>
-2.8712

> <Gold.Chemscore.Metal.Weighted>
-0.0000

> <Gold.Chemscore.Lipo.Weighted>
-13.8761

> <Gold.Chemscore.Internal_Hbond.Weighted>
0.0000

> <Gold.Chemscore.DEClash.Weighted>
0.1049

> <Gold.Chemscore.DEInternal.Weighted>
1.7122

> <Gold.Chemscore.Rot.Weighted>
5.8495

> <Gold.Chemscore.Internal.Correction.Weighted>
   9.000000E+99

> <Gold.Protein.RotatedTorsions>
[ 6907 6896 6895 6894 ] final  -44.76 input  -60.11 | X-H torsion
[ 7974 7965 7964 7962 ] final  156.09 input  175.53 | X-H torsion
[ 8008 7997 7996 7995 ] final -166.90 input   59.86 | X-H torsion
[ 10167 10162 10161 10158 ] final  121.83 input  -65.29 | X-H torsion
[ 10718 10713 10712 10709 ] final   69.40 input   66.30 | X-H torsion
[ 10763 10752 10751 10750 ] final   62.47 input  -60.55 | X-H torsion
[ 11005 11000 10999 10996 ] final  -44.58 input  -57.11 | X-H torsion

> <Gold.Protein.ActiveResidues>
 VAL166  LYS551  ARG553  GLY616  TRP617  ASP618  TYR619  PRO620  LYS621  CYS622 
 ASP623  PHE694  ASN695  SER759  ASP760  ASP761  ALA762  ILE779  LEU786  VAL792 
 PHE793  MET794  SER795  GLU796  ALA797  LYS798  CYS799  TRP800  GLU811  SER814 

> <Gold.Protein.RotatedAtoms>
  150.9293  134.8709  159.7540 H   0  0  0  0  0  0  0  0  0  0  0  0  # atno 6907 bound_to 6896
  152.5030  134.4102  159.9456 H   0  0  0  0  0  0  0  0  0  0  0  0  # atno 6908 bound_to 6896
  151.4130  133.3682  159.2781 H   0  0  0  0  0  0  0  0  0  0  0  0  # atno 6909 bound_to 6896
  144.7984  139.7156  143.6192 H   0  0  0  0  0  0  0  0  0  0  0  0  # atno 7974 bound_to 7965
  155.8703  140.0992  157.1555 H   0  0  0  0  0  0  0  0  0  0  0  0  # atno 8008 bound_to 7997
  154.3996  140.1348  156.4132 H   0  0  0  0  0  0  0  0  0  0  0  0  # atno 8009 bound_to 7997
  155.7758  140.3459  155.5273 H   0  0  0  0  0  0  0  0  0  0  0  0  # atno 8010 bound_to 7997
  139.5895  144.7020  151.3324 H   0  0  0  0  0  0  0  0  0  0  0  0  # atno 10167 bound_to 10162
  157.6344  130.9424  150.0509 H   0  0  0  0  0  0  0  0  0  0  0  0  # atno 10718 bound_to 10713
  152.9984  135.5464  154.6199 H   0  0  0  0  0  0  0  0  0  0  0  0  # atno 10763 bound_to 10752
  154.5500  135.2826  155.1019 H   0  0  0  0  0  0  0  0  0  0  0  0  # atno 10764 bound_to 10752
  154.2262  135.6442  153.5213 H   0  0  0  0  0  0  0  0  0  0  0  0  # atno 10765 bound_to 10752
  141.0460  133.6761  156.2893 H   0  0  0  0  0  0  0  0  0  0  0  0  # atno 11005 bound_to 11000
  146.2259  139.5722  142.9587 LP  0  0  0  0  0  0  0  0  0  0  0  0  # atno 17320 bound_to 7965
  145.5614  141.0404  143.2224 LP  0  0  0  0  0  0  0  0  0  0  0  0  # atno 17321 bound_to 7965
  140.7161  143.7262  150.7658 LP  0  0  0  0  0  0  0  0  0  0  0  0  # atno 17342 bound_to 10162
  140.0815  143.4964  152.2528 LP  0  0  0  0  0  0  0  0  0  0  0  0  # atno 17343 bound_to 10162
  156.1571  130.3643  149.9353 LP  0  0  0  0  0  0  0  0  0  0  0  0  # atno 17370 bound_to 10713
  156.7360  130.9061  151.3629 LP  0  0  0  0  0  0  0  0  0  0  0  0  # atno 17371 bound_to 10713
  140.6146  134.5423  157.5539 LP  0  0  0  0  0  0  0  0  0  0  0  0  # atno 17394 bound_to 11000
  139.9312  134.7960  156.0926 LP  0  0  0  0  0  0  0  0  0  0  0  0  # atno 17395 bound_to 11000

$$$$
