AV-unprocessed.smi:2439|AV-procd|sdf|9605|dock6
  -GOLD-   2272013233D 1   1.00000     0.00000
 Structure written by MMmdl.
 41 43  0  0  0  0  0  0  0  0  2 V2000
  150.8094  137.1584  154.3528 N   0  0  0  0  0  0  0  0  0  0  0  0
  150.1164  138.0759  154.2239 C   0  0  0  0  0  0  0  0  0  0  0  0
  149.2432  139.2318  154.0606 C   0  0  0  0  0  0  0  0  0  0  0  0
  149.6700  140.4840  154.5508 C   0  0  0  0  0  0  0  0  0  0  0  0
  148.8325  141.6033  154.3944 C   0  0  0  0  0  0  0  0  0  0  0  0
  147.5945  141.4242  153.7514 C   0  0  0  0  0  0  0  0  0  0  0  0
  147.1742  140.2324  153.2778 N   0  0  0  0  0  0  0  0  0  0  0  0
  147.9754  139.1484  153.4240 C   0  0  0  0  0  0  0  0  0  0  0  0
  147.5098  137.9184  152.9219 N   0  0  0  0  0  0  0  0  0  0  0  0
  146.1457  137.7459  152.4356 C   0  0  0  0  0  0  0  0  0  0  0  0
  145.7826  136.2676  152.2124 C   0  0  2  0  0  0  0  0  0  0  0  0
  145.9480  135.8645  150.7306 C   0  0  0  0  0  0  0  0  0  0  0  0
  145.4822  134.4777  150.4862 N   0  3  1  0  0  0  0  0  0  0  0  0
  146.4478  133.4398  150.9401 C   0  0  0  0  0  0  0  0  0  0  0  0
  145.9502  132.0278  150.5993 C   0  0  0  0  0  0  0  0  0  0  0  0
  144.5689  131.7785  151.2149 C   0  0  0  0  0  0  0  0  0  0  0  0
  143.5839  132.8546  150.7383 C   0  0  0  0  0  0  0  0  0  0  0  0
  144.0976  134.2866  151.0004 C   0  0  1  0  0  0  0  0  0  0  0  0
  143.9981  134.7278  152.4757 C   0  0  0  0  0  0  0  0  0  0  0  0
  144.4209  136.0819  152.5888 O   0  0  0  0  0  0  0  0  0  0  0  0
  150.6270  140.5907  155.0414 H   0  0  0  0  0  0  0  0  0  0  0  0
  149.1315  142.5747  154.7597 H   0  0  0  0  0  0  0  0  0  0  0  0
  146.9238  142.2592  153.6126 H   0  0  0  0  0  0  0  0  0  0  0  0
  148.1586  137.1518  152.8114 H   0  0  0  0  0  0  0  0  0  0  0  0
  145.4621  138.1913  153.1588 H   0  0  0  0  0  0  0  0  0  0  0  0
  146.0178  138.3121  151.5123 H   0  0  0  0  0  0  0  0  0  0  0  0
  146.4206  135.6413  152.8368 H   0  0  0  0  0  0  0  0  0  0  0  0
  145.3615  136.5366  150.1024 H   0  0  0  0  0  0  0  0  0  0  0  0
  146.9858  135.9730  150.4130 H   0  0  0  0  0  0  0  0  0  0  0  0
  147.4114  133.6097  150.4587 H   0  0  0  0  0  0  0  0  0  0  0  0
  146.6184  133.5154  152.0141 H   0  0  0  0  0  0  0  0  0  0  0  0
  145.9005  131.9051  149.5163 H   0  0  0  0  0  0  0  0  0  0  0  0
  146.6599  131.2844  150.9631 H   0  0  0  0  0  0  0  0  0  0  0  0
  144.2064  130.7887  150.9347 H   0  0  0  0  0  0  0  0  0  0  0  0
  144.6385  131.7871  152.3031 H   0  0  0  0  0  0  0  0  0  0  0  0
  143.4202  132.7284  149.6671 H   0  0  0  0  0  0  0  0  0  0  0  0
  142.6115  132.7089  151.2105 H   0  0  0  0  0  0  0  0  0  0  0  0
  143.4560  134.9597  150.4290 H   0  0  0  0  0  0  0  0  0  0  0  0
  142.9654  134.6596  152.8184 H   0  0  0  0  0  0  0  0  0  0  0  0
  144.5907  134.0917  153.1343 H   0  0  0  0  0  0  0  0  0  0  0  0
  145.4286  134.3692  149.4833 H   0  0  0  0  0  0  0  0  0  0  0  0
  1  2  3  0  0  0  0
  2  3  1  0  0  0  0
  3  8  1  0  0  0  0
  3  4  2  0  0  0  0
  4  5  1  0  0  0  0
  4 21  1  0  0  0  0
  5  6  2  0  0  0  0
  5 22  1  0  0  0  0
  6  7  1  0  0  0  0
  6 23  1  0  0  0  0
  7  8  2  0  0  0  0
  8  9  1  0  0  0  0
  9 10  1  0  0  0  0
  9 24  1  0  0  0  0
 10 11  1  0  0  0  0
 10 25  1  0  0  0  0
 10 26  1  0  0  0  0
 11 20  1  0  0  0  0
 11 12  1  0  0  0  0
 11 27  1  0  0  0  0
 12 13  1  0  0  0  0
 12 28  1  0  0  0  0
 12 29  1  0  0  0  0
 13 18  1  0  0  0  0
 13 14  1  0  0  0  0
 13 41  1  0  0  0  0
 14 15  1  0  0  0  0
 14 30  1  0  0  0  0
 14 31  1  0  0  0  0
 15 16  1  0  0  0  0
 15 32  1  0  0  0  0
 15 33  1  0  0  0  0
 16 17  1  0  0  0  0
 16 34  1  0  0  0  0
 16 35  1  0  0  0  0
 17 18  1  0  0  0  0
 17 36  1  0  0  0  0
 17 37  1  0  0  0  0
 18 19  1  0  0  0  0
 18 38  1  0  0  0  0
 19 20  1  0  0  0  0
 19 39  1  0  0  0  0
 19 40  1  0  0  0  0
M  CHG  1  13   1
M  END
> <s_m_source_file>
AV-unprocessed.smi

> <i_m_source_file_index>
2439

> <i_lp_mmshare_version>
43012

> <i_f3d_flags>
0

> <s_epik_input>
TiNDYzFbY0hdW2NIXVtjSF1uYzFbTkhdW0NIMl1bQ0BIXShbQ0gyXTIpT1tDSDJdW0NAQEhdKE4yMylbQ0gyXVtDSDJdW0NIMl1bQ0gyXTM=

> <s_epik_cmdline>
J2VwaWtfcHl0aG9uJywgJy1waCcsICc3LjAnLCAnLXRuJywgJzgnLCAnLW1hJywgJzIwMCcsICctbWV0YWxfYmluZGluZycsICctaW1hZScsICc8aW5maWxlLm1hZT4nLCAnLW9tYWUnLCAnPG91dGZpbGUubWFlPic=

> <r_epik_Ionization_Penalty>
0.0803594

> <r_epik_Ionization_Penalty_Charging>
0.0803403

> <r_epik_Ionization_Penalty_Neutral>
1.90988e-05

> <r_epik_State_Penalty>
0.0711481

> <r_epik_Charging_Adjusted_Penalty>
0.151488

> <i_epik_Tot_Q>
1

> <i_epik_Tot_abs_Q>
1

> <r_epik_Metal_State_Penalty>
0.0711482

> <b_epik_Metal_Only>
0

> <s_lp_Force_Field>
OPLS_2005

> <r_lp_Energy>
31.3603

> <b_lp_Chiralities_Consistent>
1

> <s_lp_Variant>
AV-unprocessed.smi:2439-3

> <Gold.Version>
5.8.1

> <Gold.Id.Protein>
6NUR|6NUR_protein|mol2

> <Gold.PLP.Fitness>
42.5429

> <Gold.PLP.PLP>
-37.7513

> <Gold.PLP.part.hbond>
-2.0000

> <Gold.PLP.part.metal>
0.0000

> <Gold.PLP.part.buried>
-3.7453

> <Gold.PLP.part.nonpolar>
-33.4906

> <Gold.PLP.part.repulsive>
0.6312

> <Gold.PLP.ligand.clash>
0.0000

> <Gold.PLP.ligand.torsion>
0.5923

> <Gold.PLP.Chemscore.Hbond>
1.9920

> <Gold.PLP.Chemscore.CHOScore>
0.0000

> <Gold.PLP.Chemscore.Metal>
0.0000

> <Gold.Chemscore.Hbonds>
donor molecule, donor type, donor heavy atom, donor atom, acceptor molecule, acceptor atom, score
      L1  H     9    24       P1  7948  0.96
      L1  H    13    41       P1  7921  0.99

> <Gold.PLP.Chemscore.Internal.Correction>
0.0003

> <Gold.Rescore>
     Score         DG    S(hbond)    S(metal)    S(lipo)     H(rot)  DE(clash)    DE(int)     intcor
     18.69     -19.59       1.95        0.00      92.63       1.27       0.27       0.63       ----

> <Gold.Chemscore.Fitness>
18.6906

> <Gold.Chemscore.DG>
-19.5878

> <Gold.Chemscore.ZeroCoef>
-5.4800

> <Gold.Chemscore.Hbond>
1.9495

> <Gold.Chemscore.Metal>
0.0000

> <Gold.Chemscore.Lipo>
92.6273

> <Gold.Chemscore.Internal_Hbond>
0.0000

> <Gold.Chemscore.DEClash>
0.2671

> <Gold.Chemscore.DEInternal>
0.6302

> <Gold.Chemscore.Rot>
1.2659

> <Gold.Chemscore.Internal.Correction>
   9.000000E+99

> <Gold.Chemscore.Hbonds>
donor molecule, donor type, donor heavy atom, donor atom, acceptor molecule, acceptor atom, score
      L1  H     9    24       P1  7948  0.86
      L1  H    13    41       P1  7921  0.82

> <Gold.Chemscore.Hbond.Weighted>
-6.5112

> <Gold.Chemscore.Metal.Weighted>
-0.0000

> <Gold.Chemscore.Lipo.Weighted>
-10.8374

> <Gold.Chemscore.Internal_Hbond.Weighted>
0.0000

> <Gold.Chemscore.DEClash.Weighted>
0.2671

> <Gold.Chemscore.DEInternal.Weighted>
0.6302

> <Gold.Chemscore.Rot.Weighted>
3.2408

> <Gold.Chemscore.Internal.Correction.Weighted>
   9.000000E+99

> <Gold.Protein.RotatedTorsions>
[ 6907 6896 6895 6894 ] final  167.87 input  -60.11 | X-H torsion
[ 7974 7965 7964 7962 ] final -105.26 input  175.53 | X-H torsion
[ 8008 7997 7996 7995 ] final  -38.23 input   59.86 | X-H torsion
[ 10167 10162 10161 10158 ] final  152.70 input  -65.29 | X-H torsion
[ 10718 10713 10712 10709 ] final  -82.11 input   66.30 | X-H torsion
[ 10763 10752 10751 10750 ] final  -12.38 input  -60.55 | X-H torsion
[ 11005 11000 10999 10996 ] final  174.94 input  -57.11 | X-H torsion

> <Gold.Protein.ActiveResidues>
 VAL166  LYS551  ARG553  GLY616  TRP617  ASP618  TYR619  PRO620  LYS621  CYS622 
 ASP623  PHE694  ASN695  SER759  ASP760  ASP761  ALA762  ILE779  LEU786  VAL792 
 PHE793  MET794  SER795  GLU796  ALA797  LYS798  CYS799  TRP800  GLU811  SER814 

> <Gold.Protein.RotatedAtoms>
  151.8566  133.3449  159.3689 H   0  0  0  0  0  0  0  0  0  0  0  0  # atno 6907 bound_to 6896
  150.7191  134.5247  159.5680 H   0  0  0  0  0  0  0  0  0  0  0  0  # atno 6908 bound_to 6896
  152.2752  134.7890  160.0458 H   0  0  0  0  0  0  0  0  0  0  0  0  # atno 6909 bound_to 6896
  145.2327  140.9176  143.3195 H   0  0  0  0  0  0  0  0  0  0  0  0  # atno 7974 bound_to 7965
  154.4040  140.1583  156.2666 H   0  0  0  0  0  0  0  0  0  0  0  0  # atno 8008 bound_to 7997
  155.8990  140.3434  155.5990 H   0  0  0  0  0  0  0  0  0  0  0  0  # atno 8009 bound_to 7997
  155.7470  140.0800  157.2210 H   0  0  0  0  0  0  0  0  0  0  0  0  # atno 8010 bound_to 7997
  139.4831  144.5336  151.7682 H   0  0  0  0  0  0  0  0  0  0  0  0  # atno 10167 bound_to 10162
  156.0038  130.4624  150.4055 H   0  0  0  0  0  0  0  0  0  0  0  0  # atno 10718 bound_to 10713
  153.4976  135.7017  153.5849 H   0  0  0  0  0  0  0  0  0  0  0  0  # atno 10763 bound_to 10752
  153.3995  135.3875  155.1978 H   0  0  0  0  0  0  0  0  0  0  0  0  # atno 10764 bound_to 10752
  154.8713  135.3878  154.4443 H   0  0  0  0  0  0  0  0  0  0  0  0  # atno 10765 bound_to 10752
  140.3567  134.7148  157.4304 H   0  0  0  0  0  0  0  0  0  0  0  0  # atno 11005 bound_to 11000
  144.9661  139.3928  143.6332 LP  0  0  0  0  0  0  0  0  0  0  0  0  # atno 17320 bound_to 7965
  146.3349  139.8737  142.8835 LP  0  0  0  0  0  0  0  0  0  0  0  0  # atno 17321 bound_to 7965
  140.4865  144.1373  150.5942 LP  0  0  0  0  0  0  0  0  0  0  0  0  # atno 17342 bound_to 10162
  140.4219  143.2608  151.9705 LP  0  0  0  0  0  0  0  0  0  0  0  0  # atno 17343 bound_to 10162
  157.2121  131.0463  151.2593 LP  0  0  0  0  0  0  0  0  0  0  0  0  # atno 17370 bound_to 10713
  157.3879  130.7266  149.6676 LP  0  0  0  0  0  0  0  0  0  0  0  0  # atno 17371 bound_to 10713
  140.0659  134.5930  155.8696 LP  0  0  0  0  0  0  0  0  0  0  0  0  # atno 17394 bound_to 11000
  141.1996  133.6608  156.5853 LP  0  0  0  0  0  0  0  0  0  0  0  0  # atno 17395 bound_to 11000

$$$$
