AV-unprocessed.smi:1047|AV-procd|sdf|4571|dock10
  -GOLD-   22720 3 23D 1   1.00000     0.00000
 Structure written by MMmdl.
 56 58  0  0  0  0  0  0  0  0  2 V2000
  147.7021  133.1655  151.3231 C   0  0  0  0  0  0  0  0  0  0  0  0
  146.3004  133.7575  151.1162 C   0  0  0  0  0  0  0  0  0  0  0  0
  145.9044  134.7637  152.1003 N   0  0  0  0  0  0  0  0  0  0  0  0
  144.4623  134.9819  152.0729 C   0  0  0  0  0  0  0  0  0  0  0  0
  144.0225  136.0395  153.0989 C   0  0  0  0  0  0  0  0  0  0  0  0
  144.7290  137.2528  152.8615 O   0  0  0  0  0  0  0  0  0  0  0  0
  146.1441  137.0966  152.9368 C   0  0  2  0  0  0  0  0  0  0  0  0
  146.7932  138.4625  152.6766 C   0  0  0  0  0  0  0  0  0  0  0  0
  148.2516  138.4070  152.8961 N   0  3  0  0  0  0  0  0  0  0  0  0
  148.6484  138.4563  154.3169 C   0  0  0  0  0  0  0  0  0  0  0  0
  148.4141  139.8558  154.9155 C   0  0  1  0  0  0  0  0  0  0  0  0
  148.2045  139.7243  156.3085 O   0  0  0  0  0  0  0  0  0  0  0  0
  149.5800  140.8380  154.6683 C   0  0  0  0  0  0  0  0  0  0  0  0
  150.7088  140.6377  155.5631 N   0  0  0  0  0  0  0  0  0  0  0  0
  151.7189  139.7596  155.4091 C   0  0  0  0  0  0  0  0  0  0  0  0
  152.6633  139.7468  156.3446 N   0  0  0  0  0  0  0  0  0  0  0  0
  152.2068  140.7207  157.2156 C   0  0  0  0  0  0  0  0  0  0  0  0
  152.7577  141.2006  158.4238 C   0  0  0  0  0  0  0  0  0  0  0  0
  152.1114  142.2177  159.1615 C   0  0  0  0  0  0  0  0  0  0  0  0
  152.7406  142.7046  160.4551 C   0  0  0  0  0  0  0  0  0  0  0  0
  150.8922  142.7698  158.6930 C   0  0  0  0  0  0  0  0  0  0  0  0
  150.1775  143.8598  159.4724 C   0  0  0  0  0  0  0  0  0  0  0  0
  150.3284  142.3029  157.4873 C   0  0  0  0  0  0  0  0  0  0  0  0
  150.9832  141.2930  156.7597 C   0  0  0  0  0  0  0  0  0  0  0  0
  146.5813  136.0426  151.8995 C   0  0  0  0  0  0  0  0  0  0  0  0
  147.8797  132.3492  150.6230 H   0  0  0  0  0  0  0  0  0  0  0  0
  147.8154  132.7660  152.3312 H   0  0  0  0  0  0  0  0  0  0  0  0
  148.4860  133.9048  151.1611 H   0  0  0  0  0  0  0  0  0  0  0  0
  146.2246  134.1714  150.1096 H   0  0  0  0  0  0  0  0  0  0  0  0
  145.5892  132.9312  151.1540 H   0  0  0  0  0  0  0  0  0  0  0  0
  144.1549  135.2993  151.0750 H   0  0  0  0  0  0  0  0  0  0  0  0
  143.9414  134.0455  152.2761 H   0  0  0  0  0  0  0  0  0  0  0  0
  142.9520  136.2275  153.0152 H   0  0  0  0  0  0  0  0  0  0  0  0
  144.2092  135.6931  154.1168 H   0  0  0  0  0  0  0  0  0  0  0  0
  146.4174  136.7526  153.9363 H   0  0  0  0  0  0  0  0  0  0  0  0
  146.6076  138.7681  151.6459 H   0  0  0  0  0  0  0  0  0  0  0  0
  146.3508  139.2222  153.3228 H   0  0  0  0  0  0  0  0  0  0  0  0
  148.6034  137.5505  152.4923 H   0  0  0  0  0  0  0  0  0  0  0  0
  148.0993  137.6964  154.8753 H   0  0  0  0  0  0  0  0  0  0  0  0
  149.7070  138.2020  154.3842 H   0  0  0  0  0  0  0  0  0  0  0  0
  147.5101  140.2849  154.4811 H   0  0  0  0  0  0  0  0  0  0  0  0
  147.3297  140.0195  156.5117 H   0  0  0  0  0  0  0  0  0  0  0  0
  149.9354  140.7410  153.6418 H   0  0  0  0  0  0  0  0  0  0  0  0
  149.2347  141.8675  154.7739 H   0  0  0  0  0  0  0  0  0  0  0  0
  151.7681  139.0981  154.5562 H   0  0  0  0  0  0  0  0  0  0  0  0
  153.6853  140.7783  158.7817 H   0  0  0  0  0  0  0  0  0  0  0  0
  152.0552  142.5641  161.2912 H   0  0  0  0  0  0  0  0  0  0  0  0
  152.9878  143.7642  160.3836 H   0  0  0  0  0  0  0  0  0  0  0  0
  153.6589  142.1618  160.6807 H   0  0  0  0  0  0  0  0  0  0  0  0
  149.2826  144.2012  158.9512 H   0  0  0  0  0  0  0  0  0  0  0  0
  150.8303  144.7213  159.6142 H   0  0  0  0  0  0  0  0  0  0  0  0
  149.8742  143.4900  160.4519 H   0  0  0  0  0  0  0  0  0  0  0  0
  149.3994  142.7151  157.1223 H   0  0  0  0  0  0  0  0  0  0  0  0
  147.6607  135.9111  151.9700 H   0  0  0  0  0  0  0  0  0  0  0  0
  146.3770  136.4134  150.8938 H   0  0  0  0  0  0  0  0  0  0  0  0
  148.6814  139.1870  152.4192 H   0  0  0  0  0  0  0  0  0  0  0  0
  1  2  1  0  0  0  0
  1 26  1  0  0  0  0
  1 27  1  0  0  0  0
  1 28  1  0  0  0  0
  2  3  1  0  0  0  0
  2 29  1  0  0  0  0
  2 30  1  0  0  0  0
  3 25  1  0  0  0  0
  3  4  1  0  0  0  0
  4  5  1  0  0  0  0
  4 31  1  0  0  0  0
  4 32  1  0  0  0  0
  5  6  1  0  0  0  0
  5 33  1  0  0  0  0
  5 34  1  0  0  0  0
  6  7  1  0  0  0  0
  7  8  1  0  0  0  0
  7 25  1  0  0  0  0
  7 35  1  0  0  0  0
  8  9  1  0  0  0  0
  8 36  1  0  0  0  0
  8 37  1  0  0  0  0
  9 10  1  0  0  0  0
  9 38  1  0  0  0  0
  9 56  1  0  0  0  0
 10 11  1  0  0  0  0
 10 39  1  0  0  0  0
 10 40  1  0  0  0  0
 11 12  1  0  0  0  0
 11 13  1  0  0  0  0
 11 41  1  0  0  0  0
 12 42  1  0  0  0  0
 13 14  1  0  0  0  0
 13 43  1  0  0  0  0
 13 44  1  0  0  0  0
 14 24  1  0  0  0  0
 14 15  1  0  0  0  0
 15 16  2  0  0  0  0
 15 45  1  0  0  0  0
 16 17  1  0  0  0  0
 17 24  2  0  0  0  0
 17 18  1  0  0  0  0
 18 19  2  0  0  0  0
 18 46  1  0  0  0  0
 19 20  1  0  0  0  0
 19 21  1  0  0  0  0
 20 47  1  0  0  0  0
 20 48  1  0  0  0  0
 20 49  1  0  0  0  0
 21 22  1  0  0  0  0
 21 23  2  0  0  0  0
 22 50  1  0  0  0  0
 22 51  1  0  0  0  0
 22 52  1  0  0  0  0
 23 24  1  0  0  0  0
 23 53  1  0  0  0  0
 25 54  1  0  0  0  0
 25 55  1  0  0  0  0
M  CHG  1   9   1
M  END
> <s_m_source_file>
AV-unprocessed.smi

> <i_m_source_file_index>
1047

> <i_lp_mmshare_version>
43012

> <i_f3d_flags>
0

> <s_epik_input>
W0NIM11bQ0gyXU4xW0NIMl1bQ0gyXU9bQ0BIXShbQ0gyXTEpW0NIMl1bTkhdW0NIMl1bQ0BIXShbT0hdKVtDSDJdbihbY0hdbjIpYyhjMjMpW2NIXWMoW0NIM10pYyhbY0hdMylbQ0gzXQ==

> <s_epik_cmdline>
J2VwaWtfcHl0aG9uJywgJy1waCcsICc3LjAnLCAnLXRuJywgJzgnLCAnLW1hJywgJzIwMCcsICctbWV0YWxfYmluZGluZycsICctaW1hZScsICc8aW5maWxlLm1hZT4nLCAnLW9tYWUnLCAnPG91dGZpbGUubWFlPic=

> <r_epik_Ionization_Penalty>
0.692425

> <r_epik_Ionization_Penalty_Charging>
0.0243549

> <r_epik_Ionization_Penalty_Neutral>
0.66807

> <r_epik_State_Penalty>
0.592789

> <r_epik_Charging_Adjusted_Penalty>
0.617144

> <i_epik_Tot_Q>
1

> <i_epik_Tot_abs_Q>
1

> <r_epik_Metal_State_Penalty>
0.508021

> <b_epik_Metal_Only>
0

> <s_lp_Force_Field>
OPLS_2005

> <r_lp_Energy>
28.1656

> <b_lp_Chiralities_Consistent>
1

> <s_lp_Variant>
AV-unprocessed.smi:1047-12

> <Gold.Version>
5.8.1

> <Gold.Id.Protein>
6NUR|6NUR_protein|mol2

> <Gold.PLP.Fitness>
51.3699

> <Gold.PLP.PLP>
-41.2331

> <Gold.PLP.part.hbond>
-3.0000

> <Gold.PLP.part.metal>
0.0000

> <Gold.PLP.part.buried>
-2.8866

> <Gold.PLP.part.nonpolar>
-37.6322

> <Gold.PLP.part.repulsive>
1.9766

> <Gold.PLP.ligand.clash>
0.0000

> <Gold.PLP.ligand.torsion>
1.0462

> <Gold.PLP.Chemscore.Hbond>
4.0000

> <Gold.PLP.Chemscore.CHOScore>
0.0000

> <Gold.PLP.Chemscore.Metal>
0.0000

> <Gold.Chemscore.Hbonds>
donor molecule, donor type, donor heavy atom, donor atom, acceptor molecule, acceptor atom, score
      L1  H     9    38       P1  7948  1.76
      L1  H     9    56       P1  7957  1.00
      P1  H  7997  8009       L1    16  1.00

> <Gold.PLP.Chemscore.Internal.Correction>
0.2292

> <Gold.Rescore>
     Score         DG    S(hbond)    S(metal)    S(lipo)     H(rot)  DE(clash)    DE(int)     intcor
     17.18     -20.29       2.56        0.00     110.43       2.60       2.05       1.06       ----

> <Gold.Chemscore.Fitness>
17.1814

> <Gold.Chemscore.DG>
-20.2898

> <Gold.Chemscore.ZeroCoef>
-5.4800

> <Gold.Chemscore.Hbond>
2.5623

> <Gold.Chemscore.Metal>
0.0000

> <Gold.Chemscore.Lipo>
110.4289

> <Gold.Chemscore.Internal_Hbond>
0.0000

> <Gold.Chemscore.DEClash>
2.0513

> <Gold.Chemscore.DEInternal>
1.0571

> <Gold.Chemscore.Rot>
2.6049

> <Gold.Chemscore.Internal.Correction>
   9.000000E+99

> <Gold.Chemscore.Hbonds>
donor molecule, donor type, donor heavy atom, donor atom, acceptor molecule, acceptor atom, score
      L1  H     9    38       P1  7948  0.86
      L1  H     9    56       P1  7957  0.99
      P1  H  7997  8009       L1    16  0.39

> <Gold.Chemscore.Hbond.Weighted>
-8.5581

> <Gold.Chemscore.Metal.Weighted>
-0.0000

> <Gold.Chemscore.Lipo.Weighted>
-12.9202

> <Gold.Chemscore.Internal_Hbond.Weighted>
0.0000

> <Gold.Chemscore.DEClash.Weighted>
2.0513

> <Gold.Chemscore.DEInternal.Weighted>
1.0571

> <Gold.Chemscore.Rot.Weighted>
6.6685

> <Gold.Chemscore.Internal.Correction.Weighted>
   9.000000E+99

> <Gold.Protein.RotatedTorsions>
[ 6907 6896 6895 6894 ] final -141.93 input  -60.11 | X-H torsion
[ 7974 7965 7964 7962 ] final -120.19 input  175.53 | X-H torsion
[ 8008 7997 7996 7995 ] final -151.34 input   59.86 | X-H torsion
[ 10167 10162 10161 10158 ] final  -50.16 input  -65.29 | X-H torsion
[ 10718 10713 10712 10709 ] final   63.55 input   66.30 | X-H torsion
[ 10763 10752 10751 10750 ] final -123.58 input  -60.55 | X-H torsion
[ 11005 11000 10999 10996 ] final   78.45 input  -57.11 | X-H torsion

> <Gold.Protein.ActiveResidues>
 VAL166  LYS551  ARG553  GLY616  TRP617  ASP618  TYR619  PRO620  LYS621  CYS622 
 ASP623  PHE694  ASN695  SER759  ASP760  ASP761  ALA762  ILE779  LEU786  VAL792 
 PHE793  MET794  SER795  GLU796  ALA797  LYS798  CYS799  TRP800  GLU811  SER814 

> <Gold.Protein.RotatedAtoms>
  151.0803  133.5395  159.2620 H   0  0  0  0  0  0  0  0  0  0  0  0  # atno 6907 bound_to 6896
  151.2301  135.0550  159.8994 H   0  0  0  0  0  0  0  0  0  0  0  0  # atno 6908 bound_to 6896
  152.5423  134.0593  159.8199 H   0  0  0  0  0  0  0  0  0  0  0  0  # atno 6909 bound_to 6896
  145.0541  140.8241  143.4192 H   0  0  0  0  0  0  0  0  0  0  0  0  # atno 7974 bound_to 7965
  155.6379  140.0698  157.2628 H   0  0  0  0  0  0  0  0  0  0  0  0  # atno 8008 bound_to 7997
  154.4190  140.1755  156.1591 H   0  0  0  0  0  0  0  0  0  0  0  0  # atno 8009 bound_to 7997
  155.9879  140.3348  155.6728 H   0  0  0  0  0  0  0  0  0  0  0  0  # atno 8010 bound_to 7997
  140.6651  143.2669  151.4319 H   0  0  0  0  0  0  0  0  0  0  0  0  # atno 10167 bound_to 10162
  157.5979  130.9111  149.9730 H   0  0  0  0  0  0  0  0  0  0  0  0  # atno 10718 bound_to 10713
  154.8710  135.4093  154.2967 H   0  0  0  0  0  0  0  0  0  0  0  0  # atno 10763 bound_to 10752
  153.3834  135.7012  153.6554 H   0  0  0  0  0  0  0  0  0  0  0  0  # atno 10764 bound_to 10752
  153.5367  135.3656  155.2671 H   0  0  0  0  0  0  0  0  0  0  0  0  # atno 10765 bound_to 10752
  139.9212  134.7764  156.1651 H   0  0  0  0  0  0  0  0  0  0  0  0  # atno 11005 bound_to 11000
  145.1490  139.2526  143.5450 LP  0  0  0  0  0  0  0  0  0  0  0  0  # atno 17320 bound_to 7965
  146.3520  140.1188  142.8601 LP  0  0  0  0  0  0  0  0  0  0  0  0  # atno 17321 bound_to 7965
  139.5897  144.1526  152.2073 LP  0  0  0  0  0  0  0  0  0  0  0  0  # atno 17342 bound_to 10162
  140.0877  144.5647  150.7077 LP  0  0  0  0  0  0  0  0  0  0  0  0  # atno 17343 bound_to 10162
  156.1045  130.3653  150.0158 LP  0  0  0  0  0  0  0  0  0  0  0  0  # atno 17370 bound_to 10713
  156.8268  130.9378  151.3639 LP  0  0  0  0  0  0  0  0  0  0  0  0  # atno 17371 bound_to 10713
  141.0734  133.6786  156.2187 LP  0  0  0  0  0  0  0  0  0  0  0  0  # atno 17394 bound_to 11000
  140.6468  134.5108  157.5574 LP  0  0  0  0  0  0  0  0  0  0  0  0  # atno 17395 bound_to 11000

$$$$
