#       Name:                AV-unprocessed.smi:3136
#       Creating user name   scv26
#       Creation time:       Fri Mar 27 17:34:26 2020


#       File generated by GOLD software.
#

@<TRIPOS>MOLECULE
AV-unprocessed.smi:3136
    43    43     1
SMALL
NO_CHARGES


@<TRIPOS>ATOM
      1 ****        -5.2669   2.8123   1.0494 C.3            1 S1                 0.0000
      2 ****        -4.8908   2.6636  -0.4312 C.3            1 S1                 0.0000
      3 ****        -3.4780   2.3409  -0.5972 N.am           1 S1                 0.0000
      4 ****        -2.9437   1.1176  -0.4615 C.2            1 S1                 0.0000
      5 ****        -3.6072   0.1193  -0.1789 O.2            1 S1                 0.0000
      6 ****        -1.4298   1.0214  -0.6789 C.3            1 S1                 0.0000
      7 ****        -0.8881  -0.4164  -0.5991 C.3            1 S1                 0.0000
      8 ****         0.5705  -0.4449  -0.8317 N.4            1 S1                 1.0000
      9 ****         1.2015  -1.7808  -0.7188 C.3            1 S1                 0.0000
     10 ****         2.0956  -2.0208  -1.9468 C.3            1 S1                 0.0000
     11 ****         1.9766  -1.9499   0.6173 C.3            1 S1                 0.0000
     12 ****         1.0897  -1.8313   1.8707 C.3            1 S1                 0.0000
     13 ****         3.1538  -1.0918   0.7103 N.pl3          1 S1                 0.0000
     14 ****         4.4816  -1.4569   0.6163 C.2            1 S1                 0.0000
     15 ****         5.2295  -0.3228   0.7511 C.2            1 S1                 0.0000
     16 ****         4.2598   0.7032   0.9227 C.2            1 S1                 0.0000
     17 ****         3.0200   0.2420   0.8936 N.2            1 S1                 0.0000
     18 ****        -6.3115   3.1061   1.1557 H              1 S1                 0.0000
     19 ****        -4.6565   3.5731   1.5374 H              1 S1                 0.0000
     20 ****        -5.1317   1.8753   1.5905 H              1 S1                 0.0000
     21 ****        -5.5128   1.9037  -0.9076 H              1 S1                 0.0000
     22 ****        -5.0885   3.5988  -0.9556 H              1 S1                 0.0000
     23 ****        -2.8620   3.1062  -0.8315 H              1 S1                 0.0000
     24 ****        -1.1931   1.4507  -1.6537 H              1 S1                 0.0000
     25 ****        -0.9353   1.6436   0.0684 H              1 S1                 0.0000
     26 ****        -1.1095  -0.8470   0.3778 H              1 S1                 0.0000
     27 ****        -1.3746  -1.0444  -1.3472 H              1 S1                 0.0000
     28 ****         0.7377  -0.0995  -1.7659 H              1 S1                 0.0000
     29 ****         0.4179  -2.5397  -0.7505 H              1 S1                 0.0000
     30 ****         2.5719  -3.0004  -1.8995 H              1 S1                 0.0000
     31 ****         2.8836  -1.2714  -2.0291 H              1 S1                 0.0000
     32 ****         1.5117  -1.9853  -2.8671 H              1 S1                 0.0000
     33 ****         2.3529  -2.9742   0.6210 H              1 S1                 0.0000
     34 ****         0.2472  -2.5215   1.8217 H              1 S1                 0.0000
     35 ****         0.6894  -0.8251   1.9957 H              1 S1                 0.0000
     36 ****         1.6562  -2.0706   2.7711 H              1 S1                 0.0000
     37 ****         4.7818  -2.4831   0.4626 H              1 S1                 0.0000
     38 ****         6.3061  -0.2387   0.7304 H              1 S1                 0.0000
     39 ****         4.4194   1.7619   1.0648 H              1 S1                 0.0000
     40 ****         1.0264   0.1759  -0.1771 H              1 S1                 0.0000
     41 ****        -4.5942   0.1982  -0.0387 LP             1 S1                 0.0000
     42 ****        -3.1590  -0.7701  -0.0896 LP             1 S1                 0.0000
     43 ****         2.1719   0.7637   0.9865 LP             1 S1                 0.0000
@<TRIPOS>BOND
    1    1    2 1     
    2    1   18 1     
    3    1   19 1     
    4    1   20 1     
    5    2    3 1     
    6    2   21 1     
    7    2   22 1     
    8    3    4 am    
    9    3   23 1     
   10    4    5 2     
   11    4    6 1     
   12    6    7 1     
   13    6   24 1     
   14    6   25 1     
   15    7    8 1     
   16    7   26 1     
   17    7   27 1     
   18    8    9 1     
   19    8   28 1     
   20    8   40 1     
   21    9   10 1     
   22    9   11 1     
   23    9   29 1     
   24   10   30 1     
   25   10   31 1     
   26   10   32 1     
   27   11   12 1     
   28   11   13 1     
   29   11   33 1     
   30   12   34 1     
   31   12   35 1     
   32   12   36 1     
   33   13   17 1     
   34   13   14 1     
   35   14   15 2     
   36   14   37 1     
   37   15   16 1     
   38   15   38 1     
   39   16   17 2     
   40   16   39 1     
   41    5   41 1     
   42    5   42 1     
   43   17   43 1     
@<TRIPOS>SUBSTRUCTURE
      1 S1             1
@<TRIPOS>SET
LONE_PAIRS      STATIC     ATOMS    <user>   **** ""
3 41 42 43
DONOR_HYDROGENS      STATIC     ATOMS    <user>   **** ""
3 23 28 40
ATOM$BLUE        STATIC     ATOMS    COLORGROUP SYSTEM
3 41 42 43
ATOM$RED        STATIC     ATOMS    COLORGROUP SYSTEM
3 23 28 40
