AV-unprocessed.smi:17|AV-procd|sdf|101|dock7
  -GOLD-   2262015253D 1   1.00000     0.00000
 Structure written by MMmdl.
 57 59  0  0  0  0  0  0  0  0  1 V2000
  146.9007  139.0503  152.6570 C   0  0  0  0  0  0  0  0  0  0  0  0
  146.7168  138.4491  154.0577 C   0  0  0  0  0  0  0  0  0  0  0  0
  147.9301  137.7855  154.5441 N   0  0  0  0  0  0  0  0  0  0  0  0
  149.0577  138.5295  154.7111 C   0  0  0  0  0  0  0  0  0  0  0  0
  150.2199  138.0550  154.1890 N   0  0  0  0  0  0  0  0  0  0  0  0
  151.3546  138.7482  154.3109 C   0  0  0  0  0  0  0  0  0  0  0  0
  151.5541  139.9189  154.9157 N   0  0  0  0  0  0  0  0  0  0  0  0
  150.4000  140.3958  155.4617 C   0  0  0  0  0  0  0  0  0  0  0  0
  149.1188  139.7734  155.4089 C   0  0  0  0  0  0  0  0  0  0  0  0
  148.1958  140.5537  156.0984 N   0  0  0  0  0  0  0  0  0  0  0  0
  148.8845  141.5795  156.5166 C   0  0  0  0  0  0  0  0  0  0  0  0
  150.2184  141.5622  156.1831 N   0  0  0  0  0  0  0  0  0  0  0  0
  151.2086  142.5663  156.5286 C   0  0  0  0  0  0  0  0  0  0  0  0
  151.7109  142.4117  157.9889 C   0  0  2  0  0  0  0  0  0  0  0  0
  151.2758  141.0347  158.5432 C   0  0  0  0  0  0  0  0  0  0  0  0
  152.0063  139.9748  157.9622 O   0  0  0  0  0  0  0  0  0  0  0  0
  151.2372  143.5980  158.8720 C   0  0  1  0  0  0  0  0  0  0  0  0
  151.9029  143.7131  160.2326 C   0  0  0  0  0  0  0  0  0  0  0  0
  151.6072  145.1568  160.6179 C   0  0  0  0  0  0  0  0  0  0  0  0
  151.6290  145.8838  159.3966 O   0  0  0  0  0  0  0  0  0  0  0  0
  151.5567  144.9841  158.2946 C   0  0  0  0  0  0  0  0  0  0  0  0
  147.9622  136.3377  154.7805 C   0  0  2  0  0  0  0  0  0  0  0  0
  146.6072  135.6894  154.4515 C   0  0  0  0  0  0  0  0  0  0  0  0
  148.4361  135.9765  156.2049 C   0  0  0  0  0  0  0  0  0  0  0  0
  149.2775  134.3293  156.2982 S   0  0  0  0  0  0  0  0  0  0  0  0
  150.6270  134.4940  155.0578 C   0  0  0  0  0  0  0  0  0  0  0  0
  149.9070  134.2168  157.6225 O   0  0  0  0  0  0  0  0  0  0  0  0
  148.3532  133.2819  155.8367 O   0  0  0  0  0  0  0  0  0  0  0  0
  145.9746  139.5086  152.3102 H   0  0  0  0  0  0  0  0  0  0  0  0
  147.1849  138.2874  151.9320 H   0  0  0  0  0  0  0  0  0  0  0  0
  147.6721  139.8208  152.6522 H   0  0  0  0  0  0  0  0  0  0  0  0
  146.3999  139.2228  154.7571 H   0  0  0  0  0  0  0  0  0  0  0  0
  145.8976  137.7322  154.0236 H   0  0  0  0  0  0  0  0  0  0  0  0
  152.2275  138.3005  153.8593 H   0  0  0  0  0  0  0  0  0  0  0  0
  148.4386  142.3776  157.0924 H   0  0  0  0  0  0  0  0  0  0  0  0
  152.0278  142.5102  155.8118 H   0  0  0  0  0  0  0  0  0  0  0  0
  150.7580  143.5455  156.3616 H   0  0  0  0  0  0  0  0  0  0  0  0
  152.8026  142.4245  157.9785 H   0  0  0  0  0  0  0  0  0  0  0  0
  151.3764  141.0013  159.6285 H   0  0  0  0  0  0  0  0  0  0  0  0
  150.2260  140.8480  158.3145 H   0  0  0  0  0  0  0  0  0  0  0  0
  152.7030  139.7300  158.5521 H   0  0  0  0  0  0  0  0  0  0  0  0
  150.1590  143.5268  159.0254 H   0  0  0  0  0  0  0  0  0  0  0  0
  151.5145  143.0042  160.9642 H   0  0  0  0  0  0  0  0  0  0  0  0
  152.9802  143.5632  160.1457 H   0  0  0  0  0  0  0  0  0  0  0  0
  150.6109  145.2368  161.0545 H   0  0  0  0  0  0  0  0  0  0  0  0
  152.3258  145.5554  161.3345 H   0  0  0  0  0  0  0  0  0  0  0  0
  152.5255  144.9832  157.7934 H   0  0  0  0  0  0  0  0  0  0  0  0
  150.8083  145.3198  157.5769 H   0  0  0  0  0  0  0  0  0  0  0  0
  148.6894  135.8799  154.1137 H   0  0  0  0  0  0  0  0  0  0  0  0
  146.6617  134.6041  154.5385 H   0  0  0  0  0  0  0  0  0  0  0  0
  146.2989  135.9202  153.4315 H   0  0  0  0  0  0  0  0  0  0  0  0
  145.8214  136.0346  155.1234 H   0  0  0  0  0  0  0  0  0  0  0  0
  149.0872  136.7332  156.6409 H   0  0  0  0  0  0  0  0  0  0  0  0
  147.5650  135.9066  156.8568 H   0  0  0  0  0  0  0  0  0  0  0  0
  151.2559  133.6048  155.0926 H   0  0  0  0  0  0  0  0  0  0  0  0
  151.2316  135.3707  155.2874 H   0  0  0  0  0  0  0  0  0  0  0  0
  150.2084  134.5912  154.0589 H   0  0  0  0  0  0  0  0  0  0  0  0
  1  2  1  0  0  0  0
  1 29  1  0  0  0  0
  1 30  1  0  0  0  0
  1 31  1  0  0  0  0
  2  3  1  0  0  0  0
  2 32  1  0  0  0  0
  2 33  1  0  0  0  0
  3  4  1  0  0  0  0
  3 22  1  0  0  0  0
  4  9  1  0  0  0  0
  4  5  2  0  0  0  0
  5  6  1  0  0  0  0
  6  7  2  0  0  0  0
  6 34  1  0  0  0  0
  7  8  1  0  0  0  0
  8 12  1  0  0  0  0
  8  9  2  0  0  0  0
  9 10  1  0  0  0  0
 10 11  2  0  0  0  0
 11 12  1  0  0  0  0
 11 35  1  0  0  0  0
 12 13  1  0  0  0  0
 13 14  1  0  0  0  0
 13 36  1  0  0  0  0
 13 37  1  0  0  0  0
 14 15  1  0  0  0  0
 14 17  1  0  0  0  0
 14 38  1  0  0  0  0
 15 16  1  0  0  0  0
 15 39  1  0  0  0  0
 15 40  1  0  0  0  0
 16 41  1  0  0  0  0
 17 21  1  0  0  0  0
 17 18  1  0  0  0  0
 17 42  1  0  0  0  0
 18 19  1  0  0  0  0
 18 43  1  0  0  0  0
 18 44  1  0  0  0  0
 19 20  1  0  0  0  0
 19 45  1  0  0  0  0
 19 46  1  0  0  0  0
 20 21  1  0  0  0  0
 21 47  1  0  0  0  0
 21 48  1  0  0  0  0
 22 23  1  0  0  0  0
 22 24  1  0  0  0  0
 22 49  1  0  0  0  0
 23 50  1  0  0  0  0
 23 51  1  0  0  0  0
 23 52  1  0  0  0  0
 24 25  1  0  0  0  0
 24 53  1  0  0  0  0
 24 54  1  0  0  0  0
 25 26  1  0  0  0  0
 25 27  2  0  0  0  0
 25 28  2  0  0  0  0
 26 55  1  0  0  0  0
 26 56  1  0  0  0  0
 26 57  1  0  0  0  0
M  END
> <s_m_source_file>
AV-unprocessed.smi

> <i_m_source_file_index>
17

> <i_lp_mmshare_version>
43012

> <i_f3d_flags>
0

> <s_epik_input>
W0NIM11TKD1PKSg9TylbQ0gyXVtDQEBIXShbQ0gzXSlOKFtDSDJdW0NIM10pYyhuW2NIXW4xKWMoYzEyKW5bY0hdbjJbQ0gyXVtDQEhdKFtDSDJdW09IXSlbQ0BASF0zW0NIMl1bQ0gyXU9bQ0gyXTM=

> <s_epik_cmdline>
J2VwaWtfcHl0aG9uJywgJy1waCcsICc3LjAnLCAnLXRuJywgJzgnLCAnLW1hJywgJzIwMCcsICctbWV0YWxfYmluZGluZycsICctaW1hZScsICc8aW5maWxlLm1hZT4nLCAnLW9tYWUnLCAnPG91dGZpbGUubWFlPic=

> <r_lp_tautomer_probability>
1

> <r_epik_Ionization_Penalty>
0.00119955

> <r_epik_Ionization_Penalty_Charging>
0

> <r_epik_Ionization_Penalty_Neutral>
0.00119955

> <r_epik_State_Penalty>
0.000665399

> <r_epik_Charging_Adjusted_Penalty>
0.000665399

> <i_epik_Tot_Q>
0

> <i_epik_Tot_abs_Q>
0

> <r_epik_Metal_State_Penalty>
-0

> <b_epik_Metal_Only>
0

> <s_lp_Force_Field>
OPLS_2005

> <r_lp_Energy>
37.2201

> <b_lp_Chiralities_Consistent>
1

> <s_lp_Variant>
AV-unprocessed.smi:17-3

> <Gold.Version>
5.8.1

> <Gold.Id.Protein>
6NUR|6NUR_protein|mol2

> <Gold.PLP.Fitness>
43.8297

> <Gold.PLP.PLP>
-40.6113

> <Gold.PLP.part.hbond>
-3.0000

> <Gold.PLP.part.metal>
0.0000

> <Gold.PLP.part.buried>
-8.2507

> <Gold.PLP.part.nonpolar>
-29.7464

> <Gold.PLP.part.repulsive>
0.4621

> <Gold.PLP.ligand.clash>
0.0000

> <Gold.PLP.ligand.torsion>
2.3481

> <Gold.PLP.Chemscore.Hbond>
2.0000

> <Gold.PLP.Chemscore.CHOScore>
0.4151

> <Gold.PLP.Chemscore.Metal>
0.0000

> <Gold.Chemscore.Hbonds>
donor molecule, donor type, donor heavy atom, donor atom, acceptor molecule, acceptor atom, score
      P1  H  6896  6907       L1    27  0.99
      P1  H  7989  7998       L1     7  0.85
      L1  C    11    35       P1  8028  0.21

> <Gold.PLP.Chemscore.Internal.Correction>
0.6694

> <Gold.Rescore>
     Score         DG    S(hbond)    S(metal)    S(lipo)     H(rot)  DE(clash)    DE(int)     intcor
      8.39     -11.22       1.15        0.00      92.91       3.51       0.52       2.31       ----

> <Gold.Chemscore.Fitness>
8.3894

> <Gold.Chemscore.DG>
-11.2210

> <Gold.Chemscore.ZeroCoef>
-5.4800

> <Gold.Chemscore.Hbond>
1.1513

> <Gold.Chemscore.Metal>
0.0000

> <Gold.Chemscore.Lipo>
92.9108

> <Gold.Chemscore.Internal_Hbond>
0.0000

> <Gold.Chemscore.DEClash>
0.5237

> <Gold.Chemscore.DEInternal>
2.3079

> <Gold.Chemscore.Rot>
3.5059

> <Gold.Chemscore.Internal.Correction>
   9.000000E+99

> <Gold.Chemscore.Hbonds>
donor molecule, donor type, donor heavy atom, donor atom, acceptor molecule, acceptor atom, score
      P1  H  6896  6907       L1    27  0.93
      P1  H  7989  7998       L1     7  0.04

> <Gold.Chemscore.Hbond.Weighted>
-3.8454

> <Gold.Chemscore.Metal.Weighted>
-0.0000

> <Gold.Chemscore.Lipo.Weighted>
-10.8706

> <Gold.Chemscore.Internal_Hbond.Weighted>
0.0000

> <Gold.Chemscore.DEClash.Weighted>
0.5237

> <Gold.Chemscore.DEInternal.Weighted>
2.3079

> <Gold.Chemscore.Rot.Weighted>
8.9750

> <Gold.Chemscore.Internal.Correction.Weighted>
   9.000000E+99

> <Gold.Protein.RotatedTorsions>
[ 6907 6896 6895 6894 ] final -111.67 input  -60.11 | X-H torsion
[ 7974 7965 7964 7962 ] final -155.71 input  175.53 | X-H torsion
[ 8008 7997 7996 7995 ] final   51.79 input   59.86 | X-H torsion
[ 10167 10162 10161 10158 ] final -173.72 input  -65.29 | X-H torsion
[ 10718 10713 10712 10709 ] final  -62.77 input   66.30 | X-H torsion
[ 10763 10752 10751 10750 ] final   79.38 input  -60.55 | X-H torsion
[ 11005 11000 10999 10996 ] final  -90.79 input  -57.11 | X-H torsion

> <Gold.Protein.ActiveResidues>
 VAL166  LYS551  ARG553  GLY616  TRP617  ASP618  TYR619  PRO620  LYS621  CYS622 
 ASP623  PHE694  ASN695  SER759  ASP760  ASP761  ALA762  ILE779  LEU786  VAL792 
 PHE793  MET794  SER795  GLU796  ALA797  LYS798  CYS799  TRP800  GLU811  SER814 

> <Gold.Protein.RotatedAtoms>
  150.7706  133.9201  159.3395 H   0  0  0  0  0  0  0  0  0  0  0  0  # atno 6907 bound_to 6896
  151.7089  135.0914  160.0273 H   0  0  0  0  0  0  0  0  0  0  0  0  # atno 6908 bound_to 6896
  152.3722  133.6395  159.6131 H   0  0  0  0  0  0  0  0  0  0  0  0  # atno 6909 bound_to 6896
  144.7627  140.4211  143.5964 H   0  0  0  0  0  0  0  0  0  0  0  0  # atno 7974 bound_to 7965
  155.4410  140.3454  155.4290 H   0  0  0  0  0  0  0  0  0  0  0  0  # atno 8008 bound_to 7997
  156.1278  140.1505  156.9140 H   0  0  0  0  0  0  0  0  0  0  0  0  # atno 8009 bound_to 7997
  154.4872  140.0852  156.7492 H   0  0  0  0  0  0  0  0  0  0  0  0  # atno 8010 bound_to 7997
  139.5673  144.1725  152.1331 H   0  0  0  0  0  0  0  0  0  0  0  0  # atno 10167 bound_to 10162
  156.0833  130.4213  150.1182 H   0  0  0  0  0  0  0  0  0  0  0  0  # atno 10718 bound_to 10713
  153.0948  135.4842  154.8759 H   0  0  0  0  0  0  0  0  0  0  0  0  # atno 10763 bound_to 10752
  154.7312  135.3060  154.8890 H   0  0  0  0  0  0  0  0  0  0  0  0  # atno 10764 bound_to 10752
  153.9525  135.6821  153.4797 H   0  0  0  0  0  0  0  0  0  0  0  0  # atno 10765 bound_to 10752
  141.1558  133.7714  156.9787 H   0  0  0  0  0  0  0  0  0  0  0  0  # atno 11005 bound_to 11000
  145.6567  139.1574  143.2831 LP  0  0  0  0  0  0  0  0  0  0  0  0  # atno 17320 bound_to 7965
  146.1706  140.6651  142.9235 LP  0  0  0  0  0  0  0  0  0  0  0  0  # atno 17321 bound_to 7965
  140.1251  144.5339  150.6838 LP  0  0  0  0  0  0  0  0  0  0  0  0  # atno 17342 bound_to 10162
  140.6957  143.2402  151.5008 LP  0  0  0  0  0  0  0  0  0  0  0  0  # atno 17343 bound_to 10162
  156.9209  130.9682  151.3549 LP  0  0  0  0  0  0  0  0  0  0  0  0  # atno 17370 bound_to 10713
  157.5959  130.8477  149.8728 LP  0  0  0  0  0  0  0  0  0  0  0  0  # atno 17371 bound_to 10713
  140.1080  134.9494  157.2023 LP  0  0  0  0  0  0  0  0  0  0  0  0  # atno 17394 bound_to 11000
  140.3230  134.2894  155.7242 LP  0  0  0  0  0  0  0  0  0  0  0  0  # atno 17395 bound_to 11000

$$$$
