AV-unprocessed.smi:2682|AV-procd|sdf|10374|dock9
  -GOLD-   2272014403D 1   1.00000     0.00000
 Structure written by MMmdl.
 30 30  0  0  0  0  0  0  0  0  1 V2000
  152.9720  142.7282  161.3377 C   0  0  0  0  0  0  0  0  0  0  0  0
  151.9372  143.2193  160.5039 O   0  0  0  0  0  0  0  0  0  0  0  0
  152.3832  144.2497  159.6382 C   0  0  0  0  0  0  0  0  0  0  0  0
  151.2128  144.7170  158.7683 C   0  0  0  0  0  0  0  0  0  0  0  0
  150.6123  143.5881  158.1559 O   0  0  0  0  0  0  0  0  0  0  0  0
  151.4527  142.9793  157.1882 C   0  0  0  0  0  0  0  0  0  0  0  0
  150.6766  141.8685  156.4829 C   0  0  0  0  0  0  0  0  0  0  0  0
  150.9810  140.6963  156.6986 O   0  0  0  0  0  0  0  0  0  0  0  0
  149.6947  142.2839  155.6577 N   0  0  0  0  0  0  0  0  0  0  0  0
  148.8279  141.5372  154.8409 C   0  0  0  0  0  0  0  0  0  0  0  0
  147.5090  141.8056  154.6491 C   0  0  0  0  0  0  0  0  0  0  0  0
  146.6923  140.9689  153.7954 C   0  0  0  0  0  0  0  0  0  0  0  0
  147.2678  139.9131  153.2016 C   0  0  0  0  0  0  0  0  0  0  0  0
  148.6212  139.6311  153.4024 N   0  0  0  0  0  0  0  0  0  0  0  0
  149.4452  140.3695  154.1834 C   0  0  0  0  0  0  0  0  0  0  0  0
  150.6272  140.0511  154.3095 O   0  0  0  0  0  0  0  0  0  0  0  0
  152.5810  141.9410  161.9820 H   0  0  0  0  0  0  0  0  0  0  0  0
  153.3728  143.5173  161.9753 H   0  0  0  0  0  0  0  0  0  0  0  0
  153.7868  142.3070  160.7475 H   0  0  0  0  0  0  0  0  0  0  0  0
  152.7482  145.0860  160.2363 H   0  0  0  0  0  0  0  0  0  0  0  0
  153.2098  143.9074  159.0134 H   0  0  0  0  0  0  0  0  0  0  0  0
  150.4878  145.2701  159.3672 H   0  0  0  0  0  0  0  0  0  0  0  0
  151.5827  145.3916  157.9949 H   0  0  0  0  0  0  0  0  0  0  0  0
  151.7795  143.7111  156.4479 H   0  0  0  0  0  0  0  0  0  0  0  0
  152.3427  142.5657  157.6657 H   0  0  0  0  0  0  0  0  0  0  0  0
  149.5342  143.2809  155.6332 H   0  0  0  0  0  0  0  0  0  0  0  0
  147.0186  142.6351  155.1306 H   0  0  0  0  0  0  0  0  0  0  0  0
  145.6463  141.1895  153.6417 H   0  0  0  0  0  0  0  0  0  0  0  0
  146.7558  139.2229  152.5473 H   0  0  0  0  0  0  0  0  0  0  0  0
  148.9965  138.8217  152.9291 H   0  0  0  0  0  0  0  0  0  0  0  0
  1  2  1  0  0  0  0
  1 17  1  0  0  0  0
  1 18  1  0  0  0  0
  1 19  1  0  0  0  0
  2  3  1  0  0  0  0
  3  4  1  0  0  0  0
  3 20  1  0  0  0  0
  3 21  1  0  0  0  0
  4  5  1  0  0  0  0
  4 22  1  0  0  0  0
  4 23  1  0  0  0  0
  5  6  1  0  0  0  0
  6  7  1  0  0  0  0
  6 24  1  0  0  0  0
  6 25  1  0  0  0  0
  7  8  2  0  0  0  0
  7  9  1  0  0  0  0
  9 26  1  0  0  0  0
  9 10  1  0  0  0  0
 10 11  2  0  0  0  0
 10 15  1  0  0  0  0
 11 12  1  0  0  0  0
 11 27  1  0  0  0  0
 12 13  2  0  0  0  0
 12 28  1  0  0  0  0
 13 14  1  0  0  0  0
 13 29  1  0  0  0  0
 14 15  1  0  0  0  0
 14 30  1  0  0  0  0
 15 16  2  0  0  0  0
M  END
> <s_m_source_file>
AV-unprocessed.smi

> <i_m_source_file_index>
2682

> <i_lp_mmshare_version>
43012

> <i_f3d_flags>
0

> <s_epik_input>
W0NIM11PW0NIMl1bQ0gyXU9bQ0gyXUMoPU8pW05IXWMxW2NIXVtjSF1bY0hdbmMxW09IXQ==

> <s_epik_cmdline>
J2VwaWtfcHl0aG9uJywgJy1waCcsICc3LjAnLCAnLXRuJywgJzgnLCAnLW1hJywgJzIwMCcsICctbWV0YWxfYmluZGluZycsICctaW1hZScsICc8aW5maWxlLm1hZT4nLCAnLW9tYWUnLCAnPG91dGZpbGUubWFlPic=

> <r_lp_tautomer_probability>
1

> <r_epik_Ionization_Penalty>
0.000101939

> <r_epik_Ionization_Penalty_Charging>
0.000101884

> <r_epik_Ionization_Penalty_Neutral>
5.41789e-08

> <r_epik_State_Penalty>
-0

> <r_epik_Charging_Adjusted_Penalty>
0.000101884

> <i_epik_Tot_Q>
0

> <i_epik_Tot_abs_Q>
0

> <r_epik_Metal_State_Penalty>
0.0807852

> <b_epik_Metal_Only>
0

> <s_lp_Force_Field>
OPLS_2005

> <r_lp_Energy>
15.1735

> <b_lp_Chiralities_Consistent>
1

> <s_lp_Variant>
AV-unprocessed.smi:2682-1

> <Gold.Version>
5.8.1

> <Gold.Id.Protein>
6NUR|6NUR_protein|mol2

> <Gold.PLP.Fitness>
40.8000

> <Gold.PLP.PLP>
-35.6095

> <Gold.PLP.part.hbond>
-3.2273

> <Gold.PLP.part.metal>
0.0000

> <Gold.PLP.part.buried>
-4.7498

> <Gold.PLP.part.nonpolar>
-28.3811

> <Gold.PLP.part.repulsive>
0.6277

> <Gold.PLP.ligand.clash>
0.0065

> <Gold.PLP.ligand.torsion>
0.4409

> <Gold.PLP.Chemscore.Hbond>
2.0000

> <Gold.PLP.Chemscore.CHOScore>
0.0000

> <Gold.PLP.Chemscore.Metal>
0.0000

> <Gold.Chemscore.Hbonds>
donor molecule, donor type, donor heavy atom, donor atom, acceptor molecule, acceptor atom, score
      L1  H     9    26       P1  8028  1.00
      P1  H  7989  7998       L1    16  0.99

> <Gold.PLP.Chemscore.Internal.Correction>
0.0789

> <Gold.Rescore>
     Score         DG    S(hbond)    S(metal)    S(lipo)     H(rot)  DE(clash)    DE(int)     intcor
     10.49     -14.82       1.98        0.00      70.90       2.17       0.01       4.31       ----

> <Gold.Chemscore.Fitness>
10.4924

> <Gold.Chemscore.DG>
-14.8178

> <Gold.Chemscore.ZeroCoef>
-5.4800

> <Gold.Chemscore.Hbond>
1.9788

> <Gold.Chemscore.Metal>
0.0000

> <Gold.Chemscore.Lipo>
70.9015

> <Gold.Chemscore.Internal_Hbond>
0.0000

> <Gold.Chemscore.DEClash>
0.0133

> <Gold.Chemscore.DEInternal>
4.3121

> <Gold.Chemscore.Rot>
2.1746

> <Gold.Chemscore.Internal.Correction>
   9.000000E+99

> <Gold.Chemscore.Hbonds>
donor molecule, donor type, donor heavy atom, donor atom, acceptor molecule, acceptor atom, score
      L1  H     9    26       P1  8028  0.97
      L1  H    14    30       P1  7957  0.01
      P1  H  7989  7998       L1    16  0.84

> <Gold.Chemscore.Hbond.Weighted>
-6.6093

> <Gold.Chemscore.Metal.Weighted>
-0.0000

> <Gold.Chemscore.Lipo.Weighted>
-8.2955

> <Gold.Chemscore.Internal_Hbond.Weighted>
0.0000

> <Gold.Chemscore.DEClash.Weighted>
0.0133

> <Gold.Chemscore.DEInternal.Weighted>
4.3121

> <Gold.Chemscore.Rot.Weighted>
5.5669

> <Gold.Chemscore.Internal.Correction.Weighted>
   9.000000E+99

> <Gold.Protein.RotatedTorsions>
[ 6907 6896 6895 6894 ] final  -91.03 input  -60.11 | X-H torsion
[ 7974 7965 7964 7962 ] final  173.20 input  175.53 | X-H torsion
[ 8008 7997 7996 7995 ] final   50.27 input   59.86 | X-H torsion
[ 10167 10162 10161 10158 ] final  -54.33 input  -65.29 | X-H torsion
[ 10718 10713 10712 10709 ] final  129.31 input   66.30 | X-H torsion
[ 10763 10752 10751 10750 ] final  175.30 input  -60.55 | X-H torsion
[ 11005 11000 10999 10996 ] final   -4.36 input  -57.11 | X-H torsion

> <Gold.Protein.ActiveResidues>
 VAL166  LYS551  ARG553  GLY616  TRP617  ASP618  TYR619  PRO620  LYS621  CYS622 
 ASP623  PHE694  ASN695  SER759  ASP760  ASP761  ALA762  ILE779  LEU786  VAL792 
 PHE793  MET794  SER795  GLU796  ALA797  LYS798  CYS799  TRP800  GLU811  SER814 

> <Gold.Protein.RotatedAtoms>
  150.6888  134.2341  159.4445 H   0  0  0  0  0  0  0  0  0  0  0  0  # atno 6907 bound_to 6896
  152.0289  134.9777  160.0581 H   0  0  0  0  0  0  0  0  0  0  0  0  # atno 6908 bound_to 6896
  152.1324  133.4380  159.4764 H   0  0  0  0  0  0  0  0  0  0  0  0  # atno 6909 bound_to 6896
  144.7249  139.9613  143.6435 H   0  0  0  0  0  0  0  0  0  0  0  0  # atno 7974 bound_to 7965
  155.4159  140.3444  155.4267 H   0  0  0  0  0  0  0  0  0  0  0  0  # atno 8008 bound_to 7997
  156.1421  140.1545  156.8935 H   0  0  0  0  0  0  0  0  0  0  0  0  # atno 8009 bound_to 7997
  154.4980  140.0822  156.7718 H   0  0  0  0  0  0  0  0  0  0  0  0  # atno 8010 bound_to 7997
  140.6436  143.2522  151.4921 H   0  0  0  0  0  0  0  0  0  0  0  0  # atno 10167 bound_to 10162
  157.5165  131.1097  150.9216 H   0  0  0  0  0  0  0  0  0  0  0  0  # atno 10718 bound_to 10713
  154.4658  135.2769  155.1679 H   0  0  0  0  0  0  0  0  0  0  0  0  # atno 10763 bound_to 10752
  154.3449  135.6162  153.5618 H   0  0  0  0  0  0  0  0  0  0  0  0  # atno 10764 bound_to 10752
  152.9859  135.5797  154.5029 H   0  0  0  0  0  0  0  0  0  0  0  0  # atno 10765 bound_to 10752
  140.6794  133.9167  155.8545 H   0  0  0  0  0  0  0  0  0  0  0  0  # atno 11005 bound_to 11000
  146.0635  139.3627  143.0566 LP  0  0  0  0  0  0  0  0  0  0  0  0  # atno 17320 bound_to 7965
  145.8061  140.9748  143.0973 LP  0  0  0  0  0  0  0  0  0  0  0  0  # atno 17321 bound_to 7965
  139.5646  144.2074  152.1744 LP  0  0  0  0  0  0  0  0  0  0  0  0  # atno 17342 bound_to 10162
  140.1352  144.5252  150.6778 LP  0  0  0  0  0  0  0  0  0  0  0  0  # atno 17343 bound_to 10162
  156.9840  130.5538  149.5298 LP  0  0  0  0  0  0  0  0  0  0  0  0  # atno 17370 bound_to 10713
  156.0324  130.5414  150.8568 LP  0  0  0  0  0  0  0  0  0  0  0  0  # atno 17371 bound_to 10713
  141.0329  134.0730  157.3993 LP  0  0  0  0  0  0  0  0  0  0  0  0  # atno 17394 bound_to 11000
  139.8956  135.0142  156.7012 LP  0  0  0  0  0  0  0  0  0  0  0  0  # atno 17395 bound_to 11000

$$$$
