#       Name:                AV-unprocessed.smi:1211
#       Creating user name   scv26
#       Creation time:       Fri Mar 27 04:13:15 2020


#       File generated by GOLD software.
#

@<TRIPOS>MOLECULE
AV-unprocessed.smi:1211
    53    55     1
SMALL
NO_CHARGES


@<TRIPOS>ATOM
      1 ****        -4.1472   0.2328  -1.9280 C.3            1 S1                 0.0000
      2 ****        -4.0833   1.5519  -1.1746 C.ar           1 S1                 0.0000
      3 ****        -5.2743   2.2720  -0.9410 C.ar           1 S1                 0.0000
      4 ****        -5.2133   3.4917  -0.2455 C.ar           1 S1                 0.0000
      5 ****        -3.9557   3.9427   0.1903 C.ar           1 S1                 0.0000
      6 ****        -2.8128   3.2608  -0.0279 N.ar           1 S1                 0.0000
      7 ****        -2.8539   2.0827  -0.6997 C.ar           1 S1                 0.0000
      8 ****        -1.6885   1.3095  -0.9655 N.am           1 S1                 0.0000
      9 ****        -0.4112   1.5889  -0.6519 C.2            1 S1                 0.0000
     10 ****        -0.0224   2.6083  -0.0821 O.2            1 S1                 0.0000
     11 ****         0.4096   0.6023  -1.0403 N.am           1 S1                 0.0000
     12 ****         1.8623   0.5919  -0.8688 C.3            1 S1                 0.0000
     13 ****         2.3366  -0.1965   0.3945 C.3            1 S1                 0.0000
     14 ****         1.6522  -1.5426   0.4106 N.4            1 S1                 1.0000
     15 ****         2.1445  -2.4939  -0.6256 C.3            1 S1                 0.0000
     16 ****         1.2747  -3.7588  -0.6669 C.3            1 S1                 0.0000
     17 ****         1.2958  -4.3791   0.6096 O.3            1 S1                 0.0000
     18 ****         0.7346  -3.5368   1.6053 C.3            1 S1                 0.0000
     19 ****         1.5468  -2.2347   1.7260 C.3            1 S1                 0.0000
     20 ****         2.0755   0.6438   1.6767 C.3            1 S1                 0.0000
     21 ****         3.0404   1.8330   1.6856 C.3            1 S1                 0.0000
     22 ****         4.5856   1.2603   0.9382 S.3            1 S1                 0.0000
     23 ****         3.8789  -0.3158   0.3816 C.3            1 S1                 0.0000
     24 ****        -5.1714  -0.0157  -2.2081 H              1 S1                 0.0000
     25 ****        -3.7628  -0.5791  -1.3101 H              1 S1                 0.0000
     26 ****        -3.5539   0.2861  -2.8414 H              1 S1                 0.0000
     27 ****        -6.2254   1.8971  -1.2899 H              1 S1                 0.0000
     28 ****        -6.1065   4.0668  -0.0515 H              1 S1                 0.0000
     29 ****        -3.8639   4.8749   0.7282 H              1 S1                 0.0000
     30 ****        -1.8518   0.4398  -1.4501 H              1 S1                 0.0000
     31 ****         0.0030  -0.1881  -1.5187 H              1 S1                 0.0000
     32 ****         2.2774   0.1441  -1.7707 H              1 S1                 0.0000
     33 ****         2.2492   1.6107  -0.8839 H              1 S1                 0.0000
     34 ****         2.1374  -2.0366  -1.6133 H              1 S1                 0.0000
     35 ****         3.1754  -2.7804  -0.4142 H              1 S1                 0.0000
     36 ****         0.2508  -3.5231  -0.9619 H              1 S1                 0.0000
     37 ****         1.6658  -4.4596  -1.4050 H              1 S1                 0.0000
     38 ****        -0.3083  -3.3213   1.3668 H              1 S1                 0.0000
     39 ****         0.7367  -4.0678   2.5574 H              1 S1                 0.0000
     40 ****         2.5423  -2.4468   2.1178 H              1 S1                 0.0000
     41 ****         1.0273  -1.6133   2.4538 H              1 S1                 0.0000
     42 ****         1.0375   0.9568   1.7826 H              1 S1                 0.0000
     43 ****         2.3231   0.0760   2.5726 H              1 S1                 0.0000
     44 ****         2.6462   2.6614   1.0970 H              1 S1                 0.0000
     45 ****         3.2148   2.2064   2.6949 H              1 S1                 0.0000
     46 ****         4.2103  -1.0796   1.0856 H              1 S1                 0.0000
     47 ****         4.2768  -0.5832  -0.5978 H              1 S1                 0.0000
     48 ****         0.6954  -1.3390   0.1597 H              1 S1                 0.0000
     49 ****        -1.9407   3.6211   0.3033 LP             1 S1                 0.0000
     50 ****        -0.6797   3.3123   0.1869 LP             1 S1                 0.0000
     51 ****         0.9507   2.7325   0.1118 LP             1 S1                 0.0000
     52 ****         2.2429  -4.5862   0.8549 LP             1 S1                 0.0000
     53 ****         0.7691  -5.2282   0.5673 LP             1 S1                 0.0000
@<TRIPOS>BOND
    1    1    2 1     
    2    1   24 1     
    3    1   25 1     
    4    1   26 1     
    5    2    7 ar    
    6    2    3 ar    
    7    3    4 ar    
    8    3   27 1     
    9    4    5 ar    
   10    4   28 1     
   11    5    6 ar    
   12    5   29 1     
   13    6    7 ar    
   14    7    8 1     
   15    8    9 am    
   16    8   30 1     
   17    9   10 2     
   18    9   11 am    
   19   11   12 1     
   20   11   31 1     
   21   12   13 1     
   22   12   32 1     
   23   12   33 1     
   24   13   23 1     
   25   13   14 1     
   26   13   20 1     
   27   14   19 1     
   28   14   15 1     
   29   14   48 1     
   30   15   16 1     
   31   15   34 1     
   32   15   35 1     
   33   16   17 1     
   34   16   36 1     
   35   16   37 1     
   36   17   18 1     
   37   18   19 1     
   38   18   38 1     
   39   18   39 1     
   40   19   40 1     
   41   19   41 1     
   42   20   21 1     
   43   20   42 1     
   44   20   43 1     
   45   21   22 1     
   46   21   44 1     
   47   21   45 1     
   48   22   23 1     
   49   23   46 1     
   50   23   47 1     
   51    6   49 1     
   52   10   50 1     
   53   10   51 1     
   54   17   52 1     
   55   17   53 1     
@<TRIPOS>SUBSTRUCTURE
      1 S1             1
@<TRIPOS>SET
LONE_PAIRS      STATIC     ATOMS    <user>   **** ""
5 49 50 51 52 53
DONOR_HYDROGENS      STATIC     ATOMS    <user>   **** ""
3 30 31 48
ATOM$BLUE        STATIC     ATOMS    COLORGROUP SYSTEM
5 49 50 51 52 53
ATOM$RED        STATIC     ATOMS    COLORGROUP SYSTEM
3 30 31 48
