#       Name:                AV-unprocessed.smi:3228
#       Creating user name   scv26
#       Creation time:       Fri Mar 27 18:17:30 2020


#       File generated by GOLD software.
#

@<TRIPOS>MOLECULE
AV-unprocessed.smi:3228
    36    37     1
SMALL
NO_CHARGES


@<TRIPOS>ATOM
      1 ****        -0.6083   1.7924   0.7327 O.2            1 S1                 0.0000
      2 ****        -1.1193   0.7480   1.1443 C.2            1 S1                 0.0000
      3 ****        -0.3502  -0.3240   1.3827 N.am           1 S1                 0.0000
      4 ****         1.0935  -0.4028   1.1820 C.3            1 S1                 0.0000
      5 ****         1.4588  -0.6018  -0.3048 C.3            1 S1                 0.0000
      6 ****         0.8952  -1.8732  -0.9506 C.3            1 S1                 0.0000
      7 ****         1.7668  -2.1234  -2.1900 C.3            1 S1                 0.0000
      8 ****         3.0103  -1.2310  -2.0393 C.3            1 S1                 0.0000
      9 ****         2.9611  -0.6637  -0.6154 C.3            1 S1                 0.0000
     10 ****         3.6368  -1.5514   0.2567 O.3            1 S1                 0.0000
     11 ****        -2.4329   0.5418   1.3916 N.pl3          1 S1                -1.0000
     12 ****        -3.3205   1.5246   1.1681 C.2            1 S1                 0.0000
     13 ****        -3.8108   2.3011   2.1412 N.2            1 S1                 0.0000
     14 ****        -4.7232   3.2540   1.6844 C.2            1 S1                 0.0000
     15 ****        -4.9402   3.1952   0.3332 C.2            1 S1                 0.0000
     16 ****        -3.9987   1.9342  -0.4104 S.3            1 S1                 0.0000
     17 ****        -0.8102  -1.1573   1.7190 H              1 S1                 0.0000
     18 ****         1.5728   0.4956   1.5736 H              1 S1                 0.0000
     19 ****         1.4628  -1.2351   1.7810 H              1 S1                 0.0000
     20 ****         1.0609   0.2462  -0.8650 H              1 S1                 0.0000
     21 ****         0.9927  -2.7137  -0.2619 H              1 S1                 0.0000
     22 ****        -0.1619  -1.7756  -1.1999 H              1 S1                 0.0000
     23 ****         2.0412  -3.1766  -2.2580 H              1 S1                 0.0000
     24 ****         1.2273  -1.8682  -3.1028 H              1 S1                 0.0000
     25 ****         3.9376  -1.7643  -2.2533 H              1 S1                 0.0000
     26 ****         2.9435  -0.4089  -2.7532 H              1 S1                 0.0000
     27 ****         3.4312   0.3183  -0.5519 H              1 S1                 0.0000
     28 ****         3.5488  -1.2268   1.1399 H              1 S1                 0.0000
     29 ****        -5.1725   3.9340   2.3927 H              1 S1                 0.0000
     30 ****        -5.5930   3.8110  -0.2668 H              1 S1                 0.0000
     31 ****         0.3785   1.8389   0.5772 LP             1 S1                 0.0000
     32 ****        -1.1807   2.5928   0.5545 LP             1 S1                 0.0000
     33 ****         4.6045  -1.5972   0.0086 LP             1 S1                 0.0000
     34 ****         3.2321  -2.4634   0.1902 LP             1 S1                 0.0000
     35 ****        -2.7432  -0.3423   1.7408 LP             1 S1                 0.0000
     36 ****        -3.5492   2.2080   3.1019 LP             1 S1                 0.0000
@<TRIPOS>BOND
    1    1    2 2     
    2    2    3 am    
    3    2   11 1     
    4    3    4 1     
    5    3   17 1     
    6    4    5 1     
    7    4   18 1     
    8    4   19 1     
    9    5    9 1     
   10    5    6 1     
   11    5   20 1     
   12    6    7 1     
   13    6   21 1     
   14    6   22 1     
   15    7    8 1     
   16    7   23 1     
   17    7   24 1     
   18    8    9 1     
   19    8   25 1     
   20    8   26 1     
   21    9   10 1     
   22    9   27 1     
   23   10   28 1     
   24   11   12 1     
   25   12   16 1     
   26   12   13 2     
   27   13   14 1     
   28   14   15 2     
   29   14   29 1     
   30   15   16 1     
   31   15   30 1     
   32    1   31 1     
   33    1   32 1     
   34   10   33 1     
   35   10   34 1     
   36   11   35 1     
   37   13   36 1     
@<TRIPOS>SUBSTRUCTURE
      1 S1             1
@<TRIPOS>SET
LONE_PAIRS      STATIC     ATOMS    <user>   **** ""
6 31 32 33 34 35 36
DONOR_HYDROGENS      STATIC     ATOMS    <user>   **** ""
2 17 28
ATOM$BLUE        STATIC     ATOMS    COLORGROUP SYSTEM
6 31 32 33 34 35 36
ATOM$RED        STATIC     ATOMS    COLORGROUP SYSTEM
2 17 28
