#       Name:                AV-unprocessed.smi:2784
#       Creating user name   scv26
#       Creation time:       Fri Mar 27 15:16:32 2020


#       File generated by GOLD software.
#

@<TRIPOS>MOLECULE
AV-unprocessed.smi:2784
    38    39     1
SMALL
NO_CHARGES


@<TRIPOS>ATOM
      1 ****        -2.2815   0.7835  -2.3421 C.3            1 S1                 0.0000
      2 ****        -1.3498  -0.0278  -3.0400 O.3            1 S1                 0.0000
      3 ****        -0.0470  -0.0160  -2.4729 C.3            1 S1                 0.0000
      4 ****         0.9354  -0.6840  -3.4390 C.3            1 S1                 0.0000
      5 ****         2.0292  -1.2470  -2.5386 C.3            1 S1                 0.0000
      6 ****         1.2689  -1.7551  -1.3142 C.3            1 S1                 0.0000
      7 ****         0.0488  -0.8260  -1.1592 C.3            1 S1                 0.0000
      8 ****         0.2170   0.0684  -0.0163 N.am           1 S1                 0.0000
      9 ****        -0.1612  -0.2065   1.2401 C.2            1 S1                 0.0000
     10 ****        -0.6911  -1.2665   1.5745 O.2            1 S1                 0.0000
     11 ****         0.1164   0.8150   2.0673 N.am           1 S1                 0.0000
     12 ****        -0.1606   0.9013   3.4550 C.2            1 S1                 0.0000
     13 ****        -0.7695  -0.0203   4.2028 N.2            1 S1                 0.0000
     14 ****        -0.8068   0.5308   5.4755 C.2            1 S1                 0.0000
     15 ****        -0.2127   1.7655   5.4244 C.2            1 S1                 0.0000
     16 ****         0.2029   2.0153   4.1439 O.3            1 S1                 0.0000
     17 ****        -3.2453   0.7496  -2.8499 H              1 S1                 0.0000
     18 ****        -1.9549   1.8236  -2.3128 H              1 S1                 0.0000
     19 ****        -2.4321   0.4361  -1.3197 H              1 S1                 0.0000
     20 ****         0.2855   1.0130  -2.3190 H              1 S1                 0.0000
     21 ****         0.4436  -1.5053  -3.9625 H              1 S1                 0.0000
     22 ****         1.3194   0.0058  -4.1909 H              1 S1                 0.0000
     23 ****         2.6144  -2.0282  -3.0244 H              1 S1                 0.0000
     24 ****         2.7124  -0.4491  -2.2450 H              1 S1                 0.0000
     25 ****         0.9220  -2.7717  -1.5046 H              1 S1                 0.0000
     26 ****         1.9016  -1.7959  -0.4265 H              1 S1                 0.0000
     27 ****        -0.8477  -1.4361  -1.0321 H              1 S1                 0.0000
     28 ****         0.6472   0.9628  -0.2004 H              1 S1                 0.0000
     29 ****         0.5661   1.6216   1.6605 H              1 S1                 0.0000
     30 ****        -1.2493   0.0069   6.3098 H              1 S1                 0.0000
     31 ****        -0.0207   2.5359   6.1566 H              1 S1                 0.0000
     32 ****        -1.2873   0.3017  -3.9821 LP             1 S1                 0.0000
     33 ****        -1.6868  -0.9693  -3.0379 LP             1 S1                 0.0000
     34 ****        -0.8602  -1.9780   0.8924 LP             1 S1                 0.0000
     35 ****        -0.9524  -1.4159   2.5281 LP             1 S1                 0.0000
     36 ****        -1.1208  -0.9100   3.9111 LP             1 S1                 0.0000
     37 ****        -0.2522   2.8256   3.7745 LP             1 S1                 0.0000
     38 ****         1.1938   2.1455   4.1112 LP             1 S1                 0.0000
@<TRIPOS>BOND
    1    1    2 1     
    2    1   17 1     
    3    1   18 1     
    4    1   19 1     
    5    2    3 1     
    6    3    7 1     
    7    3    4 1     
    8    3   20 1     
    9    4    5 1     
   10    4   21 1     
   11    4   22 1     
   12    5    6 1     
   13    5   23 1     
   14    5   24 1     
   15    6    7 1     
   16    6   25 1     
   17    6   26 1     
   18    7    8 1     
   19    7   27 1     
   20    8    9 am    
   21    8   28 1     
   22    9   10 2     
   23    9   11 am    
   24   11   12 1     
   25   11   29 1     
   26   12   16 1     
   27   12   13 2     
   28   13   14 1     
   29   14   15 2     
   30   14   30 1     
   31   15   16 1     
   32   15   31 1     
   33    2   32 1     
   34    2   33 1     
   35   10   34 1     
   36   10   35 1     
   37   13   36 1     
   38   16   37 1     
   39   16   38 1     
@<TRIPOS>SUBSTRUCTURE
      1 S1             1
@<TRIPOS>SET
LONE_PAIRS      STATIC     ATOMS    <user>   **** ""
7 32 33 34 35 36 37 38
DONOR_HYDROGENS      STATIC     ATOMS    <user>   **** ""
2 28 29
ATOM$BLUE        STATIC     ATOMS    COLORGROUP SYSTEM
7 32 33 34 35 36 37 38
ATOM$RED        STATIC     ATOMS    COLORGROUP SYSTEM
2 28 29
