AV-unprocessed.smi:34|AV-procd|sdf|228|dock8
  -GOLD-   2262015553D 1   1.00000     0.00000
 Structure written by MMmdl.
 55 59  0  0  0  0  0  0  0  0  1 V2000
  151.2874  132.7387  157.5179 O   0  0  0  0  0  0  0  0  0  0  0  0
  151.2592  132.2448  156.3902 C   0  0  0  0  0  0  0  0  0  0  0  0
  150.3148  132.6830  155.3782 N   0  0  0  0  0  0  0  0  0  0  0  0
  149.4351  133.7096  155.4430 C   0  0  0  0  0  0  0  0  0  0  0  0
  148.0915  133.5176  155.5109 N   0  0  0  0  0  0  0  0  0  0  0  0
  147.2662  134.5657  155.5812 C   0  0  0  0  0  0  0  0  0  0  0  0
  147.5705  135.8645  155.6003 N   0  0  0  0  0  0  0  0  0  0  0  0
  148.9165  136.0682  155.5284 C   0  0  0  0  0  0  0  0  0  0  0  0
  149.9055  135.0486  155.4452 C   0  0  0  0  0  0  0  0  0  0  0  0
  151.1690  135.6214  155.3871 N   0  0  0  0  0  0  0  0  0  0  0  0
  150.9348  136.9050  155.4360 C   0  0  0  0  0  0  0  0  0  0  0  0
  149.6081  137.2634  155.5268 N   0  0  0  0  0  0  0  0  0  0  0  0
  149.0553  138.6495  155.6121 C   0  0  1  0  0  0  0  0  0  0  0  0
  149.5316  139.2533  156.7776 O   0  0  0  0  0  0  0  0  0  0  0  0
  149.8978  140.6155  156.5289 C   0  0  1  0  0  0  0  0  0  0  0  0
  151.4118  140.7864  156.7133 C   0  0  0  0  0  0  0  0  0  0  0  0
  151.6812  141.1425  158.0597 O   0  0  0  0  0  0  0  0  0  0  0  0
  152.7575  140.6365  158.6934 C   0  0  0  0  0  0  0  0  0  0  0  0
  153.4595  139.7330  158.2343 O   0  0  0  0  0  0  0  0  0  0  0  0
  153.0089  141.2819  160.0139 C   0  0  0  0  0  0  0  0  0  0  0  0
  152.3784  142.5119  160.3145 C   0  0  0  0  0  0  0  0  0  0  0  0
  152.5974  143.1461  161.5528 C   0  0  0  0  0  0  0  0  0  0  0  0
  153.4485  142.5579  162.5060 C   0  0  0  0  0  0  0  0  0  0  0  0
  154.0817  141.3344  162.2192 C   0  0  0  0  0  0  0  0  0  0  0  0
  153.8646  140.6989  160.9810 C   0  0  0  0  0  0  0  0  0  0  0  0
  149.4578  140.8883  155.0877 C   0  0  2  0  0  0  0  0  0  0  0  0
  148.1945  141.3224  155.1222 F   0  0  0  0  0  0  0  0  0  0  0  0
  149.5359  139.5118  154.4487 C   0  0  2  0  0  0  0  0  0  0  0  0
  148.7049  139.4482  153.3071 O   0  0  0  0  0  0  0  0  0  0  0  0
  152.1474  131.0958  156.0090 C   0  0  0  0  0  0  0  0  0  0  0  0
  151.6752  130.0992  155.1254 C   0  0  0  0  0  0  0  0  0  0  0  0
  152.4940  129.0062  154.7800 C   0  0  0  0  0  0  0  0  0  0  0  0
  153.7894  128.8971  155.3198 C   0  0  0  0  0  0  0  0  0  0  0  0
  154.2643  129.8797  156.2085 C   0  0  0  0  0  0  0  0  0  0  0  0
  153.4462  130.9725  156.5556 C   0  0  0  0  0  0  0  0  0  0  0  0
  150.3447  132.1831  154.5017 H   0  0  0  0  0  0  0  0  0  0  0  0
  146.2129  134.3309  155.6293 H   0  0  0  0  0  0  0  0  0  0  0  0
  151.7323  137.6334  155.4144 H   0  0  0  0  0  0  0  0  0  0  0  0
  147.9708  138.5384  155.6629 H   0  0  0  0  0  0  0  0  0  0  0  0
  149.3736  141.2736  157.2233 H   0  0  0  0  0  0  0  0  0  0  0  0
  151.9341  139.8740  156.4276 H   0  0  0  0  0  0  0  0  0  0  0  0
  151.7811  141.5801  156.0634 H   0  0  0  0  0  0  0  0  0  0  0  0
  151.7210  142.9832  159.5983 H   0  0  0  0  0  0  0  0  0  0  0  0
  152.1116  144.0857  161.7706 H   0  0  0  0  0  0  0  0  0  0  0  0
  153.6162  143.0446  163.4554 H   0  0  0  0  0  0  0  0  0  0  0  0
  154.7356  140.8821  162.9500 H   0  0  0  0  0  0  0  0  0  0  0  0
  154.3659  139.7608  160.7932 H   0  0  0  0  0  0  0  0  0  0  0  0
  150.0537  141.6450  154.5764 H   0  0  0  0  0  0  0  0  0  0  0  0
  150.5674  139.2612  154.1971 H   0  0  0  0  0  0  0  0  0  0  0  0
  149.2441  139.5563  152.5385 H   0  0  0  0  0  0  0  0  0  0  0  0
  150.6825  130.1668  154.7038 H   0  0  0  0  0  0  0  0  0  0  0  0
  152.1272  128.2500  154.1016 H   0  0  0  0  0  0  0  0  0  0  0  0
  154.4166  128.0584  155.0557 H   0  0  0  0  0  0  0  0  0  0  0  0
  155.2557  129.7938  156.6282 H   0  0  0  0  0  0  0  0  0  0  0  0
  153.8277  131.7086  157.2482 H   0  0  0  0  0  0  0  0  0  0  0  0
  1  2  2  0  0  0  0
  2  3  1  0  0  0  0
  2 30  1  0  0  0  0
  3  4  1  0  0  0  0
  3 36  1  0  0  0  0
  4  9  1  0  0  0  0
  4  5  2  0  0  0  0
  5  6  1  0  0  0  0
  6  7  2  0  0  0  0
  6 37  1  0  0  0  0
  7  8  1  0  0  0  0
  8 12  1  0  0  0  0
  8  9  2  0  0  0  0
  9 10  1  0  0  0  0
 10 11  2  0  0  0  0
 11 12  1  0  0  0  0
 11 38  1  0  0  0  0
 12 13  1  0  0  0  0
 13 28  1  0  0  0  0
 13 14  1  0  0  0  0
 13 39  1  0  0  0  0
 14 15  1  0  0  0  0
 15 16  1  0  0  0  0
 15 26  1  0  0  0  0
 15 40  1  0  0  0  0
 16 17  1  0  0  0  0
 16 41  1  0  0  0  0
 16 42  1  0  0  0  0
 17 18  1  0  0  0  0
 18 19  2  0  0  0  0
 18 20  1  0  0  0  0
 20 25  1  0  0  0  0
 20 21  2  0  0  0  0
 21 22  1  0  0  0  0
 21 43  1  0  0  0  0
 22 23  2  0  0  0  0
 22 44  1  0  0  0  0
 23 24  1  0  0  0  0
 23 45  1  0  0  0  0
 24 25  2  0  0  0  0
 24 46  1  0  0  0  0
 25 47  1  0  0  0  0
 26 27  1  0  0  0  0
 26 28  1  0  0  0  0
 26 48  1  0  0  0  0
 28 29  1  0  0  0  0
 28 49  1  0  0  0  0
 29 50  1  0  0  0  0
 30 35  1  0  0  0  0
 30 31  2  0  0  0  0
 31 32  1  0  0  0  0
 31 51  1  0  0  0  0
 32 33  2  0  0  0  0
 32 52  1  0  0  0  0
 33 34  1  0  0  0  0
 33 53  1  0  0  0  0
 34 35  2  0  0  0  0
 34 54  1  0  0  0  0
 35 55  1  0  0  0  0
M  END
> <s_m_source_file>
AV-unprocessed.smi

> <i_m_source_file_index>
34

> <i_lp_mmshare_version>
43012

> <i_f3d_flags>
0

> <s_epik_input>
W2NIXTFbY0hdW2NIXVtjSF1bY0hdYzFDKD1PKVtOSF1jKG5bY0hdbjIpYyhjMjMpbltjSF1uM1tDQEBIXTRPW0NASF0oW0NAQEhdKEYpW0NASF00W09IXSlbQ0gyXU9DKD1PKWM1W2NIXVtjSF1bY0hdW2NIXVtjSF01

> <s_epik_cmdline>
J2VwaWtfcHl0aG9uJywgJy1waCcsICc3LjAnLCAnLXRuJywgJzgnLCAnLW1hJywgJzIwMCcsICctbWV0YWxfYmluZGluZycsICctaW1hZScsICc8aW5maWxlLm1hZT4nLCAnLW9tYWUnLCAnPG91dGZpbGUubWFlPic=

> <r_lp_tautomer_probability>
1

> <r_epik_Ionization_Penalty>
0.00257489

> <r_epik_Ionization_Penalty_Charging>
0

> <r_epik_Ionization_Penalty_Neutral>
0.00257489

> <r_epik_State_Penalty>
0.00519398

> <r_epik_Charging_Adjusted_Penalty>
0.00519398

> <i_epik_Tot_Q>
0

> <i_epik_Tot_abs_Q>
0

> <r_epik_Metal_State_Penalty>
0.335891

> <b_epik_Metal_Only>
0

> <s_epik_Chemistry_Notes>
This compound has an ester and may undergo hydrolysis at high or low pH. This compound contains an acetal/aminal-like group ( X-CH(R)-Y where X, Y are N, S, or O) that may be acid/base labile, releasing an aldehyde.

> <s_lp_Force_Field>
OPLS_2005

> <r_lp_Energy>
45.4832

> <b_lp_Chiralities_Consistent>
1

> <s_lp_Variant>
AV-unprocessed.smi:34-14

> <Gold.Version>
5.8.1

> <Gold.Id.Protein>
6NUR|6NUR_protein|mol2

> <Gold.PLP.Fitness>
65.1376

> <Gold.PLP.PLP>
-58.0453

> <Gold.PLP.part.hbond>
-3.4013

> <Gold.PLP.part.metal>
0.0000

> <Gold.PLP.part.buried>
-7.5293

> <Gold.PLP.part.nonpolar>
-46.6614

> <Gold.PLP.part.repulsive>
0.2226

> <Gold.PLP.ligand.clash>
0.0000

> <Gold.PLP.ligand.torsion>
1.9502

> <Gold.PLP.Chemscore.Hbond>
3.6283

> <Gold.PLP.Chemscore.CHOScore>
0.0000

> <Gold.PLP.Chemscore.Metal>
0.0000

> <Gold.Chemscore.Hbonds>
donor molecule, donor type, donor heavy atom, donor atom, acceptor molecule, acceptor atom, score
      L1  H    29    50       P1  7957  0.93
      P1  H  6896  6909       L1     1  0.85
      P1  H  7997  8010       L1    19  1.00
      P1  H 10752 10765       L1    10  1.00

> <Gold.PLP.Chemscore.Internal.Correction>
0.1079

> <Gold.Rescore>
     Score         DG    S(hbond)    S(metal)    S(lipo)     H(rot)  DE(clash)    DE(int)     intcor
     22.91     -24.86       3.79        0.00     117.07       2.72       0.06       1.89       ----

> <Gold.Chemscore.Fitness>
22.9139

> <Gold.Chemscore.DG>
-24.8633

> <Gold.Chemscore.ZeroCoef>
-5.4800

> <Gold.Chemscore.Hbond>
3.7884

> <Gold.Chemscore.Metal>
0.0000

> <Gold.Chemscore.Lipo>
117.0690

> <Gold.Chemscore.Internal_Hbond>
0.0000

> <Gold.Chemscore.DEClash>
0.0592

> <Gold.Chemscore.DEInternal>
1.8901

> <Gold.Chemscore.Rot>
2.7215

> <Gold.Chemscore.Internal.Correction>
   9.000000E+99

> <Gold.Chemscore.Hbonds>
donor molecule, donor type, donor heavy atom, donor atom, acceptor molecule, acceptor atom, score
      L1  H    29    50       P1  7957  0.88
      P1  H  6896  6909       L1     1  0.83
      P1  H  7997  8010       L1    19  0.97
      P1  H 10752 10765       L1    10  0.44

> <Gold.Chemscore.Hbond.Weighted>
-12.6532

> <Gold.Chemscore.Metal.Weighted>
-0.0000

> <Gold.Chemscore.Lipo.Weighted>
-13.6971

> <Gold.Chemscore.Internal_Hbond.Weighted>
0.0000

> <Gold.Chemscore.DEClash.Weighted>
0.0592

> <Gold.Chemscore.DEInternal.Weighted>
1.8901

> <Gold.Chemscore.Rot.Weighted>
6.9670

> <Gold.Chemscore.Internal.Correction.Weighted>
   9.000000E+99

> <Gold.Protein.RotatedTorsions>
[ 6907 6896 6895 6894 ] final  -61.87 input  -60.11 | X-H torsion
[ 7974 7965 7964 7962 ] final   94.80 input  175.53 | X-H torsion
[ 8008 7997 7996 7995 ] final   40.60 input   59.86 | X-H torsion
[ 10167 10162 10161 10158 ] final  175.62 input  -65.29 | X-H torsion
[ 10718 10713 10712 10709 ] final -145.68 input   66.30 | X-H torsion
[ 10763 10752 10751 10750 ] final -163.62 input  -60.55 | X-H torsion
[ 11005 11000 10999 10996 ] final  179.86 input  -57.11 | X-H torsion

> <Gold.Protein.ActiveResidues>
 VAL166  LYS551  ARG553  GLY616  TRP617  ASP618  TYR619  PRO620  LYS621  CYS622 
 ASP623  PHE694  ASN695  SER759  ASP760  ASP761  ALA762  ILE779  LEU786  VAL792 
 PHE793  MET794  SER795  GLU796  ALA797  LYS798  CYS799  TRP800  GLU811  SER814 

> <Gold.Protein.RotatedAtoms>
  150.7755  134.6647  159.6358 H   0  0  0  0  0  0  0  0  0  0  0  0  # atno 6907 bound_to 6896
  152.3823  134.6569  160.0147 H   0  0  0  0  0  0  0  0  0  0  0  0  # atno 6908 bound_to 6896
  151.6895  133.3274  159.3275 H   0  0  0  0  0  0  0  0  0  0  0  0  # atno 6909 bound_to 6896
  145.4607  139.2287  143.2989 H   0  0  0  0  0  0  0  0  0  0  0  0  # atno 7974 bound_to 7965
  155.2559  140.3356  155.4277 H   0  0  0  0  0  0  0  0  0  0  0  0  # atno 8008 bound_to 7997
  156.2196  140.1803  156.7552 H   0  0  0  0  0  0  0  0  0  0  0  0  # atno 8009 bound_to 7997
  154.5805  140.0654  156.9081 H   0  0  0  0  0  0  0  0  0  0  0  0  # atno 8010 bound_to 7997
  139.5184  144.3011  152.0378 H   0  0  0  0  0  0  0  0  0  0  0  0  # atno 10167 bound_to 10162
  156.3855  130.7859  151.2056 H   0  0  0  0  0  0  0  0  0  0  0  0  # atno 10718 bound_to 10713
  154.7105  135.3005  154.9204 H   0  0  0  0  0  0  0  0  0  0  0  0  # atno 10763 bound_to 10752
  154.0107  135.6695  153.4769 H   0  0  0  0  0  0  0  0  0  0  0  0  # atno 10764 bound_to 10752
  153.0751  135.5039  154.8301 H   0  0  0  0  0  0  0  0  0  0  0  0  # atno 10765 bound_to 10752
  140.4108  134.6693  157.4613 H   0  0  0  0  0  0  0  0  0  0  0  0  # atno 11005 bound_to 11000
  146.2452  140.5376  142.8917 LP  0  0  0  0  0  0  0  0  0  0  0  0  # atno 17320 bound_to 7965
  144.8004  140.6203  143.6482 LP  0  0  0  0  0  0  0  0  0  0  0  0  # atno 17321 bound_to 7965
  140.2458  144.4221  150.6241 LP  0  0  0  0  0  0  0  0  0  0  0  0  # atno 17342 bound_to 10162
  140.6259  143.2181  151.6598 LP  0  0  0  0  0  0  0  0  0  0  0  0  # atno 17343 bound_to 10162
  157.7495  131.0331  150.4258 LP  0  0  0  0  0  0  0  0  0  0  0  0  # atno 17370 bound_to 10713
  156.4509  130.4011  149.6636 LP  0  0  0  0  0  0  0  0  0  0  0  0  # atno 17371 bound_to 10713
  140.0269  134.6464  155.9161 LP  0  0  0  0  0  0  0  0  0  0  0  0  # atno 17394 bound_to 11000
  141.1822  133.6548  156.5066 LP  0  0  0  0  0  0  0  0  0  0  0  0  # atno 17395 bound_to 11000

$$$$
