AV-unprocessed.smi:1702|AV-procd|sdf|6850|dock4
  -GOLD-   22720 8 33D 1   1.00000     0.00000
 Structure written by MMmdl.
 45 47  0  0  0  0  0  0  0  0  3 V2000
  151.6396  137.0598  155.6750 C   0  0  0  0  0  0  0  0  0  0  0  0
  150.2503  137.6485  155.3914 C   0  0  2  0  0  0  0  0  0  0  0  0
  149.2044  136.5475  155.1489 C   0  0  0  0  0  0  0  0  0  0  0  0
  147.8244  137.1476  154.8320 C   0  0  0  0  0  0  0  0  0  0  0  0
  147.8929  138.0608  153.6623 N   0  3  1  0  0  0  0  0  0  0  0  0
  146.5513  138.5402  153.2402 C   0  0  0  0  0  0  0  0  0  0  0  0
  145.8705  137.5891  152.2355 C   0  0  1  0  0  0  0  0  0  0  0  0
  146.3493  137.8774  150.9355 O   0  0  0  0  0  0  0  0  0  0  0  0
  146.1552  136.1095  152.5644 C   0  0  0  0  0  0  0  0  0  0  0  0
  145.2547  135.1823  151.8651 N   0  0  0  0  0  0  0  0  0  0  0  0
  144.1420  135.4346  151.1227 C   0  0  0  0  0  0  0  0  0  0  0  0
  143.6578  134.2381  150.6877 N   0  3  0  0  0  0  0  0  0  0  0  0
  144.4734  133.2061  151.1573 C   0  0  0  0  0  0  0  0  0  0  0  0
  144.3926  131.8282  150.9835 C   0  0  0  0  0  0  0  0  0  0  0  0
  145.3921  131.0501  151.6040 C   0  0  0  0  0  0  0  0  0  0  0  0
  145.3588  129.7032  151.4701 F   0  0  0  0  0  0  0  0  0  0  0  0
  146.4229  131.6471  152.3607 C   0  0  0  0  0  0  0  0  0  0  0  0
  147.3626  130.8637  152.9410 F   0  0  0  0  0  0  0  0  0  0  0  0
  146.4959  133.0461  152.5275 C   0  0  0  0  0  0  0  0  0  0  0  0
  145.5021  133.8063  151.9131 C   0  0  0  0  0  0  0  0  0  0  0  0
  148.8681  139.1603  153.8894 C   0  0  0  0  0  0  0  0  0  0  0  0
  150.2707  138.6032  154.1854 C   0  0  0  0  0  0  0  0  0  0  0  0
  152.0047  136.4771  154.8288 H   0  0  0  0  0  0  0  0  0  0  0  0
  151.6180  136.4042  156.5459 H   0  0  0  0  0  0  0  0  0  0  0  0
  152.3665  137.8476  155.8744 H   0  0  0  0  0  0  0  0  0  0  0  0
  149.9461  138.2180  156.2709 H   0  0  0  0  0  0  0  0  0  0  0  0
  149.5218  135.9096  154.3226 H   0  0  0  0  0  0  0  0  0  0  0  0
  149.1306  135.9023  156.0250 H   0  0  0  0  0  0  0  0  0  0  0  0
  147.1240  136.3367  154.6275 H   0  0  0  0  0  0  0  0  0  0  0  0
  147.4394  137.6896  155.6973 H   0  0  0  0  0  0  0  0  0  0  0  0
  145.9024  138.6409  154.1119 H   0  0  0  0  0  0  0  0  0  0  0  0
  146.6453  139.5419  152.8178 H   0  0  0  0  0  0  0  0  0  0  0  0
  144.7926  137.7450  152.2376 H   0  0  0  0  0  0  0  0  0  0  0  0
  145.6104  138.0304  150.3660 H   0  0  0  0  0  0  0  0  0  0  0  0
  147.1760  135.8475  152.2821 H   0  0  0  0  0  0  0  0  0  0  0  0
  146.0745  135.9246  153.6363 H   0  0  0  0  0  0  0  0  0  0  0  0
  143.7173  136.4071  150.9178 H   0  0  0  0  0  0  0  0  0  0  0  0
  143.6059  131.3667  150.4047 H   0  0  0  0  0  0  0  0  0  0  0  0
  147.2899  133.4921  153.1071 H   0  0  0  0  0  0  0  0  0  0  0  0
  148.9235  139.8077  153.0151 H   0  0  0  0  0  0  0  0  0  0  0  0
  148.5303  139.7826  154.7198 H   0  0  0  0  0  0  0  0  0  0  0  0
  150.9598  139.4274  154.3736 H   0  0  0  0  0  0  0  0  0  0  0  0
  150.6477  138.0809  153.3049 H   0  0  0  0  0  0  0  0  0  0  0  0
  148.2470  137.5055  152.8960 H   0  0  0  0  0  0  0  0  0  0  0  0
  142.8307  134.1367  150.1130 H   0  0  0  0  0  0  0  0  0  0  0  0
  1  2  1  0  0  0  0
  1 23  1  0  0  0  0
  1 24  1  0  0  0  0
  1 25  1  0  0  0  0
  2 22  1  0  0  0  0
  2  3  1  0  0  0  0
  2 26  1  0  0  0  0
  3  4  1  0  0  0  0
  3 27  1  0  0  0  0
  3 28  1  0  0  0  0
  4  5  1  0  0  0  0
  4 29  1  0  0  0  0
  4 30  1  0  0  0  0
  5  6  1  0  0  0  0
  5 21  1  0  0  0  0
  5 44  1  0  0  0  0
  6  7  1  0  0  0  0
  6 31  1  0  0  0  0
  6 32  1  0  0  0  0
  7  8  1  0  0  0  0
  7  9  1  0  0  0  0
  7 33  1  0  0  0  0
  8 34  1  0  0  0  0
  9 10  1  0  0  0  0
  9 35  1  0  0  0  0
  9 36  1  0  0  0  0
 10 20  1  0  0  0  0
 10 11  1  0  0  0  0
 11 12  2  0  0  0  0
 11 37  1  0  0  0  0
 12 13  1  0  0  0  0
 12 45  1  0  0  0  0
 13 20  2  0  0  0  0
 13 14  1  0  0  0  0
 14 15  2  0  0  0  0
 14 38  1  0  0  0  0
 15 16  1  0  0  0  0
 15 17  1  0  0  0  0
 17 18  1  0  0  0  0
 17 19  2  0  0  0  0
 19 20  1  0  0  0  0
 19 39  1  0  0  0  0
 21 22  1  0  0  0  0
 21 40  1  0  0  0  0
 21 41  1  0  0  0  0
 22 42  1  0  0  0  0
 22 43  1  0  0  0  0
M  CHG  1   5   1
M  CHG  1  12   1
M  END
> <s_m_source_file>
AV-unprocessed.smi

> <i_m_source_file_index>
1702

> <i_lp_mmshare_version>
43012

> <i_f3d_flags>
0

> <s_epik_input>
W0NIM11bQ0hdMVtDSDJdW0NIMl1OKFtDSDJdW0NIMl0xKVtDSDJdW0NASF0oW09IXSlbQ0gyXW4oW2NIXW4yKWMoYzIzKVtjSF1jKEYpYyhGKVtjSF0z

> <s_epik_cmdline>
J2VwaWtfcHl0aG9uJywgJy1waCcsICc3LjAnLCAnLXRuJywgJzgnLCAnLW1hJywgJzIwMCcsICctbWV0YWxfYmluZGluZycsICctaW1hZScsICc8aW5maWxlLm1hZT4nLCAnLW9tYWUnLCAnPG91dGZpbGUubWFlPic=

> <r_epik_Ionization_Penalty>
2.33291

> <r_epik_Ionization_Penalty_Charging>
2.33291

> <r_epik_Ionization_Penalty_Neutral>
6.90208e-07

> <r_epik_State_Penalty>
2.4838

> <r_epik_Charging_Adjusted_Penalty>
4.81672

> <i_epik_Tot_Q>
2

> <i_epik_Tot_abs_Q>
2

> <r_epik_Metal_State_Penalty>
6.56754

> <b_epik_Metal_Only>
0

> <s_lp_Force_Field>
OPLS_2005

> <r_lp_Energy>
29.8556

> <b_lp_Chiralities_Consistent>
1

> <s_lp_Variant>
AV-unprocessed.smi:1702-6

> <Gold.Version>
5.8.1

> <Gold.Id.Protein>
6NUR|6NUR_protein|mol2

> <Gold.PLP.Fitness>
56.9713

> <Gold.PLP.PLP>
-37.5919

> <Gold.PLP.part.hbond>
-4.7774

> <Gold.PLP.part.metal>
0.0000

> <Gold.PLP.part.buried>
-2.8764

> <Gold.PLP.part.nonpolar>
-31.0712

> <Gold.PLP.part.repulsive>
0.0257

> <Gold.PLP.ligand.clash>
0.0000

> <Gold.PLP.ligand.torsion>
0.8252

> <Gold.PLP.Chemscore.Hbond>
6.0000

> <Gold.PLP.Chemscore.CHOScore>
1.0000

> <Gold.PLP.Chemscore.Metal>
0.0000

> <Gold.Chemscore.Hbonds>
donor molecule, donor type, donor heavy atom, donor atom, acceptor molecule, acceptor atom, score
      L1  H     5    44       P1  7948  2.00
      L1  H     8    34       P1 10171  1.00
      L1  H    12    45       P1 10186  2.00
      P1  H  7954  7966       L1     8  0.84
      L1  C    11    37       P1 10171  1.00

> <Gold.PLP.Chemscore.Internal.Correction>
0.0299

> <Gold.Rescore>
     Score         DG    S(hbond)    S(metal)    S(lipo)     H(rot)  DE(clash)    DE(int)     intcor
     18.71     -20.70       3.66        0.00      76.28       2.32       0.82       1.17       ----

> <Gold.Chemscore.Fitness>
18.7077

> <Gold.Chemscore.DG>
-20.6952

> <Gold.Chemscore.ZeroCoef>
-5.4800

> <Gold.Chemscore.Hbond>
3.6625

> <Gold.Chemscore.Metal>
0.0000

> <Gold.Chemscore.Lipo>
76.2755

> <Gold.Chemscore.Internal_Hbond>
0.0000

> <Gold.Chemscore.DEClash>
0.8179

> <Gold.Chemscore.DEInternal>
1.1696

> <Gold.Chemscore.Rot>
2.3210

> <Gold.Chemscore.Internal.Correction>
   9.000000E+99

> <Gold.Chemscore.Hbonds>
donor molecule, donor type, donor heavy atom, donor atom, acceptor molecule, acceptor atom, score
      L1  H     5    44       P1  7948  1.00
      L1  H     8    34       P1 10171  0.99
      L1  H    12    45       P1 10186  0.95
      P1  H  7954  7966       L1     8  0.68

> <Gold.Chemscore.Hbond.Weighted>
-12.2326

> <Gold.Chemscore.Metal.Weighted>
-0.0000

> <Gold.Chemscore.Lipo.Weighted>
-8.9242

> <Gold.Chemscore.Internal_Hbond.Weighted>
0.0000

> <Gold.Chemscore.DEClash.Weighted>
0.8179

> <Gold.Chemscore.DEInternal.Weighted>
1.1696

> <Gold.Chemscore.Rot.Weighted>
5.9416

> <Gold.Chemscore.Internal.Correction.Weighted>
   9.000000E+99

> <Gold.Protein.RotatedTorsions>
[ 6907 6896 6895 6894 ] final    8.69 input  -60.11 | X-H torsion
[ 7974 7965 7964 7962 ] final  -62.83 input  175.53 | X-H torsion
[ 8008 7997 7996 7995 ] final -164.97 input   59.86 | X-H torsion
[ 10167 10162 10161 10158 ] final  -34.24 input  -65.29 | X-H torsion
[ 10718 10713 10712 10709 ] final  -11.76 input   66.30 | X-H torsion
[ 10763 10752 10751 10750 ] final  -43.46 input  -60.55 | X-H torsion
[ 11005 11000 10999 10996 ] final  103.68 input  -57.11 | X-H torsion

> <Gold.Protein.ActiveResidues>
 VAL166  LYS551  ARG553  GLY616  TRP617  ASP618  TYR619  PRO620  LYS621  CYS622 
 ASP623  PHE694  ASN695  SER759  ASP760  ASP761  ALA762  ILE779  LEU786  VAL792 
 PHE793  MET794  SER795  GLU796  ALA797  LYS798  CYS799  TRP800  GLU811  SER814 

> <Gold.Protein.RotatedAtoms>
  151.7101  135.0914  160.0265 H   0  0  0  0  0  0  0  0  0  0  0  0  # atno 6907 bound_to 6896
  152.3667  133.6361  159.6064 H   0  0  0  0  0  0  0  0  0  0  0  0  # atno 6908 bound_to 6896
  150.7643  133.9253  159.3452 H   0  0  0  0  0  0  0  0  0  0  0  0  # atno 6909 bound_to 6896
  145.7864  140.8734  143.0303 H   0  0  0  0  0  0  0  0  0  0  0  0  # atno 7974 bound_to 7965
  155.8432  140.0951  157.1721 H   0  0  0  0  0  0  0  0  0  0  0  0  # atno 8008 bound_to 7997
  154.3982  140.1397  156.3815 H   0  0  0  0  0  0  0  0  0  0  0  0  # atno 8009 bound_to 7997
  155.8042  140.3452  155.5422 H   0  0  0  0  0  0  0  0  0  0  0  0  # atno 8010 bound_to 7997
  140.7189  143.3562  151.2055 H   0  0  0  0  0  0  0  0  0  0  0  0  # atno 10167 bound_to 10162
  156.6543  130.4963  149.6051 H   0  0  0  0  0  0  0  0  0  0  0  0  # atno 10718 bound_to 10713
  153.9960  135.6699  153.4756 H   0  0  0  0  0  0  0  0  0  0  0  0  # atno 10763 bound_to 10752
  153.0683  135.4988  154.8246 H   0  0  0  0  0  0  0  0  0  0  0  0  # atno 10764 bound_to 10752
  154.7081  135.3092  154.9202 H   0  0  0  0  0  0  0  0  0  0  0  0  # atno 10765 bound_to 10752
  139.8785  134.9272  156.5247 H   0  0  0  0  0  0  0  0  0  0  0  0  # atno 11005 bound_to 11000
  144.6788  140.0062  143.7484 LP  0  0  0  0  0  0  0  0  0  0  0  0  # atno 17320 bound_to 7965
  146.0021  139.3100  143.0921 LP  0  0  0  0  0  0  0  0  0  0  0  0  # atno 17321 bound_to 7965
  139.7104  143.9387  152.2945 LP  0  0  0  0  0  0  0  0  0  0  0  0  # atno 17342 bound_to 10162
  139.9110  144.6857  150.8563 LP  0  0  0  0  0  0  0  0  0  0  0  0  # atno 17343 bound_to 10162
  156.2060  130.6649  151.1219 LP  0  0  0  0  0  0  0  0  0  0  0  0  # atno 17370 bound_to 10713
  157.7131  131.0724  150.6429 LP  0  0  0  0  0  0  0  0  0  0  0  0  # atno 17371 bound_to 10713
  140.8425  133.8194  155.9088 LP  0  0  0  0  0  0  0  0  0  0  0  0  # atno 17394 bound_to 11000
  140.9224  134.2125  157.4918 LP  0  0  0  0  0  0  0  0  0  0  0  0  # atno 17395 bound_to 11000

$$$$
