AV-unprocessed.smi:22|AV-procd|sdf|171|dock3
  -GOLD-   2262015423D 1   1.00000     0.00000
 Structure written by MMmdl.
 56 59  0  0  0  0  0  0  0  0  2 V2000
  143.7495  133.4097  151.3228 C   0  0  0  0  0  0  0  0  0  0  0  0
  144.8238  132.9949  150.3818 N   0  3  2  0  0  0  0  0  0  0  0  0
  144.3274  132.0321  149.3523 C   0  0  0  0  0  0  0  0  0  0  0  0
  143.1514  132.5610  148.5088 C   0  0  0  0  0  0  0  0  0  0  0  0
  143.5258  133.7417  147.8303 O   0  0  0  0  0  0  0  0  0  0  0  0
  146.0622  132.5751  151.1177 C   0  0  0  0  0  0  0  0  0  0  0  0
  145.6978  131.6312  152.2888 C   0  0  0  0  0  0  0  0  0  0  0  0
  146.9441  131.1557  153.0512 C   0  0  0  0  0  0  0  0  0  0  0  0
  147.7343  132.2930  153.5190 N   0  0  0  0  0  0  0  0  0  0  0  0
  148.6930  132.0516  154.4491 C   0  0  0  0  0  0  0  0  0  0  0  0
  149.1189  133.0552  155.2622 N   0  0  0  0  0  0  0  0  0  0  0  0
  150.0514  132.8222  156.1904 C   0  0  0  0  0  0  0  0  0  0  0  0
  150.6835  131.6811  156.4697 N   0  0  0  0  0  0  0  0  0  0  0  0
  150.2698  130.6724  155.6504 C   0  0  0  0  0  0  0  0  0  0  0  0
  149.2866  130.7698  154.6254 C   0  0  0  0  0  0  0  0  0  0  0  0
  149.1332  129.5387  153.9987 N   0  0  0  0  0  0  0  0  0  0  0  0
  149.9712  128.7569  154.6232 C   0  0  0  0  0  0  0  0  0  0  0  0
  150.7012  129.3574  155.6244 N   0  0  0  0  0  0  0  0  0  0  0  0
  151.6985  128.7245  156.4749 C   0  0  0  0  0  0  0  0  0  0  0  0
  152.8630  128.0768  155.6893 C   0  0  2  0  0  0  0  0  0  0  0  0
  152.3642  126.9703  154.9566 O   0  0  0  0  0  0  0  0  0  0  0  0
  153.9865  127.5842  156.5929 C   0  0  0  0  0  0  0  0  0  0  0  0
  155.2102  127.6853  155.6924 C   0  0  0  0  0  0  0  0  0  0  0  0
  154.9865  128.8948  154.9878 O   0  0  0  0  0  0  0  0  0  0  0  0
  153.5942  129.0209  154.7120 C   0  0  0  0  0  0  0  0  0  0  0  0
  148.1332  133.2273  152.4702 C   0  0  0  0  0  0  0  0  0  0  0  0
  146.9093  133.7397  151.6935 C   0  0  0  0  0  0  0  0  0  0  0  0
  143.2841  132.5402  151.7886 H   0  0  0  0  0  0  0  0  0  0  0  0
  142.9759  133.9847  150.8159 H   0  0  0  0  0  0  0  0  0  0  0  0
  144.1214  134.0491  152.1213 H   0  0  0  0  0  0  0  0  0  0  0  0
  145.1191  131.7859  148.6459 H   0  0  0  0  0  0  0  0  0  0  0  0
  144.0390  131.1015  149.8434 H   0  0  0  0  0  0  0  0  0  0  0  0
  142.8748  131.8168  147.7616 H   0  0  0  0  0  0  0  0  0  0  0  0
  142.2560  132.7373  149.1033 H   0  0  0  0  0  0  0  0  0  0  0  0
  144.4565  133.8703  147.9357 H   0  0  0  0  0  0  0  0  0  0  0  0
  146.7000  132.0360  150.4146 H   0  0  0  0  0  0  0  0  0  0  0  0
  145.0295  132.1482  152.9791 H   0  0  0  0  0  0  0  0  0  0  0  0
  145.1549  130.7532  151.9427 H   0  0  0  0  0  0  0  0  0  0  0  0
  146.6363  130.5422  153.8995 H   0  0  0  0  0  0  0  0  0  0  0  0
  147.5588  130.5280  152.4043 H   0  0  0  0  0  0  0  0  0  0  0  0
  150.3298  133.6713  156.7971 H   0  0  0  0  0  0  0  0  0  0  0  0
  150.0855  127.7140  154.3653 H   0  0  0  0  0  0  0  0  0  0  0  0
  152.0842  129.4760  157.1650 H   0  0  0  0  0  0  0  0  0  0  0  0
  151.1964  127.9764  157.0899 H   0  0  0  0  0  0  0  0  0  0  0  0
  151.9909  127.2904  154.1496 H   0  0  0  0  0  0  0  0  0  0  0  0
  154.1144  128.2585  157.4409 H   0  0  0  0  0  0  0  0  0  0  0  0
  153.8252  126.5804  156.9886 H   0  0  0  0  0  0  0  0  0  0  0  0
  156.1464  127.7114  156.2499 H   0  0  0  0  0  0  0  0  0  0  0  0
  155.2491  126.8526  154.9884 H   0  0  0  0  0  0  0  0  0  0  0  0
  153.3926  128.7742  153.6685 H   0  0  0  0  0  0  0  0  0  0  0  0
  153.3183  130.0643  154.8585 H   0  0  0  0  0  0  0  0  0  0  0  0
  148.6782  134.0764  152.8816 H   0  0  0  0  0  0  0  0  0  0  0  0
  148.8178  132.7187  151.7900 H   0  0  0  0  0  0  0  0  0  0  0  0
  147.2740  134.3886  150.8971 H   0  0  0  0  0  0  0  0  0  0  0  0
  146.2993  134.3559  152.3560 H   0  0  0  0  0  0  0  0  0  0  0  0
  145.0854  133.8221  149.8641 H   0  0  0  0  0  0  0  0  0  0  0  0
  1  2  1  0  0  0  0
  1 28  1  0  0  0  0
  1 29  1  0  0  0  0
  1 30  1  0  0  0  0
  2  3  1  0  0  0  0
  2  6  1  0  0  0  0
  2 56  1  0  0  0  0
  3  4  1  0  0  0  0
  3 31  1  0  0  0  0
  3 32  1  0  0  0  0
  4  5  1  0  0  0  0
  4 33  1  0  0  0  0
  4 34  1  0  0  0  0
  5 35  1  0  0  0  0
  6 27  1  0  0  0  0
  6  7  1  0  0  0  0
  6 36  1  0  0  0  0
  7  8  1  0  0  0  0
  7 37  1  0  0  0  0
  7 38  1  0  0  0  0
  8  9  1  0  0  0  0
  8 39  1  0  0  0  0
  8 40  1  0  0  0  0
  9 10  1  0  0  0  0
  9 26  1  0  0  0  0
 10 15  1  0  0  0  0
 10 11  2  0  0  0  0
 11 12  1  0  0  0  0
 12 13  2  0  0  0  0
 12 41  1  0  0  0  0
 13 14  1  0  0  0  0
 14 18  1  0  0  0  0
 14 15  2  0  0  0  0
 15 16  1  0  0  0  0
 16 17  2  0  0  0  0
 17 18  1  0  0  0  0
 17 42  1  0  0  0  0
 18 19  1  0  0  0  0
 19 20  1  0  0  0  0
 19 43  1  0  0  0  0
 19 44  1  0  0  0  0
 20 25  1  0  0  0  0
 20 21  1  0  0  0  0
 20 22  1  0  0  0  0
 21 45  1  0  0  0  0
 22 23  1  0  0  0  0
 22 46  1  0  0  0  0
 22 47  1  0  0  0  0
 23 24  1  0  0  0  0
 23 48  1  0  0  0  0
 23 49  1  0  0  0  0
 24 25  1  0  0  0  0
 25 50  1  0  0  0  0
 25 51  1  0  0  0  0
 26 27  1  0  0  0  0
 26 52  1  0  0  0  0
 26 53  1  0  0  0  0
 27 54  1  0  0  0  0
 27 55  1  0  0  0  0
M  CHG  1   2   1
M  END
> <s_m_source_file>
AV-unprocessed.smi

> <i_m_source_file_index>
22

> <i_lp_mmshare_version>
43012

> <i_f3d_flags>
0

> <s_epik_input>
W09IXVtDSDJdW0NIMl1OKFtDSDNdKVtDSF0xW0NIMl1bQ0gyXU4oW0NIMl1bQ0gyXTEpYyhuW2NIXW4yKWMoYzIzKW5bY0hdbjNbQ0gyXVtDQEBdNChbT0hdKVtDSDJdW0NIMl1PW0NIMl00

> <s_epik_cmdline>
J2VwaWtfcHl0aG9uJywgJy1waCcsICc3LjAnLCAnLXRuJywgJzgnLCAnLW1hJywgJzIwMCcsICctbWV0YWxfYmluZGluZycsICctaW1hZScsICc8aW5maWxlLm1hZT4nLCAnLW9tYWUnLCAnPG91dGZpbGUubWFlPic=

> <r_lp_tautomer_probability>
1

> <r_epik_Ionization_Penalty>
0.00317524

> <r_epik_Ionization_Penalty_Charging>
0.00191487

> <r_epik_Ionization_Penalty_Neutral>
0.00126037

> <r_epik_State_Penalty>
-0

> <r_epik_Charging_Adjusted_Penalty>
0.00191487

> <i_epik_Tot_Q>
1

> <i_epik_Tot_abs_Q>
1

> <r_epik_Metal_State_Penalty>
-0

> <b_epik_Metal_Only>
0

> <s_lp_Force_Field>
OPLS_2005

> <r_lp_Energy>
48.0385

> <b_lp_Chiralities_Consistent>
1

> <s_lp_Variant>
AV-unprocessed.smi:22-3

> <Gold.Version>
5.8.1

> <Gold.Id.Protein>
6NUR|6NUR_protein|mol2

> <Gold.PLP.Fitness>
52.5655

> <Gold.PLP.PLP>
-42.3338

> <Gold.PLP.part.hbond>
-4.8971

> <Gold.PLP.part.metal>
0.0000

> <Gold.PLP.part.buried>
-0.1910

> <Gold.PLP.part.nonpolar>
-36.9199

> <Gold.PLP.part.repulsive>
0.3151

> <Gold.PLP.ligand.clash>
0.0000

> <Gold.PLP.ligand.torsion>
0.7861

> <Gold.PLP.Chemscore.Hbond>
3.0000

> <Gold.PLP.Chemscore.CHOScore>
0.7843

> <Gold.PLP.Chemscore.Metal>
0.0000

> <Gold.Chemscore.Hbonds>
donor molecule, donor type, donor heavy atom, donor atom, acceptor molecule, acceptor atom, score
      L1  H     5    35       P1  7921  1.00
      P1  H 10192 10197       L1     5  0.63

> <Gold.PLP.Chemscore.Internal.Correction>
0.4510

> <Gold.Rescore>
     Score         DG    S(hbond)    S(metal)    S(lipo)     H(rot)  DE(clash)    DE(int)     intcor
     13.10     -15.62       2.67        0.00      92.57       3.76       0.45       2.07       ----

> <Gold.Chemscore.Fitness>
13.1048

> <Gold.Chemscore.DG>
-15.6197

> <Gold.Chemscore.ZeroCoef>
-5.4800

> <Gold.Chemscore.Hbond>
2.6739

> <Gold.Chemscore.Metal>
0.0000

> <Gold.Chemscore.Lipo>
92.5661

> <Gold.Chemscore.Internal_Hbond>
0.0000

> <Gold.Chemscore.DEClash>
0.4498

> <Gold.Chemscore.DEInternal>
2.0652

> <Gold.Chemscore.Rot>
3.7583

> <Gold.Chemscore.Internal.Correction>
   9.000000E+99

> <Gold.Chemscore.Hbonds>
donor molecule, donor type, donor heavy atom, donor atom, acceptor molecule, acceptor atom, score
      L1  H     5    35       P1  7921  0.96
      L1  H    21    45       P1 10737  0.05
      P1  H 10192 10197       L1     5  0.62

> <Gold.Chemscore.Hbond.Weighted>
-8.9307

> <Gold.Chemscore.Metal.Weighted>
-0.0000

> <Gold.Chemscore.Lipo.Weighted>
-10.8302

> <Gold.Chemscore.Internal_Hbond.Weighted>
0.0000

> <Gold.Chemscore.DEClash.Weighted>
0.4498

> <Gold.Chemscore.DEInternal.Weighted>
2.0652

> <Gold.Chemscore.Rot.Weighted>
9.6213

> <Gold.Chemscore.Internal.Correction.Weighted>
   9.000000E+99

> <Gold.Protein.RotatedTorsions>
[ 6907 6896 6895 6894 ] final   82.25 input  -60.11 | X-H torsion
[ 7974 7965 7964 7962 ] final  -74.77 input  175.53 | X-H torsion
[ 8008 7997 7996 7995 ] final -148.69 input   59.86 | X-H torsion
[ 10167 10162 10161 10158 ] final   75.03 input  -65.29 | X-H torsion
[ 10718 10713 10712 10709 ] final   97.90 input   66.30 | X-H torsion
[ 10763 10752 10751 10750 ] final  163.06 input  -60.55 | X-H torsion
[ 11005 11000 10999 10996 ] final -130.12 input  -57.11 | X-H torsion

> <Gold.Protein.ActiveResidues>
 VAL166  LYS551  ARG553  GLY616  TRP617  ASP618  TYR619  PRO620  LYS621  CYS622 
 ASP623  PHE694  ASN695  SER759  ASP760  ASP761  ALA762  ILE779  LEU786  VAL792 
 PHE793  MET794  SER795  GLU796  ALA797  LYS798  CYS799  TRP800  GLU811  SER814 

> <Gold.Protein.RotatedAtoms>
  152.5293  134.3078  159.9102 H   0  0  0  0  0  0  0  0  0  0  0  0  # atno 6907 bound_to 6896
  151.3028  133.4108  159.2648 H   0  0  0  0  0  0  0  0  0  0  0  0  # atno 6908 bound_to 6896
  151.0104  134.9409  159.8061 H   0  0  0  0  0  0  0  0  0  0  0  0  # atno 6909 bound_to 6896
  145.6347  140.9328  143.1068 H   0  0  0  0  0  0  0  0  0  0  0  0  # atno 7974 bound_to 7965
  155.5957  140.0657  157.2746 H   0  0  0  0  0  0  0  0  0  0  0  0  # atno 8008 bound_to 7997
  154.4292  140.1827  156.1168 H   0  0  0  0  0  0  0  0  0  0  0  0  # atno 8009 bound_to 7997
  156.0198  140.3318  155.7030 H   0  0  0  0  0  0  0  0  0  0  0  0  # atno 8010 bound_to 7997
  140.0074  144.5640  150.7687 H   0  0  0  0  0  0  0  0  0  0  0  0  # atno 10167 bound_to 10162
  157.6905  131.0623  150.4714 H   0  0  0  0  0  0  0  0  0  0  0  0  # atno 10718 bound_to 10713
  154.2879  135.2761  155.2668 H   0  0  0  0  0  0  0  0  0  0  0  0  # atno 10763 bound_to 10752
  154.5160  135.5769  153.6645 H   0  0  0  0  0  0  0  0  0  0  0  0  # atno 10764 bound_to 10752
  152.9919  135.6192  154.3042 H   0  0  0  0  0  0  0  0  0  0  0  0  # atno 10765 bound_to 10752
  140.9373  134.1240  157.4182 H   0  0  0  0  0  0  0  0  0  0  0  0  # atno 11005 bound_to 11000
  144.7180  139.8129  143.7392 LP  0  0  0  0  0  0  0  0  0  0  0  0  # atno 17320 bound_to 7965
  146.1329  139.4368  143.0157 LP  0  0  0  0  0  0  0  0  0  0  0  0  # atno 17321 bound_to 7965
  140.7395  143.2792  151.3649 LP  0  0  0  0  0  0  0  0  0  0  0  0  # atno 17342 bound_to 10162
  139.6229  144.0871  152.2408 LP  0  0  0  0  0  0  0  0  0  0  0  0  # atno 17343 bound_to 10162
  156.5051  130.4126  149.6331 LP  0  0  0  0  0  0  0  0  0  0  0  0  # atno 17370 bound_to 10713
  156.3292  130.7322  151.2248 LP  0  0  0  0  0  0  0  0  0  0  0  0  # atno 17371 bound_to 10713
  139.8811  135.0025  156.6131 LP  0  0  0  0  0  0  0  0  0  0  0  0  # atno 17394 bound_to 11000
  140.7782  133.8682  155.8546 LP  0  0  0  0  0  0  0  0  0  0  0  0  # atno 17395 bound_to 11000

$$$$
