#       Name:                AV-unprocessed.smi:3284
#       Creating user name   scv26
#       Creation time:       Fri Mar 27 18:50:04 2020


#       File generated by GOLD software.
#

@<TRIPOS>MOLECULE
AV-unprocessed.smi:3284
    45    46     1
SMALL
NO_CHARGES


@<TRIPOS>ATOM
      1 ****        -0.2806   1.1369  -1.3423 C.3            1 S1                 0.0000
      2 ****        -1.4771   1.2927  -0.4168 C.2            1 S1                 0.0000
      3 ****        -2.6418   1.7573  -0.9080 C.2            1 S1                 0.0000
      4 ****        -3.8737   2.0236  -0.0741 C.3            1 S1                 0.0000
      5 ****        -3.5119   2.1845   1.4043 C.3            1 S1                 0.0000
      6 ****        -2.6175   1.0326   1.8911 C.3            1 S1                 0.0000
      7 ****        -2.3669   1.1837   3.4042 C.3            1 S1                 0.0000
      8 ****        -1.2939   0.9274   1.0723 C.3            1 S1                 0.0000
      9 ****        -0.6522  -0.4711   1.2711 C.3            1 S1                 0.0000
     10 ****         0.7884  -0.4812   0.9469 N.4            1 S1                 1.0000
     11 ****         1.3970  -1.8254   0.8944 C.3            1 S1                 0.0000
     12 ****         2.8472  -1.7679   0.3855 C.3            1 S1                 0.0000
     13 ****         2.9810  -1.1949  -0.9955 C.2            1 S1                 0.0000
     14 ****         3.3723   0.0534  -1.2815 N.pl3          1 S1                 1.0000
     15 ****         3.3641   0.2591  -2.6342 C.2            1 S1                 0.0000
     16 ****         2.9506  -0.9173  -3.2015 C.2            1 S1                 0.0000
     17 ****         2.7250  -1.7940  -2.1713 N.pl3          1 S1                 0.0000
     18 ****         2.2737  -3.1814  -2.2970 C.3            1 S1                 0.0000
     19 ****         0.5969   1.6266  -0.9199 H              1 S1                 0.0000
     20 ****        -0.4720   1.5895  -2.3158 H              1 S1                 0.0000
     21 ****        -0.0538   0.0851  -1.5153 H              1 S1                 0.0000
     22 ****        -2.7330   1.9794  -1.9616 H              1 S1                 0.0000
     23 ****        -4.3613   2.9296  -0.4349 H              1 S1                 0.0000
     24 ****        -4.5768   1.2023  -0.2160 H              1 S1                 0.0000
     25 ****        -2.9956   3.1345   1.5511 H              1 S1                 0.0000
     26 ****        -4.4264   2.2363   1.9964 H              1 S1                 0.0000
     27 ****        -3.1824   0.1110   1.7405 H              1 S1                 0.0000
     28 ****        -1.7927   2.0848   3.6220 H              1 S1                 0.0000
     29 ****        -1.8264   0.3372   3.8247 H              1 S1                 0.0000
     30 ****        -3.3087   1.2571   3.9492 H              1 S1                 0.0000
     31 ****        -0.6094   1.6771   1.4720 H              1 S1                 0.0000
     32 ****        -0.7486  -0.8159   2.2993 H              1 S1                 0.0000
     33 ****        -1.1777  -1.2005   0.6528 H              1 S1                 0.0000
     34 ****         0.8955  -0.0545   0.0379 H              1 S1                 0.0000
     35 ****         1.3686  -2.2673   1.8908 H              1 S1                 0.0000
     36 ****         0.8009  -2.4679   0.2463 H              1 S1                 0.0000
     37 ****         3.4638  -1.1580   1.0473 H              1 S1                 0.0000
     38 ****         3.2901  -2.7640   0.3672 H              1 S1                 0.0000
     39 ****         3.6469   1.2017  -3.0803 H              1 S1                 0.0000
     40 ****         2.8065  -1.1885  -4.2376 H              1 S1                 0.0000
     41 ****         2.2762  -3.4703  -3.3486 H              1 S1                 0.0000
     42 ****         1.2613  -3.2710  -1.9043 H              1 S1                 0.0000
     43 ****         2.9481  -3.8376  -1.7463 H              1 S1                 0.0000
     44 ****         1.2792   0.0807   1.6281 H              1 S1                 0.0000
     45 ****         3.6455   0.7451  -0.5945 H              1 S1                 0.0000
@<TRIPOS>BOND
    1    1    2 1     
    2    1   19 1     
    3    1   20 1     
    4    1   21 1     
    5    2    8 1     
    6    2    3 2     
    7    3    4 1     
    8    3   22 1     
    9    4    5 1     
   10    4   23 1     
   11    4   24 1     
   12    5    6 1     
   13    5   25 1     
   14    5   26 1     
   15    6    7 1     
   16    6    8 1     
   17    6   27 1     
   18    7   28 1     
   19    7   29 1     
   20    7   30 1     
   21    8    9 1     
   22    8   31 1     
   23    9   10 1     
   24    9   32 1     
   25    9   33 1     
   26   10   11 1     
   27   10   34 1     
   28   10   44 1     
   29   11   12 1     
   30   11   35 1     
   31   11   36 1     
   32   12   13 1     
   33   12   37 1     
   34   12   38 1     
   35   13   17 1     
   36   13   14 2     
   37   14   15 1     
   38   14   45 1     
   39   15   16 2     
   40   15   39 1     
   41   16   17 1     
   42   16   40 1     
   43   17   18 1     
   44   18   41 1     
   45   18   42 1     
   46   18   43 1     
@<TRIPOS>SUBSTRUCTURE
      1 S1             1
@<TRIPOS>SET
DONOR_HYDROGENS      STATIC     ATOMS    <user>   **** ""
3 34 44 45
ATOM$RED        STATIC     ATOMS    COLORGROUP SYSTEM
3 34 44 45
