#       Name:                AV-unprocessed.smi:2154
#       Creating user name   scv26
#       Creation time:       Fri Mar 27 11:55:41 2020


#       File generated by GOLD software.
#

@<TRIPOS>MOLECULE
AV-unprocessed.smi:2154
    38    39     1
SMALL
NO_CHARGES


@<TRIPOS>ATOM
      1 ****        -4.8191  -0.8696  -0.2640 C.3            1 S1                 0.0000
      2 ****        -4.0694   0.1352   0.5880 C.3            1 S1                 0.0000
      3 ****        -3.4224  -0.2858   1.8870 C.3            1 S1                 0.0000
      4 ****        -2.5591   0.1255   0.7165 C.3            1 S1                 0.0000
      5 ****        -1.6950  -0.8896  -0.0128 C.3            1 S1                 0.0000
      6 ****        -0.2992  -0.9194   0.4039 N.am           1 S1                 0.0000
      7 ****         0.6341  -0.0290   0.0357 C.2            1 S1                 0.0000
      8 ****         0.3964   0.9337  -0.6951 O.2            1 S1                 0.0000
      9 ****         2.0404  -0.2492   0.6100 C.3            1 S1                 0.0000
     10 ****         3.1081   0.2207  -0.2876 N.am           1 S1                 0.0000
     11 ****         3.6501   1.4959  -0.0482 C.2            1 S1                 0.0000
     12 ****         4.6279   2.0082  -0.8194 C.2            1 S1                 0.0000
     13 ****         5.1260   1.2035  -1.9280 C.2            1 S1                 0.0000
     14 ****         6.0229   1.6529  -2.6388 O.2            1 S1                 0.0000
     15 ****         4.5640  -0.0252  -2.1230 N.pl3          1 S1                -1.0000
     16 ****         3.5677  -0.5323  -1.3322 C.2            1 S1                 0.0000
     17 ****         3.0727  -1.6431  -1.5272 O.2            1 S1                 0.0000
     18 ****        -4.4134  -1.8737  -0.1432 H              1 S1                 0.0000
     19 ****        -4.7548  -0.5904  -1.3158 H              1 S1                 0.0000
     20 ****        -5.8698  -0.8903   0.0252 H              1 S1                 0.0000
     21 ****        -4.5256   1.1232   0.5813 H              1 S1                 0.0000
     22 ****        -3.4877   0.4024   2.7273 H              1 S1                 0.0000
     23 ****        -3.4509  -1.3417   2.1493 H              1 S1                 0.0000
     24 ****        -2.1069   1.1141   0.7748 H              1 S1                 0.0000
     25 ****        -2.1036  -1.8892   0.1338 H              1 S1                 0.0000
     26 ****        -1.7507  -0.6903  -1.0841 H              1 S1                 0.0000
     27 ****        -0.0181  -1.6767   1.0097 H              1 S1                 0.0000
     28 ****         2.0975   0.2652   1.5700 H              1 S1                 0.0000
     29 ****         2.1845  -1.3059   0.8432 H              1 S1                 0.0000
     30 ****         3.2212   2.0285   0.7875 H              1 S1                 0.0000
     31 ****         5.0312   2.9910  -0.6245 H              1 S1                 0.0000
     32 ****        -0.5293   1.0803  -1.0437 LP             1 S1                 0.0000
     33 ****         1.1292   1.5687  -0.9397 LP             1 S1                 0.0000
     34 ****         6.4012   2.5598  -2.4529 LP             1 S1                 0.0000
     35 ****         6.3741   1.1116  -3.4028 LP             1 S1                 0.0000
     36 ****         4.8971  -0.5838  -2.8826 LP             1 S1                 0.0000
     37 ****         2.3476  -1.9798  -0.9265 LP             1 S1                 0.0000
     38 ****         3.3959  -2.2082  -2.2862 LP             1 S1                 0.0000
@<TRIPOS>BOND
    1    1    2 1     
    2    1   18 1     
    3    1   19 1     
    4    1   20 1     
    5    2    4 1     
    6    2    3 1     
    7    2   21 1     
    8    3    4 1     
    9    3   22 1     
   10    3   23 1     
   11    4    5 1     
   12    4   24 1     
   13    5    6 1     
   14    5   25 1     
   15    5   26 1     
   16    6    7 am    
   17    6   27 1     
   18    7    8 2     
   19    7    9 1     
   20    9   10 1     
   21    9   28 1     
   22    9   29 1     
   23   10   16 am    
   24   10   11 1     
   25   11   12 2     
   26   11   30 1     
   27   12   13 1     
   28   12   31 1     
   29   13   14 2     
   30   13   15 1     
   31   15   16 1     
   32   16   17 2     
   33    8   32 1     
   34    8   33 1     
   35   14   34 1     
   36   14   35 1     
   37   15   36 1     
   38   17   37 1     
   39   17   38 1     
@<TRIPOS>SUBSTRUCTURE
      1 S1             1
@<TRIPOS>SET
LONE_PAIRS      STATIC     ATOMS    <user>   **** ""
7 32 33 34 35 36 37 38
DONOR_HYDROGENS      STATIC     ATOMS    <user>   **** ""
1 27
ATOM$BLUE        STATIC     ATOMS    COLORGROUP SYSTEM
7 32 33 34 35 36 37 38
ATOM$RED        STATIC     ATOMS    COLORGROUP SYSTEM
1 27
