AV-unprocessed.smi:2871|AV-procd|sdf|11030|dock4
  -GOLD-   2272015493D 1   1.00000     0.00000
 Structure written by MMmdl.
 38 40  0  0  0  0  0  0  0  0  1 V2000
  151.9540  144.5490  160.6216 C   0  0  0  0  0  0  0  0  0  0  0  0
  152.1658  143.8246  159.3728 N   0  0  0  0  0  0  0  0  0  0  0  0
  152.1119  144.5305  158.0988 C   0  0  0  0  0  0  0  0  0  0  0  0
  152.5230  142.4586  159.4098 C   0  0  0  0  0  0  0  0  0  0  0  0
  153.6180  141.9880  160.1749 C   0  0  0  0  0  0  0  0  0  0  0  0
  153.8776  140.5994  160.1372 C   0  0  0  0  0  0  0  0  0  0  0  0
  155.0219  139.9695  160.9171 C   0  0  0  0  0  0  0  0  0  0  0  0
  154.9131  138.6411  160.8819 F   0  0  0  0  0  0  0  0  0  0  0  0
  156.2079  140.3092  160.4108 F   0  0  0  0  0  0  0  0  0  0  0  0
  154.9743  140.3718  162.1872 F   0  0  0  0  0  0  0  0  0  0  0  0
  153.1146  139.7574  159.4048 N   0  0  0  0  0  0  0  0  0  0  0  0
  152.1075  140.2949  158.7177 C   0  0  0  0  0  0  0  0  0  0  0  0
  151.3456  139.4054  157.9827 N   0  0  0  0  0  0  0  0  0  0  0  0
  150.2771  139.7910  157.0693 C   0  0  2  0  0  0  0  0  0  0  0  0
  149.7654  138.6249  156.2142 C   0  0  0  0  0  0  0  0  0  0  0  0
  149.9472  139.1718  154.7930 C   0  0  1  0  0  0  0  0  0  0  0  0
  148.9797  140.3224  154.4831 C   0  0  0  0  0  0  0  0  0  0  0  0
  149.5795  141.4646  155.3029 C   0  0  0  0  0  0  0  0  0  0  0  0
  150.7643  140.7723  155.9900 C   0  0  2  0  0  0  0  0  0  0  0  0
  151.1602  139.8851  154.9562 O   0  0  0  0  0  0  0  0  0  0  0  0
  151.7794  141.5901  158.6829 N   0  0  0  0  0  0  0  0  0  0  0  0
  151.1369  144.1019  161.1889 H   0  0  0  0  0  0  0  0  0  0  0  0
  151.7006  145.5931  160.4383 H   0  0  0  0  0  0  0  0  0  0  0  0
  152.8551  144.5259  161.2355 H   0  0  0  0  0  0  0  0  0  0  0  0
  151.3635  144.0831  157.4441 H   0  0  0  0  0  0  0  0  0  0  0  0
  153.0806  144.4950  157.5995 H   0  0  0  0  0  0  0  0  0  0  0  0
  151.8472  145.5789  158.2372 H   0  0  0  0  0  0  0  0  0  0  0  0
  154.2350  142.6477  160.7657 H   0  0  0  0  0  0  0  0  0  0  0  0
  151.4987  138.4210  158.1466 H   0  0  0  0  0  0  0  0  0  0  0  0
  149.4697  140.2440  157.6466 H   0  0  0  0  0  0  0  0  0  0  0  0
  150.3721  137.7283  156.3511 H   0  0  0  0  0  0  0  0  0  0  0  0
  148.7290  138.3670  156.4339 H   0  0  0  0  0  0  0  0  0  0  0  0
  149.9799  138.4002  154.0236 H   0  0  0  0  0  0  0  0  0  0  0  0
  148.9921  140.5671  153.4203 H   0  0  0  0  0  0  0  0  0  0  0  0
  147.9538  140.0877  154.7690 H   0  0  0  0  0  0  0  0  0  0  0  0
  149.9275  142.2632  154.6469 H   0  0  0  0  0  0  0  0  0  0  0  0
  148.8735  141.8921  156.0159 H   0  0  0  0  0  0  0  0  0  0  0  0
  151.5408  141.4632  156.3208 H   0  0  0  0  0  0  0  0  0  0  0  0
  1  2  1  0  0  0  0
  1 22  1  0  0  0  0
  1 23  1  0  0  0  0
  1 24  1  0  0  0  0
  2  3  1  0  0  0  0
  2  4  1  0  0  0  0
  3 25  1  0  0  0  0
  3 26  1  0  0  0  0
  3 27  1  0  0  0  0
  4 21  1  0  0  0  0
  4  5  2  0  0  0  0
  5  6  1  0  0  0  0
  5 28  1  0  0  0  0
  6  7  1  0  0  0  0
  6 11  2  0  0  0  0
  7  8  1  0  0  0  0
  7  9  1  0  0  0  0
  7 10  1  0  0  0  0
 11 12  1  0  0  0  0
 12 13  1  0  0  0  0
 12 21  2  0  0  0  0
 13 14  1  0  0  0  0
 13 29  1  0  0  0  0
 14 19  1  0  0  0  0
 14 15  1  0  0  0  0
 14 30  1  0  0  0  0
 15 16  1  0  0  0  0
 15 31  1  0  0  0  0
 15 32  1  0  0  0  0
 16 20  1  0  0  0  0
 16 17  1  0  0  0  0
 16 33  1  0  0  0  0
 17 18  1  0  0  0  0
 17 34  1  0  0  0  0
 17 35  1  0  0  0  0
 18 19  1  0  0  0  0
 18 36  1  0  0  0  0
 18 37  1  0  0  0  0
 19 20  1  0  0  0  0
 19 38  1  0  0  0  0
M  END
> <s_m_source_file>
AV-unprocessed.smi

> <i_m_source_file_index>
2871

> <i_lp_mmshare_version>
43012

> <i_f3d_flags>
0

> <s_epik_input>
W0NIM11OKFtDSDNdKWMxW2NIXWMoQyhGKShGKUYpbmMobjEpW05IXVtDQEhdKFtDSDJdW0NAQEhdMjMpW0NAQEhdKE8zKVtDSDJdW0NIMl0y

> <s_epik_cmdline>
J2VwaWtfcHl0aG9uJywgJy1waCcsICc3LjAnLCAnLXRuJywgJzgnLCAnLW1hJywgJzIwMCcsICctbWV0YWxfYmluZGluZycsICctaW1hZScsICc8aW5maWxlLm1hZT4nLCAnLW9tYWUnLCAnPG91dGZpbGUubWFlPic=

> <r_lp_tautomer_probability>
1

> <r_epik_Ionization_Penalty>
0.00695968

> <r_epik_Ionization_Penalty_Charging>
0

> <r_epik_Ionization_Penalty_Neutral>
0.00695968

> <r_epik_State_Penalty>
0.0050343

> <r_epik_Charging_Adjusted_Penalty>
0.0050343

> <i_epik_Tot_Q>
0

> <i_epik_Tot_abs_Q>
0

> <r_epik_Metal_State_Penalty>
-0

> <b_epik_Metal_Only>
0

> <s_lp_Force_Field>
OPLS_2005

> <r_lp_Energy>
32.5714

> <b_lp_Chiralities_Consistent>
1

> <s_lp_Variant>
AV-unprocessed.smi:2871-1

> <Gold.Version>
5.8.1

> <Gold.Id.Protein>
6NUR|6NUR_protein|mol2

> <Gold.PLP.Fitness>
46.8711

> <Gold.PLP.PLP>
-46.4936

> <Gold.PLP.part.hbond>
-1.0000

> <Gold.PLP.part.metal>
0.0000

> <Gold.PLP.part.buried>
-4.8098

> <Gold.PLP.part.nonpolar>
-41.4005

> <Gold.PLP.part.repulsive>
0.1182

> <Gold.PLP.ligand.clash>
0.0000

> <Gold.PLP.ligand.torsion>
1.3282

> <Gold.PLP.Chemscore.Hbond>
1.0000

> <Gold.PLP.Chemscore.CHOScore>
0.0000

> <Gold.PLP.Chemscore.Metal>
0.0000

> <Gold.Chemscore.Hbonds>
donor molecule, donor type, donor heavy atom, donor atom, acceptor molecule, acceptor atom, score
      P1  H  7989  7998       L1    20  1.00

> <Gold.PLP.Chemscore.Internal.Correction>
0.0340

> <Gold.Rescore>
     Score         DG    S(hbond)    S(metal)    S(lipo)     H(rot)  DE(clash)    DE(int)     intcor
     14.29     -16.05       0.94        0.00      85.34       1.00       0.02       1.73       ----

> <Gold.Chemscore.Fitness>
14.2916

> <Gold.Chemscore.DG>
-16.0466

> <Gold.Chemscore.ZeroCoef>
-5.4800

> <Gold.Chemscore.Hbond>
0.9408

> <Gold.Chemscore.Metal>
0.0000

> <Gold.Chemscore.Lipo>
85.3361

> <Gold.Chemscore.Internal_Hbond>
0.0000

> <Gold.Chemscore.DEClash>
0.0202

> <Gold.Chemscore.DEInternal>
1.7348

> <Gold.Chemscore.Rot>
1.0000

> <Gold.Chemscore.Internal.Correction>
   9.000000E+99

> <Gold.Chemscore.Hbonds>
donor molecule, donor type, donor heavy atom, donor atom, acceptor molecule, acceptor atom, score
      P1  H  7989  7998       L1    20  0.62

> <Gold.Chemscore.Hbond.Weighted>
-3.1423

> <Gold.Chemscore.Metal.Weighted>
-0.0000

> <Gold.Chemscore.Lipo.Weighted>
-9.9843

> <Gold.Chemscore.Internal_Hbond.Weighted>
0.0000

> <Gold.Chemscore.DEClash.Weighted>
0.0202

> <Gold.Chemscore.DEInternal.Weighted>
1.7348

> <Gold.Chemscore.Rot.Weighted>
2.5600

> <Gold.Chemscore.Internal.Correction.Weighted>
   9.000000E+99

> <Gold.Protein.RotatedTorsions>
[ 6907 6896 6895 6894 ] final  171.57 input  -60.11 | X-H torsion
[ 7974 7965 7964 7962 ] final  145.20 input  175.53 | X-H torsion
[ 8008 7997 7996 7995 ] final  146.54 input   59.86 | X-H torsion
[ 10167 10162 10161 10158 ] final   19.21 input  -65.29 | X-H torsion
[ 10718 10713 10712 10709 ] final -136.43 input   66.30 | X-H torsion
[ 10763 10752 10751 10750 ] final  -66.36 input  -60.55 | X-H torsion
[ 11005 11000 10999 10996 ] final   29.89 input  -57.11 | X-H torsion

> <Gold.Protein.ActiveResidues>
 VAL166  LYS551  ARG553  GLY616  TRP617  ASP618  TYR619  PRO620  LYS621  CYS622 
 ASP623  PHE694  ASN695  SER759  ASP760  ASP761  ALA762  ILE779  LEU786  VAL792 
 PHE793  MET794  SER795  GLU796  ALA797  LYS798  CYS799  TRP800  GLU811  SER814 

> <Gold.Protein.RotatedAtoms>
  151.7981  133.3367  159.3518 H   0  0  0  0  0  0  0  0  0  0  0  0  # atno 6907 bound_to 6896
  150.7368  134.5780  159.5933 H   0  0  0  0  0  0  0  0  0  0  0  0  # atno 6908 bound_to 6896
  152.3163  134.7437  160.0376 H   0  0  0  0  0  0  0  0  0  0  0  0  # atno 6909 bound_to 6896
  144.8772  139.5754  143.5859 H   0  0  0  0  0  0  0  0  0  0  0  0  # atno 7974 bound_to 7965
  156.2852  140.2179  156.5393 H   0  0  0  0  0  0  0  0  0  0  0  0  # atno 8008 bound_to 7997
  154.7383  140.0490  157.0811 H   0  0  0  0  0  0  0  0  0  0  0  0  # atno 8009 bound_to 7997
  155.0263  140.3130  155.4778 H   0  0  0  0  0  0  0  0  0  0  0  0  # atno 8010 bound_to 7997
  140.5596  143.9362  150.6633 H   0  0  0  0  0  0  0  0  0  0  0  0  # atno 10167 bound_to 10162
  156.2770  130.7298  151.1284 H   0  0  0  0  0  0  0  0  0  0  0  0  # atno 10718 bound_to 10713
  154.3586  135.6121  153.5679 H   0  0  0  0  0  0  0  0  0  0  0  0  # atno 10763 bound_to 10752
  152.9794  135.5809  154.4659 H   0  0  0  0  0  0  0  0  0  0  0  0  # atno 10764 bound_to 10752
  154.4393  135.2850  155.1836 H   0  0  0  0  0  0  0  0  0  0  0  0  # atno 10765 bound_to 10752
  140.3002  134.2765  155.7755 H   0  0  0  0  0  0  0  0  0  0  0  0  # atno 11005 bound_to 11000
  146.2971  139.7310  142.9119 LP  0  0  0  0  0  0  0  0  0  0  0  0  # atno 17320 bound_to 7965
  145.4020  141.0386  143.3065 LP  0  0  0  0  0  0  0  0  0  0  0  0  # atno 17321 bound_to 7965
  140.2809  143.3390  152.1152 LP  0  0  0  0  0  0  0  0  0  0  0  0  # atno 17342 bound_to 10162
  139.5064  144.6812  151.6003 LP  0  0  0  0  0  0  0  0  0  0  0  0  # atno 17343 bound_to 10162
  157.7302  131.0618  150.5736 LP  0  0  0  0  0  0  0  0  0  0  0  0  # atno 17370 bound_to 10713
  156.5838  130.4311  149.5966 LP  0  0  0  0  0  0  0  0  0  0  0  0  # atno 17371 bound_to 10713
  141.2129  133.7641  156.9755 LP  0  0  0  0  0  0  0  0  0  0  0  0  # atno 17394 bound_to 11000
  140.1116  134.9473  157.2074 LP  0  0  0  0  0  0  0  0  0  0  0  0  # atno 17395 bound_to 11000

$$$$
