AV-unprocessed.smi:814|AV-procd|sdf|3821|dock4
  -GOLD-   22720 1263D 1   1.00000     0.00000
 Structure written by MMmdl.
 37 38  0  0  0  0  0  0  0  0  2 V2000
  148.6404  139.0395  153.8096 C   0  0  0  0  0  0  0  0  0  0  0  0
  148.2057  140.4252  153.9973 N   0  0  0  0  0  0  0  0  0  0  0  0
  147.0213  140.9742  153.5765 C   0  0  0  0  0  0  0  0  0  0  0  0
  147.0384  142.2890  153.9626 C   0  0  0  0  0  0  0  0  0  0  0  0
  148.2321  142.4887  154.6012 N   0  3  0  0  0  0  0  0  0  0  0  0
  148.9423  141.3548  154.6280 C   0  0  0  0  0  0  0  0  0  0  0  0
  150.3023  141.2000  155.2327 C   0  0  0  0  0  0  0  0  0  0  0  0
  150.3321  140.1638  156.3675 C   0  0  0  0  0  0  0  0  0  0  0  0
  150.6274  140.7861  157.6520 N   0  0  0  0  0  0  0  0  0  0  0  0
  151.8137  140.7308  158.2772 C   0  0  0  0  0  0  0  0  0  0  0  0
  152.7931  140.1479  157.8104 O   0  0  0  0  0  0  0  0  0  0  0  0
  151.9066  141.4365  159.6366 C   0  0  2  0  0  0  0  0  0  0  0  0
  151.5797  142.9430  159.5148 C   0  0  0  0  0  0  0  0  0  0  0  0
  151.9111  143.7051  160.7862 C   0  0  0  0  0  0  0  0  0  0  0  0
  152.6967  143.2129  161.7595 C   0  0  0  0  0  0  0  0  0  0  0  0
  153.3468  141.8422  161.6954 C   0  0  0  0  0  0  0  0  0  0  0  0
  153.2941  141.2385  160.2789 C   0  0  0  0  0  0  0  0  0  0  0  0
  147.8852  138.4933  153.2434 H   0  0  0  0  0  0  0  0  0  0  0  0
  148.7721  138.5665  154.7830 H   0  0  0  0  0  0  0  0  0  0  0  0
  149.5815  139.0247  153.2596 H   0  0  0  0  0  0  0  0  0  0  0  0
  146.2723  140.4038  153.0460 H   0  0  0  0  0  0  0  0  0  0  0  0
  146.3110  143.0773  153.8334 H   0  0  0  0  0  0  0  0  0  0  0  0
  150.9743  140.9125  154.4231 H   0  0  0  0  0  0  0  0  0  0  0  0
  150.6230  142.1811  155.5838 H   0  0  0  0  0  0  0  0  0  0  0  0
  149.3664  139.6648  156.4475 H   0  0  0  0  0  0  0  0  0  0  0  0
  151.0657  139.3843  156.1546 H   0  0  0  0  0  0  0  0  0  0  0  0
  149.8743  141.2837  158.1053 H   0  0  0  0  0  0  0  0  0  0  0  0
  151.1687  140.9857  160.3035 H   0  0  0  0  0  0  0  0  0  0  0  0
  152.1310  143.4059  158.6951 H   0  0  0  0  0  0  0  0  0  0  0  0
  150.5189  143.0742  159.2974 H   0  0  0  0  0  0  0  0  0  0  0  0
  151.4922  144.6960  160.8841 H   0  0  0  0  0  0  0  0  0  0  0  0
  152.8838  143.7996  162.6469 H   0  0  0  0  0  0  0  0  0  0  0  0
  154.3820  141.9177  162.0290 H   0  0  0  0  0  0  0  0  0  0  0  0
  152.8318  141.1910  162.4023 H   0  0  0  0  0  0  0  0  0  0  0  0
  153.5549  140.1801  160.3220 H   0  0  0  0  0  0  0  0  0  0  0  0
  154.0543  141.7174  159.6593 H   0  0  0  0  0  0  0  0  0  0  0  0
  148.5383  143.3683  154.9978 H   0  0  0  0  0  0  0  0  0  0  0  0
  1  2  1  0  0  0  0
  1 18  1  0  0  0  0
  1 19  1  0  0  0  0
  1 20  1  0  0  0  0
  2  6  1  0  0  0  0
  2  3  1  0  0  0  0
  3  4  2  0  0  0  0
  3 21  1  0  0  0  0
  4  5  1  0  0  0  0
  4 22  1  0  0  0  0
  5  6  2  0  0  0  0
  5 37  1  0  0  0  0
  6  7  1  0  0  0  0
  7  8  1  0  0  0  0
  7 23  1  0  0  0  0
  7 24  1  0  0  0  0
  8  9  1  0  0  0  0
  8 25  1  0  0  0  0
  8 26  1  0  0  0  0
  9 10  1  0  0  0  0
  9 27  1  0  0  0  0
 10 11  2  0  0  0  0
 10 12  1  0  0  0  0
 12 17  1  0  0  0  0
 12 13  1  0  0  0  0
 12 28  1  0  0  0  0
 13 14  1  0  0  0  0
 13 29  1  0  0  0  0
 13 30  1  0  0  0  0
 14 15  2  0  0  0  0
 14 31  1  0  0  0  0
 15 16  1  0  0  0  0
 15 32  1  0  0  0  0
 16 17  1  0  0  0  0
 16 33  1  0  0  0  0
 16 34  1  0  0  0  0
 17 35  1  0  0  0  0
 17 36  1  0  0  0  0
M  CHG  1   5   1
M  END
> <s_m_source_file>
AV-unprocessed.smi

> <i_m_source_file_index>
814

> <i_lp_mmshare_version>
43012

> <i_f3d_flags>
0

> <s_epik_input>
W0NIM11uMVtjSF1bY0hdbmMxW0NIMl1bQ0gyXVtOSF1DKD1PKVtDQEBIXTJbQ0gyXVtDSF09W0NIXVtDSDJdW0NIMl0y

> <s_epik_cmdline>
J2VwaWtfcHl0aG9uJywgJy1waCcsICc3LjAnLCAnLXRuJywgJzgnLCAnLW1hJywgJzIwMCcsICctbWV0YWxfYmluZGluZycsICctaW1hZScsICc8aW5maWxlLm1hZT4nLCAnLW9tYWUnLCAnPG91dGZpbGUubWFlPic=

> <r_lp_tautomer_probability>
1

> <r_epik_Ionization_Penalty>
0.0819619

> <r_epik_Ionization_Penalty_Charging>
0

> <r_epik_Ionization_Penalty_Neutral>
0.0819619

> <r_epik_State_Penalty>
0.0726933

> <r_epik_Charging_Adjusted_Penalty>
0.0726933

> <i_epik_Tot_Q>
1

> <i_epik_Tot_abs_Q>
1

> <r_epik_Metal_State_Penalty>
0.411758

> <b_epik_Metal_Only>
0

> <s_lp_Force_Field>
OPLS_2005

> <r_lp_Energy>
9.54254

> <b_lp_Chiralities_Consistent>
1

> <s_lp_Variant>
AV-unprocessed.smi:814-1

> <Gold.Version>
5.8.1

> <Gold.Id.Protein>
6NUR|6NUR_protein|mol2

> <Gold.PLP.Fitness>
49.6399

> <Gold.PLP.PLP>
-38.6063

> <Gold.PLP.part.hbond>
-2.0000

> <Gold.PLP.part.metal>
0.0000

> <Gold.PLP.part.buried>
-3.2127

> <Gold.PLP.part.nonpolar>
-33.1719

> <Gold.PLP.part.repulsive>
0.2634

> <Gold.PLP.ligand.clash>
0.0000

> <Gold.PLP.ligand.torsion>
0.4856

> <Gold.PLP.Chemscore.Hbond>
3.0000

> <Gold.PLP.Chemscore.CHOScore>
0.9928

> <Gold.PLP.Chemscore.Metal>
0.0000

> <Gold.Chemscore.Hbonds>
donor molecule, donor type, donor heavy atom, donor atom, acceptor molecule, acceptor atom, score
      L1  H     5    37       P1  8028  1.95
      P1  H  7997  8008       L1    11  1.00
      L1  C     3    21       P1 10175  0.71

> <Gold.PLP.Chemscore.Internal.Correction>
0.0264

> <Gold.Rescore>
     Score         DG    S(hbond)    S(metal)    S(lipo)     H(rot)  DE(clash)    DE(int)     intcor
     18.14     -18.85       1.94        0.00      95.06       1.65       0.17       0.54       ----

> <Gold.Chemscore.Fitness>
18.1402

> <Gold.Chemscore.DG>
-18.8534

> <Gold.Chemscore.ZeroCoef>
-5.4800

> <Gold.Chemscore.Hbond>
1.9402

> <Gold.Chemscore.Metal>
0.0000

> <Gold.Chemscore.Lipo>
95.0597

> <Gold.Chemscore.Internal_Hbond>
0.0000

> <Gold.Chemscore.DEClash>
0.1716

> <Gold.Chemscore.DEInternal>
0.5416

> <Gold.Chemscore.Rot>
1.6518

> <Gold.Chemscore.Internal.Correction>
   9.000000E+99

> <Gold.Chemscore.Hbonds>
donor molecule, donor type, donor heavy atom, donor atom, acceptor molecule, acceptor atom, score
      L1  H     5    37       P1  8028  0.91
      P1  H  7997  8008       L1    11  0.94

> <Gold.Chemscore.Hbond.Weighted>
-6.4801

> <Gold.Chemscore.Metal.Weighted>
-0.0000

> <Gold.Chemscore.Lipo.Weighted>
-11.1220

> <Gold.Chemscore.Internal_Hbond.Weighted>
0.0000

> <Gold.Chemscore.DEClash.Weighted>
0.1716

> <Gold.Chemscore.DEInternal.Weighted>
0.5416

> <Gold.Chemscore.Rot.Weighted>
4.2287

> <Gold.Chemscore.Internal.Correction.Weighted>
   9.000000E+99

> <Gold.Protein.RotatedTorsions>
[ 6907 6896 6895 6894 ] final  -52.71 input  -60.11 | X-H torsion
[ 7974 7965 7964 7962 ] final  -28.93 input  175.53 | X-H torsion
[ 8008 7997 7996 7995 ] final  -79.15 input   59.86 | X-H torsion
[ 10167 10162 10161 10158 ] final   31.17 input  -65.29 | X-H torsion
[ 10718 10713 10712 10709 ] final -119.02 input   66.30 | X-H torsion
[ 10763 10752 10751 10750 ] final -122.49 input  -60.55 | X-H torsion
[ 11005 11000 10999 10996 ] final  -61.15 input  -57.11 | X-H torsion

> <Gold.Protein.ActiveResidues>
 VAL166  LYS551  ARG553  GLY616  TRP617  ASP618  TYR619  PRO620  LYS621  CYS622 
 ASP623  PHE694  ASN695  SER759  ASP760  ASP761  ALA762  ILE779  LEU786  VAL792 
 PHE793  MET794  SER795  GLU796  ALA797  LYS798  CYS799  TRP800  GLU811  SER814 

> <Gold.Protein.RotatedAtoms>
  150.8493  134.7812  159.6995 H   0  0  0  0  0  0  0  0  0  0  0  0  # atno 6907 bound_to 6896
  152.4561  134.5284  159.9813 H   0  0  0  0  0  0  0  0  0  0  0  0  # atno 6908 bound_to 6896
  151.5408  133.3395  159.2971 H   0  0  0  0  0  0  0  0  0  0  0  0  # atno 6909 bound_to 6896
  146.1253  140.5346  142.8717 H   0  0  0  0  0  0  0  0  0  0  0  0  # atno 7974 bound_to 7965
  154.5757  140.0683  156.9031 H   0  0  0  0  0  0  0  0  0  0  0  0  # atno 8008 bound_to 7997
  155.2553  140.3354  155.4260 H   0  0  0  0  0  0  0  0  0  0  0  0  # atno 8009 bound_to 7997
  156.2152  140.1775  156.7590 H   0  0  0  0  0  0  0  0  0  0  0  0  # atno 8010 bound_to 7997
  140.4613  144.0903  150.6213 H   0  0  0  0  0  0  0  0  0  0  0  0  # atno 10167 bound_to 10162
  156.1149  130.6278  150.9364 H   0  0  0  0  0  0  0  0  0  0  0  0  # atno 10718 bound_to 10713
  154.8690  135.4131  154.2790 H   0  0  0  0  0  0  0  0  0  0  0  0  # atno 10763 bound_to 10752
  153.3686  135.7006  153.6661 H   0  0  0  0  0  0  0  0  0  0  0  0  # atno 10764 bound_to 10752
  153.5532  135.3625  155.2740 H   0  0  0  0  0  0  0  0  0  0  0  0  # atno 10765 bound_to 10752
  141.1314  133.6628  156.5331 H   0  0  0  0  0  0  0  0  0  0  0  0  # atno 11005 bound_to 11000
  144.7636  140.5479  143.6718 LP  0  0  0  0  0  0  0  0  0  0  0  0  # atno 17320 bound_to 7965
  145.5379  139.1475  143.3463 LP  0  0  0  0  0  0  0  0  0  0  0  0  # atno 17321 bound_to 7965
  140.4090  143.2666  151.9856 LP  0  0  0  0  0  0  0  0  0  0  0  0  # atno 17342 bound_to 10162
  139.4806  144.5932  151.7736 LP  0  0  0  0  0  0  0  0  0  0  0  0  # atno 17343 bound_to 10162
  157.6332  131.0919  150.8399 LP  0  0  0  0  0  0  0  0  0  0  0  0  # atno 17370 bound_to 10713
  156.8504  130.5078  149.5312 LP  0  0  0  0  0  0  0  0  0  0  0  0  # atno 17371 bound_to 10713
  140.4200  134.7196  157.4884 LP  0  0  0  0  0  0  0  0  0  0  0  0  # atno 17394 bound_to 11000
  140.0367  134.6327  155.9034 LP  0  0  0  0  0  0  0  0  0  0  0  0  # atno 17395 bound_to 11000

$$$$
