AV-unprocessed.smi:2106|AV-procd|sdf|8596|dock5
  -GOLD-   2272011333D 1   1.00000     0.00000
 Structure written by MMmdl.
 48 49  0  0  0  0  0  0  0  0  2 V2000
  146.6384  129.8235  152.9101 C   0  0  0  0  0  0  0  0  0  0  0  0
  146.0726  130.9247  152.0630 C   0  0  0  0  0  0  0  0  0  0  0  0
  144.9583  130.8721  151.1800 C   0  0  0  0  0  0  0  0  0  0  0  0
  144.8734  132.1356  150.6672 C   0  0  0  0  0  0  0  0  0  0  0  0
  143.9081  132.7113  149.6840 C   0  0  0  0  0  0  0  0  0  0  0  0
  145.8979  132.8701  151.2385 N   0  0  0  0  0  0  0  0  0  0  0  0
  146.2442  134.2691  151.0435 C   0  0  0  0  0  0  0  0  0  0  0  0
  145.8534  135.1068  152.2620 C   0  0  0  0  0  0  0  0  0  0  0  0
  144.6698  135.2149  152.5819 O   0  0  0  0  0  0  0  0  0  0  0  0
  146.8567  135.6910  152.9356 N   0  0  0  0  0  0  0  0  0  0  0  0
  146.7001  136.4905  154.1451 C   0  0  0  0  0  0  0  0  0  0  0  0
  147.8192  137.5413  154.2867 C   0  0  0  0  0  0  0  0  0  0  0  0
  149.1775  136.9514  154.1821 N   0  3  1  0  0  0  0  0  0  0  0  0
  150.2429  137.9631  154.3798 C   0  0  0  0  0  0  0  0  0  0  0  0
  151.6360  137.3285  154.2086 C   0  0  1  0  0  0  0  0  0  0  0  0
  152.7650  138.3266  154.4884 C   0  0  0  0  0  0  0  0  0  0  0  0
  151.7678  136.2459  155.1227 O   0  0  0  0  0  0  0  0  0  0  0  0
  150.8115  135.2172  154.8942 C   0  0  1  0  0  0  0  0  0  0  0  0
  151.1032  134.0697  155.8677 C   0  0  0  0  0  0  0  0  0  0  0  0
  149.3956  135.7933  155.0843 C   0  0  0  0  0  0  0  0  0  0  0  0
  146.6311  132.1236  152.0938 N   0  0  0  0  0  0  0  0  0  0  0  0
  146.1022  128.8880  152.7486 H   0  0  0  0  0  0  0  0  0  0  0  0
  146.5671  130.0674  153.9700 H   0  0  0  0  0  0  0  0  0  0  0  0
  147.6889  129.6477  152.6768 H   0  0  0  0  0  0  0  0  0  0  0  0
  144.3166  130.0326  150.9570 H   0  0  0  0  0  0  0  0  0  0  0  0
  143.1719  131.9668  149.3810 H   0  0  0  0  0  0  0  0  0  0  0  0
  144.4244  133.0556  148.7877 H   0  0  0  0  0  0  0  0  0  0  0  0
  143.3712  133.5568  150.1137 H   0  0  0  0  0  0  0  0  0  0  0  0
  147.3155  134.3543  150.8521 H   0  0  0  0  0  0  0  0  0  0  0  0
  145.7359  134.6447  150.1549 H   0  0  0  0  0  0  0  0  0  0  0  0
  147.7987  135.5421  152.6023 H   0  0  0  0  0  0  0  0  0  0  0  0
  145.7136  136.9546  154.1307 H   0  0  0  0  0  0  0  0  0  0  0  0
  146.7140  135.8147  155.0007 H   0  0  0  0  0  0  0  0  0  0  0  0
  147.6920  138.2807  153.4944 H   0  0  0  0  0  0  0  0  0  0  0  0
  147.7332  138.0827  155.2300 H   0  0  0  0  0  0  0  0  0  0  0  0
  150.1187  138.7739  153.6609 H   0  0  0  0  0  0  0  0  0  0  0  0
  150.1477  138.4001  155.3755 H   0  0  0  0  0  0  0  0  0  0  0  0
  151.7478  136.9544  153.1893 H   0  0  0  0  0  0  0  0  0  0  0  0
  152.7144  139.1781  153.8094 H   0  0  0  0  0  0  0  0  0  0  0  0
  153.7404  137.8571  154.3596 H   0  0  0  0  0  0  0  0  0  0  0  0
  152.7117  138.7083  155.5085 H   0  0  0  0  0  0  0  0  0  0  0  0
  150.9230  134.8432  153.8747 H   0  0  0  0  0  0  0  0  0  0  0  0
  150.4010  133.2476  155.7275 H   0  0  0  0  0  0  0  0  0  0  0  0
  151.0275  134.4010  156.9038 H   0  0  0  0  0  0  0  0  0  0  0  0
  152.1087  133.6764  155.7164 H   0  0  0  0  0  0  0  0  0  0  0  0
  149.2530  136.1072  156.1197 H   0  0  0  0  0  0  0  0  0  0  0  0
  148.6643  135.0111  154.8843 H   0  0  0  0  0  0  0  0  0  0  0  0
  149.2768  136.6141  153.2352 H   0  0  0  0  0  0  0  0  0  0  0  0
  1  2  1  0  0  0  0
  1 22  1  0  0  0  0
  1 23  1  0  0  0  0
  1 24  1  0  0  0  0
  2 21  2  0  0  0  0
  2  3  1  0  0  0  0
  3  4  2  0  0  0  0
  3 25  1  0  0  0  0
  4  5  1  0  0  0  0
  4  6  1  0  0  0  0
  5 26  1  0  0  0  0
  5 27  1  0  0  0  0
  5 28  1  0  0  0  0
  6  7  1  0  0  0  0
  6 21  1  0  0  0  0
  7  8  1  0  0  0  0
  7 29  1  0  0  0  0
  7 30  1  0  0  0  0
  8  9  2  0  0  0  0
  8 10  1  0  0  0  0
 10 11  1  0  0  0  0
 10 31  1  0  0  0  0
 11 12  1  0  0  0  0
 11 32  1  0  0  0  0
 11 33  1  0  0  0  0
 12 13  1  0  0  0  0
 12 34  1  0  0  0  0
 12 35  1  0  0  0  0
 13 20  1  0  0  0  0
 13 14  1  0  0  0  0
 13 48  1  0  0  0  0
 14 15  1  0  0  0  0
 14 36  1  0  0  0  0
 14 37  1  0  0  0  0
 15 16  1  0  0  0  0
 15 17  1  0  0  0  0
 15 38  1  0  0  0  0
 16 39  1  0  0  0  0
 16 40  1  0  0  0  0
 16 41  1  0  0  0  0
 17 18  1  0  0  0  0
 18 19  1  0  0  0  0
 18 20  1  0  0  0  0
 18 42  1  0  0  0  0
 19 43  1  0  0  0  0
 19 44  1  0  0  0  0
 19 45  1  0  0  0  0
 20 46  1  0  0  0  0
 20 47  1  0  0  0  0
M  CHG  1  13   1
M  END
> <s_m_source_file>
AV-unprocessed.smi

> <i_m_source_file_index>
2106

> <i_lp_mmshare_version>
43012

> <i_f3d_flags>
0

> <s_epik_input>
W0NIM11jMVtjSF1jKFtDSDNdKW4objEpW0NIMl1DKD1PKVtOSF1bQ0gyXVtDSDJdTjJbQ0gyXVtDQEBIXShbQ0gzXSlPW0NAQEhdKFtDSDNdKVtDSDJdMg==

> <s_epik_cmdline>
J2VwaWtfcHl0aG9uJywgJy1waCcsICc3LjAnLCAnLXRuJywgJzgnLCAnLW1hJywgJzIwMCcsICctbWV0YWxfYmluZGluZycsICctaW1hZScsICc8aW5maWxlLm1hZT4nLCAnLW9tYWUnLCAnPG91dGZpbGUubWFlPic=

> <r_lp_tautomer_probability>
1

> <r_epik_Ionization_Penalty>
0.748586

> <r_epik_Ionization_Penalty_Charging>
0.748396

> <r_epik_Ionization_Penalty_Neutral>
0.000189656

> <r_epik_State_Penalty>
0.775162

> <r_epik_Charging_Adjusted_Penalty>
1.52356

> <i_epik_Tot_Q>
1

> <i_epik_Tot_abs_Q>
1

> <r_epik_Metal_State_Penalty>
0.775295

> <b_epik_Metal_Only>
0

> <s_lp_Force_Field>
OPLS_2005

> <r_lp_Energy>
12.4658

> <b_lp_Chiralities_Consistent>
1

> <s_lp_Variant>
AV-unprocessed.smi:2106-4

> <Gold.Version>
5.8.1

> <Gold.Id.Protein>
6NUR|6NUR_protein|mol2

> <Gold.PLP.Fitness>
47.3111

> <Gold.PLP.PLP>
-36.7391

> <Gold.PLP.part.hbond>
-3.0000

> <Gold.PLP.part.metal>
0.0000

> <Gold.PLP.part.buried>
-6.3720

> <Gold.PLP.part.nonpolar>
-28.8859

> <Gold.PLP.part.repulsive>
0.2961

> <Gold.PLP.ligand.clash>
0.0000

> <Gold.PLP.ligand.torsion>
0.3864

> <Gold.PLP.Chemscore.Hbond>
3.7736

> <Gold.PLP.Chemscore.CHOScore>
0.0000

> <Gold.PLP.Chemscore.Metal>
0.0000

> <Gold.Chemscore.Hbonds>
donor molecule, donor type, donor heavy atom, donor atom, acceptor molecule, acceptor atom, score
      L1  H    10    31       P1  7948  0.84
      L1  H    13    48       P1  7948  1.53
      P1  H 10752 10763       L1    17  0.85

> <Gold.PLP.Chemscore.Internal.Correction>
0.0240

> <Gold.Rescore>
     Score         DG    S(hbond)    S(metal)    S(lipo)     H(rot)  DE(clash)    DE(int)     intcor
     18.06     -18.46       1.91        0.00      94.19       1.73       0.04       0.36       ----

> <Gold.Chemscore.Fitness>
18.0598

> <Gold.Chemscore.DG>
-18.4601

> <Gold.Chemscore.ZeroCoef>
-5.4800

> <Gold.Chemscore.Hbond>
1.9139

> <Gold.Chemscore.Metal>
0.0000

> <Gold.Chemscore.Lipo>
94.1937

> <Gold.Chemscore.Internal_Hbond>
0.0000

> <Gold.Chemscore.DEClash>
0.0406

> <Gold.Chemscore.DEInternal>
0.3597

> <Gold.Chemscore.Rot>
1.7316

> <Gold.Chemscore.Internal.Correction>
   9.000000E+99

> <Gold.Chemscore.Hbonds>
donor molecule, donor type, donor heavy atom, donor atom, acceptor molecule, acceptor atom, score
      L1  H    10    31       P1  7948  0.79
      L1  H    13    48       P1  7948  0.71
      P1  H 10752 10763       L1    17  0.28

> <Gold.Chemscore.Hbond.Weighted>
-6.3924

> <Gold.Chemscore.Metal.Weighted>
-0.0000

> <Gold.Chemscore.Lipo.Weighted>
-11.0207

> <Gold.Chemscore.Internal_Hbond.Weighted>
0.0000

> <Gold.Chemscore.DEClash.Weighted>
0.0406

> <Gold.Chemscore.DEInternal.Weighted>
0.3597

> <Gold.Chemscore.Rot.Weighted>
4.4330

> <Gold.Chemscore.Internal.Correction.Weighted>
   9.000000E+99

> <Gold.Protein.RotatedTorsions>
[ 6907 6896 6895 6894 ] final -104.19 input  -60.11 | X-H torsion
[ 7974 7965 7964 7962 ] final  108.94 input  175.53 | X-H torsion
[ 8008 7997 7996 7995 ] final -138.08 input   59.86 | X-H torsion
[ 10167 10162 10161 10158 ] final -103.77 input  -65.29 | X-H torsion
[ 10718 10713 10712 10709 ] final   69.72 input   66.30 | X-H torsion
[ 10763 10752 10751 10750 ] final   89.38 input  -60.55 | X-H torsion
[ 11005 11000 10999 10996 ] final  173.39 input  -57.11 | X-H torsion

> <Gold.Protein.ActiveResidues>
 VAL166  LYS551  ARG553  GLY616  TRP617  ASP618  TYR619  PRO620  LYS621  CYS622 
 ASP623  PHE694  ASN695  SER759  ASP760  ASP761  ALA762  ILE779  LEU786  VAL792 
 PHE793  MET794  SER795  GLU796  ALA797  LYS798  CYS799  TRP800  GLU811  SER814 

> <Gold.Protein.RotatedAtoms>
  150.7275  134.0315  159.3734 H   0  0  0  0  0  0  0  0  0  0  0  0  # atno 6907 bound_to 6896
  151.8285  135.0627  160.0443 H   0  0  0  0  0  0  0  0  0  0  0  0  # atno 6908 bound_to 6896
  152.2951  133.5564  159.5619 H   0  0  0  0  0  0  0  0  0  0  0  0  # atno 6909 bound_to 6896
  145.2741  139.2656  143.3950 H   0  0  0  0  0  0  0  0  0  0  0  0  # atno 7974 bound_to 7965
  155.4224  140.0519  157.3024 H   0  0  0  0  0  0  0  0  0  0  0  0  # atno 8008 bound_to 7997
  154.4897  140.2115  155.9535 H   0  0  0  0  0  0  0  0  0  0  0  0  # atno 8009 bound_to 7997
  156.1324  140.3169  155.8375 H   0  0  0  0  0  0  0  0  0  0  0  0  # atno 8010 bound_to 7997
  140.2164  143.3708  152.1007 H   0  0  0  0  0  0  0  0  0  0  0  0  # atno 10167 bound_to 10162
  157.6361  130.9440  150.0552 H   0  0  0  0  0  0  0  0  0  0  0  0  # atno 10718 bound_to 10713
  153.1865  135.4472  155.0095 H   0  0  0  0  0  0  0  0  0  0  0  0  # atno 10763 bound_to 10752
  154.8064  135.3276  154.7423 H   0  0  0  0  0  0  0  0  0  0  0  0  # atno 10764 bound_to 10752
  153.7882  135.6972  153.4931 H   0  0  0  0  0  0  0  0  0  0  0  0  # atno 10765 bound_to 10752
  140.3400  134.7284  157.4195 H   0  0  0  0  0  0  0  0  0  0  0  0  # atno 11005 bound_to 11000
  146.3237  140.3192  142.8632 LP  0  0  0  0  0  0  0  0  0  0  0  0  # atno 17320 bound_to 7965
  144.9309  140.7974  143.5690 LP  0  0  0  0  0  0  0  0  0  0  0  0  # atno 17321 bound_to 7965
  139.5160  144.6972  151.5598 LP  0  0  0  0  0  0  0  0  0  0  0  0  # atno 17342 bound_to 10162
  140.6286  143.9119  150.6586 LP  0  0  0  0  0  0  0  0  0  0  0  0  # atno 17343 bound_to 10162
  156.1602  130.3644  149.9311 LP  0  0  0  0  0  0  0  0  0  0  0  0  # atno 17370 bound_to 10713
  156.7311  130.9043  151.3626 LP  0  0  0  0  0  0  0  0  0  0  0  0  # atno 17371 bound_to 10713
  140.0789  134.5759  155.8562 LP  0  0  0  0  0  0  0  0  0  0  0  0  # atno 17394 bound_to 11000
  141.2041  133.6636  156.6101 LP  0  0  0  0  0  0  0  0  0  0  0  0  # atno 17395 bound_to 11000

$$$$
