AV-unprocessed.smi:2691|AV-procd|sdf|10393|dock4
  -GOLD-   2272014423D 1   1.00000     0.00000
 Structure written by MMmdl.
 50 52  0  0  0  0  0  0  0  0  2 V2000
  153.4589  143.4072  163.6473 C   0  0  0  0  0  0  0  0  0  0  0  0
  153.0261  143.1776  162.2091 C   0  0  0  0  0  0  0  0  0  0  0  0
  152.2761  144.1855  161.5615 C   0  0  0  0  0  0  0  0  0  0  0  0
  151.8923  143.9452  160.2476 C   0  0  0  0  0  0  0  0  0  0  0  0
  151.1576  144.7244  159.3506 N   0  3  0  0  0  0  0  0  0  0  0  0
  151.0306  144.0590  158.1691 C   0  0  0  0  0  0  0  0  0  0  0  0
  151.6756  142.8681  158.2986 N   0  0  0  0  0  0  0  0  0  0  0  0
  151.8330  141.7719  157.3349 C   0  0  0  0  0  0  0  0  0  0  0  0
  150.7362  141.7776  156.2470 C   0  0  1  0  0  0  0  0  0  0  0  0
  151.0124  140.8046  155.2587 O   0  0  0  0  0  0  0  0  0  0  0  0
  149.2775  141.6186  156.7483 C   0  0  0  0  0  0  0  0  0  0  0  0
  148.3890  140.8845  155.8278 N   0  0  0  0  0  0  0  0  0  0  0  0
  148.0186  141.5405  154.6363 C   0  0  0  0  0  0  0  0  0  0  0  0
  147.2491  140.9796  153.7589 N   0  0  0  0  0  0  0  0  0  0  0  0
  146.7708  139.6836  153.9802 C   0  0  0  0  0  0  0  0  0  0  0  0
  145.8710  139.0843  152.9075 C   0  0  0  0  0  0  0  0  0  0  0  0
  145.3527  137.6941  153.3096 C   0  0  0  0  0  0  0  0  0  0  0  0
  146.5718  139.0547  151.5402 C   0  0  0  0  0  0  0  0  0  0  0  0
  147.1021  139.0105  155.1086 C   0  0  0  0  0  0  0  0  0  0  0  0
  147.9688  139.6186  156.1177 C   0  0  0  0  0  0  0  0  0  0  0  0
  148.2955  139.0319  157.1492 O   0  0  0  0  0  0  0  0  0  0  0  0
  152.2296  142.7534  159.5774 C   0  0  0  0  0  0  0  0  0  0  0  0
  152.9694  141.7507  160.1991 C   0  0  0  0  0  0  0  0  0  0  0  0
  153.3698  141.9763  161.5357 C   0  0  0  0  0  0  0  0  0  0  0  0
  154.1785  140.9007  162.2408 C   0  0  0  0  0  0  0  0  0  0  0  0
  153.0809  144.3553  164.0312 H   0  0  0  0  0  0  0  0  0  0  0  0
  154.5464  143.4274  163.7207 H   0  0  0  0  0  0  0  0  0  0  0  0
  153.0823  142.6142  164.2938 H   0  0  0  0  0  0  0  0  0  0  0  0
  152.0113  145.1025  162.0675 H   0  0  0  0  0  0  0  0  0  0  0  0
  150.5066  144.4080  157.2908 H   0  0  0  0  0  0  0  0  0  0  0  0
  152.8216  141.8811  156.8872 H   0  0  0  0  0  0  0  0  0  0  0  0
  151.8391  140.8287  157.8824 H   0  0  0  0  0  0  0  0  0  0  0  0
  150.7858  142.7321  155.7218 H   0  0  0  0  0  0  0  0  0  0  0  0
  151.1569  139.9736  155.6851 H   0  0  0  0  0  0  0  0  0  0  0  0
  149.3095  141.1029  157.7100 H   0  0  0  0  0  0  0  0  0  0  0  0
  148.8502  142.5927  156.9943 H   0  0  0  0  0  0  0  0  0  0  0  0
  148.4179  142.5481  154.5101 H   0  0  0  0  0  0  0  0  0  0  0  0
  144.9999  139.7341  152.8092 H   0  0  0  0  0  0  0  0  0  0  0  0
  144.8424  137.7295  154.2725 H   0  0  0  0  0  0  0  0  0  0  0  0
  146.1623  136.9678  153.3876 H   0  0  0  0  0  0  0  0  0  0  0  0
  144.6413  137.3153  152.5752 H   0  0  0  0  0  0  0  0  0  0  0  0
  146.9038  140.0517  151.2489 H   0  0  0  0  0  0  0  0  0  0  0  0
  145.8981  138.6931  150.7628 H   0  0  0  0  0  0  0  0  0  0  0  0
  147.4455  138.4024  151.5499 H   0  0  0  0  0  0  0  0  0  0  0  0
  146.7295  138.0099  155.2719 H   0  0  0  0  0  0  0  0  0  0  0  0
  153.2275  140.8359  159.6866 H   0  0  0  0  0  0  0  0  0  0  0  0
  154.3975  140.0652  161.5751 H   0  0  0  0  0  0  0  0  0  0  0  0
  153.6295  140.5097  163.0978 H   0  0  0  0  0  0  0  0  0  0  0  0
  155.1292  141.3026  162.5919 H   0  0  0  0  0  0  0  0  0  0  0  0
  150.7671  145.6406  159.5296 H   0  0  0  0  0  0  0  0  0  0  0  0
  1  2  1  0  0  0  0
  1 26  1  0  0  0  0
  1 27  1  0  0  0  0
  1 28  1  0  0  0  0
  2 24  1  0  0  0  0
  2  3  2  0  0  0  0
  3  4  1  0  0  0  0
  3 29  1  0  0  0  0
  4 22  2  0  0  0  0
  4  5  1  0  0  0  0
  5  6  2  0  0  0  0
  5 50  1  0  0  0  0
  6  7  1  0  0  0  0
  6 30  1  0  0  0  0
  7  8  1  0  0  0  0
  7 22  1  0  0  0  0
  8  9  1  0  0  0  0
  8 31  1  0  0  0  0
  8 32  1  0  0  0  0
  9 10  1  0  0  0  0
  9 11  1  0  0  0  0
  9 33  1  0  0  0  0
 10 34  1  0  0  0  0
 11 12  1  0  0  0  0
 11 35  1  0  0  0  0
 11 36  1  0  0  0  0
 12 20  1  0  0  0  0
 12 13  1  0  0  0  0
 13 14  2  0  0  0  0
 13 37  1  0  0  0  0
 14 15  1  0  0  0  0
 15 16  1  0  0  0  0
 15 19  2  0  0  0  0
 16 17  1  0  0  0  0
 16 18  1  0  0  0  0
 16 38  1  0  0  0  0
 17 39  1  0  0  0  0
 17 40  1  0  0  0  0
 17 41  1  0  0  0  0
 18 42  1  0  0  0  0
 18 43  1  0  0  0  0
 18 44  1  0  0  0  0
 19 20  1  0  0  0  0
 19 45  1  0  0  0  0
 20 21  2  0  0  0  0
 22 23  1  0  0  0  0
 23 24  2  0  0  0  0
 23 46  1  0  0  0  0
 24 25  1  0  0  0  0
 25 47  1  0  0  0  0
 25 48  1  0  0  0  0
 25 49  1  0  0  0  0
M  CHG  1   5   1
M  END
> <s_m_source_file>
AV-unprocessed.smi

> <i_m_source_file_index>
2691

> <i_lp_mmshare_version>
43012

> <i_f3d_flags>
0

> <s_epik_input>
W0NIM11jKFtjSF0xKWMoW0NIM10pW2NIXWMoYzEyKW4oW2NIXW4yKVtDSDJdW0NASF0oW09IXSlbQ0gyXW4zW2NIXW5jKFtDSF0oW0NIM10pW0NIM10pW2NIXWMzPU8=

> <s_epik_cmdline>
J2VwaWtfcHl0aG9uJywgJy1waCcsICc3LjAnLCAnLXRuJywgJzgnLCAnLW1hJywgJzIwMCcsICctbWV0YWxfYmluZGluZycsICctaW1hZScsICc8aW5maWxlLm1hZT4nLCAnLW9tYWUnLCAnPG91dGZpbGUubWFlPic=

> <r_lp_tautomer_probability>
1

> <r_epik_Ionization_Penalty>
1.0357

> <r_epik_Ionization_Penalty_Charging>
1.03568

> <r_epik_Ionization_Penalty_Neutral>
1.29543e-05

> <r_epik_State_Penalty>
1.08724

> <r_epik_Charging_Adjusted_Penalty>
2.12292

> <i_epik_Tot_Q>
1

> <i_epik_Tot_abs_Q>
1

> <r_epik_Metal_State_Penalty>
1.18376

> <b_epik_Metal_Only>
0

> <s_lp_Force_Field>
OPLS_2005

> <r_lp_Energy>
24.9035

> <b_lp_Chiralities_Consistent>
1

> <s_lp_Variant>
AV-unprocessed.smi:2691-4

> <Gold.Version>
5.8.1

> <Gold.Id.Protein>
6NUR|6NUR_protein|mol2

> <Gold.PLP.Fitness>
54.4286

> <Gold.PLP.PLP>
-47.9843

> <Gold.PLP.part.hbond>
-1.0000

> <Gold.PLP.part.metal>
0.0000

> <Gold.PLP.part.buried>
-1.0745

> <Gold.PLP.part.nonpolar>
-45.0418

> <Gold.PLP.part.repulsive>
0.2984

> <Gold.PLP.ligand.clash>
0.0000

> <Gold.PLP.ligand.torsion>
0.9767

> <Gold.PLP.Chemscore.Hbond>
0.7520

> <Gold.PLP.Chemscore.CHOScore>
2.0000

> <Gold.PLP.Chemscore.Metal>
0.0000

> <Gold.Chemscore.Hbonds>
donor molecule, donor type, donor heavy atom, donor atom, acceptor molecule, acceptor atom, score
      P1  H  7989  7998       L1    10  0.80
      L1  C     6    30       P1  8028  1.00
      L1  C    13    37       P1  8028  1.00

> <Gold.PLP.Chemscore.Internal.Correction>
0.1416

> <Gold.Rescore>
     Score         DG    S(hbond)    S(metal)    S(lipo)     H(rot)  DE(clash)    DE(int)     intcor
     14.24     -16.78       0.69        0.00     132.16       2.52       1.33       1.21       ----

> <Gold.Chemscore.Fitness>
14.2393

> <Gold.Chemscore.DG>
-16.7793

> <Gold.Chemscore.ZeroCoef>
-5.4800

> <Gold.Chemscore.Hbond>
0.6852

> <Gold.Chemscore.Metal>
0.0000

> <Gold.Chemscore.Lipo>
132.1573

> <Gold.Chemscore.Internal_Hbond>
0.0000

> <Gold.Chemscore.DEClash>
1.3313

> <Gold.Chemscore.DEInternal>
1.2088

> <Gold.Chemscore.Rot>
2.5202

> <Gold.Chemscore.Internal.Correction>
   9.000000E+99

> <Gold.Chemscore.Hbonds>
donor molecule, donor type, donor heavy atom, donor atom, acceptor molecule, acceptor atom, score
      P1  H  7989  7998       L1    10  0.72

> <Gold.Chemscore.Hbond.Weighted>
-2.2886

> <Gold.Chemscore.Metal.Weighted>
-0.0000

> <Gold.Chemscore.Lipo.Weighted>
-15.4624

> <Gold.Chemscore.Internal_Hbond.Weighted>
0.0000

> <Gold.Chemscore.DEClash.Weighted>
1.3313

> <Gold.Chemscore.DEInternal.Weighted>
1.2088

> <Gold.Chemscore.Rot.Weighted>
6.4517

> <Gold.Chemscore.Internal.Correction.Weighted>
   9.000000E+99

> <Gold.Protein.RotatedTorsions>
[ 6907 6896 6895 6894 ] final -113.58 input  -60.11 | X-H torsion
[ 7974 7965 7964 7962 ] final  -75.15 input  175.53 | X-H torsion
[ 8008 7997 7996 7995 ] final  -33.15 input   59.86 | X-H torsion
[ 10167 10162 10161 10158 ] final  -85.37 input  -65.29 | X-H torsion
[ 10718 10713 10712 10709 ] final  -95.20 input   66.30 | X-H torsion
[ 10763 10752 10751 10750 ] final   57.85 input  -60.55 | X-H torsion
[ 11005 11000 10999 10996 ] final   -9.79 input  -57.11 | X-H torsion

> <Gold.Protein.ActiveResidues>
 VAL166  LYS551  ARG553  GLY616  TRP617  ASP618  TYR619  PRO620  LYS621  CYS622 
 ASP623  PHE694  ASN695  SER759  ASP760  ASP761  ALA762  ILE779  LEU786  VAL792 
 PHE793  MET794  SER795  GLU796  ALA797  LYS798  CYS799  TRP800  GLU811  SER814 

> <Gold.Protein.RotatedAtoms>
  150.7840  133.8924  159.3316 H   0  0  0  0  0  0  0  0  0  0  0  0  # atno 6907 bound_to 6896
  151.6779  135.0964  160.0220 H   0  0  0  0  0  0  0  0  0  0  0  0  # atno 6908 bound_to 6896
  152.3899  133.6625  159.6264 H   0  0  0  0  0  0  0  0  0  0  0  0  # atno 6909 bound_to 6896
  145.6298  140.9341  143.1093 H   0  0  0  0  0  0  0  0  0  0  0  0  # atno 7974 bound_to 7965
  154.4158  140.1718  156.1841 H   0  0  0  0  0  0  0  0  0  0  0  0  # atno 8008 bound_to 7997
  155.9657  140.3390  155.6507 H   0  0  0  0  0  0  0  0  0  0  0  0  # atno 8009 bound_to 7997
  155.6690  140.0709  157.2517 H   0  0  0  0  0  0  0  0  0  0  0  0  # atno 8010 bound_to 7997
  140.4043  143.2649  151.9101 H   0  0  0  0  0  0  0  0  0  0  0  0  # atno 10167 bound_to 10162
  156.0039  130.5099  150.6041 H   0  0  0  0  0  0  0  0  0  0  0  0  # atno 10718 bound_to 10713
  152.9858  135.5627  154.5457 H   0  0  0  0  0  0  0  0  0  0  0  0  # atno 10763 bound_to 10752
  154.4903  135.2792  155.1504 H   0  0  0  0  0  0  0  0  0  0  0  0  # atno 10764 bound_to 10752
  154.2976  135.6314  153.5464 H   0  0  0  0  0  0  0  0  0  0  0  0  # atno 10765 bound_to 10752
  140.7379  133.8694  155.8944 H   0  0  0  0  0  0  0  0  0  0  0  0  # atno 11005 bound_to 11000
  144.7198  139.8069  143.7386 LP  0  0  0  0  0  0  0  0  0  0  0  0  # atno 17320 bound_to 7965
  146.1366  139.4413  143.0135 LP  0  0  0  0  0  0  0  0  0  0  0  0  # atno 17321 bound_to 7965
  139.4784  144.5601  151.8252 LP  0  0  0  0  0  0  0  0  0  0  0  0  # atno 17342 bound_to 10162
  140.4706  144.1592  150.5917 LP  0  0  0  0  0  0  0  0  0  0  0  0  # atno 17343 bound_to 10162
  157.3885  131.0792  151.1415 LP  0  0  0  0  0  0  0  0  0  0  0  0  # atno 17370 bound_to 10713
  157.2114  130.6439  149.5775 LP  0  0  0  0  0  0  0  0  0  0  0  0  # atno 17371 bound_to 10713
  140.9863  134.1339  157.4449 LP  0  0  0  0  0  0  0  0  0  0  0  0  # atno 17394 bound_to 11000
  139.8812  135.0026  156.6138 LP  0  0  0  0  0  0  0  0  0  0  0  0  # atno 17395 bound_to 11000

$$$$
