#       Name:                AV-unprocessed.smi:3316
#       Creating user name   scv26
#       Creation time:       Fri Mar 27 19:09:48 2020


#       File generated by GOLD software.
#

@<TRIPOS>MOLECULE
AV-unprocessed.smi:3316
    42    44     1
SMALL
NO_CHARGES


@<TRIPOS>ATOM
      1 ****        -2.6966  -1.6556   2.7394 C.3            1 S1                 0.0000
      2 ****        -2.1236  -0.8763   1.5452 C.3            1 S1                 0.0000
      3 ****        -0.5837  -0.9272   1.5271 C.3            1 S1                 0.0000
      4 ****        -0.0310  -0.2823   0.3186 N.4            1 S1                 1.0000
      5 ****         1.4420  -0.3159   0.2402 C.3            1 S1                 0.0000
      6 ****         1.9470   0.3545  -1.0512 C.3            1 S1                 0.0000
      7 ****         3.5012   0.4036  -1.1702 C.3            1 S1                 0.0000
      8 ****         3.7637  -0.2218  -2.5596 C.3            1 S1                 0.0000
      9 ****         3.4056  -1.6900  -2.4768 C.2            1 S1                 0.0000
     10 ****         2.0784  -1.7688  -2.3686 C.2            1 S1                 0.0000
     11 ****         1.5400  -0.3516  -2.3736 C.3            1 S1                 0.0000
     12 ****         2.5462   0.3059  -3.3259 C.3            1 S1                 0.0000
     13 ****        -2.6515   0.5531   1.5119 C.ar           1 S1                 0.0000
     14 ****        -3.4379   1.0015   0.4295 C.ar           1 S1                 0.0000
     15 ****        -3.8992   2.3332   0.4361 C.ar           1 S1                 0.0000
     16 ****        -3.6239   3.2080   1.4267 N.ar           1 S1                 0.0000
     17 ****        -2.8731   2.7746   2.4614 C.ar           1 S1                 0.0000
     18 ****        -2.3628   1.4640   2.5514 C.ar           1 S1                 0.0000
     19 ****        -3.7868  -1.6614   2.7160 H              1 S1                 0.0000
     20 ****        -2.3862  -1.2225   3.6907 H              1 S1                 0.0000
     21 ****        -2.3634  -2.6935   2.7263 H              1 S1                 0.0000
     22 ****        -2.4764  -1.3789   0.6430 H              1 S1                 0.0000
     23 ****        -0.1741  -0.4425   2.4143 H              1 S1                 0.0000
     24 ****        -0.2504  -1.9656   1.5513 H              1 S1                 0.0000
     25 ****        -0.4052  -0.7498  -0.4948 H              1 S1                 0.0000
     26 ****         1.8481   0.2102   1.1052 H              1 S1                 0.0000
     27 ****         1.7897  -1.3474   0.3077 H              1 S1                 0.0000
     28 ****         1.5703   1.3789  -1.0739 H              1 S1                 0.0000
     29 ****         3.8582   1.4334  -1.1295 H              1 S1                 0.0000
     30 ****         4.0055  -0.1528  -0.3785 H              1 S1                 0.0000
     31 ****         4.7334  -0.0112  -3.0115 H              1 S1                 0.0000
     32 ****         4.1197  -2.5003  -2.4749 H              1 S1                 0.0000
     33 ****         1.4758  -2.6584  -2.2590 H              1 S1                 0.0000
     34 ****         0.4950  -0.2589  -2.6704 H              1 S1                 0.0000
     35 ****         2.4824   1.3954  -3.3589 H              1 S1                 0.0000
     36 ****         2.4844  -0.0810  -4.3454 H              1 S1                 0.0000
     37 ****        -3.6882   0.3444  -0.3905 H              1 S1                 0.0000
     38 ****        -4.5035   2.7059  -0.3776 H              1 S1                 0.0000
     39 ****        -2.6701   3.4944   3.2405 H              1 S1                 0.0000
     40 ****        -1.7662   1.1712   3.4028 H              1 S1                 0.0000
     41 ****        -0.3320   0.6820   0.3037 H              1 S1                 0.0000
     42 ****        -3.9654   4.1473   1.3950 LP             1 S1                 0.0000
@<TRIPOS>BOND
    1    1    2 1     
    2    1   19 1     
    3    1   20 1     
    4    1   21 1     
    5    2    3 1     
    6    2   13 1     
    7    2   22 1     
    8    3    4 1     
    9    3   23 1     
   10    3   24 1     
   11    4    5 1     
   12    4   25 1     
   13    4   41 1     
   14    5    6 1     
   15    5   26 1     
   16    5   27 1     
   17    6   11 1     
   18    6    7 1     
   19    6   28 1     
   20    7    8 1     
   21    7   29 1     
   22    7   30 1     
   23    8   12 1     
   24    8    9 1     
   25    8   31 1     
   26    9   10 2     
   27    9   32 1     
   28   10   11 1     
   29   10   33 1     
   30   11   12 1     
   31   11   34 1     
   32   12   35 1     
   33   12   36 1     
   34   13   18 ar    
   35   13   14 ar    
   36   14   15 ar    
   37   14   37 1     
   38   15   16 ar    
   39   15   38 1     
   40   16   17 ar    
   41   17   18 ar    
   42   17   39 1     
   43   18   40 1     
   44   16   42 1     
@<TRIPOS>SUBSTRUCTURE
      1 S1             1
@<TRIPOS>SET
LONE_PAIRS      STATIC     ATOMS    <user>   **** ""
1 42
DONOR_HYDROGENS      STATIC     ATOMS    <user>   **** ""
2 25 41
ATOM$BLUE        STATIC     ATOMS    COLORGROUP SYSTEM
1 42
ATOM$RED        STATIC     ATOMS    COLORGROUP SYSTEM
2 25 41
