AV-unprocessed.smi:2931|AV-procd|sdf|11242|dock8
  -GOLD-   2272016133D 1   1.00000     0.00000
 Structure written by MMmdl.
 42 43  0  0  0  0  0  0  0  0  2 V2000
  143.8563  132.6275  148.3742 C   0  0  0  0  0  0  0  0  0  0  0  0
  143.7117  133.4811  149.5728 N   0  3  1  0  0  0  0  0  0  0  0  0
  143.6805  132.6925  150.8299 C   0  0  0  0  0  0  0  0  0  0  0  0
  143.3924  133.5972  152.0393 C   0  0  0  0  0  0  0  0  0  0  0  0
  144.4118  134.7413  152.1292 C   0  0  0  0  0  0  0  0  0  0  0  0
  144.4593  135.5183  150.8007 C   0  0  1  0  0  0  0  0  0  0  0  0
  145.4937  136.5469  150.8477 N   0  0  0  0  0  0  0  0  0  0  0  0
  145.6509  137.4371  151.8368 C   0  0  0  0  0  0  0  0  0  0  0  0
  144.9116  137.5172  152.8175 O   0  0  0  0  0  0  0  0  0  0  0  0
  146.7232  138.2153  151.6377 N   0  0  0  0  0  0  0  0  0  0  0  0
  147.1962  139.2444  152.5592 C   0  0  0  0  0  0  0  0  0  0  0  0
  147.7085  138.6698  153.8961 C   0  0  0  0  0  0  0  0  0  0  0  0
  148.8887  139.4322  154.4747 C   0  0  0  0  0  0  0  0  0  0  0  0
  148.7831  140.8061  154.7769 C   0  0  0  0  0  0  0  0  0  0  0  0
  149.9047  141.4625  155.3214 C   0  0  0  0  0  0  0  0  0  0  0  0
  151.0781  140.8425  155.5709 N   0  0  0  0  0  0  0  0  0  0  0  0
  151.1724  139.5278  155.2777 C   0  0  0  0  0  0  0  0  0  0  0  0
  150.1115  138.7785  154.7304 C   0  0  0  0  0  0  0  0  0  0  0  0
  144.7268  134.5628  149.6225 C   0  0  0  0  0  0  0  0  0  0  0  0
  144.8138  132.1051  148.3787 H   0  0  0  0  0  0  0  0  0  0  0  0
  143.7974  133.2275  147.4655 H   0  0  0  0  0  0  0  0  0  0  0  0
  143.0601  131.8836  148.3326 H   0  0  0  0  0  0  0  0  0  0  0  0
  142.9109  131.9228  150.7600 H   0  0  0  0  0  0  0  0  0  0  0  0
  144.6336  132.1780  150.9632 H   0  0  0  0  0  0  0  0  0  0  0  0
  142.3861  134.0098  151.9561 H   0  0  0  0  0  0  0  0  0  0  0  0
  143.4105  133.0095  152.9578 H   0  0  0  0  0  0  0  0  0  0  0  0
  144.1506  135.4081  152.9521 H   0  0  0  0  0  0  0  0  0  0  0  0
  145.3975  134.3338  152.3590 H   0  0  0  0  0  0  0  0  0  0  0  0
  143.4891  135.9913  150.6346 H   0  0  0  0  0  0  0  0  0  0  0  0
  146.1589  136.5618  150.0885 H   0  0  0  0  0  0  0  0  0  0  0  0
  147.2703  138.0696  150.8018 H   0  0  0  0  0  0  0  0  0  0  0  0
  148.0083  139.7737  152.0602 H   0  0  0  0  0  0  0  0  0  0  0  0
  146.4117  139.9814  152.7362 H   0  0  0  0  0  0  0  0  0  0  0  0
  146.8999  138.6667  154.6276 H   0  0  0  0  0  0  0  0  0  0  0  0
  147.9930  137.6255  153.7620 H   0  0  0  0  0  0  0  0  0  0  0  0
  147.8644  141.3463  154.6006 H   0  0  0  0  0  0  0  0  0  0  0  0
  149.8568  142.5135  155.5648 H   0  0  0  0  0  0  0  0  0  0  0  0
  152.1215  139.0575  155.4873 H   0  0  0  0  0  0  0  0  0  0  0  0
  150.2349  137.7271  154.5158 H   0  0  0  0  0  0  0  0  0  0  0  0
  145.7225  134.1234  149.7048 H   0  0  0  0  0  0  0  0  0  0  0  0
  144.7028  135.1222  148.6860 H   0  0  0  0  0  0  0  0  0  0  0  0
  142.8119  133.9335  149.4943 H   0  0  0  0  0  0  0  0  0  0  0  0
  1  2  1  0  0  0  0
  1 20  1  0  0  0  0
  1 21  1  0  0  0  0
  1 22  1  0  0  0  0
  2 19  1  0  0  0  0
  2  3  1  0  0  0  0
  2 42  1  0  0  0  0
  3  4  1  0  0  0  0
  3 23  1  0  0  0  0
  3 24  1  0  0  0  0
  4  5  1  0  0  0  0
  4 25  1  0  0  0  0
  4 26  1  0  0  0  0
  5  6  1  0  0  0  0
  5 27  1  0  0  0  0
  5 28  1  0  0  0  0
  6  7  1  0  0  0  0
  6 19  1  0  0  0  0
  6 29  1  0  0  0  0
  7  8  1  0  0  0  0
  7 30  1  0  0  0  0
  8  9  2  0  0  0  0
  8 10  1  0  0  0  0
 10 11  1  0  0  0  0
 10 31  1  0  0  0  0
 11 12  1  0  0  0  0
 11 32  1  0  0  0  0
 11 33  1  0  0  0  0
 12 13  1  0  0  0  0
 12 34  1  0  0  0  0
 12 35  1  0  0  0  0
 13 18  1  0  0  0  0
 13 14  2  0  0  0  0
 14 15  1  0  0  0  0
 14 36  1  0  0  0  0
 15 16  2  0  0  0  0
 15 37  1  0  0  0  0
 16 17  1  0  0  0  0
 17 18  2  0  0  0  0
 17 38  1  0  0  0  0
 18 39  1  0  0  0  0
 19 40  1  0  0  0  0
 19 41  1  0  0  0  0
M  CHG  1   2   1
M  END
> <s_m_source_file>
AV-unprocessed.smi

> <i_m_source_file_index>
2931

> <i_lp_mmshare_version>
43012

> <i_f3d_flags>
0

> <s_epik_input>
W0NIM11OMVtDSDJdW0NIMl1bQ0gyXVtDQEhdKFtDSDJdMSlbTkhdQyg9TylbTkhdW0NIMl1bQ0gyXWMyW2NIXVtjSF1uW2NIXVtjSF0y

> <s_epik_cmdline>
J2VwaWtfcHl0aG9uJywgJy1waCcsICc3LjAnLCAnLXRuJywgJzgnLCAnLW1hJywgJzIwMCcsICctbWV0YWxfYmluZGluZycsICctaW1hZScsICc8aW5maWxlLm1hZT4nLCAnLW9tYWUnLCAnPG91dGZpbGUubWFlPic=

> <r_epik_Ionization_Penalty>
0.0573876

> <r_epik_Ionization_Penalty_Charging>
0.00229982

> <r_epik_Ionization_Penalty_Neutral>
0.0550878

> <r_epik_State_Penalty>
0.0473925

> <r_epik_Charging_Adjusted_Penalty>
0.0496923

> <i_epik_Tot_Q>
1

> <i_epik_Tot_abs_Q>
1

> <r_epik_Metal_State_Penalty>
0.0433388

> <b_epik_Metal_Only>
0

> <s_lp_Force_Field>
OPLS_2005

> <r_lp_Energy>
13.6108

> <b_lp_Chiralities_Consistent>
1

> <s_lp_Variant>
AV-unprocessed.smi:2931-1

> <Gold.Version>
5.8.1

> <Gold.Id.Protein>
6NUR|6NUR_protein|mol2

> <Gold.PLP.Fitness>
43.6735

> <Gold.PLP.PLP>
-35.3590

> <Gold.PLP.part.hbond>
-4.0000

> <Gold.PLP.part.metal>
0.0000

> <Gold.PLP.part.buried>
4.3060

> <Gold.PLP.part.nonpolar>
-34.9059

> <Gold.PLP.part.repulsive>
0.5278

> <Gold.PLP.ligand.clash>
0.0000

> <Gold.PLP.ligand.torsion>
0.3459

> <Gold.PLP.Chemscore.Hbond>
2.0000

> <Gold.PLP.Chemscore.CHOScore>
1.0000

> <Gold.PLP.Chemscore.Metal>
0.0000

> <Gold.Chemscore.Hbonds>
donor molecule, donor type, donor heavy atom, donor atom, acceptor molecule, acceptor atom, score
      L1  H     2    42       P1 10186  2.00
      L1  C    15    37       P1  8028  1.00

> <Gold.PLP.Chemscore.Internal.Correction>
0.0062

> <Gold.Rescore>
     Score         DG    S(hbond)    S(metal)    S(lipo)     H(rot)  DE(clash)    DE(int)     intcor
     13.95     -15.75       0.99        0.00      93.50       1.56       1.53       0.27       ----

> <Gold.Chemscore.Fitness>
13.9532

> <Gold.Chemscore.DG>
-15.7469

> <Gold.Chemscore.ZeroCoef>
-5.4800

> <Gold.Chemscore.Hbond>
0.9937

> <Gold.Chemscore.Metal>
0.0000

> <Gold.Chemscore.Lipo>
93.4990

> <Gold.Chemscore.Internal_Hbond>
0.0000

> <Gold.Chemscore.DEClash>
1.5283

> <Gold.Chemscore.DEInternal>
0.2654

> <Gold.Chemscore.Rot>
1.5592

> <Gold.Chemscore.Internal.Correction>
   9.000000E+99

> <Gold.Chemscore.Hbonds>
donor molecule, donor type, donor heavy atom, donor atom, acceptor molecule, acceptor atom, score
      L1  H     2    42       P1 10186  1.00

> <Gold.Chemscore.Hbond.Weighted>
-3.3190

> <Gold.Chemscore.Metal.Weighted>
-0.0000

> <Gold.Chemscore.Lipo.Weighted>
-10.9394

> <Gold.Chemscore.Internal_Hbond.Weighted>
0.0000

> <Gold.Chemscore.DEClash.Weighted>
1.5283

> <Gold.Chemscore.DEInternal.Weighted>
0.2654

> <Gold.Chemscore.Rot.Weighted>
3.9915

> <Gold.Chemscore.Internal.Correction.Weighted>
   9.000000E+99

> <Gold.Protein.RotatedTorsions>
[ 6907 6896 6895 6894 ] final  115.33 input  -60.11 | X-H torsion
[ 7974 7965 7964 7962 ] final  142.13 input  175.53 | X-H torsion
[ 8008 7997 7996 7995 ] final   20.57 input   59.86 | X-H torsion
[ 10167 10162 10161 10158 ] final -104.51 input  -65.29 | X-H torsion
[ 10718 10713 10712 10709 ] final   -1.40 input   66.30 | X-H torsion
[ 10763 10752 10751 10750 ] final   76.77 input  -60.55 | X-H torsion
[ 11005 11000 10999 10996 ] final  -87.78 input  -57.11 | X-H torsion

> <Gold.Protein.ActiveResidues>
 VAL166  LYS551  ARG553  GLY616  TRP617  ASP618  TYR619  PRO620  LYS621  CYS622 
 ASP623  PHE694  ASN695  SER759  ASP760  ASP761  ALA762  ILE779  LEU786  VAL792 
 PHE793  MET794  SER795  GLU796  ALA797  LYS798  CYS799  TRP800  GLU811  SER814 

> <Gold.Protein.RotatedAtoms>
  152.4748  133.8113  159.7004 H   0  0  0  0  0  0  0  0  0  0  0  0  # atno 6907 bound_to 6896
  150.8758  133.7431  159.2953 H   0  0  0  0  0  0  0  0  0  0  0  0  # atno 6908 bound_to 6896
  151.4951  135.1063  159.9866 H   0  0  0  0  0  0  0  0  0  0  0  0  # atno 6909 bound_to 6896
  144.9035  139.5390  143.5742 H   0  0  0  0  0  0  0  0  0  0  0  0  # atno 7974 bound_to 7965
  154.9376  140.3049  155.5137 H   0  0  0  0  0  0  0  0  0  0  0  0  # atno 8008 bound_to 7997
  156.2998  140.2342  156.4379 H   0  0  0  0  0  0  0  0  0  0  0  0  # atno 8009 bound_to 7997
  154.8177  140.0425  157.1377 H   0  0  0  0  0  0  0  0  0  0  0  0  # atno 8010 bound_to 7997
  140.2085  143.3765  152.1071 H   0  0  0  0  0  0  0  0  0  0  0  0  # atno 10167 bound_to 10162
  156.8062  130.5409  149.5715 H   0  0  0  0  0  0  0  0  0  0  0  0  # atno 10718 bound_to 10713
  153.0750  135.4939  154.8384 H   0  0  0  0  0  0  0  0  0  0  0  0  # atno 10763 bound_to 10752
  154.7074  135.3013  154.9251 H   0  0  0  0  0  0  0  0  0  0  0  0  # atno 10764 bound_to 10752
  153.9956  135.6773  153.4809 H   0  0  0  0  0  0  0  0  0  0  0  0  # atno 10765 bound_to 10752
  141.1612  133.7531  156.9357 H   0  0  0  0  0  0  0  0  0  0  0  0  # atno 11005 bound_to 11000
  146.3121  139.7784  142.9012 LP  0  0  0  0  0  0  0  0  0  0  0  0  # atno 17320 bound_to 7965
  145.3575  141.0319  143.3303 LP  0  0  0  0  0  0  0  0  0  0  0  0  # atno 17321 bound_to 7965
  139.5189  144.7012  151.5487 LP  0  0  0  0  0  0  0  0  0  0  0  0  # atno 17342 bound_to 10162
  140.6340  143.9019  150.6631 LP  0  0  0  0  0  0  0  0  0  0  0  0  # atno 17343 bound_to 10162
  156.1072  130.6013  150.9989 LP  0  0  0  0  0  0  0  0  0  0  0  0  # atno 17370 bound_to 10713
  157.6529  131.0894  150.8011 LP  0  0  0  0  0  0  0  0  0  0  0  0  # atno 17371 bound_to 10713
  140.1356  134.9327  157.2397 LP  0  0  0  0  0  0  0  0  0  0  0  0  # atno 17394 bound_to 11000
  140.2899  134.3252  155.7318 LP  0  0  0  0  0  0  0  0  0  0  0  0  # atno 17395 bound_to 11000

$$$$
