AV-unprocessed.smi:787|AV-procd|sdf|3725|dock2
  -GOLD-   22720 1153D 1   1.00000     0.00000
 Structure written by MMmdl.
 47 49  0  0  0  0  0  0  0  0  2 V2000
  149.9025  135.5581  155.6563 C   0  0  0  0  0  0  0  0  0  0  0  0
  150.0625  136.5223  154.5790 N   0  0  0  0  0  0  0  0  0  0  0  0
  150.8463  137.6695  154.7673 C   0  0  0  0  0  0  0  0  0  0  0  0
  152.1944  137.5623  154.8160 N   0  0  0  0  0  0  0  0  0  0  0  0
  152.9060  138.6792  155.0146 C   0  0  0  0  0  0  0  0  0  0  0  0
  152.4729  139.9380  155.1834 N   0  0  0  0  0  0  0  0  0  0  0  0
  151.1394  140.0555  155.1340 C   0  0  0  0  0  0  0  0  0  0  0  0
  150.4241  141.2307  155.2833 N   0  0  0  0  0  0  0  0  0  0  0  0
  149.1720  140.8029  155.1521 C   0  0  0  0  0  0  0  0  0  0  0  0
  148.9817  139.4897  154.9123 N   0  0  0  0  0  0  0  0  0  0  0  0
  147.7015  138.8286  154.6969 C   0  0  0  0  0  0  0  0  0  0  0  0
  147.6042  138.0920  153.3399 C   0  0  2  0  0  0  0  0  0  0  0  0
  147.8556  139.0052  152.2893 O   0  0  0  0  0  0  0  0  0  0  0  0
  146.2256  137.4456  153.0911 C   0  0  0  0  0  0  0  0  0  0  0  0
  146.3441  136.0566  152.5751 N   0  3  1  0  0  0  0  0  0  0  0  0
  146.3469  135.0439  153.6552 C   0  0  0  0  0  0  0  0  0  0  0  0
  145.3624  135.7347  151.5089 C   0  0  0  0  0  0  0  0  0  0  0  0
  145.2835  134.2391  151.2491 C   0  0  0  0  0  0  0  0  0  0  0  0
  146.4383  133.5129  150.8854 C   0  0  0  0  0  0  0  0  0  0  0  0
  146.3622  132.1234  150.6691 C   0  0  0  0  0  0  0  0  0  0  0  0
  145.1304  131.4552  150.8082 C   0  0  0  0  0  0  0  0  0  0  0  0
  143.9744  132.1772  151.1629 C   0  0  0  0  0  0  0  0  0  0  0  0
  144.0505  133.5663  151.3824 C   0  0  0  0  0  0  0  0  0  0  0  0
  150.2665  138.9461  154.9176 C   0  0  0  0  0  0  0  0  0  0  0  0
  149.2310  134.7584  155.3437 H   0  0  0  0  0  0  0  0  0  0  0  0
  149.4778  136.0338  156.5408 H   0  0  0  0  0  0  0  0  0  0  0  0
  150.8618  135.1136  155.9240 H   0  0  0  0  0  0  0  0  0  0  0  0
  149.4554  136.4592  153.7753 H   0  0  0  0  0  0  0  0  0  0  0  0
  153.9774  138.5478  155.0477 H   0  0  0  0  0  0  0  0  0  0  0  0
  148.3416  141.4911  155.2134 H   0  0  0  0  0  0  0  0  0  0  0  0
  147.5149  138.1407  155.5214 H   0  0  0  0  0  0  0  0  0  0  0  0
  146.9171  139.5841  154.7576 H   0  0  0  0  0  0  0  0  0  0  0  0
  148.3822  137.3292  153.3101 H   0  0  0  0  0  0  0  0  0  0  0  0
  147.1483  139.6315  152.2527 H   0  0  0  0  0  0  0  0  0  0  0  0
  145.6284  137.4488  154.0042 H   0  0  0  0  0  0  0  0  0  0  0  0
  145.6779  138.0616  152.3804 H   0  0  0  0  0  0  0  0  0  0  0  0
  145.3834  135.0155  154.1661 H   0  0  0  0  0  0  0  0  0  0  0  0
  147.1190  135.2587  154.3941 H   0  0  0  0  0  0  0  0  0  0  0  0
  146.5482  134.0508  153.2520 H   0  0  0  0  0  0  0  0  0  0  0  0
  144.3680  136.0705  151.8068 H   0  0  0  0  0  0  0  0  0  0  0  0
  145.6122  136.2734  150.5934 H   0  0  0  0  0  0  0  0  0  0  0  0
  147.3886  134.0159  150.7804 H   0  0  0  0  0  0  0  0  0  0  0  0
  147.2489  131.5693  150.3972 H   0  0  0  0  0  0  0  0  0  0  0  0
  145.0722  130.3894  150.6418 H   0  0  0  0  0  0  0  0  0  0  0  0
  143.0297  131.6648  151.2690 H   0  0  0  0  0  0  0  0  0  0  0  0
  143.1604  134.1122  151.6594 H   0  0  0  0  0  0  0  0  0  0  0  0
  147.2493  136.0033  152.1291 H   0  0  0  0  0  0  0  0  0  0  0  0
  1  2  1  0  0  0  0
  1 25  1  0  0  0  0
  1 26  1  0  0  0  0
  1 27  1  0  0  0  0
  2  3  1  0  0  0  0
  2 28  1  0  0  0  0
  3 24  1  0  0  0  0
  3  4  2  0  0  0  0
  4  5  1  0  0  0  0
  5  6  2  0  0  0  0
  5 29  1  0  0  0  0
  6  7  1  0  0  0  0
  7 24  2  0  0  0  0
  7  8  1  0  0  0  0
  8  9  2  0  0  0  0
  9 10  1  0  0  0  0
  9 30  1  0  0  0  0
 10 11  1  0  0  0  0
 10 24  1  0  0  0  0
 11 12  1  0  0  0  0
 11 31  1  0  0  0  0
 11 32  1  0  0  0  0
 12 13  1  0  0  0  0
 12 14  1  0  0  0  0
 12 33  1  0  0  0  0
 13 34  1  0  0  0  0
 14 15  1  0  0  0  0
 14 35  1  0  0  0  0
 14 36  1  0  0  0  0
 15 16  1  0  0  0  0
 15 17  1  0  0  0  0
 15 47  1  0  0  0  0
 16 37  1  0  0  0  0
 16 38  1  0  0  0  0
 16 39  1  0  0  0  0
 17 18  1  0  0  0  0
 17 40  1  0  0  0  0
 17 41  1  0  0  0  0
 18 23  1  0  0  0  0
 18 19  2  0  0  0  0
 19 20  1  0  0  0  0
 19 42  1  0  0  0  0
 20 21  2  0  0  0  0
 20 43  1  0  0  0  0
 21 22  1  0  0  0  0
 21 44  1  0  0  0  0
 22 23  2  0  0  0  0
 22 45  1  0  0  0  0
 23 46  1  0  0  0  0
M  CHG  1  15   1
M  END
> <s_m_source_file>
AV-unprocessed.smi

> <i_m_source_file_index>
787

> <i_lp_mmshare_version>
43012

> <i_f3d_flags>
0

> <s_epik_input>
bjFbY0hdbmMoW05IXVtDSDNdKWMoYzEyKW4oW2NIXW4yKVtDSDJdW0NASF0oW09IXSlbQ0gyXU4oW0NIM10pW0NIMl1jM1tjSF1bY0hdW2NIXVtjSF1bY0hdMw==

> <s_epik_cmdline>
J2VwaWtfcHl0aG9uJywgJy1waCcsICc3LjAnLCAnLXRuJywgJzgnLCAnLW1hJywgJzIwMCcsICctbWV0YWxfYmluZGluZycsICctaW1hZScsICc8aW5maWxlLm1hZT4nLCAnLW9tYWUnLCAnPG91dGZpbGUubWFlPic=

> <r_lp_tautomer_probability>
0.999987

> <r_epik_Ionization_Penalty>
0.0526284

> <r_epik_Ionization_Penalty_Charging>
0.0475377

> <r_epik_Ionization_Penalty_Neutral>
0.00509065

> <r_epik_State_Penalty>
0.0404888

> <r_epik_Charging_Adjusted_Penalty>
0.0880265

> <i_epik_Tot_Q>
1

> <i_epik_Tot_abs_Q>
1

> <r_epik_Metal_State_Penalty>
0.040507

> <b_epik_Metal_Only>
0

> <s_lp_Force_Field>
OPLS_2005

> <r_lp_Energy>
14.0859

> <b_lp_Chiralities_Consistent>
1

> <s_lp_Variant>
AV-unprocessed.smi:787-1

> <Gold.Version>
5.8.1

> <Gold.Id.Protein>
6NUR|6NUR_protein|mol2

> <Gold.PLP.Fitness>
51.3687

> <Gold.PLP.PLP>
-43.6390

> <Gold.PLP.part.hbond>
-7.1123

> <Gold.PLP.part.metal>
0.0000

> <Gold.PLP.part.buried>
-1.4807

> <Gold.PLP.part.nonpolar>
-35.6435

> <Gold.PLP.part.repulsive>
0.2938

> <Gold.PLP.ligand.clash>
0.0000

> <Gold.PLP.ligand.torsion>
1.9909

> <Gold.PLP.Chemscore.Hbond>
3.7930

> <Gold.PLP.Chemscore.CHOScore>
0.0000

> <Gold.PLP.Chemscore.Metal>
0.0000

> <Gold.Chemscore.Hbonds>
donor molecule, donor type, donor heavy atom, donor atom, acceptor molecule, acceptor atom, score
      L1  H     2    28       P1  7948  1.00
      L1  H    15    47       P1  7948  2.00
      P1  H 10752 10765       L1     4  0.63

> <Gold.PLP.Chemscore.Internal.Correction>
0.3326

> <Gold.Rescore>
     Score         DG    S(hbond)    S(metal)    S(lipo)     H(rot)  DE(clash)    DE(int)     intcor
     12.48     -14.59       2.66        0.00      71.68       3.19       0.03       2.08       ----

> <Gold.Chemscore.Fitness>
12.4781

> <Gold.Chemscore.DG>
-14.5885

> <Gold.Chemscore.ZeroCoef>
-5.4800

> <Gold.Chemscore.Hbond>
2.6634

> <Gold.Chemscore.Metal>
0.0000

> <Gold.Chemscore.Lipo>
71.6778

> <Gold.Chemscore.Internal_Hbond>
0.0000

> <Gold.Chemscore.DEClash>
0.0263

> <Gold.Chemscore.DEInternal>
2.0841

> <Gold.Chemscore.Rot>
3.1928

> <Gold.Chemscore.Internal.Correction>
   9.000000E+99

> <Gold.Chemscore.Hbonds>
donor molecule, donor type, donor heavy atom, donor atom, acceptor molecule, acceptor atom, score
      L1  H     2    28       P1  7948  0.79
      L1  H    15    47       P1  7948  1.00
      P1  H 10752 10765       L1     4  0.56

> <Gold.Chemscore.Hbond.Weighted>
-8.8958

> <Gold.Chemscore.Metal.Weighted>
-0.0000

> <Gold.Chemscore.Lipo.Weighted>
-8.3863

> <Gold.Chemscore.Internal_Hbond.Weighted>
0.0000

> <Gold.Chemscore.DEClash.Weighted>
0.0263

> <Gold.Chemscore.DEInternal.Weighted>
2.0841

> <Gold.Chemscore.Rot.Weighted>
8.1736

> <Gold.Chemscore.Internal.Correction.Weighted>
   9.000000E+99

> <Gold.Protein.RotatedTorsions>
[ 6907 6896 6895 6894 ] final   11.52 input  -60.11 | X-H torsion
[ 7974 7965 7964 7962 ] final   14.34 input  175.53 | X-H torsion
[ 8008 7997 7996 7995 ] final  161.11 input   59.86 | X-H torsion
[ 10167 10162 10161 10158 ] final  -88.27 input  -65.29 | X-H torsion
[ 10718 10713 10712 10709 ] final   20.83 input   66.30 | X-H torsion
[ 10763 10752 10751 10750 ] final  167.73 input  -60.55 | X-H torsion
[ 11005 11000 10999 10996 ] final  -17.58 input  -57.11 | X-H torsion

> <Gold.Protein.ActiveResidues>
 VAL166  LYS551  ARG553  GLY616  TRP617  ASP618  TYR619  PRO620  LYS621  CYS622 
 ASP623  PHE694  ASN695  SER759  ASP760  ASP761  ALA762  ILE779  LEU786  VAL792 
 PHE793  MET794  SER795  GLU796  ALA797  LYS798  CYS799  TRP800  GLU811  SER814 

> <Gold.Protein.RotatedAtoms>
  151.7557  135.0822  160.0337 H   0  0  0  0  0  0  0  0  0  0  0  0  # atno 6907 bound_to 6896
  152.3387  133.6037  159.5869 H   0  0  0  0  0  0  0  0  0  0  0  0  # atno 6908 bound_to 6896
  150.7466  133.9672  159.3576 H   0  0  0  0  0  0  0  0  0  0  0  0  # atno 6909 bound_to 6896
  146.2307  139.9056  142.8532 H   0  0  0  0  0  0  0  0  0  0  0  0  # atno 7974 bound_to 7965
  156.2126  140.1786  156.7660 H   0  0  0  0  0  0  0  0  0  0  0  0  # atno 8008 bound_to 7997
  154.5745  140.0677  156.9043 H   0  0  0  0  0  0  0  0  0  0  0  0  # atno 8009 bound_to 7997
  155.2613  140.3336  155.4275 H   0  0  0  0  0  0  0  0  0  0  0  0  # atno 8010 bound_to 7997
  140.3763  143.2770  151.9439 H   0  0  0  0  0  0  0  0  0  0  0  0  # atno 10167 bound_to 10162
  157.1299  130.6586  149.5949 H   0  0  0  0  0  0  0  0  0  0  0  0  # atno 10718 bound_to 10713
  154.3581  135.2753  155.2335 H   0  0  0  0  0  0  0  0  0  0  0  0  # atno 10763 bound_to 10752
  154.4535  135.5925  153.6211 H   0  0  0  0  0  0  0  0  0  0  0  0  # atno 10764 bound_to 10752
  152.9845  135.6047  154.3799 H   0  0  0  0  0  0  0  0  0  0  0  0  # atno 10765 bound_to 10752
  140.8182  133.8088  155.9632 H   0  0  0  0  0  0  0  0  0  0  0  0  # atno 11005 bound_to 11000
  145.2280  140.9962  143.4007 LP  0  0  0  0  0  0  0  0  0  0  0  0  # atno 17320 bound_to 7965
  144.9554  139.4037  143.6382 LP  0  0  0  0  0  0  0  0  0  0  0  0  # atno 17321 bound_to 7965
  139.4799  144.5860  151.7852 LP  0  0  0  0  0  0  0  0  0  0  0  0  # atno 17342 bound_to 10162
  140.4983  144.1207  150.5965 LP  0  0  0  0  0  0  0  0  0  0  0  0  # atno 17343 bound_to 10162
  155.9810  130.4814  150.6804 LP  0  0  0  0  0  0  0  0  0  0  0  0  # atno 17370 bound_to 10713
  157.4401  131.0860  151.0952 LP  0  0  0  0  0  0  0  0  0  0  0  0  # atno 17371 bound_to 10713
  140.9126  134.2241  157.4976 LP  0  0  0  0  0  0  0  0  0  0  0  0  # atno 17394 bound_to 11000
  139.8710  134.9757  156.4893 LP  0  0  0  0  0  0  0  0  0  0  0  0  # atno 17395 bound_to 11000

$$$$
