#       Name:                AV-unprocessed.smi:2282
#       Creating user name   scv26
#       Creation time:       Fri Mar 27 12:41:32 2020


#       File generated by GOLD software.
#

@<TRIPOS>MOLECULE
AV-unprocessed.smi:2282
    37    38     1
SMALL
NO_CHARGES


@<TRIPOS>ATOM
      1 ****        -4.3605   2.3388   0.4267 C.3            1 S1                 0.0000
      2 ****        -3.7145   0.9661   0.4027 C.ar           1 S1                 0.0000
      3 ****        -4.5638  -0.0786   0.2894 N.ar           1 S1                 0.0000
      4 ****        -4.0420  -1.3223   0.2710 C.ar           1 S1                 0.0000
      5 ****        -2.6614  -1.5845   0.3579 C.ar           1 S1                 0.0000
      6 ****        -1.7685  -0.4914   0.4602 C.ar           1 S1                 0.0000
      7 ****        -0.3600  -0.6424   0.5746 N.am           1 S1                 0.0000
      8 ****         0.4242  -1.6374   0.1192 C.2            1 S1                 0.0000
      9 ****         0.0069  -2.6399  -0.4603 O.2            1 S1                 0.0000
     10 ****         1.9368  -1.4802   0.3632 C.3            1 S1                 0.0000
     11 ****         2.7938  -1.7532  -0.8904 C.3            1 S1                 0.0000
     12 ****         3.5338  -0.4478  -1.1336 C.3            1 S1                 0.0000
     13 ****         2.6587   0.5780  -0.4229 C.3            1 S1                 0.0000
     14 ****         3.3860   1.8687  -0.0331 C.3            1 S1                 0.0000
     15 ****         2.2442  -0.1338   0.7333 O.3            1 S1                 0.0000
     16 ****        -2.3111   0.8143   0.4960 C.ar           1 S1                 0.0000
     17 ****        -1.2786   2.1979   0.6414 Cl             1 S1                 0.0000
     18 ****        -4.0026   2.9412  -0.4084 H              1 S1                 0.0000
     19 ****        -4.1163   2.8563   1.3547 H              1 S1                 0.0000
     20 ****        -5.4468   2.2727   0.3540 H              1 S1                 0.0000
     21 ****        -4.7476  -2.1359   0.1914 H              1 S1                 0.0000
     22 ****        -2.3191  -2.6078   0.3580 H              1 S1                 0.0000
     23 ****         0.1288   0.1512   0.9642 H              1 S1                 0.0000
     24 ****         2.2239  -2.1407   1.1820 H              1 S1                 0.0000
     25 ****         3.4878  -2.5803  -0.7369 H              1 S1                 0.0000
     26 ****         2.1848  -1.9989  -1.7619 H              1 S1                 0.0000
     27 ****         4.5184  -0.4923  -0.6661 H              1 S1                 0.0000
     28 ****         3.6718  -0.2269  -2.1923 H              1 S1                 0.0000
     29 ****         1.7834   0.8106  -1.0321 H              1 S1                 0.0000
     30 ****         3.7404   2.3997  -0.9168 H              1 S1                 0.0000
     31 ****         4.2475   1.6617   0.6025 H              1 S1                 0.0000
     32 ****         2.7213   2.5379   0.5138 H              1 S1                 0.0000
     33 ****        -5.5509   0.0661   0.2211 LP             1 S1                 0.0000
     34 ****        -0.9738  -2.7537  -0.6194 LP             1 S1                 0.0000
     35 ****         0.6486  -3.3407  -0.7721 LP             1 S1                 0.0000
     36 ****         2.9799  -0.1316   1.4105 LP             1 S1                 0.0000
     37 ****         1.4320   0.3012   1.1220 LP             1 S1                 0.0000
@<TRIPOS>BOND
    1    1    2 1     
    2    1   18 1     
    3    1   19 1     
    4    1   20 1     
    5    2   16 ar    
    6    2    3 ar    
    7    3    4 ar    
    8    4    5 ar    
    9    4   21 1     
   10    5    6 ar    
   11    5   22 1     
   12    6    7 1     
   13    6   16 ar    
   14    7    8 am    
   15    7   23 1     
   16    8    9 2     
   17    8   10 1     
   18   10   15 1     
   19   10   11 1     
   20   10   24 1     
   21   11   12 1     
   22   11   25 1     
   23   11   26 1     
   24   12   13 1     
   25   12   27 1     
   26   12   28 1     
   27   13   14 1     
   28   13   15 1     
   29   13   29 1     
   30   14   30 1     
   31   14   31 1     
   32   14   32 1     
   33   16   17 1     
   34    3   33 1     
   35    9   34 1     
   36    9   35 1     
   37   15   36 1     
   38   15   37 1     
@<TRIPOS>SUBSTRUCTURE
      1 S1             1
@<TRIPOS>SET
LONE_PAIRS      STATIC     ATOMS    <user>   **** ""
5 33 34 35 36 37
DONOR_HYDROGENS      STATIC     ATOMS    <user>   **** ""
1 23
ATOM$BLUE        STATIC     ATOMS    COLORGROUP SYSTEM
5 33 34 35 36 37
ATOM$RED        STATIC     ATOMS    COLORGROUP SYSTEM
1 23
