AV-unprocessed.smi:1509|AV-procd|sdf|6092|dock7
  -GOLD-   22720 6223D 1   1.00000     0.00000
 Structure written by MMmdl.
 42 43  0  0  0  0  0  0  0  0  2 V2000
  146.9223  133.1799  152.3504 C   0  0  0  0  0  0  0  0  0  0  0  0
  145.4848  133.6825  152.5722 C   0  0  2  0  0  0  0  0  0  0  0  0
  144.6662  133.7451  151.2695 C   0  0  0  0  0  0  0  0  0  0  0  0
  145.1013  134.9294  150.3953 C   0  0  0  0  0  0  0  0  0  0  0  0
  145.0633  136.2447  151.1894 C   0  0  0  0  0  0  0  0  0  0  0  0
  145.8952  136.1551  152.4173 N   0  3  1  0  0  0  0  0  0  0  0  0
  145.9962  137.4583  153.1222 C   0  0  0  0  0  0  0  0  0  0  0  0
  146.8247  138.4902  152.3377 C   0  0  0  0  0  0  0  0  0  0  0  0
  147.1563  139.7324  153.1818 C   0  0  0  0  0  0  0  0  0  0  0  0
  148.5554  139.7503  153.5932 N   0  0  0  0  0  0  0  0  0  0  0  0
  148.9901  139.5568  154.8485 C   0  0  0  0  0  0  0  0  0  0  0  0
  148.2377  139.3612  155.8027 O   0  0  0  0  0  0  0  0  0  0  0  0
  150.5036  139.5852  155.0620 C   0  0  0  0  0  0  0  0  0  0  0  0
  151.0097  138.2597  155.3635 N   0  0  0  0  0  0  0  0  0  0  0  0
  150.6453  137.0578  154.9120 C   0  0  0  0  0  0  0  0  0  0  0  0
  151.3699  136.0910  155.4543 N   0  0  0  0  0  0  0  0  0  0  0  0
  152.2310  136.7772  156.2946 N   0  0  0  0  0  0  0  0  0  0  0  0
  152.0220  138.0643  156.2448 N   0  0  0  0  0  0  0  0  0  0  0  0
  145.4487  135.0426  153.2999 C   0  0  0  0  0  0  0  0  0  0  0  0
  147.5025  133.8620  151.7290 H   0  0  0  0  0  0  0  0  0  0  0  0
  146.9249  132.2043  151.8636 H   0  0  0  0  0  0  0  0  0  0  0  0
  147.4490  133.0721  153.2992 H   0  0  0  0  0  0  0  0  0  0  0  0
  145.0022  132.9515  153.2223 H   0  0  0  0  0  0  0  0  0  0  0  0
  144.7554  132.8106  150.7146 H   0  0  0  0  0  0  0  0  0  0  0  0
  143.6089  133.8543  151.5150 H   0  0  0  0  0  0  0  0  0  0  0  0
  146.1076  134.7600  150.0109 H   0  0  0  0  0  0  0  0  0  0  0  0
  144.4508  135.0041  149.5235 H   0  0  0  0  0  0  0  0  0  0  0  0
  145.4269  137.0524  150.5530 H   0  0  0  0  0  0  0  0  0  0  0  0
  144.0360  136.4928  151.4612 H   0  0  0  0  0  0  0  0  0  0  0  0
  144.9941  137.8686  153.2562 H   0  0  0  0  0  0  0  0  0  0  0  0
  146.4041  137.3103  154.1232 H   0  0  0  0  0  0  0  0  0  0  0  0
  147.7556  138.0456  151.9869 H   0  0  0  0  0  0  0  0  0  0  0  0
  146.2704  138.7896  151.4473 H   0  0  0  0  0  0  0  0  0  0  0  0
  146.9205  140.6450  152.6314 H   0  0  0  0  0  0  0  0  0  0  0  0
  146.5401  139.7456  154.0811 H   0  0  0  0  0  0  0  0  0  0  0  0
  149.2428  139.9048  152.8694 H   0  0  0  0  0  0  0  0  0  0  0  0
  151.0083  139.9611  154.1710 H   0  0  0  0  0  0  0  0  0  0  0  0
  150.7513  140.2619  155.8814 H   0  0  0  0  0  0  0  0  0  0  0  0
  149.8550  136.8923  154.1943 H   0  0  0  0  0  0  0  0  0  0  0  0
  144.4337  135.2485  153.6438 H   0  0  0  0  0  0  0  0  0  0  0  0
  146.0700  134.9862  154.1930 H   0  0  0  0  0  0  0  0  0  0  0  0
  146.8284  135.9270  152.1053 H   0  0  0  0  0  0  0  0  0  0  0  0
  1  2  1  0  0  0  0
  1 20  1  0  0  0  0
  1 21  1  0  0  0  0
  1 22  1  0  0  0  0
  2 19  1  0  0  0  0
  2  3  1  0  0  0  0
  2 23  1  0  0  0  0
  3  4  1  0  0  0  0
  3 24  1  0  0  0  0
  3 25  1  0  0  0  0
  4  5  1  0  0  0  0
  4 26  1  0  0  0  0
  4 27  1  0  0  0  0
  5  6  1  0  0  0  0
  5 28  1  0  0  0  0
  5 29  1  0  0  0  0
  6  7  1  0  0  0  0
  6 19  1  0  0  0  0
  6 42  1  0  0  0  0
  7  8  1  0  0  0  0
  7 30  1  0  0  0  0
  7 31  1  0  0  0  0
  8  9  1  0  0  0  0
  8 32  1  0  0  0  0
  8 33  1  0  0  0  0
  9 10  1  0  0  0  0
  9 34  1  0  0  0  0
  9 35  1  0  0  0  0
 10 11  1  0  0  0  0
 10 36  1  0  0  0  0
 11 12  2  0  0  0  0
 11 13  1  0  0  0  0
 13 14  1  0  0  0  0
 13 37  1  0  0  0  0
 13 38  1  0  0  0  0
 14 18  1  0  0  0  0
 14 15  1  0  0  0  0
 15 16  2  0  0  0  0
 15 39  1  0  0  0  0
 16 17  1  0  0  0  0
 17 18  2  0  0  0  0
 19 40  1  0  0  0  0
 19 41  1  0  0  0  0
M  CHG  1   6   1
M  END
> <s_m_source_file>
AV-unprocessed.smi

> <i_m_source_file_index>
1509

> <i_lp_mmshare_version>
43012

> <i_f3d_flags>
0

> <s_epik_input>
W0NIM11bQ0BASF0xW0NIMl1bQ0gyXVtDSDJdTihbQ0gyXTEpW0NIMl1bQ0gyXVtDSDJdW05IXUMoPU8pW0NIMl1uMltjSF1ubm4y

> <s_epik_cmdline>
J2VwaWtfcHl0aG9uJywgJy1waCcsICc3LjAnLCAnLXRuJywgJzgnLCAnLW1hJywgJzIwMCcsICctbWV0YWxfYmluZGluZycsICctaW1hZScsICc8aW5maWxlLm1hZT4nLCAnLW9tYWUnLCAnPG91dGZpbGUubWFlPic=

> <r_lp_tautomer_probability>
1

> <r_epik_Ionization_Penalty>
0.00044216

> <r_epik_Ionization_Penalty_Charging>
0.000440775

> <r_epik_Ionization_Penalty_Neutral>
1.38512e-06

> <r_epik_State_Penalty>
0.000271914

> <r_epik_Charging_Adjusted_Penalty>
0.000712689

> <i_epik_Tot_Q>
1

> <i_epik_Tot_abs_Q>
1

> <r_epik_Metal_State_Penalty>
-0

> <b_epik_Metal_Only>
0

> <s_lp_Force_Field>
OPLS_2005

> <r_lp_Energy>
22.816

> <b_lp_Chiralities_Consistent>
1

> <s_lp_Variant>
AV-unprocessed.smi:1509-3

> <Gold.Version>
5.8.1

> <Gold.Id.Protein>
6NUR|6NUR_protein|mol2

> <Gold.PLP.Fitness>
46.2567

> <Gold.PLP.PLP>
-32.2398

> <Gold.PLP.part.hbond>
-3.8444

> <Gold.PLP.part.metal>
0.0000

> <Gold.PLP.part.buried>
0.7961

> <Gold.PLP.part.nonpolar>
-28.7748

> <Gold.PLP.part.repulsive>
0.2934

> <Gold.PLP.ligand.clash>
0.0000

> <Gold.PLP.ligand.torsion>
0.9330

> <Gold.PLP.Chemscore.Hbond>
4.2358

> <Gold.PLP.Chemscore.CHOScore>
1.0400

> <Gold.PLP.Chemscore.Metal>
0.0000

> <Gold.Chemscore.Hbonds>
donor molecule, donor type, donor heavy atom, donor atom, acceptor molecule, acceptor atom, score
      L1  H     6    42       P1  7948  1.46
      L1  H    10    36       P1  7957  0.98
      P1  H 10752 10764       L1    16  0.34
      L1  C    15    39       P1  7948  0.94

> <Gold.PLP.Chemscore.Internal.Correction>
0.0554

> <Gold.Rescore>
     Score         DG    S(hbond)    S(metal)    S(lipo)     H(rot)  DE(clash)    DE(int)     intcor
     11.98     -13.50       2.77        0.00      54.36       2.97       0.86       0.66       ----

> <Gold.Chemscore.Fitness>
11.9753

> <Gold.Chemscore.DG>
-13.4968

> <Gold.Chemscore.ZeroCoef>
-5.4800

> <Gold.Chemscore.Hbond>
2.7709

> <Gold.Chemscore.Metal>
0.0000

> <Gold.Chemscore.Lipo>
54.3592

> <Gold.Chemscore.Internal_Hbond>
0.0000

> <Gold.Chemscore.DEClash>
0.8599

> <Gold.Chemscore.DEInternal>
0.6616

> <Gold.Chemscore.Rot>
2.9680

> <Gold.Chemscore.Internal.Correction>
   9.000000E+99

> <Gold.Chemscore.Hbonds>
donor molecule, donor type, donor heavy atom, donor atom, acceptor molecule, acceptor atom, score
      L1  H     6    42       P1  7948  0.72
      L1  H    10    36       P1  7957  0.92
      P1  H 10752 10764       L1    16  0.01

> <Gold.Chemscore.Hbond.Weighted>
-9.2548

> <Gold.Chemscore.Metal.Weighted>
-0.0000

> <Gold.Chemscore.Lipo.Weighted>
-6.3600

> <Gold.Chemscore.Internal_Hbond.Weighted>
0.0000

> <Gold.Chemscore.DEClash.Weighted>
0.8599

> <Gold.Chemscore.DEInternal.Weighted>
0.6616

> <Gold.Chemscore.Rot.Weighted>
7.5980

> <Gold.Chemscore.Internal.Correction.Weighted>
   9.000000E+99

> <Gold.Protein.RotatedTorsions>
[ 6907 6896 6895 6894 ] final   92.61 input  -60.11 | X-H torsion
[ 7974 7965 7964 7962 ] final  -14.14 input  175.53 | X-H torsion
[ 8008 7997 7996 7995 ] final  -26.88 input   59.86 | X-H torsion
[ 10167 10162 10161 10158 ] final  -21.50 input  -65.29 | X-H torsion
[ 10718 10713 10712 10709 ] final  -86.12 input   66.30 | X-H torsion
[ 10763 10752 10751 10750 ] final  -71.31 input  -60.55 | X-H torsion
[ 11005 11000 10999 10996 ] final   68.79 input  -57.11 | X-H torsion

> <Gold.Protein.ActiveResidues>
 VAL166  LYS551  ARG553  GLY616  TRP617  ASP618  TYR619  PRO620  LYS621  CYS622 
 ASP623  PHE694  ASN695  SER759  ASP760  ASP761  ALA762  ILE779  LEU786  VAL792 
 PHE793  MET794  SER795  GLU796  ALA797  LYS798  CYS799  TRP800  GLU811  SER814 

> <Gold.Protein.RotatedAtoms>
  152.5453  134.1476  159.8504 H   0  0  0  0  0  0  0  0  0  0  0  0  # atno 6907 bound_to 6896
  151.1506  133.4903  159.2603 H   0  0  0  0  0  0  0  0  0  0  0  0  # atno 6908 bound_to 6896
  151.1476  135.0222  159.8709 H   0  0  0  0  0  0  0  0  0  0  0  0  # atno 6909 bound_to 6896
  146.2086  140.3305  142.8398 H   0  0  0  0  0  0  0  0  0  0  0  0  # atno 7974 bound_to 7965
  154.4404  140.1887  156.0844 H   0  0  0  0  0  0  0  0  0  0  0  0  # atno 8008 bound_to 7997
  156.0414  140.3319  155.7221 H   0  0  0  0  0  0  0  0  0  0  0  0  # atno 8009 bound_to 7997
  155.5694  140.0611  157.2801 H   0  0  0  0  0  0  0  0  0  0  0  0  # atno 8010 bound_to 7997
  140.7282  143.4622  151.0363 H   0  0  0  0  0  0  0  0  0  0  0  0  # atno 10167 bound_to 10162
  155.9992  130.4754  150.4666 H   0  0  0  0  0  0  0  0  0  0  0  0  # atno 10718 bound_to 10713
  154.4300  135.5966  153.6063 H   0  0  0  0  0  0  0  0  0  0  0  0  # atno 10763 bound_to 10752
  152.9798  135.5973  154.3851 H   0  0  0  0  0  0  0  0  0  0  0  0  # atno 10764 bound_to 10752
  154.3687  135.2841  155.2257 H   0  0  0  0  0  0  0  0  0  0  0  0  # atno 10765 bound_to 10752
  139.9691  134.6931  156.0484 H   0  0  0  0  0  0  0  0  0  0  0  0  # atno 11005 bound_to 11000
  144.8856  140.7457  143.5959 LP  0  0  0  0  0  0  0  0  0  0  0  0  # atno 17320 bound_to 7965
  145.3226  139.1784  143.4580 LP  0  0  0  0  0  0  0  0  0  0  0  0  # atno 17321 bound_to 7965
  139.8308  143.7694  152.3179 LP  0  0  0  0  0  0  0  0  0  0  0  0  # atno 17342 bound_to 10162
  139.7809  144.7445  151.0090 LP  0  0  0  0  0  0  0  0  0  0  0  0  # atno 17343 bound_to 10162
  157.2685  131.0582  151.2275 LP  0  0  0  0  0  0  0  0  0  0  0  0  # atno 17370 bound_to 10713
  157.3364  130.7011  149.6355 LP  0  0  0  0  0  0  0  0  0  0  0  0  # atno 17371 bound_to 10713
  141.1370  133.6573  156.3623 LP  0  0  0  0  0  0  0  0  0  0  0  0  # atno 17394 bound_to 11000
  140.5333  134.6192  157.5357 LP  0  0  0  0  0  0  0  0  0  0  0  0  # atno 17395 bound_to 11000

$$$$
