AV-unprocessed.smi:2749|AV-procd|sdf|10587|dock2
  -GOLD-   2272015 33D 1   1.00000     0.00000
 Structure written by MMmdl.
 32 34  0  0  0  0  0  0  0  0  1 V2000
  150.7676  140.8225  156.7183 O   0  0  0  0  0  0  0  0  0  0  0  0
  150.2423  141.9184  156.5300 C   0  0  0  0  0  0  0  0  0  0  0  0
  150.3830  142.9236  157.4203 N   0  0  0  0  0  0  0  0  0  0  0  0
  151.0767  142.9843  158.6646 C   0  0  0  0  0  0  0  0  0  0  0  0
  150.9941  144.2325  159.3233 C   0  0  0  0  0  0  0  0  0  0  0  0
  151.6532  144.4152  160.5547 C   0  0  0  0  0  0  0  0  0  0  0  0
  152.3852  143.3430  161.0944 C   0  0  0  0  0  0  0  0  0  0  0  0
  153.0360  143.4707  162.2748 F   0  0  0  0  0  0  0  0  0  0  0  0
  152.4245  142.1347  160.3752 C   0  0  0  0  0  0  0  0  0  0  0  0
  151.7917  141.9590  159.1957 N   0  0  0  0  0  0  0  0  0  0  0  0
  149.5117  142.1950  155.4385 N   0  0  0  0  0  0  0  0  0  0  0  0
  149.1992  141.2514  154.3704 C   0  0  2  0  0  0  0  0  0  0  0  0
  147.8426  141.5497  153.7255 C   0  0  0  0  0  0  0  0  0  0  0  0
  147.0846  140.2352  153.9534 C   0  0  2  0  0  0  0  0  0  0  0  0
  146.6865  140.0484  155.4245 C   0  0  0  0  0  0  0  0  0  0  0  0
  148.0273  139.7027  156.0697 C   0  0  0  0  0  0  0  0  0  0  0  0
  148.9871  139.8077  154.8720 C   0  0  1  0  0  0  0  0  0  0  0  0
  148.1476  139.3039  153.8465 O   0  0  0  0  0  0  0  0  0  0  0  0
  149.9724  143.7988  157.1295 H   0  0  0  0  0  0  0  0  0  0  0  0
  150.4293  145.0470  158.8928 H   0  0  0  0  0  0  0  0  0  0  0  0
  151.5980  145.3607  161.0736 H   0  0  0  0  0  0  0  0  0  0  0  0
  152.9768  141.2876  160.7541 H   0  0  0  0  0  0  0  0  0  0  0  0
  149.1152  143.1209  155.3602 H   0  0  0  0  0  0  0  0  0  0  0  0
  149.9758  141.2737  153.6036 H   0  0  0  0  0  0  0  0  0  0  0  0
  147.3242  142.4041  154.1634 H   0  0  0  0  0  0  0  0  0  0  0  0
  147.9658  141.7415  152.6590 H   0  0  0  0  0  0  0  0  0  0  0  0
  146.2682  140.0691  153.2501 H   0  0  0  0  0  0  0  0  0  0  0  0
  146.2330  140.9459  155.8468 H   0  0  0  0  0  0  0  0  0  0  0  0
  145.9833  139.2228  155.5377 H   0  0  0  0  0  0  0  0  0  0  0  0
  148.2874  140.3622  156.8980 H   0  0  0  0  0  0  0  0  0  0  0  0
  148.0087  138.6814  156.4517 H   0  0  0  0  0  0  0  0  0  0  0  0
  149.9133  139.2475  155.0024 H   0  0  0  0  0  0  0  0  0  0  0  0
  1  2  2  0  0  0  0
  2  3  1  0  0  0  0
  2 11  1  0  0  0  0
  3  4  1  0  0  0  0
  3 19  1  0  0  0  0
  4 10  1  0  0  0  0
  4  5  2  0  0  0  0
  5  6  1  0  0  0  0
  5 20  1  0  0  0  0
  6  7  2  0  0  0  0
  6 21  1  0  0  0  0
  7  8  1  0  0  0  0
  7  9  1  0  0  0  0
  9 10  2  0  0  0  0
  9 22  1  0  0  0  0
 11 12  1  0  0  0  0
 11 23  1  0  0  0  0
 12 17  1  0  0  0  0
 12 13  1  0  0  0  0
 12 24  1  0  0  0  0
 13 14  1  0  0  0  0
 13 25  1  0  0  0  0
 13 26  1  0  0  0  0
 14 18  1  0  0  0  0
 14 15  1  0  0  0  0
 14 27  1  0  0  0  0
 15 16  1  0  0  0  0
 15 28  1  0  0  0  0
 15 29  1  0  0  0  0
 16 17  1  0  0  0  0
 16 30  1  0  0  0  0
 16 31  1  0  0  0  0
 17 18  1  0  0  0  0
 17 32  1  0  0  0  0
M  END
> <s_m_source_file>
AV-unprocessed.smi

> <i_m_source_file_index>
2749

> <i_lp_mmshare_version>
43012

> <i_f3d_flags>
0

> <s_epik_input>
W0NIMl0xW0NIMl1bQ0BIXShPMilbQ0BASF0oW0NIMl1bQ0BASF0xMilbTkhdQyg9TylbTkhdYzNbY0hdW2NIXWMoRilbY0hdbjM=

> <s_epik_cmdline>
J2VwaWtfcHl0aG9uJywgJy1waCcsICc3LjAnLCAnLXRuJywgJzgnLCAnLW1hJywgJzIwMCcsICctbWV0YWxfYmluZGluZycsICctaW1hZScsICc8aW5maWxlLm1hZT4nLCAnLW9tYWUnLCAnPG91dGZpbGUubWFlPic=

> <r_lp_tautomer_probability>
1

> <r_epik_Ionization_Penalty>
3.37159e-05

> <r_epik_Ionization_Penalty_Charging>
0

> <r_epik_Ionization_Penalty_Neutral>
3.37159e-05

> <r_epik_State_Penalty>
-0

> <r_epik_Charging_Adjusted_Penalty>
0

> <i_epik_Tot_Q>
0

> <i_epik_Tot_abs_Q>
0

> <r_epik_Metal_State_Penalty>
-0

> <b_epik_Metal_Only>
0

> <s_lp_Force_Field>
OPLS_2005

> <r_lp_Energy>
40.3406

> <b_lp_Chiralities_Consistent>
1

> <s_lp_Variant>
AV-unprocessed.smi:2749-3

> <Gold.Version>
5.8.1

> <Gold.Id.Protein>
6NUR|6NUR_protein|mol2

> <Gold.PLP.Fitness>
38.8461

> <Gold.PLP.PLP>
-33.8375

> <Gold.PLP.part.hbond>
-2.0000

> <Gold.PLP.part.metal>
0.0000

> <Gold.PLP.part.buried>
-5.3878

> <Gold.PLP.part.nonpolar>
-26.3909

> <Gold.PLP.part.repulsive>
0.4325

> <Gold.PLP.ligand.clash>
0.0000

> <Gold.PLP.ligand.torsion>
0.3614

> <Gold.PLP.Chemscore.Hbond>
1.9040

> <Gold.PLP.Chemscore.CHOScore>
0.0000

> <Gold.PLP.Chemscore.Metal>
0.0000

> <Gold.Chemscore.Hbonds>
donor molecule, donor type, donor heavy atom, donor atom, acceptor molecule, acceptor atom, score
      L1  H     3    19       P1  8028  0.90
      L1  H    11    23       P1  8028  1.00

> <Gold.PLP.Chemscore.Internal.Correction>
0.0193

> <Gold.Rescore>
     Score         DG    S(hbond)    S(metal)    S(lipo)     H(rot)  DE(clash)    DE(int)     intcor
     14.69     -17.82       1.87        0.00      73.91       1.00       0.26       2.88       ----

> <Gold.Chemscore.Fitness>
14.6855

> <Gold.Chemscore.DG>
-17.8212

> <Gold.Chemscore.ZeroCoef>
-5.4800

> <Gold.Chemscore.Hbond>
1.8722

> <Gold.Chemscore.Metal>
0.0000

> <Gold.Chemscore.Lipo>
73.9144

> <Gold.Chemscore.Internal_Hbond>
0.0000

> <Gold.Chemscore.DEClash>
0.2569

> <Gold.Chemscore.DEInternal>
2.8788

> <Gold.Chemscore.Rot>
1.0000

> <Gold.Chemscore.Internal.Correction>
   9.000000E+99

> <Gold.Chemscore.Hbonds>
donor molecule, donor type, donor heavy atom, donor atom, acceptor molecule, acceptor atom, score
      L1  H     3    19       P1  8028  0.79
      L1  H    11    23       P1  8028  0.99

> <Gold.Chemscore.Hbond.Weighted>
-6.2532

> <Gold.Chemscore.Metal.Weighted>
-0.0000

> <Gold.Chemscore.Lipo.Weighted>
-8.6480

> <Gold.Chemscore.Internal_Hbond.Weighted>
0.0000

> <Gold.Chemscore.DEClash.Weighted>
0.2569

> <Gold.Chemscore.DEInternal.Weighted>
2.8788

> <Gold.Chemscore.Rot.Weighted>
2.5600

> <Gold.Chemscore.Internal.Correction.Weighted>
   9.000000E+99

> <Gold.Protein.RotatedTorsions>
[ 6907 6896 6895 6894 ] final   47.48 input  -60.11 | X-H torsion
[ 7974 7965 7964 7962 ] final  147.49 input  175.53 | X-H torsion
[ 8008 7997 7996 7995 ] final  -92.77 input   59.86 | X-H torsion
[ 10167 10162 10161 10158 ] final   51.44 input  -65.29 | X-H torsion
[ 10718 10713 10712 10709 ] final  179.02 input   66.30 | X-H torsion
[ 10763 10752 10751 10750 ] final -135.05 input  -60.55 | X-H torsion
[ 11005 11000 10999 10996 ] final  -60.60 input  -57.11 | X-H torsion

> <Gold.Protein.ActiveResidues>
 VAL166  LYS551  ARG553  GLY616  TRP617  ASP618  TYR619  PRO620  LYS621  CYS622 
 ASP623  PHE694  ASN695  SER759  ASP760  ASP761  ALA762  ILE779  LEU786  VAL792 
 PHE793  MET794  SER795  GLU796  ALA797  LYS798  CYS799  TRP800  GLU811  SER814 

> <Gold.Protein.RotatedAtoms>
  152.2685  134.7958  160.0418 H   0  0  0  0  0  0  0  0  0  0  0  0  # atno 6907 bound_to 6896
  151.8579  133.3446  159.3702 H   0  0  0  0  0  0  0  0  0  0  0  0  # atno 6908 bound_to 6896
  150.7143  134.5163  159.5676 H   0  0  0  0  0  0  0  0  0  0  0  0  # atno 6909 bound_to 6896
  144.8587  139.6035  143.5940 H   0  0  0  0  0  0  0  0  0  0  0  0  # atno 7974 bound_to 7965
  154.7273  140.0505  157.0695 H   0  0  0  0  0  0  0  0  0  0  0  0  # atno 8008 bound_to 7997
  155.0348  140.3162  155.4726 H   0  0  0  0  0  0  0  0  0  0  0  0  # atno 8009 bound_to 7997
  156.2832  140.2143  156.5470 H   0  0  0  0  0  0  0  0  0  0  0  0  # atno 8010 bound_to 7997
  140.2619  144.3363  150.6315 H   0  0  0  0  0  0  0  0  0  0  0  0  # atno 10167 bound_to 10162
  156.8819  130.9818  151.3061 H   0  0  0  0  0  0  0  0  0  0  0  0  # atno 10718 bound_to 10713
  154.8709  135.3715  154.4835 H   0  0  0  0  0  0  0  0  0  0  0  0  # atno 10763 bound_to 10752
  153.5486  135.7025  153.5607 H   0  0  0  0  0  0  0  0  0  0  0  0  # atno 10764 bound_to 10752
  153.3736  135.4015  155.1770 H   0  0  0  0  0  0  0  0  0  0  0  0  # atno 10765 bound_to 10752
  141.1293  133.6623  156.5248 H   0  0  0  0  0  0  0  0  0  0  0  0  # atno 11005 bound_to 11000
  146.2844  139.6963  142.9206 LP  0  0  0  0  0  0  0  0  0  0  0  0  # atno 17320 bound_to 7965
  145.4354  141.0418  143.2887 LP  0  0  0  0  0  0  0  0  0  0  0  0  # atno 17321 bound_to 7965
  140.5959  143.2167  151.7165 LP  0  0  0  0  0  0  0  0  0  0  0  0  # atno 17342 bound_to 10162
  139.5014  144.3868  152.0320 LP  0  0  0  0  0  0  0  0  0  0  0  0  # atno 17343 bound_to 10162
  157.6135  130.8601  149.8990 LP  0  0  0  0  0  0  0  0  0  0  0  0  # atno 17370 bound_to 10713
  156.0673  130.3690  150.0851 LP  0  0  0  0  0  0  0  0  0  0  0  0  # atno 17371 bound_to 10713
  140.4263  134.7142  157.4917 LP  0  0  0  0  0  0  0  0  0  0  0  0  # atno 17394 bound_to 11000
  140.0325  134.6385  155.9088 LP  0  0  0  0  0  0  0  0  0  0  0  0  # atno 17395 bound_to 11000

$$$$
