#       Name:                AV-unprocessed.smi:3229
#       Creating user name   scv26
#       Creation time:       Fri Mar 27 18:17:56 2020


#       File generated by GOLD software.
#

@<TRIPOS>MOLECULE
AV-unprocessed.smi:3229
    40    41     1
SMALL
NO_CHARGES


@<TRIPOS>ATOM
      1 ****        -3.9666   2.9307  -0.9162 C.3            1 S1                 0.0000
      2 ****        -3.5490   2.5053  -2.3282 C.3            1 S1                 0.0000
      3 ****        -2.2176   1.8304  -2.3706 C.2            1 S1                 0.0000
      4 ****        -1.9619   0.4908  -2.5308 C.2            1 S1                 0.0000
      5 ****        -0.6025   0.1703  -2.5261 N.2            1 S1                 0.0000
      6 ****         0.1746   1.2462  -2.3761 C.2            1 S1                 0.0000
      7 ****         1.6667   1.1887  -2.3038 C.3            1 S1                 0.0000
      8 ****         2.2104   1.0563  -0.8717 C.3            1 S1                 0.0000
      9 ****         1.6973  -0.1361  -0.2089 N.am           1 S1                 0.0000
     10 ****         2.0039  -0.5014   1.0436 C.2            1 S1                 0.0000
     11 ****         2.7570   0.1490   1.7691 O.2            1 S1                 0.0000
     12 ****         1.3491  -1.7900   1.5521 C.3            1 S1                 0.0000
     13 ****         2.2894  -2.7187   2.3266 C.3            1 S1                 0.0000
     14 ****         1.3155  -3.4554   3.2182 C.3            1 S1                 0.0000
     15 ****         0.3161  -2.3583   3.5734 C.3            1 S1                 0.0000
     16 ****         0.3141  -1.4529   2.4723 O.3            1 S1                 0.0000
     17 ****        -0.7379   2.7404  -2.2034 S.3            1 S1                 0.0000
     18 ****        -4.9451   3.4111  -0.9286 H              1 S1                 0.0000
     19 ****        -3.2546   3.6378  -0.4893 H              1 S1                 0.0000
     20 ****        -4.0261   2.0706  -0.2485 H              1 S1                 0.0000
     21 ****        -4.3078   1.8402  -2.7419 H              1 S1                 0.0000
     22 ****        -3.5299   3.3808  -2.9779 H              1 S1                 0.0000
     23 ****        -2.6855  -0.3018  -2.6525 H              1 S1                 0.0000
     24 ****         2.0142   0.3518  -2.9111 H              1 S1                 0.0000
     25 ****         2.0698   2.0899  -2.7663 H              1 S1                 0.0000
     26 ****         3.3005   1.0195  -0.8924 H              1 S1                 0.0000
     27 ****         1.9309   1.9361  -0.2898 H              1 S1                 0.0000
     28 ****         1.0597  -0.7166  -0.7350 H              1 S1                 0.0000
     29 ****         0.8958  -2.3407   0.7257 H              1 S1                 0.0000
     30 ****         2.8485  -3.3905   1.6747 H              1 S1                 0.0000
     31 ****         3.0024  -2.1630   2.9377 H              1 S1                 0.0000
     32 ****         0.8197  -4.2469   2.6545 H              1 S1                 0.0000
     33 ****         1.7874  -3.9030   4.0932 H              1 S1                 0.0000
     34 ****        -0.6817  -2.7528   3.7664 H              1 S1                 0.0000
     35 ****         0.6444  -1.8184   4.4622 H              1 S1                 0.0000
     36 ****        -0.2504  -0.7605  -2.6241 LP             1 S1                 0.0000
     37 ****         3.1718   0.9934   1.4302 LP             1 S1                 0.0000
     38 ****         2.9537  -0.1673   2.6971 LP             1 S1                 0.0000
     39 ****        -0.5697  -1.5015   2.0069 LP             1 S1                 0.0000
     40 ****         0.4625  -0.5232   2.8095 LP             1 S1                 0.0000
@<TRIPOS>BOND
    1    1    2 1     
    2    1   18 1     
    3    1   19 1     
    4    1   20 1     
    5    2    3 1     
    6    2   21 1     
    7    2   22 1     
    8    3   17 1     
    9    3    4 2     
   10    4    5 1     
   11    4   23 1     
   12    5    6 2     
   13    6    7 1     
   14    6   17 1     
   15    7    8 1     
   16    7   24 1     
   17    7   25 1     
   18    8    9 1     
   19    8   26 1     
   20    8   27 1     
   21    9   10 am    
   22    9   28 1     
   23   10   11 2     
   24   10   12 1     
   25   12   16 1     
   26   12   13 1     
   27   12   29 1     
   28   13   14 1     
   29   13   30 1     
   30   13   31 1     
   31   14   15 1     
   32   14   32 1     
   33   14   33 1     
   34   15   16 1     
   35   15   34 1     
   36   15   35 1     
   37    5   36 1     
   38   11   37 1     
   39   11   38 1     
   40   16   39 1     
   41   16   40 1     
@<TRIPOS>SUBSTRUCTURE
      1 S1             1
@<TRIPOS>SET
LONE_PAIRS      STATIC     ATOMS    <user>   **** ""
5 36 37 38 39 40
DONOR_HYDROGENS      STATIC     ATOMS    <user>   **** ""
1 28
ATOM$BLUE        STATIC     ATOMS    COLORGROUP SYSTEM
5 36 37 38 39 40
ATOM$RED        STATIC     ATOMS    COLORGROUP SYSTEM
1 28
