AV-unprocessed.smi:692|AV-procd|sdf|3371|dock4
  -GOLD-   22720 0353D 1   1.00000     0.00000
 Structure written by MMmdl.
 36 37  0  0  0  0  0  0  0  0  2 V2000
  153.6025  141.1087  159.3872 C   0  0  0  0  0  0  0  0  0  0  0  0
  152.7237  141.7957  160.4384 C   0  0  0  0  0  0  0  0  0  0  0  0
  152.2726  143.1565  160.0021 C   0  0  0  0  0  0  0  0  0  0  0  0
  152.9336  144.0137  159.1611 C   0  0  0  0  0  0  0  0  0  0  0  0
  152.0518  145.4967  158.9317 S   0  0  0  0  0  0  0  0  0  0  0  0
  150.7817  144.8935  159.9987 C   0  0  0  0  0  0  0  0  0  0  0  0
  149.6681  145.5676  160.3285 N   0  5  0  0  0  0  0  0  0  0  0  0
  148.5279  144.8946  160.6046 C   0  0  0  0  0  0  0  0  0  0  0  0
  148.4313  143.8644  161.2756 O   0  0  0  0  0  0  0  0  0  0  0  0
  147.4315  145.4484  160.0670 N   0  0  0  0  0  0  0  0  0  0  0  0
  146.0666  144.9439  160.1906 C   0  0  1  0  0  0  0  0  0  0  0  0
  145.9039  143.6777  159.3481 C   0  0  0  0  0  0  0  0  0  0  0  0
  144.4635  143.1594  159.4349 C   0  0  0  0  0  0  0  0  0  0  0  0
  143.9183  143.0903  160.8697 C   0  0  0  0  0  0  0  0  0  0  0  0
  142.9367  142.3779  161.0833 O   0  0  0  0  0  0  0  0  0  0  0  0
  144.5058  143.8307  161.8409 N   0  0  0  0  0  0  0  0  0  0  0  0
  143.9811  143.8072  163.2072 C   0  0  0  0  0  0  0  0  0  0  0  0
  145.7241  144.6356  161.6614 C   0  0  0  0  0  0  0  0  0  0  0  0
  151.0614  143.6732  160.4697 N   0  0  0  0  0  0  0  0  0  0  0  0
  153.9155  140.1214  159.7272 H   0  0  0  0  0  0  0  0  0  0  0  0
  154.5016  141.6912  159.1836 H   0  0  0  0  0  0  0  0  0  0  0  0
  153.0644  140.9835  158.4472 H   0  0  0  0  0  0  0  0  0  0  0  0
  151.8592  141.1659  160.6500 H   0  0  0  0  0  0  0  0  0  0  0  0
  153.2760  141.8697  161.3760 H   0  0  0  0  0  0  0  0  0  0  0  0
  153.8819  143.8661  158.6667 H   0  0  0  0  0  0  0  0  0  0  0  0
  147.5588  146.2915  159.5265 H   0  0  0  0  0  0  0  0  0  0  0  0
  145.3732  145.6963  159.8094 H   0  0  0  0  0  0  0  0  0  0  0  0
  146.1561  143.8825  158.3070 H   0  0  0  0  0  0  0  0  0  0  0  0
  146.5961  142.9066  159.6899 H   0  0  0  0  0  0  0  0  0  0  0  0
  143.8061  143.8165  158.8646 H   0  0  0  0  0  0  0  0  0  0  0  0
  144.3957  142.1741  158.9728 H   0  0  0  0  0  0  0  0  0  0  0  0
  142.9735  144.2241  163.2359 H   0  0  0  0  0  0  0  0  0  0  0  0
  144.5983  144.3858  163.8957 H   0  0  0  0  0  0  0  0  0  0  0  0
  143.9403  142.7860  163.5892 H   0  0  0  0  0  0  0  0  0  0  0  0
  146.5465  144.0858  162.1220 H   0  0  0  0  0  0  0  0  0  0  0  0
  145.6311  145.5730  162.2120 H   0  0  0  0  0  0  0  0  0  0  0  0
  1  2  1  0  0  0  0
  1 20  1  0  0  0  0
  1 21  1  0  0  0  0
  1 22  1  0  0  0  0
  2  3  1  0  0  0  0
  2 23  1  0  0  0  0
  2 24  1  0  0  0  0
  3 19  1  0  0  0  0
  3  4  2  0  0  0  0
  4  5  1  0  0  0  0
  4 25  1  0  0  0  0
  5  6  1  0  0  0  0
  6  7  1  0  0  0  0
  6 19  2  0  0  0  0
  7  8  1  0  0  0  0
  8  9  2  0  0  0  0
  8 10  1  0  0  0  0
 10 11  1  0  0  0  0
 10 26  1  0  0  0  0
 11 18  1  0  0  0  0
 11 12  1  0  0  0  0
 11 27  1  0  0  0  0
 12 13  1  0  0  0  0
 12 28  1  0  0  0  0
 12 29  1  0  0  0  0
 13 14  1  0  0  0  0
 13 30  1  0  0  0  0
 13 31  1  0  0  0  0
 14 15  2  0  0  0  0
 14 16  1  0  0  0  0
 16 17  1  0  0  0  0
 16 18  1  0  0  0  0
 17 32  1  0  0  0  0
 17 33  1  0  0  0  0
 17 34  1  0  0  0  0
 18 35  1  0  0  0  0
 18 36  1  0  0  0  0
M  CHG  1   7  -1
M  END
> <s_m_source_file>
AV-unprocessed.smi

> <i_m_source_file_index>
692

> <i_lp_mmshare_version>
43012

> <i_f3d_flags>
0

> <s_epik_input>
W0NIM11bQ0gyXWMxW2NIXXNjKG4xKVtOSF1DKD1PKVtOSF1bQ0BASF0yW0NIMl1bQ0gyXUMoPU8pTihbQ0gzXSlbQ0gyXTI=

> <s_epik_cmdline>
J2VwaWtfcHl0aG9uJywgJy1waCcsICc3LjAnLCAnLXRuJywgJzgnLCAnLW1hJywgJzIwMCcsICctbWV0YWxfYmluZGluZycsICctaW1hZScsICc8aW5maWxlLm1hZT4nLCAnLW9tYWUnLCAnPG91dGZpbGUubWFlPic=

> <r_lp_tautomer_probability>
1

> <r_epik_Ionization_Penalty>
7.06728

> <r_epik_Ionization_Penalty_Charging>
5.78908

> <r_epik_Ionization_Penalty_Neutral>
1.2782

> <r_epik_State_Penalty>
5.78905

> <r_epik_Charging_Adjusted_Penalty>
11.5781

> <i_epik_Tot_Q>
-1

> <i_epik_Tot_abs_Q>
1

> <r_epik_Metal_State_Penalty>
1.76044

> <b_epik_Metal_Only>
1

> <s_lp_Force_Field>
OPLS_2005

> <r_lp_Energy>
4.22105

> <b_lp_Chiralities_Consistent>
1

> <s_lp_Variant>
AV-unprocessed.smi:692-4

> <Gold.Version>
5.8.1

> <Gold.Id.Protein>
6NUR|6NUR_protein|mol2

> <Gold.PLP.Fitness>
47.0378

> <Gold.PLP.PLP>
-43.1797

> <Gold.PLP.part.hbond>
-4.3089

> <Gold.PLP.part.metal>
0.0000

> <Gold.PLP.part.buried>
-7.6682

> <Gold.PLP.part.nonpolar>
-32.6863

> <Gold.PLP.part.repulsive>
0.7463

> <Gold.PLP.ligand.clash>
0.0000

> <Gold.PLP.ligand.torsion>
1.0282

> <Gold.PLP.Chemscore.Hbond>
1.9595

> <Gold.PLP.Chemscore.CHOScore>
0.0000

> <Gold.PLP.Chemscore.Metal>
0.0000

> <Gold.Chemscore.Hbonds>
donor molecule, donor type, donor heavy atom, donor atom, acceptor molecule, acceptor atom, score
      L1  H    10    26       P1  8029  0.12
      P1  H  6933  6944       L1     9  0.86

> <Gold.PLP.Chemscore.Internal.Correction>
0.0362

> <Gold.Rescore>
     Score         DG    S(hbond)    S(metal)    S(lipo)     H(rot)  DE(clash)    DE(int)     intcor
     13.79     -17.37       1.85        0.00      75.71       1.23       0.04       3.54       ----

> <Gold.Chemscore.Fitness>
13.7856

> <Gold.Chemscore.DG>
-17.3666

> <Gold.Chemscore.ZeroCoef>
-5.4800

> <Gold.Chemscore.Hbond>
1.8457

> <Gold.Chemscore.Metal>
0.0000

> <Gold.Chemscore.Lipo>
75.7118

> <Gold.Chemscore.Internal_Hbond>
0.0000

> <Gold.Chemscore.DEClash>
0.0442

> <Gold.Chemscore.DEInternal>
3.5367

> <Gold.Chemscore.Rot>
1.2251

> <Gold.Chemscore.Internal.Correction>
   9.000000E+99

> <Gold.Chemscore.Hbonds>
donor molecule, donor type, donor heavy atom, donor atom, acceptor molecule, acceptor atom, score
      L1  H    10    26       P1  8029  0.13
      P1  H  6933  6944       L1     9  0.81

> <Gold.Chemscore.Hbond.Weighted>
-6.1645

> <Gold.Chemscore.Metal.Weighted>
-0.0000

> <Gold.Chemscore.Lipo.Weighted>
-8.8583

> <Gold.Chemscore.Internal_Hbond.Weighted>
0.0000

> <Gold.Chemscore.DEClash.Weighted>
0.0442

> <Gold.Chemscore.DEInternal.Weighted>
3.5367

> <Gold.Chemscore.Rot.Weighted>
3.1362

> <Gold.Chemscore.Internal.Correction.Weighted>
   9.000000E+99

> <Gold.Protein.RotatedTorsions>
[ 6907 6896 6895 6894 ] final  173.29 input  -60.11 | X-H torsion
[ 7974 7965 7964 7962 ] final  166.40 input  175.53 | X-H torsion
[ 8008 7997 7996 7995 ] final   23.97 input   59.86 | X-H torsion
[ 10167 10162 10161 10158 ] final -141.03 input  -65.29 | X-H torsion
[ 10718 10713 10712 10709 ] final -165.55 input   66.30 | X-H torsion
[ 10763 10752 10751 10750 ] final   81.18 input  -60.55 | X-H torsion
[ 11005 11000 10999 10996 ] final   96.74 input  -57.11 | X-H torsion

> <Gold.Protein.ActiveResidues>
 VAL166  LYS551  ARG553  GLY616  TRP617  ASP618  TYR619  PRO620  LYS621  CYS622 
 ASP623  PHE694  ASN695  SER759  ASP760  ASP761  ALA762  ILE779  LEU786  VAL792 
 PHE793  MET794  SER795  GLU796  ALA797  LYS798  CYS799  TRP800  GLU811  SER814 

> <Gold.Protein.RotatedAtoms>
  151.7707  133.3341  159.3443 H   0  0  0  0  0  0  0  0  0  0  0  0  # atno 6907 bound_to 6896
  150.7463  134.6021  159.6051 H   0  0  0  0  0  0  0  0  0  0  0  0  # atno 6908 bound_to 6896
  152.3343  134.7220  160.0332 H   0  0  0  0  0  0  0  0  0  0  0  0  # atno 6909 bound_to 6896
  144.7464  139.8610  143.6381 H   0  0  0  0  0  0  0  0  0  0  0  0  # atno 7974 bound_to 7965
  154.9891  140.3111  155.4914 H   0  0  0  0  0  0  0  0  0  0  0  0  # atno 8008 bound_to 7997
  156.2942  140.2252  156.4934 H   0  0  0  0  0  0  0  0  0  0  0  0  # atno 8009 bound_to 7997
  154.7720  140.0451  157.1047 H   0  0  0  0  0  0  0  0  0  0  0  0  # atno 8010 bound_to 7997
  139.8224  143.7556  152.2666 H   0  0  0  0  0  0  0  0  0  0  0  0  # atno 10167 bound_to 10162
  156.6550  130.9023  151.3020 H   0  0  0  0  0  0  0  0  0  0  0  0  # atno 10718 bound_to 10713
  153.1096  135.4775  154.9011 H   0  0  0  0  0  0  0  0  0  0  0  0  # atno 10763 bound_to 10752
  154.7466  135.3095  154.8636 H   0  0  0  0  0  0  0  0  0  0  0  0  # atno 10764 bound_to 10752
  153.9229  135.6853  153.4801 H   0  0  0  0  0  0  0  0  0  0  0  0  # atno 10765 bound_to 10752
  139.8780  134.8966  156.4203 H   0  0  0  0  0  0  0  0  0  0  0  0  # atno 11005 bound_to 11000
  146.1348  139.4391  143.0146 LP  0  0  0  0  0  0  0  0  0  0  0  0  # atno 17320 bound_to 7965
  145.7108  141.0107  143.1454 LP  0  0  0  0  0  0  0  0  0  0  0  0  # atno 17321 bound_to 7965
  139.7738  144.7467  151.0185 LP  0  0  0  0  0  0  0  0  0  0  0  0  # atno 17342 bound_to 10162
  140.7812  143.4615  151.0271 LP  0  0  0  0  0  0  0  0  0  0  0  0  # atno 17343 bound_to 10162
  157.7128  130.9461  150.1150 LP  0  0  0  0  0  0  0  0  0  0  0  0  # atno 17370 bound_to 10713
  156.2055  130.3663  149.8735 LP  0  0  0  0  0  0  0  0  0  0  0  0  # atno 17371 bound_to 10713
  140.9138  133.7693  155.9824 LP  0  0  0  0  0  0  0  0  0  0  0  0  # atno 17394 bound_to 11000
  140.8516  134.2947  157.5273 LP  0  0  0  0  0  0  0  0  0  0  0  0  # atno 17395 bound_to 11000

$$$$
