#       Name:                AV-unprocessed.smi:2381
#       Creating user name   scv26
#       Creation time:       Fri Mar 27 13:08:46 2020


#       File generated by GOLD software.
#

@<TRIPOS>MOLECULE
AV-unprocessed.smi:2381
    33    34     1
SMALL
NO_CHARGES


@<TRIPOS>ATOM
      1 ****        -4.4336   3.0858   0.0443 C.3            1 S1                 0.0000
      2 ****        -3.7414   1.7479  -0.1117 C.ar           1 S1                 0.0000
      3 ****        -4.4815   0.5510  -0.1580 C.ar           1 S1                 0.0000
      4 ****        -3.7786  -0.6590  -0.3043 C.ar           1 S1                 0.0000
      5 ****        -2.4343  -0.7257  -0.4015 N.ar           1 S1                 0.0000
      6 ****        -1.7099   0.4204  -0.3575 C.ar           1 S1                 0.0000
      7 ****        -0.2927   0.4616  -0.4463 N.am           1 S1                 0.0000
      8 ****         0.5613  -0.5672  -0.5907 C.2            1 S1                 0.0000
      9 ****         0.2397  -1.7517  -0.6920 O.2            1 S1                 0.0000
     10 ****         1.8334  -0.1435  -0.6120 N.am           1 S1                 0.0000
     11 ****         2.9986  -1.0089  -0.7441 C.3            1 S1                 0.0000
     12 ****         3.3661  -1.7839   0.5075 C.3            1 S1                 0.0000
     13 ****         4.3390  -1.2202   1.5167 C.3            1 S1                 0.0000
     14 ****         4.7402  -2.3936   0.6551 C.3            1 S1                 0.0000
     15 ****        -2.3372   1.6787  -0.2128 C.ar           1 S1                 0.0000
     16 ****        -5.5171   2.9698   0.0814 H              1 S1                 0.0000
     17 ****        -4.1890   3.7380  -0.7945 H              1 S1                 0.0000
     18 ****        -4.1106   3.5728   0.9646 H              1 S1                 0.0000
     19 ****        -5.5591   0.5543  -0.0840 H              1 S1                 0.0000
     20 ****        -4.3097  -1.5984  -0.3441 H              1 S1                 0.0000
     21 ****         0.1192   1.3807  -0.3839 H              1 S1                 0.0000
     22 ****         2.0095   0.8464  -0.5239 H              1 S1                 0.0000
     23 ****         2.8344  -1.7177  -1.5574 H              1 S1                 0.0000
     24 ****         3.8456  -0.3918  -1.0455 H              1 S1                 0.0000
     25 ****         2.5499  -2.3815   0.9092 H              1 S1                 0.0000
     26 ****         4.7970  -0.2574   1.2986 H              1 S1                 0.0000
     27 ****         4.1385  -1.4131   2.5686 H              1 S1                 0.0000
     28 ****         4.8074  -3.3690   1.1328 H              1 S1                 0.0000
     29 ****         5.4654  -2.2103  -0.1353 H              1 S1                 0.0000
     30 ****        -1.7493   2.5848  -0.1790 H              1 S1                 0.0000
     31 ****        -1.9777  -1.6093  -0.5047 LP             1 S1                 0.0000
     32 ****        -0.7258  -2.0113  -0.6697 LP             1 S1                 0.0000
     33 ****         0.9440  -2.4538  -0.7966 LP             1 S1                 0.0000
@<TRIPOS>BOND
    1    1    2 1     
    2    1   16 1     
    3    1   17 1     
    4    1   18 1     
    5    2   15 ar    
    6    2    3 ar    
    7    3    4 ar    
    8    3   19 1     
    9    4    5 ar    
   10    4   20 1     
   11    5    6 ar    
   12    6    7 1     
   13    6   15 ar    
   14    7    8 am    
   15    7   21 1     
   16    8    9 2     
   17    8   10 am    
   18   10   11 1     
   19   10   22 1     
   20   11   12 1     
   21   11   23 1     
   22   11   24 1     
   23   12   14 1     
   24   12   13 1     
   25   12   25 1     
   26   13   14 1     
   27   13   26 1     
   28   13   27 1     
   29   14   28 1     
   30   14   29 1     
   31   15   30 1     
   32    5   31 1     
   33    9   32 1     
   34    9   33 1     
@<TRIPOS>SUBSTRUCTURE
      1 S1             1
@<TRIPOS>SET
LONE_PAIRS      STATIC     ATOMS    <user>   **** ""
3 31 32 33
DONOR_HYDROGENS      STATIC     ATOMS    <user>   **** ""
2 21 22
ATOM$BLUE        STATIC     ATOMS    COLORGROUP SYSTEM
3 31 32 33
ATOM$RED        STATIC     ATOMS    COLORGROUP SYSTEM
2 21 22
