#       Name:                AV-unprocessed.smi:248
#       Creating user name   scv26
#       Creation time:       Thu Mar 26 20:56:43 2020


#       File generated by GOLD software.
#

@<TRIPOS>MOLECULE
AV-unprocessed.smi:248
    72    75     1
SMALL
NO_CHARGES


@<TRIPOS>ATOM
      1 ****        -7.7813  -0.3699  -2.0272 C.3            1 S1                 0.0000
      2 ****        -6.3163  -0.3646  -1.5650 C.3            1 S1                 0.0000
      3 ****        -6.1964   0.2863  -0.1760 C.3            1 S1                 0.0000
      4 ****        -5.4149   0.2914  -2.6376 C.3            1 S1                 0.0000
      5 ****        -3.9818   0.2378  -2.3053 N.am           1 S1                 0.0000
      6 ****        -3.3117  -1.0150  -2.6814 C.3            1 S1                 0.0000
      7 ****        -1.7959  -0.8579  -2.8338 C.3            1 S1                 0.0000
      8 ****        -1.2616  -0.1676  -1.6688 N.3            1 S1                 0.0000
      9 ****         0.0870  -0.2416  -1.5827 C.ar           1 S1                 0.0000
     10 ****         0.8599   0.2591  -2.5823 N.ar           1 S1                 0.0000
     11 ****         2.1916   0.1951  -2.4902 C.ar           1 S1                 0.0000
     12 ****         2.9374  -0.3097  -1.5046 N.ar           1 S1                 0.0000
     13 ****         2.1608  -0.8064  -0.4984 C.ar           1 S1                 0.0000
     14 ****         0.7393  -0.8206  -0.4631 C.ar           1 S1                 0.0000
     15 ****         0.2953  -1.4185   0.7086 N.2            1 S1                 0.0000
     16 ****         1.3953  -1.7366   1.3349 C.2            1 S1                 0.0000
     17 ****         2.5632  -1.3838   0.6942 N.pl3          1 S1                 0.0000
     18 ****         3.9241  -1.6174   1.1600 C.3            1 S1                 0.0000
     19 ****         4.5587  -0.4990   2.0481 C.3            1 S1                 0.0000
     20 ****         6.0075  -1.0058   2.3184 C.3            1 S1                 0.0000
     21 ****         6.8112  -0.1775   3.1291 O.3            1 S1                 0.0000
     22 ****         4.5465   0.8633   1.3006 C.3            1 S1                 0.0000
     23 ****         4.8359   2.0768   2.2035 C.3            1 S1                 0.0000
     24 ****         3.9341   2.0902   3.3024 O.3            1 S1                 0.0000
     25 ****         4.0741   0.9537   4.1446 C.3            1 S1                 0.0000
     26 ****         3.7438  -0.3307   3.3604 C.3            1 S1                 0.0000
     27 ****        -1.8244   1.1638  -1.4027 C.3            1 S1                 0.0000
     28 ****        -1.5256   1.6042   0.0488 C.3            1 S1                 0.0000
     29 ****        -3.3373   1.2758  -1.7127 C.2            1 S1                 0.0000
     30 ****        -3.9130   2.3268  -1.4263 O.2            1 S1                 0.0000
     31 ****        -8.1641   0.6450  -2.1400 H              1 S1                 0.0000
     32 ****        -8.4188  -0.8885  -1.3107 H              1 S1                 0.0000
     33 ****        -7.8902  -0.8752  -2.9874 H              1 S1                 0.0000
     34 ****        -6.0096  -1.4064  -1.4636 H              1 S1                 0.0000
     35 ****        -6.4313   1.3504  -0.2166 H              1 S1                 0.0000
     36 ****        -5.1921   0.1791   0.2334 H              1 S1                 0.0000
     37 ****        -6.8807  -0.1778   0.5348 H              1 S1                 0.0000
     38 ****        -5.5778  -0.2033  -3.5959 H              1 S1                 0.0000
     39 ****        -5.7373   1.3203  -2.8059 H              1 S1                 0.0000
     40 ****        -3.5214  -1.7508  -1.9039 H              1 S1                 0.0000
     41 ****        -3.7219  -1.4172  -3.6083 H              1 S1                 0.0000
     42 ****        -1.3315  -1.8387  -2.9504 H              1 S1                 0.0000
     43 ****        -1.5731  -0.2866  -3.7371 H              1 S1                 0.0000
     44 ****         2.7376   0.6105  -3.3245 H              1 S1                 0.0000
     45 ****         1.3842  -2.2331   2.2944 H              1 S1                 0.0000
     46 ****         3.9244  -2.5644   1.7016 H              1 S1                 0.0000
     47 ****         4.5436  -1.7850   0.2777 H              1 S1                 0.0000
     48 ****         5.9770  -1.9866   2.7942 H              1 S1                 0.0000
     49 ****         6.5374  -1.1411   1.3747 H              1 S1                 0.0000
     50 ****         7.6611  -0.5803   3.2217 H              1 S1                 0.0000
     51 ****         5.2406   0.8438   0.4599 H              1 S1                 0.0000
     52 ****         3.5618   1.0444   0.8739 H              1 S1                 0.0000
     53 ****         5.8666   2.0969   2.5544 H              1 S1                 0.0000
     54 ****         4.6934   2.9956   1.6341 H              1 S1                 0.0000
     55 ****         5.0694   0.9264   4.5853 H              1 S1                 0.0000
     56 ****         3.3793   1.0593   4.9778 H              1 S1                 0.0000
     57 ****         2.6814  -0.2736   3.1319 H              1 S1                 0.0000
     58 ****         3.8669  -1.2047   4.0007 H              1 S1                 0.0000
     59 ****        -1.3370   1.8726  -2.0743 H              1 S1                 0.0000
     60 ****        -1.9481   2.5848   0.2701 H              1 S1                 0.0000
     61 ****        -0.4548   1.6835   0.2370 H              1 S1                 0.0000
     62 ****        -1.9385   0.8960   0.7684 H              1 S1                 0.0000
     63 ****        -1.6063  -0.6946  -0.8921 LP             1 S1                 0.0000
     64 ****         0.4328   0.6747  -3.3854 LP             1 S1                 0.0000
     65 ****         3.9373  -0.3222  -1.5039 LP             1 S1                 0.0000
     66 ****        -0.6480  -1.5701   1.0039 LP             1 S1                 0.0000
     67 ****         6.3877  -0.0734   4.0290 LP             1 S1                 0.0000
     68 ****         6.9088   0.7209   2.7008 LP             1 S1                 0.0000
     69 ****         2.9992   2.1120   2.9481 LP             1 S1                 0.0000
     70 ****         4.1041   2.9128   3.8450 LP             1 S1                 0.0000
     71 ****        -4.8860   2.4355  -1.6300 LP             1 S1                 0.0000
     72 ****        -3.4073   3.0712  -0.9903 LP             1 S1                 0.0000
@<TRIPOS>BOND
    1    1    2 1     
    2    1   31 1     
    3    1   32 1     
    4    1   33 1     
    5    2    3 1     
    6    2    4 1     
    7    2   34 1     
    8    3   35 1     
    9    3   36 1     
   10    3   37 1     
   11    4    5 1     
   12    4   38 1     
   13    4   39 1     
   14    5   29 am    
   15    5    6 1     
   16    6    7 1     
   17    6   40 1     
   18    6   41 1     
   19    7    8 1     
   20    7   42 1     
   21    7   43 1     
   22    8    9 1     
   23    8   27 1     
   24    9   14 ar    
   25    9   10 ar    
   26   10   11 ar    
   27   11   12 ar    
   28   11   44 1     
   29   12   13 ar    
   30   13   17 1     
   31   13   14 ar    
   32   14   15 1     
   33   15   16 2     
   34   16   17 1     
   35   16   45 1     
   36   17   18 1     
   37   18   19 1     
   38   18   46 1     
   39   18   47 1     
   40   19   26 1     
   41   19   20 1     
   42   19   22 1     
   43   20   21 1     
   44   20   48 1     
   45   20   49 1     
   46   21   50 1     
   47   22   23 1     
   48   22   51 1     
   49   22   52 1     
   50   23   24 1     
   51   23   53 1     
   52   23   54 1     
   53   24   25 1     
   54   25   26 1     
   55   25   55 1     
   56   25   56 1     
   57   26   57 1     
   58   26   58 1     
   59   27   28 1     
   60   27   29 1     
   61   27   59 1     
   62   28   60 1     
   63   28   61 1     
   64   28   62 1     
   65   29   30 2     
   66    8   63 1     
   67   10   64 1     
   68   12   65 1     
   69   15   66 1     
   70   21   67 1     
   71   21   68 1     
   72   24   69 1     
   73   24   70 1     
   74   30   71 1     
   75   30   72 1     
@<TRIPOS>SUBSTRUCTURE
      1 S1             1
@<TRIPOS>SET
LONE_PAIRS      STATIC     ATOMS    <user>   **** ""
10 63 64 65 66 67 68 69 70 71 72
DONOR_HYDROGENS      STATIC     ATOMS    <user>   **** ""
1 50
ATOM$BLUE        STATIC     ATOMS    COLORGROUP SYSTEM
10 63 64 65 66 67 68 69 70 71 72
ATOM$RED        STATIC     ATOMS    COLORGROUP SYSTEM
1 50
