AV-unprocessed.smi:3285|AV-procd|sdf|12581|dock5
  -GOLD-   2272018503D 1   1.00000     0.00000
 Structure written by MMmdl.
 45 46  0  0  0  0  0  0  0  0  2 V2000
  153.4565  138.4812  156.0032 C   0  0  0  0  0  0  0  0  0  0  0  0
  152.1148  138.4079  155.3325 C   0  0  0  0  0  0  0  0  0  0  0  0
  151.7612  137.2994  154.7048 N   0  0  0  0  0  0  0  0  0  0  0  0
  150.4853  137.5416  154.1874 O   0  0  0  0  0  0  0  0  0  0  0  0
  150.1172  138.8033  154.5257 C   0  0  0  0  0  0  0  0  0  0  0  0
  148.7760  139.2594  154.0590 C   0  0  0  0  0  0  0  0  0  0  0  0
  151.1051  139.4100  155.2514 C   0  0  0  0  0  0  0  0  0  0  0  0
  151.1290  140.8012  155.8241 C   0  0  0  0  0  0  0  0  0  0  0  0
  149.8767  141.0835  156.6640 C   0  0  0  0  0  0  0  0  0  0  0  0
  149.8782  142.4739  157.1641 N   0  3  0  0  0  0  0  0  0  0  0  0
  151.1594  142.9381  157.7412 C   0  0  1  0  0  0  0  0  0  0  0  0
  150.9890  144.3600  158.3053 C   0  0  0  0  0  0  0  0  0  0  0  0
  152.2875  144.8725  158.9508 C   0  0  0  0  0  0  0  0  0  0  0  0
  152.8066  143.9266  160.0529 C   0  0  1  0  0  0  0  0  0  0  0  0
  151.9396  144.0061  161.3259 C   0  0  0  0  0  0  0  0  0  0  0  0
  152.9734  142.4936  159.4857 C   0  0  1  0  0  0  0  0  0  0  0  0
  153.5336  141.4947  160.5118 C   0  0  0  0  0  0  0  0  0  0  0  0
  151.6715  141.9790  158.8375 C   0  0  0  0  0  0  0  0  0  0  0  0
  154.2002  138.9192  155.3374 H   0  0  0  0  0  0  0  0  0  0  0  0
  153.8130  137.4929  156.2958 H   0  0  0  0  0  0  0  0  0  0  0  0
  153.4147  139.0937  156.9038 H   0  0  0  0  0  0  0  0  0  0  0  0
  148.8710  140.1167  153.3928 H   0  0  0  0  0  0  0  0  0  0  0  0
  148.1538  139.5546  154.9039 H   0  0  0  0  0  0  0  0  0  0  0  0
  148.2565  138.4679  153.5185 H   0  0  0  0  0  0  0  0  0  0  0  0
  152.0163  140.9452  156.4419 H   0  0  0  0  0  0  0  0  0  0  0  0
  151.2040  141.5408  155.0261 H   0  0  0  0  0  0  0  0  0  0  0  0
  148.9849  140.9085  156.0623 H   0  0  0  0  0  0  0  0  0  0  0  0
  149.8370  140.3963  157.5104 H   0  0  0  0  0  0  0  0  0  0  0  0
  149.6631  143.0734  156.3802 H   0  0  0  0  0  0  0  0  0  0  0  0
  151.8965  142.9842  156.9378 H   0  0  0  0  0  0  0  0  0  0  0  0
  150.6892  145.0415  157.5082 H   0  0  0  0  0  0  0  0  0  0  0  0
  150.1815  144.3770  159.0383 H   0  0  0  0  0  0  0  0  0  0  0  0
  153.0509  144.9757  158.1785 H   0  0  0  0  0  0  0  0  0  0  0  0
  152.1332  145.8738  159.3545 H   0  0  0  0  0  0  0  0  0  0  0  0
  153.7979  144.2837  160.3359 H   0  0  0  0  0  0  0  0  0  0  0  0
  150.9360  143.6128  161.1676 H   0  0  0  0  0  0  0  0  0  0  0  0
  151.8372  145.0384  161.6615 H   0  0  0  0  0  0  0  0  0  0  0  0
  152.3868  143.4500  162.1497 H   0  0  0  0  0  0  0  0  0  0  0  0
  153.7176  142.5578  158.6900 H   0  0  0  0  0  0  0  0  0  0  0  0
  152.8202  141.2919  161.3109 H   0  0  0  0  0  0  0  0  0  0  0  0
  154.4504  141.8703  160.9669 H   0  0  0  0  0  0  0  0  0  0  0  0
  153.7700  140.5416  160.0379 H   0  0  0  0  0  0  0  0  0  0  0  0
  150.9041  141.8413  159.6002 H   0  0  0  0  0  0  0  0  0  0  0  0
  151.8577  140.9923  158.4137 H   0  0  0  0  0  0  0  0  0  0  0  0
  149.1504  142.5801  157.8563 H   0  0  0  0  0  0  0  0  0  0  0  0
  1  2  1  0  0  0  0
  1 19  1  0  0  0  0
  1 20  1  0  0  0  0
  1 21  1  0  0  0  0
  2  7  1  0  0  0  0
  2  3  2  0  0  0  0
  3  4  1  0  0  0  0
  4  5  1  0  0  0  0
  5  6  1  0  0  0  0
  5  7  2  0  0  0  0
  6 22  1  0  0  0  0
  6 23  1  0  0  0  0
  6 24  1  0  0  0  0
  7  8  1  0  0  0  0
  8  9  1  0  0  0  0
  8 25  1  0  0  0  0
  8 26  1  0  0  0  0
  9 10  1  0  0  0  0
  9 27  1  0  0  0  0
  9 28  1  0  0  0  0
 10 11  1  0  0  0  0
 10 29  1  0  0  0  0
 10 45  1  0  0  0  0
 11 18  1  0  0  0  0
 11 12  1  0  0  0  0
 11 30  1  0  0  0  0
 12 13  1  0  0  0  0
 12 31  1  0  0  0  0
 12 32  1  0  0  0  0
 13 14  1  0  0  0  0
 13 33  1  0  0  0  0
 13 34  1  0  0  0  0
 14 15  1  0  0  0  0
 14 16  1  0  0  0  0
 14 35  1  0  0  0  0
 15 36  1  0  0  0  0
 15 37  1  0  0  0  0
 15 38  1  0  0  0  0
 16 17  1  0  0  0  0
 16 18  1  0  0  0  0
 16 39  1  0  0  0  0
 17 40  1  0  0  0  0
 17 41  1  0  0  0  0
 17 42  1  0  0  0  0
 18 43  1  0  0  0  0
 18 44  1  0  0  0  0
M  CHG  1  10   1
M  END
> <s_m_source_file>
AV-unprocessed.smi

> <i_m_source_file_index>
3285

> <i_lp_mmshare_version>
43012

> <i_f3d_flags>
0

> <s_epik_input>
W0NIM11jMW5vYyhbQ0gzXSljMVtDSDJdW0NIMl1bTkhdW0NAQEhdMltDSDJdW0NIMl1bQ0BASF0oW0NIM10pW0NAQEhdKFtDSDNdKVtDSDJdMg==

> <s_epik_cmdline>
J2VwaWtfcHl0aG9uJywgJy1waCcsICc3LjAnLCAnLXRuJywgJzgnLCAnLW1hJywgJzIwMCcsICctbWV0YWxfYmluZGluZycsICctaW1hZScsICc8aW5maWxlLm1hZT4nLCAnLW9tYWUnLCAnPG91dGZpbGUubWFlPic=

> <r_lp_tautomer_probability>
1

> <r_epik_Ionization_Penalty>
0.000204615

> <r_epik_Ionization_Penalty_Charging>
0.000204615

> <r_epik_Ionization_Penalty_Neutral>
9.28663e-11

> <r_epik_State_Penalty>
-0

> <r_epik_Charging_Adjusted_Penalty>
0.000204615

> <i_epik_Tot_Q>
1

> <i_epik_Tot_abs_Q>
1

> <r_epik_Metal_State_Penalty>
-0

> <b_epik_Metal_Only>
0

> <s_lp_Force_Field>
OPLS_2005

> <r_lp_Energy>
12.3416

> <b_lp_Chiralities_Consistent>
1

> <s_lp_Variant>
AV-unprocessed.smi:3285-2

> <Gold.Version>
5.8.1

> <Gold.Id.Protein>
6NUR|6NUR_protein|mol2

> <Gold.PLP.Fitness>
50.8129

> <Gold.PLP.PLP>
-42.1997

> <Gold.PLP.part.hbond>
-2.0000

> <Gold.PLP.part.metal>
0.0000

> <Gold.PLP.part.buried>
-1.8997

> <Gold.PLP.part.nonpolar>
-39.5469

> <Gold.PLP.part.repulsive>
0.7589

> <Gold.PLP.ligand.clash>
0.0000

> <Gold.PLP.ligand.torsion>
0.1270

> <Gold.PLP.Chemscore.Hbond>
2.9520

> <Gold.PLP.Chemscore.CHOScore>
0.0000

> <Gold.PLP.Chemscore.Metal>
0.0000

> <Gold.Chemscore.Hbonds>
donor molecule, donor type, donor heavy atom, donor atom, acceptor molecule, acceptor atom, score
      L1  H    10    29       P1  8028  2.00
      P1  H 10752 10765       L1     3  0.96

> <Gold.PLP.Chemscore.Internal.Correction>
0.0111

> <Gold.Rescore>
     Score         DG    S(hbond)    S(metal)    S(lipo)     H(rot)  DE(clash)    DE(int)     intcor
     22.39     -23.86       1.84        0.00     134.02       1.35       1.29       0.18       ----

> <Gold.Chemscore.Fitness>
22.3858

> <Gold.Chemscore.DG>
-23.8564

> <Gold.Chemscore.ZeroCoef>
-5.4800

> <Gold.Chemscore.Hbond>
1.8393

> <Gold.Chemscore.Metal>
0.0000

> <Gold.Chemscore.Lipo>
134.0190

> <Gold.Chemscore.Internal_Hbond>
0.0000

> <Gold.Chemscore.DEClash>
1.2888

> <Gold.Chemscore.DEInternal>
0.1818

> <Gold.Chemscore.Rot>
1.3465

> <Gold.Chemscore.Internal.Correction>
   9.000000E+99

> <Gold.Chemscore.Hbonds>
donor molecule, donor type, donor heavy atom, donor atom, acceptor molecule, acceptor atom, score
      L1  H    10    29       P1  8028  0.93
      P1  H 10752 10765       L1     3  0.87

> <Gold.Chemscore.Hbond.Weighted>
-6.1432

> <Gold.Chemscore.Metal.Weighted>
-0.0000

> <Gold.Chemscore.Lipo.Weighted>
-15.6802

> <Gold.Chemscore.Internal_Hbond.Weighted>
0.0000

> <Gold.Chemscore.DEClash.Weighted>
1.2888

> <Gold.Chemscore.DEInternal.Weighted>
0.1818

> <Gold.Chemscore.Rot.Weighted>
3.4470

> <Gold.Chemscore.Internal.Correction.Weighted>
   9.000000E+99

> <Gold.Protein.RotatedTorsions>
[ 6907 6896 6895 6894 ] final  135.84 input  -60.11 | X-H torsion
[ 7974 7965 7964 7962 ] final  163.51 input  175.53 | X-H torsion
[ 8008 7997 7996 7995 ] final  -60.27 input   59.86 | X-H torsion
[ 10167 10162 10161 10158 ] final -125.48 input  -65.29 | X-H torsion
[ 10718 10713 10712 10709 ] final   44.87 input   66.30 | X-H torsion
[ 10763 10752 10751 10750 ] final  172.17 input  -60.55 | X-H torsion
[ 11005 11000 10999 10996 ] final  -35.23 input  -57.11 | X-H torsion

> <Gold.Protein.ActiveResidues>
 VAL166  LYS551  ARG553  GLY616  TRP617  ASP618  TYR619  PRO620  LYS621  CYS622 
 ASP623  PHE694  ASN695  SER759  ASP760  ASP761  ALA762  ILE779  LEU786  VAL792 
 PHE793  MET794  SER795  GLU796  ALA797  LYS798  CYS799  TRP800  GLU811  SER814 

> <Gold.Protein.RotatedAtoms>
  152.2960  133.5607  159.5587 H   0  0  0  0  0  0  0  0  0  0  0  0  # atno 6907 bound_to 6896
  150.7256  134.0361  159.3758 H   0  0  0  0  0  0  0  0  0  0  0  0  # atno 6908 bound_to 6896
  151.8264  135.0636  160.0482 H   0  0  0  0  0  0  0  0  0  0  0  0  # atno 6909 bound_to 6896
  144.7586  139.8193  143.6340 H   0  0  0  0  0  0  0  0  0  0  0  0  # atno 7974 bound_to 7965
  154.4391  140.1043  156.6247 H   0  0  0  0  0  0  0  0  0  0  0  0  # atno 8008 bound_to 7997
  155.5669  140.3488  155.4487 H   0  0  0  0  0  0  0  0  0  0  0  0  # atno 8009 bound_to 7997
  156.0418  140.1284  157.0136 H   0  0  0  0  0  0  0  0  0  0  0  0  # atno 8010 bound_to 7997
  139.9816  143.5736  152.2376 H   0  0  0  0  0  0  0  0  0  0  0  0  # atno 10167 bound_to 10162
  157.4315  130.8027  149.7607 H   0  0  0  0  0  0  0  0  0  0  0  0  # atno 10718 bound_to 10713
  154.4223  135.2758  155.1967 H   0  0  0  0  0  0  0  0  0  0  0  0  # atno 10763 bound_to 10752
  154.3908  135.6066  153.5846 H   0  0  0  0  0  0  0  0  0  0  0  0  # atno 10764 bound_to 10752
  152.9833  135.5903  154.4521 H   0  0  0  0  0  0  0  0  0  0  0  0  # atno 10765 bound_to 10752
  140.9779  133.7072  156.1634 H   0  0  0  0  0  0  0  0  0  0  0  0  # atno 11005 bound_to 11000
  146.1625  139.4745  142.9979 LP  0  0  0  0  0  0  0  0  0  0  0  0  # atno 17320 bound_to 7965
  145.6693  141.0220  143.1666 LP  0  0  0  0  0  0  0  0  0  0  0  0  # atno 17321 bound_to 7965
  139.6405  144.7654  151.2348 LP  0  0  0  0  0  0  0  0  0  0  0  0  # atno 17342 bound_to 10162
  140.7487  143.6325  150.8410 LP  0  0  0  0  0  0  0  0  0  0  0  0  # atno 17343 bound_to 10162
  155.9915  130.3937  150.2982 LP  0  0  0  0  0  0  0  0  0  0  0  0  # atno 17370 bound_to 10713
  157.1140  131.0229  151.3036 LP  0  0  0  0  0  0  0  0  0  0  0  0  # atno 17371 bound_to 10713
  140.7230  134.4337  157.5573 LP  0  0  0  0  0  0  0  0  0  0  0  0  # atno 17394 bound_to 11000
  139.8938  134.8721  156.2206 LP  0  0  0  0  0  0  0  0  0  0  0  0  # atno 17395 bound_to 11000

$$$$
