AV-unprocessed.smi:2886|AV-procd|sdf|11097|dock6
  -GOLD-   2272015563D 1   1.00000     0.00000
 Structure written by MMmdl.
 27 29  0  0  0  0  0  0  0  0  2 V2000
  147.7237  139.3651  155.5401 O   0  0  0  0  0  0  0  0  0  0  0  0
  148.8203  139.9019  155.6887 C   0  0  0  0  0  0  0  0  0  0  0  0
  149.9608  139.3946  155.1299 N   0  5  0  0  0  0  0  0  0  0  0  0
  151.2259  140.0676  155.3240 N   0  0  0  0  0  0  0  0  0  0  0  0
  151.3039  141.1313  156.0215 C   0  0  0  0  0  0  0  0  0  0  0  0
  150.1204  141.7406  156.6767 C   0  0  0  0  0  0  0  0  0  0  0  0
  150.2049  142.9006  157.4363 N   0  0  0  0  0  0  0  0  0  0  0  0
  151.3787  143.7099  157.7337 C   0  0  2  0  0  0  0  0  0  0  0  0
  152.3594  143.0184  158.6821 C   0  0  0  0  0  0  0  0  0  0  0  0
  152.5167  144.0733  159.7869 C   0  0  2  0  0  0  0  0  0  0  0  0
  151.2809  144.1266  160.6941 C   0  0  0  0  0  0  0  0  0  0  0  0
  150.2541  144.7951  159.7817 C   0  0  0  0  0  0  0  0  0  0  0  0
  151.0655  145.0107  158.4930 C   0  0  1  0  0  0  0  0  0  0  0  0
  152.3440  145.2720  159.0479 O   0  0  0  0  0  0  0  0  0  0  0  0
  148.9243  141.1266  156.4914 C   0  0  0  0  0  0  0  0  0  0  0  0
  147.4813  141.7703  157.2050 Cl  0  0  0  0  0  0  0  0  0  0  0  0
  152.2568  141.6465  156.1616 H   0  0  0  0  0  0  0  0  0  0  0  0
  149.3778  143.1514  157.9586 H   0  0  0  0  0  0  0  0  0  0  0  0
  151.9130  143.9478  156.8140 H   0  0  0  0  0  0  0  0  0  0  0  0
  151.9959  142.0672  159.0738 H   0  0  0  0  0  0  0  0  0  0  0  0
  153.3087  142.8360  158.1774 H   0  0  0  0  0  0  0  0  0  0  0  0
  153.4604  144.0093  160.3291 H   0  0  0  0  0  0  0  0  0  0  0  0
  150.9686  143.1375  161.0309 H   0  0  0  0  0  0  0  0  0  0  0  0
  151.4697  144.7438  161.5730 H   0  0  0  0  0  0  0  0  0  0  0  0
  149.3607  144.1892  159.6285 H   0  0  0  0  0  0  0  0  0  0  0  0
  149.9420  145.7520  160.2015 H   0  0  0  0  0  0  0  0  0  0  0  0
  150.6810  145.8088  157.8573 H   0  0  0  0  0  0  0  0  0  0  0  0
  1  2  2  0  0  0  0
  2 15  1  0  0  0  0
  2  3  1  0  0  0  0
  3  4  1  0  0  0  0
  4  5  2  0  0  0  0
  5  6  1  0  0  0  0
  5 17  1  0  0  0  0
  6  7  1  0  0  0  0
  6 15  2  0  0  0  0
  7  8  1  0  0  0  0
  7 18  1  0  0  0  0
  8 13  1  0  0  0  0
  8  9  1  0  0  0  0
  8 19  1  0  0  0  0
  9 10  1  0  0  0  0
  9 20  1  0  0  0  0
  9 21  1  0  0  0  0
 10 14  1  0  0  0  0
 10 11  1  0  0  0  0
 10 22  1  0  0  0  0
 11 12  1  0  0  0  0
 11 23  1  0  0  0  0
 11 24  1  0  0  0  0
 12 13  1  0  0  0  0
 12 25  1  0  0  0  0
 12 26  1  0  0  0  0
 13 14  1  0  0  0  0
 13 27  1  0  0  0  0
 15 16  1  0  0  0  0
M  CHG  1   3  -1
M  END
> <s_m_source_file>
AV-unprocessed.smi

> <i_m_source_file_index>
2886

> <i_lp_mmshare_version>
43012

> <i_f3d_flags>
0

> <s_epik_input>
Tz1jMVtuSF1uW2NIXWMoYzFDbClbTkhdW0NASF0oW0NIMl1bQ0BASF0yMylbQ0BASF0oTzMpW0NIMl1bQ0gyXTI=

> <s_epik_cmdline>
J2VwaWtfcHl0aG9uJywgJy1waCcsICc3LjAnLCAnLXRuJywgJzgnLCAnLW1hJywgJzIwMCcsICctbWV0YWxfYmluZGluZycsICctaW1hZScsICc8aW5maWxlLm1hZT4nLCAnLW9tYWUnLCAnPG91dGZpbGUubWFlPic=

> <r_lp_tautomer_probability>
0.986175

> <r_epik_Ionization_Penalty>
3.84253

> <r_epik_Ionization_Penalty_Charging>
0.0129711

> <r_epik_Ionization_Penalty_Neutral>
3.82956

> <r_epik_State_Penalty>
3.8249

> <r_epik_Charging_Adjusted_Penalty>
3.83787

> <i_epik_Tot_Q>
-1

> <i_epik_Tot_abs_Q>
1

> <r_epik_Metal_State_Penalty>
0.57612

> <b_epik_Metal_Only>
1

> <s_lp_Force_Field>
OPLS_2005

> <r_lp_Energy>
60.9826

> <b_lp_Chiralities_Consistent>
1

> <s_lp_Variant>
AV-unprocessed.smi:2886-11

> <Gold.Version>
5.8.1

> <Gold.Id.Protein>
6NUR|6NUR_protein|mol2

> <Gold.PLP.Fitness>
31.6956

> <Gold.PLP.PLP>
-28.8163

> <Gold.PLP.part.hbond>
-2.0000

> <Gold.PLP.part.metal>
0.0000

> <Gold.PLP.part.buried>
-5.1458

> <Gold.PLP.part.nonpolar>
-22.1292

> <Gold.PLP.part.repulsive>
0.1717

> <Gold.PLP.ligand.clash>
0.0000

> <Gold.PLP.ligand.torsion>
0.0649

> <Gold.PLP.Chemscore.Hbond>
1.0000

> <Gold.PLP.Chemscore.CHOScore>
0.0000

> <Gold.PLP.Chemscore.Metal>
0.0000

> <Gold.Chemscore.Hbonds>
donor molecule, donor type, donor heavy atom, donor atom, acceptor molecule, acceptor atom, score
      P1  H  7989  7998       L1     4  0.89

> <Gold.PLP.Chemscore.Internal.Correction>
0.0091

> <Gold.Rescore>
     Score         DG    S(hbond)    S(metal)    S(lipo)     H(rot)  DE(clash)    DE(int)     intcor
     13.88     -14.47       0.37        0.00      88.00       1.00       0.53       0.05       ----

> <Gold.Chemscore.Fitness>
13.8813

> <Gold.Chemscore.DG>
-14.4678

> <Gold.Chemscore.ZeroCoef>
-5.4800

> <Gold.Chemscore.Hbond>
0.3749

> <Gold.Chemscore.Metal>
0.0000

> <Gold.Chemscore.Lipo>
87.9959

> <Gold.Chemscore.Internal_Hbond>
0.0000

> <Gold.Chemscore.DEClash>
0.5338

> <Gold.Chemscore.DEInternal>
0.0527

> <Gold.Chemscore.Rot>
1.0000

> <Gold.Chemscore.Internal.Correction>
   9.000000E+99

> <Gold.Chemscore.Hbonds>
donor molecule, donor type, donor heavy atom, donor atom, acceptor molecule, acceptor atom, score
      P1  H  7989  7998       L1     4  0.07

> <Gold.Chemscore.Hbond.Weighted>
-1.2523

> <Gold.Chemscore.Metal.Weighted>
-0.0000

> <Gold.Chemscore.Lipo.Weighted>
-10.2955

> <Gold.Chemscore.Internal_Hbond.Weighted>
0.0000

> <Gold.Chemscore.DEClash.Weighted>
0.5338

> <Gold.Chemscore.DEInternal.Weighted>
0.0527

> <Gold.Chemscore.Rot.Weighted>
2.5600

> <Gold.Chemscore.Internal.Correction.Weighted>
   9.000000E+99

> <Gold.Protein.RotatedTorsions>
[ 6907 6896 6895 6894 ] final    5.67 input  -60.11 | X-H torsion
[ 7974 7965 7964 7962 ] final  -47.48 input  175.53 | X-H torsion
[ 8008 7997 7996 7995 ] final  -17.82 input   59.86 | X-H torsion
[ 10167 10162 10161 10158 ] final   97.88 input  -65.29 | X-H torsion
[ 10718 10713 10712 10709 ] final -161.31 input   66.30 | X-H torsion
[ 10763 10752 10751 10750 ] final -139.18 input  -60.55 | X-H torsion
[ 11005 11000 10999 10996 ] final  -86.30 input  -57.11 | X-H torsion

> <Gold.Protein.ActiveResidues>
 VAL166  LYS551  ARG553  GLY616  TRP617  ASP618  TYR619  PRO620  LYS621  CYS622 
 ASP623  PHE694  ASN695  SER759  ASP760  ASP761  ALA762  ILE779  LEU786  VAL792 
 PHE793  MET794  SER795  GLU796  ALA797  LYS798  CYS799  TRP800  GLU811  SER814 

> <Gold.Protein.RotatedAtoms>
  151.6613  135.0989  160.0179 H   0  0  0  0  0  0  0  0  0  0  0  0  # atno 6907 bound_to 6896
  152.3945  133.6723  159.6273 H   0  0  0  0  0  0  0  0  0  0  0  0  # atno 6908 bound_to 6896
  150.7855  133.8814  159.3328 H   0  0  0  0  0  0  0  0  0  0  0  0  # atno 6909 bound_to 6896
  145.9612  140.7477  142.9456 H   0  0  0  0  0  0  0  0  0  0  0  0  # atno 7974 bound_to 7965
  154.4950  140.2132  155.9466 H   0  0  0  0  0  0  0  0  0  0  0  0  # atno 8008 bound_to 7997
  156.1358  140.3189  155.8386 H   0  0  0  0  0  0  0  0  0  0  0  0  # atno 8009 bound_to 7997
  155.4213  140.0497  157.3016 H   0  0  0  0  0  0  0  0  0  0  0  0  # atno 8010 bound_to 7997
  139.7760  144.6906  151.0089 H   0  0  0  0  0  0  0  0  0  0  0  0  # atno 10167 bound_to 10162
  156.5944  130.8784  151.2898 H   0  0  0  0  0  0  0  0  0  0  0  0  # atno 10718 bound_to 10713
  154.8616  135.3590  154.5504 H   0  0  0  0  0  0  0  0  0  0  0  0  # atno 10763 bound_to 10752
  153.6123  135.7009  153.5347 H   0  0  0  0  0  0  0  0  0  0  0  0  # atno 10764 bound_to 10752
  153.3199  135.4154  155.1368 H   0  0  0  0  0  0  0  0  0  0  0  0  # atno 10765 bound_to 10752
  141.1631  133.7447  156.9141 H   0  0  0  0  0  0  0  0  0  0  0  0  # atno 11005 bound_to 11000
  144.6815  140.2594  143.7321 LP  0  0  0  0  0  0  0  0  0  0  0  0  # atno 17320 bound_to 7965
  145.8037  139.1975  143.2033 LP  0  0  0  0  0  0  0  0  0  0  0  0  # atno 17321 bound_to 7965
  140.7816  143.4536  151.0378 LP  0  0  0  0  0  0  0  0  0  0  0  0  # atno 17342 bound_to 10162
  139.8218  143.7810  152.3177 LP  0  0  0  0  0  0  0  0  0  0  0  0  # atno 17343 bound_to 10162
  157.7295  130.9672  150.1792 LP  0  0  0  0  0  0  0  0  0  0  0  0  # atno 17370 bound_to 10713
  156.2522  130.3702  149.8220 LP  0  0  0  0  0  0  0  0  0  0  0  0  # atno 17371 bound_to 10713
  140.1497  134.9239  157.2576 LP  0  0  0  0  0  0  0  0  0  0  0  0  # atno 17394 bound_to 11000
  140.2738  134.3429  155.7365 LP  0  0  0  0  0  0  0  0  0  0  0  0  # atno 17395 bound_to 11000

$$$$
