AV-unprocessed.smi:2243|AV-procd|sdf|9068|dock7
  -GOLD-   2272012273D 1   1.00000     0.00000
 Structure written by MMmdl.
 34 35  0  0  0  0  0  0  0  0  1 V2000
  151.5529  138.4951  159.2632 C   0  0  0  0  0  0  0  0  0  0  0  0
  150.1522  138.4309  158.6304 C   0  0  2  0  0  0  0  0  0  0  0  0
  149.6736  137.0515  158.7349 N   0  0  0  0  0  0  0  0  0  0  0  0
  148.5476  136.6381  159.3376 C   0  0  0  0  0  0  0  0  0  0  0  0
  147.7737  137.4306  159.8840 O   0  0  0  0  0  0  0  0  0  0  0  0
  148.4329  135.2596  159.2257 N   0  0  0  0  0  0  0  0  0  0  0  0
  147.6492  134.6026  160.0253 C   0  0  0  0  0  0  0  0  0  0  0  0
  146.8175  134.9909  161.0724 N   0  0  0  0  0  0  0  0  0  0  0  0
  146.2144  133.8723  161.5755 C   0  0  0  0  0  0  0  0  0  0  0  0
  146.6439  132.8244  160.8790 C   0  0  0  0  0  0  0  0  0  0  0  0
  147.5230  133.2400  159.9243 O   0  0  0  0  0  0  0  0  0  0  0  0
  150.1226  138.9045  157.1527 C   0  0  0  0  0  0  0  0  0  0  0  0
  150.9939  138.0275  156.2306 C   0  0  0  0  0  0  0  0  0  0  0  0
  151.0045  138.5666  154.7909 C   0  0  0  0  0  0  0  0  0  0  0  0
  151.4599  139.9135  154.7770 O   0  0  0  0  0  0  0  0  0  0  0  0
  150.6097  140.7860  155.5106 C   0  0  0  0  0  0  0  0  0  0  0  0
  150.5800  140.3701  156.9899 C   0  0  0  0  0  0  0  0  0  0  0  0
  151.9142  139.5197  159.3436 H   0  0  0  0  0  0  0  0  0  0  0  0
  152.2788  137.9268  158.6807 H   0  0  0  0  0  0  0  0  0  0  0  0
  151.5441  138.0841  160.2734 H   0  0  0  0  0  0  0  0  0  0  0  0
  149.5056  139.0931  159.2085 H   0  0  0  0  0  0  0  0  0  0  0  0
  150.2537  136.3444  158.3069 H   0  0  0  0  0  0  0  0  0  0  0  0
  146.6582  135.9213  161.4317 H   0  0  0  0  0  0  0  0  0  0  0  0
  145.5227  133.9477  162.4015 H   0  0  0  0  0  0  0  0  0  0  0  0
  146.4296  131.7675  160.9368 H   0  0  0  0  0  0  0  0  0  0  0  0
  149.0922  138.8389  156.7990 H   0  0  0  0  0  0  0  0  0  0  0  0
  152.0156  137.9922  156.6108 H   0  0  0  0  0  0  0  0  0  0  0  0
  150.6300  137.0006  156.2155 H   0  0  0  0  0  0  0  0  0  0  0  0
  151.6708  137.9653  154.1722 H   0  0  0  0  0  0  0  0  0  0  0  0
  150.0114  138.5018  154.3435 H   0  0  0  0  0  0  0  0  0  0  0  0
  150.9864  141.8046  155.4163 H   0  0  0  0  0  0  0  0  0  0  0  0
  149.6053  140.7780  155.0841 H   0  0  0  0  0  0  0  0  0  0  0  0
  149.9188  141.0464  157.5318 H   0  0  0  0  0  0  0  0  0  0  0  0
  151.5740  140.4958  157.4213 H   0  0  0  0  0  0  0  0  0  0  0  0
  1  2  1  0  0  0  0
  1 18  1  0  0  0  0
  1 19  1  0  0  0  0
  1 20  1  0  0  0  0
  2  3  1  0  0  0  0
  2 12  1  0  0  0  0
  2 21  1  0  0  0  0
  3 22  1  0  0  0  0
  3  4  1  0  0  0  0
  4  6  1  0  0  0  0
  4  5  2  0  0  0  0
  6  7  2  0  0  0  0
  7 11  1  0  0  0  0
  7  8  1  0  0  0  0
  8 23  1  0  0  0  0
  8  9  1  0  0  0  0
  9 24  1  0  0  0  0
  9 10  2  0  0  0  0
 10 25  1  0  0  0  0
 10 11  1  0  0  0  0
 12 17  1  0  0  0  0
 12 13  1  0  0  0  0
 12 26  1  0  0  0  0
 13 14  1  0  0  0  0
 13 27  1  0  0  0  0
 13 28  1  0  0  0  0
 14 15  1  0  0  0  0
 14 29  1  0  0  0  0
 14 30  1  0  0  0  0
 15 16  1  0  0  0  0
 16 17  1  0  0  0  0
 16 31  1  0  0  0  0
 16 32  1  0  0  0  0
 17 33  1  0  0  0  0
 17 34  1  0  0  0  0
M  END
> <s_m_source_file>
AV-unprocessed.smi

> <i_m_source_file_index>
2243

> <i_lp_mmshare_version>
43012

> <i_f3d_flags>
0

> <s_epik_input>
W0NIMl0xW0NIMl1PW0NIMl1bQ0gyXVtDSF0xW0NASF0oW0NIM10pW05IXUMoPU8pW05IXWMybltjSF1bY0hdbzI=

> <s_epik_cmdline>
J2VwaWtfcHl0aG9uJywgJy1waCcsICc3LjAnLCAnLXRuJywgJzgnLCAnLW1hJywgJzIwMCcsICctbWV0YWxfYmluZGluZycsICctaW1hZScsICc8aW5maWxlLm1hZT4nLCAnLW9tYWUnLCAnPG91dGZpbGUubWFlPic=

> <r_lp_tautomer_probability>
0.107061

> <r_epik_Ionization_Penalty>
1.44639

> <r_epik_Ionization_Penalty_Charging>
1.44602

> <r_epik_Ionization_Penalty_Neutral>
0.000368208

> <r_epik_State_Penalty>
2.61815

> <r_epik_Charging_Adjusted_Penalty>
4.06418

> <i_epik_Tot_Q>
0

> <i_epik_Tot_abs_Q>
0

> <r_epik_Metal_State_Penalty>
3.54171

> <b_epik_Metal_Only>
0

> <s_lp_Force_Field>
OPLS_2005

> <r_lp_Energy>
34.9147

> <b_lp_Chiralities_Consistent>
1

> <s_lp_Variant>
AV-unprocessed.smi:2243-7

> <Gold.Version>
5.8.1

> <Gold.Id.Protein>
6NUR|6NUR_protein|mol2

> <Gold.PLP.Fitness>
33.3531

> <Gold.PLP.PLP>
-24.5238

> <Gold.PLP.part.hbond>
-4.0000

> <Gold.PLP.part.metal>
0.0000

> <Gold.PLP.part.buried>
-3.6398

> <Gold.PLP.part.nonpolar>
-16.7875

> <Gold.PLP.part.repulsive>
0.2894

> <Gold.PLP.ligand.clash>
0.0000

> <Gold.PLP.ligand.torsion>
0.1089

> <Gold.PLP.Chemscore.Hbond>
3.0109

> <Gold.PLP.Chemscore.CHOScore>
0.0000

> <Gold.PLP.Chemscore.Metal>
0.0000

> <Gold.Chemscore.Hbonds>
donor molecule, donor type, donor heavy atom, donor atom, acceptor molecule, acceptor atom, score
      P1  H  6896  6908       L1     6  0.18
      P1  H  6934  6947       L1     5  0.75
      P1  H  7989  7998       L1    15  0.85

> <Gold.PLP.Chemscore.Internal.Correction>
0.0144

> <Gold.Rescore>
     Score         DG    S(hbond)    S(metal)    S(lipo)     H(rot)  DE(clash)    DE(int)     intcor
     16.73     -16.97       2.96        0.00      42.58       1.32       0.19       0.05       ----

> <Gold.Chemscore.Fitness>
16.7307

> <Gold.Chemscore.DG>
-16.9721

> <Gold.Chemscore.ZeroCoef>
-5.4800

> <Gold.Chemscore.Hbond>
2.9610

> <Gold.Chemscore.Metal>
0.0000

> <Gold.Chemscore.Lipo>
42.5776

> <Gold.Chemscore.Internal_Hbond>
0.0000

> <Gold.Chemscore.DEClash>
0.1913

> <Gold.Chemscore.DEInternal>
0.0501

> <Gold.Chemscore.Rot>
1.3201

> <Gold.Chemscore.Internal.Correction>
   9.000000E+99

> <Gold.Chemscore.Hbonds>
donor molecule, donor type, donor heavy atom, donor atom, acceptor molecule, acceptor atom, score
      P1  H  6896  6908       L1     6  0.05
      P1  H  6934  6947       L1     5  0.72
      P1  H  7989  7998       L1    15  0.14

> <Gold.Chemscore.Hbond.Weighted>
-9.8899

> <Gold.Chemscore.Metal.Weighted>
-0.0000

> <Gold.Chemscore.Lipo.Weighted>
-4.9816

> <Gold.Chemscore.Internal_Hbond.Weighted>
0.0000

> <Gold.Chemscore.DEClash.Weighted>
0.1913

> <Gold.Chemscore.DEInternal.Weighted>
0.0501

> <Gold.Chemscore.Rot.Weighted>
3.3794

> <Gold.Chemscore.Internal.Correction.Weighted>
   9.000000E+99

> <Gold.Protein.RotatedTorsions>
[ 6907 6896 6895 6894 ] final  168.10 input  -60.11 | X-H torsion
[ 7974 7965 7964 7962 ] final   24.13 input  175.53 | X-H torsion
[ 8008 7997 7996 7995 ] final   10.72 input   59.86 | X-H torsion
[ 10167 10162 10161 10158 ] final  -41.28 input  -65.29 | X-H torsion
[ 10718 10713 10712 10709 ] final   34.44 input   66.30 | X-H torsion
[ 10763 10752 10751 10750 ] final  178.21 input  -60.55 | X-H torsion
[ 11005 11000 10999 10996 ] final   63.66 input  -57.11 | X-H torsion

> <Gold.Protein.ActiveResidues>
 VAL166  LYS551  ARG553  GLY616  TRP617  ASP618  TYR619  PRO620  LYS621  CYS622 
 ASP623  PHE694  ASN695  SER759  ASP760  ASP761  ALA762  ILE779  LEU786  VAL792 
 PHE793  MET794  SER795  GLU796  ALA797  LYS798  CYS799  TRP800  GLU811  SER814 

> <Gold.Protein.RotatedAtoms>
  151.8530  133.3443  159.3679 H   0  0  0  0  0  0  0  0  0  0  0  0  # atno 6907 bound_to 6896
  150.7201  134.5280  159.5696 H   0  0  0  0  0  0  0  0  0  0  0  0  # atno 6908 bound_to 6896
  152.2778  134.7863  160.0453 H   0  0  0  0  0  0  0  0  0  0  0  0  # atno 6909 bound_to 6896
  146.1952  139.7648  142.8802 H   0  0  0  0  0  0  0  0  0  0  0  0  # atno 7974 bound_to 7965
  154.7972  140.2846  155.5948 H   0  0  0  0  0  0  0  0  0  0  0  0  # atno 8008 bound_to 7997
  156.2972  140.2593  156.2762 H   0  0  0  0  0  0  0  0  0  0  0  0  # atno 8009 bound_to 7997
  154.9600  140.0378  157.2175 H   0  0  0  0  0  0  0  0  0  0  0  0  # atno 8010 bound_to 7997
  140.7007  143.3104  151.3044 H   0  0  0  0  0  0  0  0  0  0  0  0  # atno 10167 bound_to 10162
  157.3104  130.7396  149.6721 H   0  0  0  0  0  0  0  0  0  0  0  0  # atno 10718 bound_to 10713
  154.5047  135.2785  155.1392 H   0  0  0  0  0  0  0  0  0  0  0  0  # atno 10763 bound_to 10752
  154.3012  135.6248  153.5429 H   0  0  0  0  0  0  0  0  0  0  0  0  # atno 10764 bound_to 10752
  152.9908  135.5697  154.5498 H   0  0  0  0  0  0  0  0  0  0  0  0  # atno 10765 bound_to 10752
  140.0010  134.6442  155.9931 H   0  0  0  0  0  0  0  0  0  0  0  0  # atno 11005 bound_to 11000
  145.3666  141.0335  143.3255 LP  0  0  0  0  0  0  0  0  0  0  0  0  # atno 17320 bound_to 7965
  144.8566  139.5240  143.6831 LP  0  0  0  0  0  0  0  0  0  0  0  0  # atno 17321 bound_to 7965
  139.6524  144.0337  152.2636 LP  0  0  0  0  0  0  0  0  0  0  0  0  # atno 17342 bound_to 10162
  139.9878  144.6383  150.7842 LP  0  0  0  0  0  0  0  0  0  0  0  0  # atno 17343 bound_to 10162
  155.9677  130.4253  150.4648 LP  0  0  0  0  0  0  0  0  0  0  0  0  # atno 17370 bound_to 10713
  157.2645  131.0574  151.2299 LP  0  0  0  0  0  0  0  0  0  0  0  0  # atno 17371 bound_to 10713
  141.1642  133.6537  156.4421 LP  0  0  0  0  0  0  0  0  0  0  0  0  # atno 17394 bound_to 11000
  140.4728  134.6737  157.5137 LP  0  0  0  0  0  0  0  0  0  0  0  0  # atno 17395 bound_to 11000

$$$$
