AV-unprocessed.smi:250|AV-procd|sdf|1931|dock1
  -GOLD-   2262021 53D 1   1.00000     0.00000
 Structure written by MMmdl.
 56 60  0  0  0  0  0  0  0  0  1 V2000
  152.4240  143.6888  161.9661 C   0  0  0  0  0  0  0  0  0  0  0  0
  152.8910  142.5382  161.2041 N   0  0  0  0  0  0  0  0  0  0  0  0
  153.8908  141.6939  161.5348 C   0  0  0  0  0  0  0  0  0  0  0  0
  154.6054  141.7658  162.5325 O   0  0  0  0  0  0  0  0  0  0  0  0
  153.9783  140.7485  160.5833 N   0  0  0  0  0  0  0  0  0  0  0  0
  153.1729  141.1212  159.4441 C   0  0  1  0  0  0  0  0  0  0  0  0
  152.4845  140.0710  158.5767 C   0  0  0  0  0  0  0  0  0  0  0  0
  151.6892  140.7931  157.5704 N   0  0  0  0  0  0  0  0  0  0  0  0
  151.2915  140.0453  156.5110 C   0  0  0  0  0  0  0  0  0  0  0  0
  150.6202  140.6326  155.4844 N   0  0  0  0  0  0  0  0  0  0  0  0
  150.2117  139.9043  154.4414 C   0  0  0  0  0  0  0  0  0  0  0  0
  150.3663  138.5970  154.2253 N   0  0  0  0  0  0  0  0  0  0  0  0
  151.0450  138.0020  155.2476 C   0  0  0  0  0  0  0  0  0  0  0  0
  151.5459  138.6480  156.4133 C   0  0  0  0  0  0  0  0  0  0  0  0
  152.2121  137.7277  157.2138 N   0  0  0  0  0  0  0  0  0  0  0  0
  152.1017  136.6019  156.5643 C   0  0  0  0  0  0  0  0  0  0  0  0
  151.3958  136.6693  155.3841 N   0  0  0  0  0  0  0  0  0  0  0  0
  151.1268  135.5694  154.4692 C   0  0  0  0  0  0  0  0  0  0  0  0
  150.6745  134.2325  155.1320 C   0  0  0  0  0  0  0  0  0  0  0  0
  149.9916  133.2967  154.0892 C   0  0  0  0  0  0  0  0  0  0  0  0
  148.9515  133.9157  153.3595 O   0  0  0  0  0  0  0  0  0  0  0  0
  151.8613  133.5332  155.8438 C   0  0  0  0  0  0  0  0  0  0  0  0
  151.4067  132.3943  156.7720 C   0  0  0  0  0  0  0  0  0  0  0  0
  150.5073  132.9018  157.7489 O   0  0  0  0  0  0  0  0  0  0  0  0
  149.3162  133.4298  157.1808 C   0  0  0  0  0  0  0  0  0  0  0  0
  149.6495  134.6009  156.2353 C   0  0  0  0  0  0  0  0  0  0  0  0
  150.7765  141.8553  158.0423 C   0  0  0  0  0  0  0  0  0  0  0  0
  151.4488  142.8297  159.0482 C   0  0  0  0  0  0  0  0  0  0  0  0
  152.1183  141.9658  160.1185 C   0  0  2  0  0  0  0  0  0  0  0  0
  153.8129  141.7351  158.8047 H   0  0  0  0  0  0  0  0  0  0  0  0
  151.3571  141.3336  160.5835 H   0  0  0  0  0  0  0  0  0  0  0  0
  153.1754  144.0340  162.6775 H   0  0  0  0  0  0  0  0  0  0  0  0
  151.5208  143.4324  162.5199 H   0  0  0  0  0  0  0  0  0  0  0  0
  152.1932  144.5189  161.2983 H   0  0  0  0  0  0  0  0  0  0  0  0
  154.6583  140.0023  160.5680 H   0  0  0  0  0  0  0  0  0  0  0  0
  153.2314  139.4236  158.1197 H   0  0  0  0  0  0  0  0  0  0  0  0
  151.8295  139.4360  159.1748 H   0  0  0  0  0  0  0  0  0  0  0  0
  149.6835  140.4462  153.6707 H   0  0  0  0  0  0  0  0  0  0  0  0
  152.5242  135.6801  156.9370 H   0  0  0  0  0  0  0  0  0  0  0  0
  150.3682  135.9137  153.7650 H   0  0  0  0  0  0  0  0  0  0  0  0
  152.0252  135.4026  153.8733 H   0  0  0  0  0  0  0  0  0  0  0  0
  150.7045  132.9331  153.3518 H   0  0  0  0  0  0  0  0  0  0  0  0
  149.5903  132.4105  154.5817 H   0  0  0  0  0  0  0  0  0  0  0  0
  148.6815  134.6942  153.8226 H   0  0  0  0  0  0  0  0  0  0  0  0
  152.5864  133.1529  155.1244 H   0  0  0  0  0  0  0  0  0  0  0  0
  152.3983  134.2644  156.4491 H   0  0  0  0  0  0  0  0  0  0  0  0
  150.9417  131.5826  156.2113 H   0  0  0  0  0  0  0  0  0  0  0  0
  152.2695  131.9675  157.2833 H   0  0  0  0  0  0  0  0  0  0  0  0
  148.7608  132.6414  156.6731 H   0  0  0  0  0  0  0  0  0  0  0  0
  148.6755  133.7818  157.9895 H   0  0  0  0  0  0  0  0  0  0  0  0
  150.0483  135.4121  156.8464 H   0  0  0  0  0  0  0  0  0  0  0  0
  148.7324  134.9869  155.7884 H   0  0  0  0  0  0  0  0  0  0  0  0
  150.3984  142.4215  157.1900 H   0  0  0  0  0  0  0  0  0  0  0  0
  149.9141  141.3864  158.5181 H   0  0  0  0  0  0  0  0  0  0  0  0
  152.1821  143.4596  158.5429 H   0  0  0  0  0  0  0  0  0  0  0  0
  150.7037  143.4922  159.4887 H   0  0  0  0  0  0  0  0  0  0  0  0
  1  2  1  0  0  0  0
  1 32  1  0  0  0  0
  1 33  1  0  0  0  0
  1 34  1  0  0  0  0
  2 29  1  0  0  0  0
  2  3  1  0  0  0  0
  3  4  2  0  0  0  0
  3  5  1  0  0  0  0
  5  6  1  0  0  0  0
  5 35  1  0  0  0  0
  6 30  1  0  0  0  0
  6 29  1  0  0  0  0
  6  7  1  0  0  0  0
  7  8  1  0  0  0  0
  7 36  1  0  0  0  0
  7 37  1  0  0  0  0
  8  9  1  0  0  0  0
  8 27  1  0  0  0  0
  9 14  1  0  0  0  0
  9 10  2  0  0  0  0
 10 11  1  0  0  0  0
 11 12  2  0  0  0  0
 11 38  1  0  0  0  0
 12 13  1  0  0  0  0
 13 17  1  0  0  0  0
 13 14  2  0  0  0  0
 14 15  1  0  0  0  0
 15 16  2  0  0  0  0
 16 17  1  0  0  0  0
 16 39  1  0  0  0  0
 17 18  1  0  0  0  0
 18 19  1  0  0  0  0
 18 40  1  0  0  0  0
 18 41  1  0  0  0  0
 19 26  1  0  0  0  0
 19 20  1  0  0  0  0
 19 22  1  0  0  0  0
 20 21  1  0  0  0  0
 20 42  1  0  0  0  0
 20 43  1  0  0  0  0
 21 44  1  0  0  0  0
 22 23  1  0  0  0  0
 22 45  1  0  0  0  0
 22 46  1  0  0  0  0
 23 24  1  0  0  0  0
 23 47  1  0  0  0  0
 23 48  1  0  0  0  0
 24 25  1  0  0  0  0
 25 26  1  0  0  0  0
 25 49  1  0  0  0  0
 25 50  1  0  0  0  0
 26 51  1  0  0  0  0
 26 52  1  0  0  0  0
 27 28  1  0  0  0  0
 27 53  1  0  0  0  0
 27 54  1  0  0  0  0
 28 29  1  0  0  0  0
 28 55  1  0  0  0  0
 28 56  1  0  0  0  0
 29 31  1  0  0  0  0
M  END
> <s_m_source_file>
AV-unprocessed.smi

> <i_m_source_file_index>
250

> <i_lp_mmshare_version>
43012

> <i_f3d_flags>
0

> <s_epik_input>
Tz1DKFtOSF0xKU4oW0NIM10pW0NASF0oW0NASF0xMilbQ0gyXVtDSDJdTihbQ0gyXTIpYyhuW2NIXW4zKWMoYzM0KW5bY0hdbjRbQ0gyXUM1KFtDSDJdW09IXSlbQ0gyXVtDSDJdT1tDSDJdW0NIMl01

> <s_epik_cmdline>
J2VwaWtfcHl0aG9uJywgJy1waCcsICc3LjAnLCAnLXRuJywgJzgnLCAnLW1hJywgJzIwMCcsICctbWV0YWxfYmluZGluZycsICctaW1hZScsICc8aW5maWxlLm1hZT4nLCAnLW9tYWUnLCAnPG91dGZpbGUubWFlPic=

> <r_lp_tautomer_probability>
1

> <r_epik_Ionization_Penalty>
0.00229024

> <r_epik_Ionization_Penalty_Charging>
0

> <r_epik_Ionization_Penalty_Neutral>
0.00229024

> <r_epik_State_Penalty>
0.0013961

> <r_epik_Charging_Adjusted_Penalty>
0.0013961

> <i_epik_Tot_Q>
0

> <i_epik_Tot_abs_Q>
0

> <r_epik_Metal_State_Penalty>
-0

> <b_epik_Metal_Only>
0

> <s_lp_Force_Field>
OPLS_2005

> <r_lp_Energy>
73.7244

> <b_lp_Chiralities_Consistent>
1

> <s_lp_Variant>
AV-unprocessed.smi:250-2

> <Gold.Version>
5.8.1

> <Gold.Id.Protein>
6NUR|6NUR_protein|mol2

> <Gold.PLP.Fitness>
51.1558

> <Gold.PLP.PLP>
-47.1994

> <Gold.PLP.part.hbond>
-3.7636

> <Gold.PLP.part.metal>
0.0000

> <Gold.PLP.part.buried>
-5.1097

> <Gold.PLP.part.nonpolar>
-38.6712

> <Gold.PLP.part.repulsive>
0.3077

> <Gold.PLP.ligand.clash>
0.9264

> <Gold.PLP.ligand.torsion>
0.7294

> <Gold.PLP.Chemscore.Hbond>
1.0000

> <Gold.PLP.Chemscore.CHOScore>
1.0000

> <Gold.PLP.Chemscore.Metal>
0.0000

> <Gold.Chemscore.Hbonds>
donor molecule, donor type, donor heavy atom, donor atom, acceptor molecule, acceptor atom, score
      P1  H  6896  6907       L1    24  1.00
      L1  C    11    38       P1  7957  0.97

> <Gold.PLP.Chemscore.Internal.Correction>
0.3415

> <Gold.Rescore>
     Score         DG    S(hbond)    S(metal)    S(lipo)     H(rot)  DE(clash)    DE(int)     intcor
     10.66     -12.89       0.86        0.00      87.13       2.22       0.04       2.19       ----

> <Gold.Chemscore.Fitness>
10.6580

> <Gold.Chemscore.DG>
-12.8868

> <Gold.Chemscore.ZeroCoef>
-5.4800

> <Gold.Chemscore.Hbond>
0.8648

> <Gold.Chemscore.Metal>
0.0000

> <Gold.Chemscore.Lipo>
87.1267

> <Gold.Chemscore.Internal_Hbond>
0.0000

> <Gold.Chemscore.DEClash>
0.0426

> <Gold.Chemscore.DEInternal>
2.1861

> <Gold.Chemscore.Rot>
2.2170

> <Gold.Chemscore.Internal.Correction>
   9.000000E+99

> <Gold.Chemscore.Hbonds>
donor molecule, donor type, donor heavy atom, donor atom, acceptor molecule, acceptor atom, score
      P1  H  6896  6907       L1    24  0.80

> <Gold.Chemscore.Hbond.Weighted>
-2.8886

> <Gold.Chemscore.Metal.Weighted>
-0.0000

> <Gold.Chemscore.Lipo.Weighted>
-10.1938

> <Gold.Chemscore.Internal_Hbond.Weighted>
0.0000

> <Gold.Chemscore.DEClash.Weighted>
0.0426

> <Gold.Chemscore.DEInternal.Weighted>
2.1861

> <Gold.Chemscore.Rot.Weighted>
5.6756

> <Gold.Chemscore.Internal.Correction.Weighted>
   9.000000E+99

> <Gold.Protein.RotatedTorsions>
[ 6907 6896 6895 6894 ] final -128.25 input  -60.11 | X-H torsion
[ 7974 7965 7964 7962 ] final  -88.21 input  175.53 | X-H torsion
[ 8008 7997 7996 7995 ] final   87.93 input   59.86 | X-H torsion
[ 10167 10162 10161 10158 ] final  -98.45 input  -65.29 | X-H torsion
[ 10718 10713 10712 10709 ] final   40.18 input   66.30 | X-H torsion
[ 10763 10752 10751 10750 ] final  -77.85 input  -60.55 | X-H torsion
[ 11005 11000 10999 10996 ] final  143.83 input  -57.11 | X-H torsion

> <Gold.Protein.ActiveResidues>
 VAL166  LYS551  ARG553  GLY616  TRP617  ASP618  TYR619  PRO620  LYS621  CYS622 
 ASP623  PHE694  ASN695  SER759  ASP760  ASP761  ALA762  ILE779  LEU786  VAL792 
 PHE793  MET794  SER795  GLU796  ALA797  LYS798  CYS799  TRP800  GLU811  SER814 

> <Gold.Protein.RotatedAtoms>
  150.9159  133.6939  159.2843 H   0  0  0  0  0  0  0  0  0  0  0  0  # atno 6907 bound_to 6896
  151.4410  135.1019  159.9680 H   0  0  0  0  0  0  0  0  0  0  0  0  # atno 6908 bound_to 6896
  152.4954  133.8567  159.7284 H   0  0  0  0  0  0  0  0  0  0  0  0  # atno 6909 bound_to 6896
  145.4562  140.9561  143.1995 H   0  0  0  0  0  0  0  0  0  0  0  0  # atno 7974 bound_to 7965
  155.9815  140.3377  155.6668 H   0  0  0  0  0  0  0  0  0  0  0  0  # atno 8008 bound_to 7997
  155.6542  140.0709  157.2594 H   0  0  0  0  0  0  0  0  0  0  0  0  # atno 8009 bound_to 7997
  154.4193  140.1720  156.1694 H   0  0  0  0  0  0  0  0  0  0  0  0  # atno 8010 bound_to 7997
  140.2729  143.3332  152.0517 H   0  0  0  0  0  0  0  0  0  0  0  0  # atno 10167 bound_to 10162
  157.3792  130.7744  149.7179 H   0  0  0  0  0  0  0  0  0  0  0  0  # atno 10718 bound_to 10713
  154.5182  135.5750  153.6659 H   0  0  0  0  0  0  0  0  0  0  0  0  # atno 10763 bound_to 10752
  152.9911  135.6175  154.2789 H   0  0  0  0  0  0  0  0  0  0  0  0  # atno 10764 bound_to 10752
  154.2708  135.2853  155.2718 H   0  0  0  0  0  0  0  0  0  0  0  0  # atno 10765 bound_to 10752
  140.0584  134.9218  157.1141 H   0  0  0  0  0  0  0  0  0  0  0  0  # atno 11005 bound_to 11000
  144.8030  139.6104  143.7063 LP  0  0  0  0  0  0  0  0  0  0  0  0  # atno 17320 bound_to 7965
  146.2476  139.6132  142.9449 LP  0  0  0  0  0  0  0  0  0  0  0  0  # atno 17321 bound_to 7965
  139.4984  144.6644  151.6390 LP  0  0  0  0  0  0  0  0  0  0  0  0  # atno 17342 bound_to 10162
  140.5875  143.9838  150.6304 LP  0  0  0  0  0  0  0  0  0  0  0  0  # atno 17343 bound_to 10162
  155.9772  130.4066  150.3729 LP  0  0  0  0  0  0  0  0  0  0  0  0  # atno 17370 bound_to 10713
  157.1830  131.0397  151.2739 LP  0  0  0  0  0  0  0  0  0  0  0  0  # atno 17371 bound_to 10713
  140.3808  134.2289  155.7171 LP  0  0  0  0  0  0  0  0  0  0  0  0  # atno 17394 bound_to 11000
  141.1962  133.8087  157.0680 LP  0  0  0  0  0  0  0  0  0  0  0  0  # atno 17395 bound_to 11000

$$$$
