AV-unprocessed.smi:2062|AV-procd|sdf|8397|dock3
  -GOLD-   2272011 83D 1   1.00000     0.00000
 Structure written by MMmdl.
 43 44  0  0  0  0  0  0  0  0  2 V2000
  145.8776  131.9855  149.3426 C   0  0  0  0  0  0  0  0  0  0  0  0
  145.3089  131.9035  150.7669 C   0  0  0  0  0  0  0  0  0  0  0  0
  143.8461  132.3775  150.7887 C   0  0  0  0  0  0  0  0  0  0  0  0
  146.1895  132.7055  151.7498 C   0  0  0  0  0  0  0  0  0  0  0  0
  147.4515  132.0032  152.1114 N   0  3  2  0  0  0  0  0  0  0  0  0
  147.2389  130.7921  152.9407 C   0  0  0  0  0  0  0  0  0  0  0  0
  146.9689  131.1648  154.4096 C   0  0  0  0  0  0  0  0  0  0  0  0
  148.0494  131.9462  154.9036 O   0  0  0  0  0  0  0  0  0  0  0  0
  148.1998  133.1753  154.1992 C   0  0  1  0  0  0  0  0  0  0  0  0
  149.3378  133.9760  154.8578 C   0  0  0  0  0  0  0  0  0  0  0  0
  149.4054  135.3437  154.3540 N   0  0  0  0  0  0  0  0  0  0  0  0
  149.6943  136.4209  155.0980 C   0  0  0  0  0  0  0  0  0  0  0  0
  149.9316  136.3643  156.3051 O   0  0  0  0  0  0  0  0  0  0  0  0
  149.6916  137.5421  154.3564 N   0  0  0  0  0  0  0  0  0  0  0  0
  149.9828  138.8684  154.7711 C   0  0  0  0  0  0  0  0  0  0  0  0
  151.0464  139.2123  155.5069 N   0  0  0  0  0  0  0  0  0  0  0  0
  151.0851  140.5854  155.7624 C   0  0  0  0  0  0  0  0  0  0  0  0
  150.0367  141.2766  155.2080 C   0  0  0  0  0  0  0  0  0  0  0  0
  148.9525  140.2248  154.3375 S   0  0  0  0  0  0  0  0  0  0  0  0
  148.4996  132.8661  152.7160 C   0  0  0  0  0  0  0  0  0  0  0  0
  145.8897  133.0130  148.9772 H   0  0  0  0  0  0  0  0  0  0  0  0
  145.2832  131.3924  148.6468 H   0  0  0  0  0  0  0  0  0  0  0  0
  146.8991  131.6062  149.3045 H   0  0  0  0  0  0  0  0  0  0  0  0
  145.3239  130.8508  151.0464 H   0  0  0  0  0  0  0  0  0  0  0  0
  143.7656  133.4292  150.5118 H   0  0  0  0  0  0  0  0  0  0  0  0
  143.4014  132.2575  151.7765 H   0  0  0  0  0  0  0  0  0  0  0  0
  143.2379  131.8037  150.0887 H   0  0  0  0  0  0  0  0  0  0  0  0
  146.4131  133.6910  151.3416 H   0  0  0  0  0  0  0  0  0  0  0  0
  145.6061  132.8848  152.6541 H   0  0  0  0  0  0  0  0  0  0  0  0
  146.4289  130.1833  152.5376 H   0  0  0  0  0  0  0  0  0  0  0  0
  148.1381  130.1771  152.8861 H   0  0  0  0  0  0  0  0  0  0  0  0
  146.0282  131.7069  154.5162 H   0  0  0  0  0  0  0  0  0  0  0  0
  146.8841  130.2623  155.0146 H   0  0  0  0  0  0  0  0  0  0  0  0
  147.2754  133.7490  154.2745 H   0  0  0  0  0  0  0  0  0  0  0  0
  149.1948  134.0134  155.9381 H   0  0  0  0  0  0  0  0  0  0  0  0
  150.2961  133.4816  154.6895 H   0  0  0  0  0  0  0  0  0  0  0  0
  149.2238  135.4767  153.3697 H   0  0  0  0  0  0  0  0  0  0  0  0
  149.4626  137.4348  153.3794 H   0  0  0  0  0  0  0  0  0  0  0  0
  151.8977  140.9874  156.3492 H   0  0  0  0  0  0  0  0  0  0  0  0
  149.8376  142.3367  155.2586 H   0  0  0  0  0  0  0  0  0  0  0  0
  149.4510  132.3375  152.6434 H   0  0  0  0  0  0  0  0  0  0  0  0
  148.6251  133.7879  152.1500 H   0  0  0  0  0  0  0  0  0  0  0  0
  147.8233  131.6710  151.2328 H   0  0  0  0  0  0  0  0  0  0  0  0
  1  2  1  0  0  0  0
  1 21  1  0  0  0  0
  1 22  1  0  0  0  0
  1 23  1  0  0  0  0
  2  3  1  0  0  0  0
  2  4  1  0  0  0  0
  2 24  1  0  0  0  0
  3 25  1  0  0  0  0
  3 26  1  0  0  0  0
  3 27  1  0  0  0  0
  4  5  1  0  0  0  0
  4 28  1  0  0  0  0
  4 29  1  0  0  0  0
  5 20  1  0  0  0  0
  5  6  1  0  0  0  0
  5 43  1  0  0  0  0
  6  7  1  0  0  0  0
  6 30  1  0  0  0  0
  6 31  1  0  0  0  0
  7  8  1  0  0  0  0
  7 32  1  0  0  0  0
  7 33  1  0  0  0  0
  8  9  1  0  0  0  0
  9 10  1  0  0  0  0
  9 20  1  0  0  0  0
  9 34  1  0  0  0  0
 10 11  1  0  0  0  0
 10 35  1  0  0  0  0
 10 36  1  0  0  0  0
 11 12  1  0  0  0  0
 11 37  1  0  0  0  0
 12 13  2  0  0  0  0
 12 14  1  0  0  0  0
 14 15  1  0  0  0  0
 14 38  1  0  0  0  0
 15 19  1  0  0  0  0
 15 16  2  0  0  0  0
 16 17  1  0  0  0  0
 17 18  2  0  0  0  0
 17 39  1  0  0  0  0
 18 19  1  0  0  0  0
 18 40  1  0  0  0  0
 20 41  1  0  0  0  0
 20 42  1  0  0  0  0
M  CHG  1   5   1
M  END
> <s_m_source_file>
AV-unprocessed.smi

> <i_m_source_file_index>
2062

> <i_lp_mmshare_version>
43012

> <i_f3d_flags>
0

> <s_epik_input>
W0NIM11bQ0hdKFtDSDNdKVtDSDJdTjFbQ0gyXVtDSDJdT1tDQEhdKFtDSDJdMSlbQ0gyXVtOSF1DKD1PKVtOSF1jMm5bY0hdW2NIXXMy

> <s_epik_cmdline>
J2VwaWtfcHl0aG9uJywgJy1waCcsICc3LjAnLCAnLXRuJywgJzgnLCAnLW1hJywgJzIwMCcsICctbWV0YWxfYmluZGluZycsICctaW1hZScsICc8aW5maWxlLm1hZT4nLCAnLW9tYWUnLCAnPG91dGZpbGUubWFlPic=

> <r_lp_tautomer_probability>
0.999

> <r_epik_Ionization_Penalty>
0.0985527

> <r_epik_Ionization_Penalty_Charging>
0.098413

> <r_epik_Ionization_Penalty_Neutral>
0.000139681

> <r_epik_State_Penalty>
0.0884988

> <r_epik_Charging_Adjusted_Penalty>
0.186912

> <i_epik_Tot_Q>
1

> <i_epik_Tot_abs_Q>
1

> <r_epik_Metal_State_Penalty>
0.141792

> <b_epik_Metal_Only>
0

> <s_lp_Force_Field>
OPLS_2005

> <r_lp_Energy>
17.4544

> <b_lp_Chiralities_Consistent>
1

> <s_lp_Variant>
AV-unprocessed.smi:2062-2

> <Gold.Version>
5.8.1

> <Gold.Id.Protein>
6NUR|6NUR_protein|mol2

> <Gold.PLP.Fitness>
46.1734

> <Gold.PLP.PLP>
-35.8195

> <Gold.PLP.part.hbond>
-3.0000

> <Gold.PLP.part.metal>
0.0000

> <Gold.PLP.part.buried>
-3.9311

> <Gold.PLP.part.nonpolar>
-29.7567

> <Gold.PLP.part.repulsive>
0.0734

> <Gold.PLP.ligand.clash>
0.0000

> <Gold.PLP.ligand.torsion>
0.8609

> <Gold.PLP.Chemscore.Hbond>
3.0000

> <Gold.PLP.Chemscore.CHOScore>
0.9946

> <Gold.PLP.Chemscore.Metal>
0.0000

> <Gold.Chemscore.Hbonds>
donor molecule, donor type, donor heavy atom, donor atom, acceptor molecule, acceptor atom, score
      L1  H     5    43       P1 10747  1.00
      L1  H    11    37       P1  7948  1.00
      L1  H    14    38       P1  7948  0.99
      L1  C    18    40       P1  8028  0.84

> <Gold.PLP.Chemscore.Internal.Correction>
0.0920

> <Gold.Rescore>
     Score         DG    S(hbond)    S(metal)    S(lipo)     H(rot)  DE(clash)    DE(int)     intcor
     18.65     -19.76       2.70        0.00      83.45       1.76       0.01       1.10       ----

> <Gold.Chemscore.Fitness>
18.6523

> <Gold.Chemscore.DG>
-19.7644

> <Gold.Chemscore.ZeroCoef>
-5.4800

> <Gold.Chemscore.Hbond>
2.7024

> <Gold.Chemscore.Metal>
0.0000

> <Gold.Chemscore.Lipo>
83.4524

> <Gold.Chemscore.Internal_Hbond>
0.0000

> <Gold.Chemscore.DEClash>
0.0089

> <Gold.Chemscore.DEInternal>
1.1032

> <Gold.Chemscore.Rot>
1.7599

> <Gold.Chemscore.Internal.Correction>
   9.000000E+99

> <Gold.Chemscore.Hbonds>
donor molecule, donor type, donor heavy atom, donor atom, acceptor molecule, acceptor atom, score
      L1  H     5    43       P1 10747  0.97
      L1  H    11    37       P1  7948  0.35
      L1  H    14    38       P1  7948  0.85

> <Gold.Chemscore.Hbond.Weighted>
-9.0259

> <Gold.Chemscore.Metal.Weighted>
-0.0000

> <Gold.Chemscore.Lipo.Weighted>
-9.7639

> <Gold.Chemscore.Internal_Hbond.Weighted>
0.0000

> <Gold.Chemscore.DEClash.Weighted>
0.0089

> <Gold.Chemscore.DEInternal.Weighted>
1.1032

> <Gold.Chemscore.Rot.Weighted>
4.5054

> <Gold.Chemscore.Internal.Correction.Weighted>
   9.000000E+99

> <Gold.Protein.RotatedTorsions>
[ 6907 6896 6895 6894 ] final   44.45 input  -60.11 | X-H torsion
[ 7974 7965 7964 7962 ] final   44.89 input  175.53 | X-H torsion
[ 8008 7997 7996 7995 ] final  151.41 input   59.86 | X-H torsion
[ 10167 10162 10161 10158 ] final   17.53 input  -65.29 | X-H torsion
[ 10718 10713 10712 10709 ] final   90.09 input   66.30 | X-H torsion
[ 10763 10752 10751 10750 ] final   31.33 input  -60.55 | X-H torsion
[ 11005 11000 10999 10996 ] final -109.79 input  -57.11 | X-H torsion

> <Gold.Protein.ActiveResidues>
 VAL166  LYS551  ARG553  GLY616  TRP617  ASP618  TYR619  PRO620  LYS621  CYS622 
 ASP623  PHE694  ASN695  SER759  ASP760  ASP761  ALA762  ILE779  LEU786  VAL792 
 PHE793  MET794  SER795  GLU796  ALA797  LYS798  CYS799  TRP800  GLU811  SER814 

> <Gold.Protein.RotatedAtoms>
  152.2326  134.8307  160.0471 H   0  0  0  0  0  0  0  0  0  0  0  0  # atno 6907 bound_to 6896
  151.9050  133.3542  159.3852 H   0  0  0  0  0  0  0  0  0  0  0  0  # atno 6908 bound_to 6896
  150.7030  134.4715  159.5471 H   0  0  0  0  0  0  0  0  0  0  0  0  # atno 6909 bound_to 6896
  146.0529  139.5024  142.9707 H   0  0  0  0  0  0  0  0  0  0  0  0  # atno 7974 bound_to 7965
  156.2675  140.2048  156.6171 H   0  0  0  0  0  0  0  0  0  0  0  0  # atno 8008 bound_to 7997
  154.6786  140.0542  157.0266 H   0  0  0  0  0  0  0  0  0  0  0  0  # atno 8009 bound_to 7997
  155.1033  140.3208  155.4544 H   0  0  0  0  0  0  0  0  0  0  0  0  # atno 8010 bound_to 7997
  140.5719  143.9145  150.6719 H   0  0  0  0  0  0  0  0  0  0  0  0  # atno 10167 bound_to 10162
  157.6958  131.0357  150.3524 H   0  0  0  0  0  0  0  0  0  0  0  0  # atno 10718 bound_to 10713
  153.0322  135.6441  154.1182 H   0  0  0  0  0  0  0  0  0  0  0  0  # atno 10763 bound_to 10752
  154.0903  135.2867  155.3274 H   0  0  0  0  0  0  0  0  0  0  0  0  # atno 10764 bound_to 10752
  154.6469  135.5440  153.7919 H   0  0  0  0  0  0  0  0  0  0  0  0  # atno 10765 bound_to 10752
  141.0828  133.9190  157.2251 H   0  0  0  0  0  0  0  0  0  0  0  0  # atno 11005 bound_to 11000
  145.6694  141.0220  143.1666 LP  0  0  0  0  0  0  0  0  0  0  0  0  # atno 17320 bound_to 7965
  144.7132  139.8293  143.7407 LP  0  0  0  0  0  0  0  0  0  0  0  0  # atno 17321 bound_to 7965
  140.2623  143.3515  152.1312 LP  0  0  0  0  0  0  0  0  0  0  0  0  # atno 17342 bound_to 10162
  139.5122  144.6913  151.5753 LP  0  0  0  0  0  0  0  0  0  0  0  0  # atno 17343 bound_to 10162
  156.3971  130.3909  149.6987 LP  0  0  0  0  0  0  0  0  0  0  0  0  # atno 17370 bound_to 10713
  156.4317  130.7818  151.2838 LP  0  0  0  0  0  0  0  0  0  0  0  0  # atno 17371 bound_to 10713
  139.9643  135.0146  156.9345 LP  0  0  0  0  0  0  0  0  0  0  0  0  # atno 17394 bound_to 11000
  140.5430  134.0701  155.7347 LP  0  0  0  0  0  0  0  0  0  0  0  0  # atno 17395 bound_to 11000

$$$$
