AV-unprocessed.smi:573|AV-procd|sdf|2974|dock10
  -GOLD-   2262023483D 1   1.00000     0.00000
 Structure written by MMmdl.
 44 46  0  0  0  0  0  0  0  0  1 V2000
  148.2150  141.6016  154.4256 C   0  0  0  0  0  0  0  0  0  0  0  0
  148.6151  140.1205  154.4367 C   0  0  1  0  0  0  0  0  0  0  0  0
  148.1242  139.5449  153.2442 O   0  0  0  0  0  0  0  0  0  0  0  0
  150.1425  139.9412  154.4897 C   0  0  0  0  0  0  0  0  0  0  0  0
  150.6511  139.9330  155.8499 N   0  0  0  0  0  0  0  0  0  0  0  0
  151.0399  140.9499  156.7141 C   0  0  0  0  0  0  0  0  0  0  0  0
  151.0056  142.2446  156.4049 N   0  0  0  0  0  0  0  0  0  0  0  0
  151.4696  142.8357  157.5651 C   0  0  0  0  0  0  0  0  0  0  0  0
  151.6703  144.1980  157.8834 C   0  0  0  0  0  0  0  0  0  0  0  0
  152.1567  144.5702  159.1538 C   0  0  0  0  0  0  0  0  0  0  0  0
  152.4477  143.5881  160.1228 C   0  0  0  0  0  0  0  0  0  0  0  0
  152.2573  142.2247  159.8263 C   0  0  0  0  0  0  0  0  0  0  0  0
  151.7743  141.8574  158.5561 C   0  0  0  0  0  0  0  0  0  0  0  0
  151.4839  140.6365  157.9541 N   0  0  0  0  0  0  0  0  0  0  0  0
  151.6280  139.3165  158.5519 C   0  0  0  0  0  0  0  0  0  0  0  0
  152.7663  139.2724  159.5843 C   0  0  1  0  0  0  0  0  0  0  0  0
  152.9353  137.8680  160.1940 C   0  0  0  0  0  0  0  0  0  0  0  0
  154.1242  137.8395  161.1610 C   0  0  0  0  0  0  0  0  0  0  0  0
  155.3750  138.3755  160.4567 C   0  0  0  0  0  0  0  0  0  0  0  0
  155.0891  139.7510  159.8338 C   0  0  0  0  0  0  0  0  0  0  0  0
  153.9811  139.6598  158.9440 O   0  0  0  0  0  0  0  0  0  0  0  0
  148.5536  142.1054  155.3313 H   0  0  0  0  0  0  0  0  0  0  0  0
  147.1318  141.7164  154.3717 H   0  0  0  0  0  0  0  0  0  0  0  0
  148.6489  142.1251  153.5729 H   0  0  0  0  0  0  0  0  0  0  0  0
  148.1443  139.6337  155.2920 H   0  0  0  0  0  0  0  0  0  0  0  0
  148.8064  139.5876  152.5906 H   0  0  0  0  0  0  0  0  0  0  0  0
  150.4534  139.0373  153.9643 H   0  0  0  0  0  0  0  0  0  0  0  0
  150.6253  140.7771  153.9829 H   0  0  0  0  0  0  0  0  0  0  0  0
  150.7488  139.0042  156.2335 H   0  0  0  0  0  0  0  0  0  0  0  0
  151.4483  144.9580  157.1491 H   0  0  0  0  0  0  0  0  0  0  0  0
  152.3058  145.6144  159.3864 H   0  0  0  0  0  0  0  0  0  0  0  0
  152.8169  143.8820  161.0944 H   0  0  0  0  0  0  0  0  0  0  0  0
  152.4764  141.4703  160.5675 H   0  0  0  0  0  0  0  0  0  0  0  0
  150.6816  139.0287  159.0107 H   0  0  0  0  0  0  0  0  0  0  0  0
  151.8127  138.5933  157.7567 H   0  0  0  0  0  0  0  0  0  0  0  0
  152.5445  139.9859  160.3803 H   0  0  0  0  0  0  0  0  0  0  0  0
  152.0253  137.5689  160.7148 H   0  0  0  0  0  0  0  0  0  0  0  0
  153.0955  137.1383  159.3991 H   0  0  0  0  0  0  0  0  0  0  0  0
  153.9024  138.4537  162.0347 H   0  0  0  0  0  0  0  0  0  0  0  0
  154.2954  136.8260  161.5246 H   0  0  0  0  0  0  0  0  0  0  0  0
  156.2054  138.4436  161.1601 H   0  0  0  0  0  0  0  0  0  0  0  0
  155.6823  137.6793  159.6753 H   0  0  0  0  0  0  0  0  0  0  0  0
  154.8884  140.4947  160.6065 H   0  0  0  0  0  0  0  0  0  0  0  0
  155.9595  140.0979  159.2769 H   0  0  0  0  0  0  0  0  0  0  0  0
  1  2  1  0  0  0  0
  1 22  1  0  0  0  0
  1 23  1  0  0  0  0
  1 24  1  0  0  0  0
  2  3  1  0  0  0  0
  2  4  1  0  0  0  0
  2 25  1  0  0  0  0
  3 26  1  0  0  0  0
  4  5  1  0  0  0  0
  4 27  1  0  0  0  0
  4 28  1  0  0  0  0
  5  6  1  0  0  0  0
  5 29  1  0  0  0  0
  6 14  1  0  0  0  0
  6  7  2  0  0  0  0
  7  8  1  0  0  0  0
  8 13  2  0  0  0  0
  8  9  1  0  0  0  0
  9 10  2  0  0  0  0
  9 30  1  0  0  0  0
 10 11  1  0  0  0  0
 10 31  1  0  0  0  0
 11 12  2  0  0  0  0
 11 32  1  0  0  0  0
 12 13  1  0  0  0  0
 12 33  1  0  0  0  0
 13 14  1  0  0  0  0
 14 15  1  0  0  0  0
 15 16  1  0  0  0  0
 15 34  1  0  0  0  0
 15 35  1  0  0  0  0
 16 21  1  0  0  0  0
 16 17  1  0  0  0  0
 16 36  1  0  0  0  0
 17 18  1  0  0  0  0
 17 37  1  0  0  0  0
 17 38  1  0  0  0  0
 18 19  1  0  0  0  0
 18 39  1  0  0  0  0
 18 40  1  0  0  0  0
 19 20  1  0  0  0  0
 19 41  1  0  0  0  0
 19 42  1  0  0  0  0
 20 21  1  0  0  0  0
 20 43  1  0  0  0  0
 20 44  1  0  0  0  0
M  END
> <s_m_source_file>
AV-unprocessed.smi

> <i_m_source_file_index>
573

> <i_lp_mmshare_version>
43012

> <i_f3d_flags>
0

> <s_epik_input>
W0NIM11bQ0BIXShbT0hdKVtDSDJdW05IXWMobjEpbihjKGMxMilbY0hdW2NIXVtjSF1bY0hdMilbQ0gyXVtDQEBIXTNbQ0gyXVtDSDJdW0NIMl1bQ0gyXU8z

> <s_epik_cmdline>
J2VwaWtfcHl0aG9uJywgJy1waCcsICc3LjAnLCAnLXRuJywgJzgnLCAnLW1hJywgJzIwMCcsICctbWV0YWxfYmluZGluZycsICctaW1hZScsICc8aW5maWxlLm1hZT4nLCAnLW9tYWUnLCAnPG91dGZpbGUubWFlPic=

> <r_epik_Ionization_Penalty>
1.30635

> <r_epik_Ionization_Penalty_Charging>
0

> <r_epik_Ionization_Penalty_Neutral>
1.30635

> <r_epik_State_Penalty>
1.38073

> <r_epik_Charging_Adjusted_Penalty>
1.38073

> <i_epik_Tot_Q>
0

> <i_epik_Tot_abs_Q>
0

> <r_epik_Metal_State_Penalty>
0.00547412

> <b_epik_Metal_Only>
0

> <s_lp_Force_Field>
OPLS_2005

> <r_lp_Energy>
9.01344

> <b_lp_Chiralities_Consistent>
1

> <s_lp_Variant>
AV-unprocessed.smi:573-8

> <Gold.Version>
5.8.1

> <Gold.Id.Protein>
6NUR|6NUR_protein|mol2

> <Gold.PLP.Fitness>
47.4980

> <Gold.PLP.PLP>
-43.2252

> <Gold.PLP.part.hbond>
-2.0000

> <Gold.PLP.part.metal>
0.0000

> <Gold.PLP.part.buried>
-4.0619

> <Gold.PLP.part.nonpolar>
-38.1705

> <Gold.PLP.part.repulsive>
0.1796

> <Gold.PLP.ligand.clash>
0.0000

> <Gold.PLP.ligand.torsion>
0.8686

> <Gold.PLP.Chemscore.Hbond>
2.0000

> <Gold.PLP.Chemscore.CHOScore>
0.0000

> <Gold.PLP.Chemscore.Metal>
0.0000

> <Gold.Chemscore.Hbonds>
donor molecule, donor type, donor heavy atom, donor atom, acceptor molecule, acceptor atom, score
      L1  H     3    26       P1  7957  1.00
      P1  H  7997  8010       L1    21  1.00

> <Gold.PLP.Chemscore.Internal.Correction>
0.0101

> <Gold.Rescore>
     Score         DG    S(hbond)    S(metal)    S(lipo)     H(rot)  DE(clash)    DE(int)     intcor
     18.26     -19.90       1.65        0.00     120.35       2.02       0.01       1.63       ----

> <Gold.Chemscore.Fitness>
18.2621

> <Gold.Chemscore.DG>
-19.9031

> <Gold.Chemscore.ZeroCoef>
-5.4800

> <Gold.Chemscore.Hbond>
1.6526

> <Gold.Chemscore.Metal>
0.0000

> <Gold.Chemscore.Lipo>
120.3483

> <Gold.Chemscore.Internal_Hbond>
0.0000

> <Gold.Chemscore.DEClash>
0.0089

> <Gold.Chemscore.DEInternal>
1.6321

> <Gold.Chemscore.Rot>
2.0224

> <Gold.Chemscore.Internal.Correction>
   9.000000E+99

> <Gold.Chemscore.Hbonds>
donor molecule, donor type, donor heavy atom, donor atom, acceptor molecule, acceptor atom, score
      L1  H     3    26       P1  7957  0.99
      P1  H  7997  8010       L1    21  0.56

> <Gold.Chemscore.Hbond.Weighted>
-5.5197

> <Gold.Chemscore.Metal.Weighted>
-0.0000

> <Gold.Chemscore.Lipo.Weighted>
-14.0808

> <Gold.Chemscore.Internal_Hbond.Weighted>
0.0000

> <Gold.Chemscore.DEClash.Weighted>
0.0089

> <Gold.Chemscore.DEInternal.Weighted>
1.6321

> <Gold.Chemscore.Rot.Weighted>
5.1773

> <Gold.Chemscore.Internal.Correction.Weighted>
   9.000000E+99

> <Gold.Protein.RotatedTorsions>
[ 6907 6896 6895 6894 ] final  140.71 input  -60.11 | X-H torsion
[ 7974 7965 7964 7962 ] final   35.14 input  175.53 | X-H torsion
[ 8008 7997 7996 7995 ] final   29.09 input   59.86 | X-H torsion
[ 10167 10162 10161 10158 ] final  -61.28 input  -65.29 | X-H torsion
[ 10718 10713 10712 10709 ] final -139.47 input   66.30 | X-H torsion
[ 10763 10752 10751 10750 ] final   25.79 input  -60.55 | X-H torsion
[ 11005 11000 10999 10996 ] final   78.85 input  -57.11 | X-H torsion

> <Gold.Protein.ActiveResidues>
 VAL166  LYS551  ARG553  GLY616  TRP617  ASP618  TYR619  PRO620  LYS621  CYS622 
 ASP623  PHE694  ASN695  SER759  ASP760  ASP761  ALA762  ILE779  LEU786  VAL792 
 PHE793  MET794  SER795  GLU796  ALA797  LYS798  CYS799  TRP800  GLU811  SER814 

> <Gold.Protein.RotatedAtoms>
  152.2398  133.5126  159.5263 H   0  0  0  0  0  0  0  0  0  0  0  0  # atno 6907 bound_to 6896
  150.7061  134.1104  159.4007 H   0  0  0  0  0  0  0  0  0  0  0  0  # atno 6908 bound_to 6896
  151.9025  135.0372  160.0558 H   0  0  0  0  0  0  0  0  0  0  0  0  # atno 6909 bound_to 6896
  146.1304  139.6180  142.9230 H   0  0  0  0  0  0  0  0  0  0  0  0  # atno 7974 bound_to 7965
  155.0690  140.3198  155.4636 H   0  0  0  0  0  0  0  0  0  0  0  0  # atno 8008 bound_to 7997
  156.2795  140.2115  156.5762 H   0  0  0  0  0  0  0  0  0  0  0  0  # atno 8009 bound_to 7997
  154.7071  140.0501  157.0501 H   0  0  0  0  0  0  0  0  0  0  0  0  # atno 8010 bound_to 7997
  140.6016  143.2363  151.5916 H   0  0  0  0  0  0  0  0  0  0  0  0  # atno 10167 bound_to 10162
  156.3111  130.7482  151.1558 H   0  0  0  0  0  0  0  0  0  0  0  0  # atno 10718 bound_to 10713
  153.0667  135.6575  154.0338 H   0  0  0  0  0  0  0  0  0  0  0  0  # atno 10763 bound_to 10752
  153.9993  135.2938  155.3405 H   0  0  0  0  0  0  0  0  0  0  0  0  # atno 10764 bound_to 10752
  154.7027  135.5238  153.8620 H   0  0  0  0  0  0  0  0  0  0  0  0  # atno 10765 bound_to 10752
  139.9196  134.7796  156.1703 H   0  0  0  0  0  0  0  0  0  0  0  0  # atno 11005 bound_to 11000
  145.5273  141.0429  143.2402 LP  0  0  0  0  0  0  0  0  0  0  0  0  # atno 17320 bound_to 7965
  144.7685  139.6790  143.7205 LP  0  0  0  0  0  0  0  0  0  0  0  0  # atno 17321 bound_to 7965
  139.5295  144.2958  152.1114 LP  0  0  0  0  0  0  0  0  0  0  0  0  # atno 17342 bound_to 10162
  140.2140  144.4534  150.6372 LP  0  0  0  0  0  0  0  0  0  0  0  0  # atno 17343 bound_to 10162
  157.7391  131.0533  150.5253 LP  0  0  0  0  0  0  0  0  0  0  0  0  # atno 17370 bound_to 10713
  156.5392  130.4204  149.6162 LP  0  0  0  0  0  0  0  0  0  0  0  0  # atno 17371 bound_to 10713
  141.0704  133.6799  156.2129 LP  0  0  0  0  0  0  0  0  0  0  0  0  # atno 17394 bound_to 11000
  140.6516  134.5061  157.5578 LP  0  0  0  0  0  0  0  0  0  0  0  0  # atno 17395 bound_to 11000

$$$$
