AV-unprocessed.smi:3176|AV-procd|sdf|12125|dock7
  -GOLD-   2272017563D 1   1.00000     0.00000
 Structure written by MMmdl.
 32 33  0  0  0  0  0  0  0  0  1 V2000
  150.1172  140.1440  154.3317 O   0  0  0  0  0  0  0  0  0  0  0  0
  149.4507  141.1539  154.5592 C   0  0  0  0  0  0  0  0  0  0  0  0
  149.7993  142.0624  155.4837 N   0  0  0  0  0  0  0  0  0  0  0  0
  150.9300  141.9456  156.3991 C   0  0  0  0  0  0  0  0  0  0  0  0
  150.4988  141.5410  157.8235 C   0  0  0  0  0  0  0  0  0  0  0  0
  151.6171  141.6472  158.8475 C   0  0  0  0  0  0  0  0  0  0  0  0
  152.0396  142.9071  159.3238 C   0  0  0  0  0  0  0  0  0  0  0  0
  153.0986  142.9543  160.2503 C   0  0  0  0  0  0  0  0  0  0  0  0
  153.6884  141.7456  160.6669 C   0  0  0  0  0  0  0  0  0  0  0  0
  153.1909  140.5388  160.1357 C   0  0  0  0  0  0  0  0  0  0  0  0
  152.1778  140.4826  159.2443 N   0  0  0  0  0  0  0  0  0  0  0  0
  148.1562  141.4247  153.7744 C   0  0  1  0  0  0  0  0  0  0  0  0
  146.9304  140.6572  154.3040 C   0  0  0  0  0  0  0  0  0  0  0  0
  146.1506  141.7162  155.0542 C   0  0  0  0  0  0  0  0  0  0  0  0
  146.4480  142.9551  154.2236 C   0  0  0  0  0  0  0  0  0  0  0  0
  147.8182  142.8117  153.8791 O   0  0  0  0  0  0  0  0  0  0  0  0
  149.2000  142.8674  155.5988 H   0  0  0  0  0  0  0  0  0  0  0  0
  151.6675  141.2435  156.0075 H   0  0  0  0  0  0  0  0  0  0  0  0
  151.4191  142.9192  156.4334 H   0  0  0  0  0  0  0  0  0  0  0  0
  149.6668  142.1685  158.1454 H   0  0  0  0  0  0  0  0  0  0  0  0
  150.1165  140.5196  157.8161 H   0  0  0  0  0  0  0  0  0  0  0  0
  151.5717  143.8173  158.9786 H   0  0  0  0  0  0  0  0  0  0  0  0
  153.4531  143.9004  160.6318 H   0  0  0  0  0  0  0  0  0  0  0  0
  154.5024  141.7430  161.3765 H   0  0  0  0  0  0  0  0  0  0  0  0
  153.6195  139.5933  160.4332 H   0  0  0  0  0  0  0  0  0  0  0  0
  148.3296  141.1742  152.7274 H   0  0  0  0  0  0  0  0  0  0  0  0
  146.3397  140.2886  153.4643 H   0  0  0  0  0  0  0  0  0  0  0  0
  147.1658  139.7994  154.9352 H   0  0  0  0  0  0  0  0  0  0  0  0
  145.0857  141.4951  155.1264 H   0  0  0  0  0  0  0  0  0  0  0  0
  146.5471  141.8345  156.0630 H   0  0  0  0  0  0  0  0  0  0  0  0
  145.8462  142.9632  153.3136 H   0  0  0  0  0  0  0  0  0  0  0  0
  146.2661  143.8823  154.7669 H   0  0  0  0  0  0  0  0  0  0  0  0
  1  2  2  0  0  0  0
  2  3  1  0  0  0  0
  2 12  1  0  0  0  0
  3  4  1  0  0  0  0
  3 17  1  0  0  0  0
  4  5  1  0  0  0  0
  4 18  1  0  0  0  0
  4 19  1  0  0  0  0
  5  6  1  0  0  0  0
  5 20  1  0  0  0  0
  5 21  1  0  0  0  0
  6 11  1  0  0  0  0
  6  7  2  0  0  0  0
  7  8  1  0  0  0  0
  7 22  1  0  0  0  0
  8  9  2  0  0  0  0
  8 23  1  0  0  0  0
  9 10  1  0  0  0  0
  9 24  1  0  0  0  0
 10 11  2  0  0  0  0
 10 25  1  0  0  0  0
 12 16  1  0  0  0  0
 12 13  1  0  0  0  0
 12 26  1  0  0  0  0
 13 14  1  0  0  0  0
 13 27  1  0  0  0  0
 13 28  1  0  0  0  0
 14 15  1  0  0  0  0
 14 29  1  0  0  0  0
 14 30  1  0  0  0  0
 15 16  1  0  0  0  0
 15 31  1  0  0  0  0
 15 32  1  0  0  0  0
M  END
> <s_m_source_file>
AV-unprocessed.smi

> <i_m_source_file_index>
3176

> <i_lp_mmshare_version>
43012

> <i_f3d_flags>
0

> <s_epik_input>
TzFbQ0gyXVtDSDJdW0NIMl1bQ0BIXTFDKD1PKVtOSF1bQ0gyXVtDSDJdYzJbY0hdW2NIXVtjSF1bY0hdbjI=

> <s_epik_cmdline>
J2VwaWtfcHl0aG9uJywgJy1waCcsICc3LjAnLCAnLXRuJywgJzgnLCAnLW1hJywgJzIwMCcsICctbWV0YWxfYmluZGluZycsICctaW1hZScsICc8aW5maWxlLm1hZT4nLCAnLW9tYWUnLCAnPG91dGZpbGUubWFlPic=

> <r_epik_Ionization_Penalty>
0.0282744

> <r_epik_Ionization_Penalty_Charging>
0

> <r_epik_Ionization_Penalty_Neutral>
0.0282744

> <r_epik_State_Penalty>
0.0231919

> <r_epik_Charging_Adjusted_Penalty>
0.0231919

> <i_epik_Tot_Q>
0

> <i_epik_Tot_abs_Q>
0

> <r_epik_Metal_State_Penalty>
0.02213

> <b_epik_Metal_Only>
0

> <s_lp_Force_Field>
OPLS_2005

> <r_lp_Energy>
16.341

> <b_lp_Chiralities_Consistent>
1

> <s_lp_Variant>
AV-unprocessed.smi:3176-2

> <Gold.Version>
5.8.1

> <Gold.Id.Protein>
6NUR|6NUR_protein|mol2

> <Gold.PLP.Fitness>
41.0637

> <Gold.PLP.PLP>
-35.2015

> <Gold.PLP.part.hbond>
-4.0000

> <Gold.PLP.part.metal>
0.0000

> <Gold.PLP.part.buried>
-1.7129

> <Gold.PLP.part.nonpolar>
-30.1652

> <Gold.PLP.part.repulsive>
2.4843

> <Gold.PLP.ligand.clash>
0.0000

> <Gold.PLP.ligand.torsion>
0.8991

> <Gold.PLP.Chemscore.Hbond>
2.5499

> <Gold.PLP.Chemscore.CHOScore>
0.0000

> <Gold.PLP.Chemscore.Metal>
0.0000

> <Gold.Chemscore.Hbonds>
donor molecule, donor type, donor heavy atom, donor atom, acceptor molecule, acceptor atom, score
      L1  H     3    17       P1  8028  1.00
      P1  H  7989  7998       L1     1  1.00
      P1  H  8022  8030       L1    16  0.61

> <Gold.PLP.Chemscore.Internal.Correction>
0.0107

> <Gold.Rescore>
     Score         DG    S(hbond)    S(metal)    S(lipo)     H(rot)  DE(clash)    DE(int)     intcor
     17.22     -19.85       2.43        0.00      86.76       1.52       1.68       0.95       ----

> <Gold.Chemscore.Fitness>
17.2237

> <Gold.Chemscore.DG>
-19.8502

> <Gold.Chemscore.ZeroCoef>
-5.4800

> <Gold.Chemscore.Hbond>
2.4252

> <Gold.Chemscore.Metal>
0.0000

> <Gold.Chemscore.Lipo>
86.7589

> <Gold.Chemscore.Internal_Hbond>
0.0000

> <Gold.Chemscore.DEClash>
1.6757

> <Gold.Chemscore.DEInternal>
0.9508

> <Gold.Chemscore.Rot>
1.5159

> <Gold.Chemscore.Internal.Correction>
   9.000000E+99

> <Gold.Chemscore.Hbonds>
donor molecule, donor type, donor heavy atom, donor atom, acceptor molecule, acceptor atom, score
      L1  H     3    17       P1  8028  0.97
      P1  H  7989  7998       L1     1  0.29
      P1  H  8022  8030       L1    16  0.34

> <Gold.Chemscore.Hbond.Weighted>
-8.1001

> <Gold.Chemscore.Metal.Weighted>
-0.0000

> <Gold.Chemscore.Lipo.Weighted>
-10.1508

> <Gold.Chemscore.Internal_Hbond.Weighted>
0.0000

> <Gold.Chemscore.DEClash.Weighted>
1.6757

> <Gold.Chemscore.DEInternal.Weighted>
0.9508

> <Gold.Chemscore.Rot.Weighted>
3.8807

> <Gold.Chemscore.Internal.Correction.Weighted>
   9.000000E+99

> <Gold.Protein.RotatedTorsions>
[ 6907 6896 6895 6894 ] final   58.34 input  -60.11 | X-H torsion
[ 7974 7965 7964 7962 ] final  -18.44 input  175.53 | X-H torsion
[ 8008 7997 7996 7995 ] final  -16.44 input   59.86 | X-H torsion
[ 10167 10162 10161 10158 ] final  162.22 input  -65.29 | X-H torsion
[ 10718 10713 10712 10709 ] final   -1.61 input   66.30 | X-H torsion
[ 10763 10752 10751 10750 ] final  154.15 input  -60.55 | X-H torsion
[ 11005 11000 10999 10996 ] final  -14.26 input  -57.11 | X-H torsion

> <Gold.Protein.ActiveResidues>
 VAL166  LYS551  ARG553  GLY616  TRP617  ASP618  TYR619  PRO620  LYS621  CYS622 
 ASP623  PHE694  ASN695  SER759  ASP760  ASP761  ALA762  ILE779  LEU786  VAL792 
 PHE793  MET794  SER795  GLU796  ALA797  LYS798  CYS799  TRP800  GLU811  SER814 

> <Gold.Protein.RotatedAtoms>
  152.3815  134.6583  160.0140 H   0  0  0  0  0  0  0  0  0  0  0  0  # atno 6907 bound_to 6896
  151.6844  133.3306  159.3235 H   0  0  0  0  0  0  0  0  0  0  0  0  # atno 6908 bound_to 6896
  150.7751  134.6688  159.6425 H   0  0  0  0  0  0  0  0  0  0  0  0  # atno 6909 bound_to 6896
  146.1892  140.3921  142.8464 H   0  0  0  0  0  0  0  0  0  0  0  0  # atno 7974 bound_to 7965
  154.5053  140.2169  155.9264 H   0  0  0  0  0  0  0  0  0  0  0  0  # atno 8008 bound_to 7997
  156.1485  140.3166  155.8577 H   0  0  0  0  0  0  0  0  0  0  0  0  # atno 8009 bound_to 7997
  155.3984  140.0482  157.3028 H   0  0  0  0  0  0  0  0  0  0  0  0  # atno 8010 bound_to 7997
  139.4858  144.4459  151.8893 H   0  0  0  0  0  0  0  0  0  0  0  0  # atno 10167 bound_to 10162
  156.8031  130.5399  149.5719 H   0  0  0  0  0  0  0  0  0  0  0  0  # atno 10718 bound_to 10713
  154.1477  135.2817  155.3144 H   0  0  0  0  0  0  0  0  0  0  0  0  # atno 10763 bound_to 10752
  154.6240  135.5457  153.7610 H   0  0  0  0  0  0  0  0  0  0  0  0  # atno 10764 bound_to 10752
  153.0230  135.6446  154.1622 H   0  0  0  0  0  0  0  0  0  0  0  0  # atno 10765 bound_to 10752
  140.7846  133.8336  155.9323 H   0  0  0  0  0  0  0  0  0  0  0  0  # atno 11005 bound_to 11000
  144.8454  140.6921  143.6202 LP  0  0  0  0  0  0  0  0  0  0  0  0  # atno 17320 bound_to 7965
  145.3845  139.1629  143.4262 LP  0  0  0  0  0  0  0  0  0  0  0  0  # atno 17321 bound_to 7965
  140.3913  144.2612  150.5899 LP  0  0  0  0  0  0  0  0  0  0  0  0  # atno 17342 bound_to 10162
  140.5143  143.2282  151.8486 LP  0  0  0  0  0  0  0  0  0  0  0  0  # atno 17343 bound_to 10162
  156.1089  130.6026  151.0016 LP  0  0  0  0  0  0  0  0  0  0  0  0  # atno 17370 bound_to 10713
  157.6544  131.0892  150.7980 LP  0  0  0  0  0  0  0  0  0  0  0  0  # atno 17371 bound_to 10713
  140.9449  134.1853  157.4771 LP  0  0  0  0  0  0  0  0  0  0  0  0  # atno 17394 bound_to 11000
  139.8738  134.9886  156.5421 LP  0  0  0  0  0  0  0  0  0  0  0  0  # atno 17395 bound_to 11000

$$$$
