AV-unprocessed.smi:72|AV-procd|sdf|742|dock9
  -GOLD-   2262017 73D 1   1.00000     0.00000
 Structure written by MMmdl.
 28 29  0  0  0  0  0  0  0  0  2 V2000
  152.2458  135.5804  156.6376 N   0  0  0  0  0  0  0  0  0  0  0  0
  151.8289  136.7242  156.3090 C   0  0  0  0  0  0  0  0  0  0  0  0
  150.4662  137.1101  156.6048 N   0  0  0  0  0  0  0  0  0  0  0  0
  150.0762  138.2890  156.2278 C   0  0  0  0  0  0  0  0  0  0  0  0
  150.9623  139.2006  155.5166 N   0  0  0  0  0  0  0  0  0  0  0  0
  150.5036  140.5802  155.0956 C   0  0  1  0  0  0  0  0  0  0  0  0
  149.4855  140.4613  154.1429 O   0  0  0  0  0  0  0  0  0  0  0  0
  148.3944  141.3116  154.4825 C   0  0  1  0  0  0  0  0  0  0  0  0
  147.0899  140.7381  153.9082 C   0  0  0  0  0  0  0  0  0  0  0  0
  147.2457  140.4508  152.5349 O   0  0  0  0  0  0  0  0  0  0  0  0
  148.4409  141.3132  156.0106 C   0  0  2  0  0  0  0  0  0  0  0  0
  147.7346  142.3931  156.5920 O   0  0  0  0  0  0  0  0  0  0  0  0
  149.9365  141.3443  156.3027 C   0  0  2  0  0  0  0  0  0  0  0  0
  150.4593  142.6588  156.3581 O   0  0  0  0  0  0  0  0  0  0  0  0
  152.3054  138.8101  155.2723 C   0  0  0  0  0  0  0  0  0  0  0  0
  153.0527  139.6152  154.7157 O   0  0  0  0  0  0  0  0  0  0  0  0
  152.7091  137.5722  155.6732 N   0  5  0  0  0  0  0  0  0  0  0  0
  151.3652  141.0594  154.6276 H   0  0  0  0  0  0  0  0  0  0  0  0
  148.5886  142.3184  154.1070 H   0  0  0  0  0  0  0  0  0  0  0  0
  148.0266  140.3771  156.3883 H   0  0  0  0  0  0  0  0  0  0  0  0
  150.1744  140.8395  157.2403 H   0  0  0  0  0  0  0  0  0  0  0  0
  151.5397  135.0241  157.0971 H   0  0  0  0  0  0  0  0  0  0  0  0
  149.0728  138.6682  156.4234 H   0  0  0  0  0  0  0  0  0  0  0  0
  146.7771  139.8454  154.4507 H   0  0  0  0  0  0  0  0  0  0  0  0
  146.2867  141.4697  153.9986 H   0  0  0  0  0  0  0  0  0  0  0  0
  148.1673  140.3520  152.3514 H   0  0  0  0  0  0  0  0  0  0  0  0
  147.8815  143.1630  156.0643 H   0  0  0  0  0  0  0  0  0  0  0  0
  149.7821  143.2590  156.0844 H   0  0  0  0  0  0  0  0  0  0  0  0
  1  2  2  0  0  0  0
  1 22  1  0  0  0  0
  2 17  1  0  0  0  0
  2  3  1  0  0  0  0
  3  4  2  0  0  0  0
  4  5  1  0  0  0  0
  4 23  1  0  0  0  0
  5  6  1  0  0  0  0
  5 15  1  0  0  0  0
  6 18  1  0  0  0  0
  6 13  1  0  0  0  0
  6  7  1  0  0  0  0
  7  8  1  0  0  0  0
  8 19  1  0  0  0  0
  8  9  1  0  0  0  0
  8 11  1  0  0  0  0
  9 10  1  0  0  0  0
  9 24  1  0  0  0  0
  9 25  1  0  0  0  0
 10 26  1  0  0  0  0
 11 20  1  0  0  0  0
 11 12  1  0  0  0  0
 11 13  1  0  0  0  0
 12 27  1  0  0  0  0
 13 21  1  0  0  0  0
 13 14  1  0  0  0  0
 14 28  1  0  0  0  0
 15 16  2  0  0  0  0
 15 17  1  0  0  0  0
M  CHG  1  17  -1
M  END
> <s_m_source_file>
AV-unprocessed.smi

> <i_m_source_file_index>
72

> <i_lp_mmshare_version>
43012

> <i_f3d_flags>
0

> <s_epik_input>
W05IMl1jMW5bY0hdbihjKD1PKW4xKVtDQEBIXTJPW0NASF0oW0NIMl1bT0hdKVtDQEBIXShbT0hdKVtDQEhdMltPSF0=

> <s_epik_cmdline>
J2VwaWtfcHl0aG9uJywgJy1waCcsICc3LjAnLCAnLXRuJywgJzgnLCAnLW1hJywgJzIwMCcsICctbWV0YWxfYmluZGluZycsICctaW1hZScsICc8aW5maWxlLm1hZT4nLCAnLW9tYWUnLCAnPG91dGZpbGUubWFlPic=

> <r_lp_tautomer_probability>
7.17554e-07

> <r_epik_Ionization_Penalty>
12.8705

> <r_epik_Ionization_Penalty_Charging>
5.64144

> <r_epik_Ionization_Penalty_Neutral>
7.22905

> <r_epik_State_Penalty>
3.30104

> <r_epik_Charging_Adjusted_Penalty>
8.94249

> <i_epik_Tot_Q>
-1

> <i_epik_Tot_abs_Q>
1

> <r_epik_Metal_State_Penalty>
0.529074

> <b_epik_Metal_Only>
1

> <s_epik_Chemistry_Notes>
This compound contains an acetal/aminal-like group ( X-CH(R)-Y where X, Y are N, S, or O) that may be acid/base labile, releasing an aldehyde.

> <s_lp_Force_Field>
OPLS_2005

> <r_lp_Energy>
36.1714

> <b_lp_Chiralities_Consistent>
1

> <s_lp_Variant>
AV-unprocessed.smi:72-80

> <Gold.Version>
5.8.1

> <Gold.Id.Protein>
6NUR|6NUR_protein|mol2

> <Gold.PLP.Fitness>
39.6965

> <Gold.PLP.PLP>
-24.3232

> <Gold.PLP.part.hbond>
-7.9636

> <Gold.PLP.part.metal>
0.0000

> <Gold.PLP.part.buried>
-1.4055

> <Gold.PLP.part.nonpolar>
-15.5903

> <Gold.PLP.part.repulsive>
0.8891

> <Gold.PLP.ligand.clash>
0.0000

> <Gold.PLP.ligand.torsion>
0.1171

> <Gold.PLP.Chemscore.Hbond>
5.1953

> <Gold.PLP.Chemscore.CHOScore>
0.0000

> <Gold.PLP.Chemscore.Metal>
0.0000

> <Gold.Chemscore.Hbonds>
donor molecule, donor type, donor heavy atom, donor atom, acceptor molecule, acceptor atom, score
      L1  H    10    26       P1  7957  1.00
      L1  H    12    27       P1  8028  1.00
      L1  H    14    28       P1  8028  1.00
      P1  H  7989  7998       L1    16  0.20
      P1  H  7997  8009       L1    16  1.00
      P1  H 10752 10763       L1     1  1.00

> <Gold.PLP.Chemscore.Internal.Correction>
0.0215

> <Gold.Rescore>
     Score         DG    S(hbond)    S(metal)    S(lipo)     H(rot)  DE(clash)    DE(int)     intcor
      8.06      -8.52       3.21        0.00      22.68       4.04       0.33       0.13       ----

> <Gold.Chemscore.Fitness>
8.0585

> <Gold.Chemscore.DG>
-8.5166

> <Gold.Chemscore.ZeroCoef>
-5.4800

> <Gold.Chemscore.Hbond>
3.2114

> <Gold.Chemscore.Metal>
0.0000

> <Gold.Chemscore.Lipo>
22.6796

> <Gold.Chemscore.Internal_Hbond>
0.0000

> <Gold.Chemscore.DEClash>
0.3314

> <Gold.Chemscore.DEInternal>
0.1267

> <Gold.Chemscore.Rot>
4.0403

> <Gold.Chemscore.Internal.Correction>
   9.000000E+99

> <Gold.Chemscore.Hbonds>
donor molecule, donor type, donor heavy atom, donor atom, acceptor molecule, acceptor atom, score
      L1  H    10    26       P1  7957  0.94
      L1  H    12    27       P1  8028  0.29
      L1  H    14    28       P1  8028  1.00
      P1  H  7989  7998       L1    16  0.10
      P1  H  7997  8009       L1    16  0.65
      P1  H 10752 10763       L1     1  0.24

> <Gold.Chemscore.Hbond.Weighted>
-10.7262

> <Gold.Chemscore.Metal.Weighted>
-0.0000

> <Gold.Chemscore.Lipo.Weighted>
-2.6535

> <Gold.Chemscore.Internal_Hbond.Weighted>
0.0000

> <Gold.Chemscore.DEClash.Weighted>
0.3314

> <Gold.Chemscore.DEInternal.Weighted>
0.1267

> <Gold.Chemscore.Rot.Weighted>
10.3431

> <Gold.Chemscore.Internal.Correction.Weighted>
   9.000000E+99

> <Gold.Protein.RotatedTorsions>
[ 6907 6896 6895 6894 ] final  153.03 input  -60.11 | X-H torsion
[ 7974 7965 7964 7962 ] final   73.92 input  175.53 | X-H torsion
[ 8008 7997 7996 7995 ] final -143.48 input   59.86 | X-H torsion
[ 10167 10162 10161 10158 ] final -116.99 input  -65.29 | X-H torsion
[ 10718 10713 10712 10709 ] final   73.00 input   66.30 | X-H torsion
[ 10763 10752 10751 10750 ] final  121.83 input  -60.55 | X-H torsion
[ 11005 11000 10999 10996 ] final  -83.95 input  -57.11 | X-H torsion

> <Gold.Protein.ActiveResidues>
 VAL166  LYS551  ARG553  GLY616  TRP617  ASP618  TYR619  PRO620  LYS621  CYS622 
 ASP623  PHE694  ASN695  SER759  ASP760  ASP761  ALA762  ILE779  LEU786  VAL792 
 PHE793  MET794  SER795  GLU796  ALA797  LYS798  CYS799  TRP800  GLU811  SER814 

> <Gold.Protein.RotatedAtoms>
  152.0784  133.4140  159.4489 H   0  0  0  0  0  0  0  0  0  0  0  0  # atno 6907 bound_to 6896
  150.6862  134.3011  159.4716 H   0  0  0  0  0  0  0  0  0  0  0  0  # atno 6908 bound_to 6896
  152.0850  134.9445  160.0623 H   0  0  0  0  0  0  0  0  0  0  0  0  # atno 6909 bound_to 6896
  145.7347  139.2697  143.1521 H   0  0  0  0  0  0  0  0  0  0  0  0  # atno 7974 bound_to 7965
  155.5112  140.0583  157.2923 H   0  0  0  0  0  0  0  0  0  0  0  0  # atno 8008 bound_to 7997
  154.4551  140.1969  156.0351 H   0  0  0  0  0  0  0  0  0  0  0  0  # atno 8009 bound_to 7997
  156.0783  140.3250  155.7665 H   0  0  0  0  0  0  0  0  0  0  0  0  # atno 8010 bound_to 7997
  140.0732  143.4857  152.1968 H   0  0  0  0  0  0  0  0  0  0  0  0  # atno 10167 bound_to 10162
  157.6528  130.9607  150.1008 H   0  0  0  0  0  0  0  0  0  0  0  0  # atno 10718 bound_to 10713
  153.6202  135.3414  155.3008 H   0  0  0  0  0  0  0  0  0  0  0  0  # atno 10763 bound_to 10752
  154.8601  135.4271  154.2215 H   0  0  0  0  0  0  0  0  0  0  0  0  # atno 10764 bound_to 10752
  153.3086  135.7030  153.7209 H   0  0  0  0  0  0  0  0  0  0  0  0  # atno 10765 bound_to 10752
  141.1654  133.7321  156.8796 H   0  0  0  0  0  0  0  0  0  0  0  0  # atno 11005 bound_to 11000
  146.0504  140.8075  142.9784 LP  0  0  0  0  0  0  0  0  0  0  0  0  # atno 17320 bound_to 7965
  144.6884  140.3044  143.7258 LP  0  0  0  0  0  0  0  0  0  0  0  0  # atno 17321 bound_to 7965
  139.5823  144.7516  151.3608 LP  0  0  0  0  0  0  0  0  0  0  0  0  # atno 17342 bound_to 10162
  140.7115  143.7378  150.7575 LP  0  0  0  0  0  0  0  0  0  0  0  0  # atno 17343 bound_to 10162
  156.1931  130.3656  149.8884 LP  0  0  0  0  0  0  0  0  0  0  0  0  # atno 17370 bound_to 10713
  156.6807  130.8857  151.3575 LP  0  0  0  0  0  0  0  0  0  0  0  0  # atno 17371 bound_to 10713
  140.1724  134.9090  157.2849 LP  0  0  0  0  0  0  0  0  0  0  0  0  # atno 17394 bound_to 11000
  140.2487  134.3709  155.7451 LP  0  0  0  0  0  0  0  0  0  0  0  0  # atno 17395 bound_to 11000

$$$$
