AV-unprocessed.smi:1093|AV-procd|sdf|4744|dock4
  -GOLD-   22720 3283D 1   1.00000     0.00000
 Structure written by MMmdl.
 47 48  0  0  0  0  0  0  0  0  2 V2000
  143.9571  143.5921  157.9117 C   0  0  0  0  0  0  0  0  0  0  0  0
  143.3682  142.7672  156.7583 C   0  0  0  0  0  0  0  0  0  0  0  0
  144.4075  142.3170  155.7998 N   0  3  1  0  0  0  0  0  0  0  0  0
  145.1379  143.4520  155.1778 C   0  0  0  0  0  0  0  0  0  0  0  0
  146.0973  142.9620  154.0788 C   0  0  0  0  0  0  0  0  0  0  0  0
  147.0608  141.8878  154.6111 C   0  0  0  0  0  0  0  0  0  0  0  0
  146.2897  140.7464  155.2977 C   0  0  2  0  0  0  0  0  0  0  0  0
  145.5508  139.9723  154.2993 N   0  0  0  0  0  0  0  0  0  0  0  0
  145.7045  138.6612  154.0648 C   0  0  0  0  0  0  0  0  0  0  0  0
  146.4929  137.9504  154.6874 O   0  0  0  0  0  0  0  0  0  0  0  0
  144.8752  138.2405  153.0949 N   0  0  0  0  0  0  0  0  0  0  0  0
  144.7260  136.9290  152.5696 C   0  0  0  0  0  0  0  0  0  0  0  0
  143.4853  136.3410  152.2326 C   0  0  0  0  0  0  0  0  0  0  0  0
  143.4658  135.0235  151.7362 C   0  0  0  0  0  0  0  0  0  0  0  0
  144.6854  134.3160  151.5932 C   0  0  0  0  0  0  0  0  0  0  0  0
  144.7179  132.9926  151.0970 N   0  0  0  0  0  0  0  0  0  0  0  0
  143.5385  132.4326  150.4451 C   0  0  0  0  0  0  0  0  0  0  0  0
  145.9486  132.2143  151.1640 C   0  0  0  0  0  0  0  0  0  0  0  0
  145.8697  134.8822  151.9313 N   0  0  0  0  0  0  0  0  0  0  0  0
  145.8837  136.1436  152.4084 C   0  0  0  0  0  0  0  0  0  0  0  0
  145.3536  141.3273  156.3805 C   0  0  0  0  0  0  0  0  0  0  0  0
  143.1843  143.8367  158.6404 H   0  0  0  0  0  0  0  0  0  0  0  0
  144.3860  144.5334  157.5689 H   0  0  0  0  0  0  0  0  0  0  0  0
  144.7377  143.0378  158.4335 H   0  0  0  0  0  0  0  0  0  0  0  0
  142.8779  141.8953  157.1936 H   0  0  0  0  0  0  0  0  0  0  0  0
  142.5927  143.3292  156.2357 H   0  0  0  0  0  0  0  0  0  0  0  0
  144.4277  144.1556  154.7419 H   0  0  0  0  0  0  0  0  0  0  0  0
  145.6907  143.9943  155.9465 H   0  0  0  0  0  0  0  0  0  0  0  0
  145.5205  142.5603  153.2450 H   0  0  0  0  0  0  0  0  0  0  0  0
  146.6645  143.8033  153.6793 H   0  0  0  0  0  0  0  0  0  0  0  0
  147.6814  141.5006  153.8021 H   0  0  0  0  0  0  0  0  0  0  0  0
  147.7444  142.3429  155.3291 H   0  0  0  0  0  0  0  0  0  0  0  0
  147.0134  140.0817  155.7730 H   0  0  0  0  0  0  0  0  0  0  0  0
  144.8835  140.4782  153.7351 H   0  0  0  0  0  0  0  0  0  0  0  0
  144.2296  138.9259  152.7309 H   0  0  0  0  0  0  0  0  0  0  0  0
  142.5503  136.8649  152.3569 H   0  0  0  0  0  0  0  0  0  0  0  0
  142.5152  134.5820  151.4789 H   0  0  0  0  0  0  0  0  0  0  0  0
  143.2780  133.0150  149.5607 H   0  0  0  0  0  0  0  0  0  0  0  0
  142.6868  132.4353  151.1259 H   0  0  0  0  0  0  0  0  0  0  0  0
  143.7082  131.4032  150.1295 H   0  0  0  0  0  0  0  0  0  0  0  0
  146.2602  132.0776  152.1999 H   0  0  0  0  0  0  0  0  0  0  0  0
  146.7498  132.7162  150.6208 H   0  0  0  0  0  0  0  0  0  0  0  0
  145.8173  131.2259  150.7238 H   0  0  0  0  0  0  0  0  0  0  0  0
  146.8556  136.5402  152.6633 H   0  0  0  0  0  0  0  0  0  0  0  0
  145.9436  141.8089  157.1620 H   0  0  0  0  0  0  0  0  0  0  0  0
  144.8102  140.5192  156.8683 H   0  0  0  0  0  0  0  0  0  0  0  0
  143.9178  141.8504  155.0497 H   0  0  0  0  0  0  0  0  0  0  0  0
  1  2  1  0  0  0  0
  1 22  1  0  0  0  0
  1 23  1  0  0  0  0
  1 24  1  0  0  0  0
  2  3  1  0  0  0  0
  2 25  1  0  0  0  0
  2 26  1  0  0  0  0
  3 21  1  0  0  0  0
  3  4  1  0  0  0  0
  3 47  1  0  0  0  0
  4  5  1  0  0  0  0
  4 27  1  0  0  0  0
  4 28  1  0  0  0  0
  5  6  1  0  0  0  0
  5 29  1  0  0  0  0
  5 30  1  0  0  0  0
  6  7  1  0  0  0  0
  6 31  1  0  0  0  0
  6 32  1  0  0  0  0
  7  8  1  0  0  0  0
  7 21  1  0  0  0  0
  7 33  1  0  0  0  0
  8  9  1  0  0  0  0
  8 34  1  0  0  0  0
  9 10  2  0  0  0  0
  9 11  1  0  0  0  0
 11 12  1  0  0  0  0
 11 35  1  0  0  0  0
 12 20  1  0  0  0  0
 12 13  2  0  0  0  0
 13 14  1  0  0  0  0
 13 36  1  0  0  0  0
 14 15  2  0  0  0  0
 14 37  1  0  0  0  0
 15 16  1  0  0  0  0
 15 19  1  0  0  0  0
 16 17  1  0  0  0  0
 16 18  1  0  0  0  0
 17 38  1  0  0  0  0
 17 39  1  0  0  0  0
 17 40  1  0  0  0  0
 18 41  1  0  0  0  0
 18 42  1  0  0  0  0
 18 43  1  0  0  0  0
 19 20  2  0  0  0  0
 20 44  1  0  0  0  0
 21 45  1  0  0  0  0
 21 46  1  0  0  0  0
M  CHG  1   3   1
M  END
> <s_m_source_file>
AV-unprocessed.smi

> <i_m_source_file_index>
1093

> <i_lp_mmshare_version>
43012

> <i_f3d_flags>
0

> <s_epik_input>
W0NIM11bQ0gyXU4xW0NIMl1bQ0gyXVtDSDJdW0NASF0oW0NIMl0xKVtOSF1DKD1PKVtOSF1jMltjSF1bY0hdYyhOKFtDSDNdKVtDSDNdKW5bY0hdMg==

> <s_epik_cmdline>
J2VwaWtfcHl0aG9uJywgJy1waCcsICc3LjAnLCAnLXRuJywgJzgnLCAnLW1hJywgJzIwMCcsICctbWV0YWxfYmluZGluZycsICctaW1hZScsICc8aW5maWxlLm1hZT4nLCAnLW9tYWUnLCAnPG91dGZpbGUubWFlPic=

> <r_lp_tautomer_probability>
1

> <r_epik_Ionization_Penalty>
0.489418

> <r_epik_Ionization_Penalty_Charging>
0.00268196

> <r_epik_Ionization_Penalty_Neutral>
0.486736

> <r_epik_State_Penalty>
0.491157

> <r_epik_Charging_Adjusted_Penalty>
0.493839

> <i_epik_Tot_Q>
1

> <i_epik_Tot_abs_Q>
1

> <r_epik_Metal_State_Penalty>
0.266953

> <b_epik_Metal_Only>
0

> <s_lp_Force_Field>
OPLS_2005

> <r_lp_Energy>
27.6013

> <b_lp_Chiralities_Consistent>
1

> <s_lp_Variant>
AV-unprocessed.smi:1093-7

> <Gold.Version>
5.8.1

> <Gold.Id.Protein>
6NUR|6NUR_protein|mol2

> <Gold.PLP.Fitness>
39.7723

> <Gold.PLP.PLP>
-31.4974

> <Gold.PLP.part.hbond>
-2.0000

> <Gold.PLP.part.metal>
0.0000

> <Gold.PLP.part.buried>
-4.3346

> <Gold.PLP.part.nonpolar>
-25.6108

> <Gold.PLP.part.repulsive>
0.2555

> <Gold.PLP.ligand.clash>
0.0000

> <Gold.PLP.ligand.torsion>
0.3832

> <Gold.PLP.Chemscore.Hbond>
2.0000

> <Gold.PLP.Chemscore.CHOScore>
1.0000

> <Gold.PLP.Chemscore.Metal>
0.0000

> <Gold.Chemscore.Hbonds>
donor molecule, donor type, donor heavy atom, donor atom, acceptor molecule, acceptor atom, score
      L1  H     8    34       P1 10175  1.00
      L1  H    11    35       P1 10175  1.00
      L1  C    20    44       P1  7948  1.00

> <Gold.PLP.Chemscore.Internal.Correction>
0.0414

> <Gold.Rescore>
     Score         DG    S(hbond)    S(metal)    S(lipo)     H(rot)  DE(clash)    DE(int)     intcor
     14.72     -16.33       1.94        0.00      63.33       1.18       0.09       1.52       ----

> <Gold.Chemscore.Fitness>
14.7189

> <Gold.Chemscore.DG>
-16.3288

> <Gold.Chemscore.ZeroCoef>
-5.4800

> <Gold.Chemscore.Hbond>
1.9375

> <Gold.Chemscore.Metal>
0.0000

> <Gold.Chemscore.Lipo>
63.3270

> <Gold.Chemscore.Internal_Hbond>
0.0000

> <Gold.Chemscore.DEClash>
0.0915

> <Gold.Chemscore.DEInternal>
1.5184

> <Gold.Chemscore.Rot>
1.1842

> <Gold.Chemscore.Internal.Correction>
   9.000000E+99

> <Gold.Chemscore.Hbonds>
donor molecule, donor type, donor heavy atom, donor atom, acceptor molecule, acceptor atom, score
      L1  H     8    34       P1 10175  0.94
      L1  H    11    35       P1 10175  0.98

> <Gold.Chemscore.Hbond.Weighted>
-6.4712

> <Gold.Chemscore.Metal.Weighted>
-0.0000

> <Gold.Chemscore.Lipo.Weighted>
-7.4093

> <Gold.Chemscore.Internal_Hbond.Weighted>
0.0000

> <Gold.Chemscore.DEClash.Weighted>
0.0915

> <Gold.Chemscore.DEInternal.Weighted>
1.5184

> <Gold.Chemscore.Rot.Weighted>
3.0317

> <Gold.Chemscore.Internal.Correction.Weighted>
   9.000000E+99

> <Gold.Protein.RotatedTorsions>
[ 6907 6896 6895 6894 ] final -160.16 input  -60.11 | X-H torsion
[ 7974 7965 7964 7962 ] final    2.91 input  175.53 | X-H torsion
[ 8008 7997 7996 7995 ] final   40.23 input   59.86 | X-H torsion
[ 10167 10162 10161 10158 ] final  147.07 input  -65.29 | X-H torsion
[ 10718 10713 10712 10709 ] final   81.72 input   66.30 | X-H torsion
[ 10763 10752 10751 10750 ] final   -8.58 input  -60.55 | X-H torsion
[ 11005 11000 10999 10996 ] final   26.95 input  -57.11 | X-H torsion

> <Gold.Protein.ActiveResidues>
 VAL166  LYS551  ARG553  GLY616  TRP617  ASP618  TYR619  PRO620  LYS621  CYS622 
 ASP623  PHE694  ASN695  SER759  ASP760  ASP761  ALA762  ILE779  LEU786  VAL792 
 PHE793  MET794  SER795  GLU796  ALA797  LYS798  CYS799  TRP800  GLU811  SER814 

> <Gold.Protein.RotatedAtoms>
  151.3447  133.3948  159.2674 H   0  0  0  0  0  0  0  0  0  0  0  0  # atno 6907 bound_to 6896
  150.9849  134.9197  159.7876 H   0  0  0  0  0  0  0  0  0  0  0  0  # atno 6908 bound_to 6896
  152.5229  134.3411  159.9270 H   0  0  0  0  0  0  0  0  0  0  0  0  # atno 6909 bound_to 6896
  146.2444  140.0764  142.8359 H   0  0  0  0  0  0  0  0  0  0  0  0  # atno 7974 bound_to 7965
  155.2497  140.3351  155.4283 H   0  0  0  0  0  0  0  0  0  0  0  0  # atno 8008 bound_to 7997
  156.2221  140.1813  156.7496 H   0  0  0  0  0  0  0  0  0  0  0  0  # atno 8009 bound_to 7997
  154.5841  140.0648  156.9131 H   0  0  0  0  0  0  0  0  0  0  0  0  # atno 8010 bound_to 7997
  139.4896  144.5783  151.6922 H   0  0  0  0  0  0  0  0  0  0  0  0  # atno 10167 bound_to 10162
  157.6840  131.0016  150.2268 H   0  0  0  0  0  0  0  0  0  0  0  0  # atno 10718 bound_to 10713
  153.4425  135.7014  153.6160 H   0  0  0  0  0  0  0  0  0  0  0  0  # atno 10763 bound_to 10752
  153.4528  135.3754  155.2294 H   0  0  0  0  0  0  0  0  0  0  0  0  # atno 10764 bound_to 10752
  154.8727  135.4001  154.3826 H   0  0  0  0  0  0  0  0  0  0  0  0  # atno 10765 bound_to 10752
  140.3315  134.2432  155.7702 H   0  0  0  0  0  0  0  0  0  0  0  0  # atno 11005 bound_to 11000
  145.0771  140.9195  143.4847 LP  0  0  0  0  0  0  0  0  0  0  0  0  # atno 17320 bound_to 7965
  145.0910  139.2890  143.5735 LP  0  0  0  0  0  0  0  0  0  0  0  0  # atno 17321 bound_to 7965
  140.5384  144.0619  150.6079 LP  0  0  0  0  0  0  0  0  0  0  0  0  # atno 17342 bound_to 10162
  140.3633  143.2896  152.0360 LP  0  0  0  0  0  0  0  0  0  0  0  0  # atno 17343 bound_to 10162
  156.2908  130.3745  149.7843 LP  0  0  0  0  0  0  0  0  0  0  0  0  # atno 17370 bound_to 10713
  156.5503  130.8339  151.3297 LP  0  0  0  0  0  0  0  0  0  0  0  0  # atno 17371 bound_to 10713
  141.2062  133.7839  157.0190 LP  0  0  0  0  0  0  0  0  0  0  0  0  # atno 17394 bound_to 11000
  140.0856  134.9622  157.1695 LP  0  0  0  0  0  0  0  0  0  0  0  0  # atno 17395 bound_to 11000

$$$$
