AV-unprocessed.smi:193|AV-procd|sdf|1503|dock4
  -GOLD-   2262019333D 1   1.00000     0.00000
 Structure written by MMmdl.
 62 66  0  0  0  0  0  0  0  0  2 V2000
  142.7080  134.4610  163.0982 C   0  0  0  0  0  0  0  0  0  0  0  0
  143.9301  134.9459  162.3055 C   0  0  1  0  0  0  0  0  0  0  0  0
  143.9324  136.4894  162.2351 C   0  0  0  0  0  0  0  0  0  0  0  0
  145.0824  137.0392  161.5168 N   0  0  0  0  0  0  0  0  0  0  0  0
  145.1299  137.0663  160.1490 C   0  0  0  0  0  0  0  0  0  0  0  0
  144.0154  136.6799  159.4699 N   0  0  0  0  0  0  0  0  0  0  0  0
  143.9751  136.6969  158.1363 C   0  0  0  0  0  0  0  0  0  0  0  0
  144.9282  137.0628  157.2821 N   0  0  0  0  0  0  0  0  0  0  0  0
  146.0573  137.4465  157.9405 C   0  0  0  0  0  0  0  0  0  0  0  0
  146.2477  137.4787  159.3547 C   0  0  0  0  0  0  0  0  0  0  0  0
  147.5345  137.9349  159.6263 N   0  0  0  0  0  0  0  0  0  0  0  0
  148.0664  138.1535  158.4563 C   0  0  0  0  0  0  0  0  0  0  0  0
  147.2487  137.8802  157.3865 N   0  0  0  0  0  0  0  0  0  0  0  0
  147.5796  138.0280  155.9770 C   0  0  0  0  0  0  0  0  0  0  0  0
  147.6773  139.5009  155.5076 C   0  0  0  0  0  0  0  0  0  0  0  0
  146.6964  140.2417  156.2136 O   0  0  0  0  0  0  0  0  0  0  0  0
  149.0608  140.1266  155.7921 C   0  0  0  0  0  0  0  0  0  0  0  0
  149.2152  141.5125  155.1409 C   0  0  0  0  0  0  0  0  0  0  0  0
  148.9561  141.4298  153.7448 O   0  0  0  0  0  0  0  0  0  0  0  0
  147.6237  141.0245  153.4552 C   0  0  0  0  0  0  0  0  0  0  0  0
  147.3743  139.6067  153.9995 C   0  0  0  0  0  0  0  0  0  0  0  0
  146.3358  137.0825  162.2783 C   0  0  0  0  0  0  0  0  0  0  0  0
  147.1640  135.7796  162.2058 C   0  0  0  0  0  0  0  0  0  0  0  0
  146.3604  134.5565  161.9490 N   0  3  1  0  0  0  0  0  0  0  0  0
  147.2138  133.3557  161.8022 C   0  0  1  0  0  0  0  0  0  0  0  0
  146.7699  132.4159  160.7030 C   0  0  0  0  0  0  0  0  0  0  0  0
  147.9894  133.2869  160.4978 C   0  0  1  0  0  0  0  0  0  0  0  0
  147.9662  134.3845  159.4485 C   0  0  0  0  0  0  0  0  0  0  0  0
  145.2332  134.3687  162.8971 C   0  0  0  0  0  0  0  0  0  0  0  0
  142.7455  134.8014  164.1336 H   0  0  0  0  0  0  0  0  0  0  0  0
  142.6494  133.3724  163.1073 H   0  0  0  0  0  0  0  0  0  0  0  0
  141.7826  134.8341  162.6579 H   0  0  0  0  0  0  0  0  0  0  0  0
  143.8251  134.5506  161.2947 H   0  0  0  0  0  0  0  0  0  0  0  0
  143.0027  136.8690  161.8151 H   0  0  0  0  0  0  0  0  0  0  0  0
  143.9468  136.8861  163.2510 H   0  0  0  0  0  0  0  0  0  0  0  0
  143.0453  136.3751  157.6906 H   0  0  0  0  0  0  0  0  0  0  0  0
  149.0773  138.5173  158.3398 H   0  0  0  0  0  0  0  0  0  0  0  0
  148.5253  137.5153  155.7961 H   0  0  0  0  0  0  0  0  0  0  0  0
  146.8301  137.4917  155.3928 H   0  0  0  0  0  0  0  0  0  0  0  0
  145.8947  140.2308  155.7134 H   0  0  0  0  0  0  0  0  0  0  0  0
  149.2400  140.2054  156.8651 H   0  0  0  0  0  0  0  0  0  0  0  0
  149.8395  139.4718  155.3990 H   0  0  0  0  0  0  0  0  0  0  0  0
  148.5476  142.2410  155.6034 H   0  0  0  0  0  0  0  0  0  0  0  0
  150.2310  141.8804  155.2870 H   0  0  0  0  0  0  0  0  0  0  0  0
  146.9137  141.7388  153.8747 H   0  0  0  0  0  0  0  0  0  0  0  0
  147.4812  141.0381  152.3744 H   0  0  0  0  0  0  0  0  0  0  0  0
  148.0142  138.9118  153.4538 H   0  0  0  0  0  0  0  0  0  0  0  0
  146.3476  139.3018  153.7921 H   0  0  0  0  0  0  0  0  0  0  0  0
  146.9431  137.9397  161.9854 H   0  0  0  0  0  0  0  0  0  0  0  0
  146.0848  137.2688  163.3230 H   0  0  0  0  0  0  0  0  0  0  0  0
  147.8880  135.8756  161.3964 H   0  0  0  0  0  0  0  0  0  0  0  0
  147.7472  135.6615  163.1200 H   0  0  0  0  0  0  0  0  0  0  0  0
  147.6299  132.9502  162.7227 H   0  0  0  0  0  0  0  0  0  0  0  0
  146.9398  131.3518  160.8525 H   0  0  0  0  0  0  0  0  0  0  0  0
  145.8693  132.6660  160.1446 H   0  0  0  0  0  0  0  0  0  0  0  0
  148.9503  132.7797  160.5606 H   0  0  0  0  0  0  0  0  0  0  0  0
  146.9641  134.7950  159.3224 H   0  0  0  0  0  0  0  0  0  0  0  0
  148.2910  133.9854  158.4876 H   0  0  0  0  0  0  0  0  0  0  0  0
  148.6420  135.1915  159.7313 H   0  0  0  0  0  0  0  0  0  0  0  0
  145.4605  134.8034  163.8717 H   0  0  0  0  0  0  0  0  0  0  0  0
  145.0865  133.3024  163.0749 H   0  0  0  0  0  0  0  0  0  0  0  0
  145.9307  134.6872  161.0444 H   0  0  0  0  0  0  0  0  0  0  0  0
  1  2  1  0  0  0  0
  1 30  1  0  0  0  0
  1 31  1  0  0  0  0
  1 32  1  0  0  0  0
  2 29  1  0  0  0  0
  2  3  1  0  0  0  0
  2 33  1  0  0  0  0
  3  4  1  0  0  0  0
  3 34  1  0  0  0  0
  3 35  1  0  0  0  0
  4  5  1  0  0  0  0
  4 22  1  0  0  0  0
  5 10  1  0  0  0  0
  5  6  2  0  0  0  0
  6  7  1  0  0  0  0
  7  8  2  0  0  0  0
  7 36  1  0  0  0  0
  8  9  1  0  0  0  0
  9 13  1  0  0  0  0
  9 10  2  0  0  0  0
 10 11  1  0  0  0  0
 11 12  2  0  0  0  0
 12 13  1  0  0  0  0
 12 37  1  0  0  0  0
 13 14  1  0  0  0  0
 14 15  1  0  0  0  0
 14 38  1  0  0  0  0
 14 39  1  0  0  0  0
 15 21  1  0  0  0  0
 15 16  1  0  0  0  0
 15 17  1  0  0  0  0
 16 40  1  0  0  0  0
 17 18  1  0  0  0  0
 17 41  1  0  0  0  0
 17 42  1  0  0  0  0
 18 19  1  0  0  0  0
 18 43  1  0  0  0  0
 18 44  1  0  0  0  0
 19 20  1  0  0  0  0
 20 21  1  0  0  0  0
 20 45  1  0  0  0  0
 20 46  1  0  0  0  0
 21 47  1  0  0  0  0
 21 48  1  0  0  0  0
 22 23  1  0  0  0  0
 22 49  1  0  0  0  0
 22 50  1  0  0  0  0
 23 24  1  0  0  0  0
 23 51  1  0  0  0  0
 23 52  1  0  0  0  0
 24 25  1  0  0  0  0
 24 29  1  0  0  0  0
 24 62  1  0  0  0  0
 25 27  1  0  0  0  0
 25 26  1  0  0  0  0
 25 53  1  0  0  0  0
 26 27  1  0  0  0  0
 26 54  1  0  0  0  0
 26 55  1  0  0  0  0
 27 28  1  0  0  0  0
 27 56  1  0  0  0  0
 28 57  1  0  0  0  0
 28 58  1  0  0  0  0
 28 59  1  0  0  0  0
 29 60  1  0  0  0  0
 29 61  1  0  0  0  0
M  CHG  1  24   1
M  END
> <s_m_source_file>
AV-unprocessed.smi

> <i_m_source_file_index>
193

> <i_lp_mmshare_version>
43012

> <i_f3d_flags>
0

> <s_epik_input>
W0NIM11bQ0BASF0xW0NIMl1bQ0BIXTFOKFtDSDJdMilbQ0gyXVtDSDJdTihbQ0gyXVtDQEhdMltDSDNdKWMobltjSF1uMyljKGMzNCluW2NIXW40W0NIMl1DNShbT0hdKVtDSDJdW0NIMl1PW0NIMl1bQ0gyXTU=

> <s_epik_cmdline>
J2VwaWtfcHl0aG9uJywgJy1waCcsICc3LjAnLCAnLXRuJywgJzgnLCAnLW1hJywgJzIwMCcsICctbWV0YWxfYmluZGluZycsICctaW1hZScsICc8aW5maWxlLm1hZT4nLCAnLW9tYWUnLCAnPG91dGZpbGUubWFlPic=

> <r_lp_tautomer_probability>
1

> <r_epik_Ionization_Penalty>
0.0540825

> <r_epik_Ionization_Penalty_Charging>
0.0538476

> <r_epik_Ionization_Penalty_Neutral>
0.000234891

> <r_epik_State_Penalty>
0.0200719

> <r_epik_Charging_Adjusted_Penalty>
0.0739194

> <i_epik_Tot_Q>
1

> <i_epik_Tot_abs_Q>
1

> <r_epik_Metal_State_Penalty>
0.0199414

> <b_epik_Metal_Only>
0

> <s_lp_Force_Field>
OPLS_2005

> <r_lp_Energy>
52.5482

> <b_lp_Chiralities_Consistent>
1

> <s_lp_Variant>
AV-unprocessed.smi:193-8

> <Gold.Version>
5.8.1

> <Gold.Id.Protein>
6NUR|6NUR_protein|mol2

> <Gold.PLP.Fitness>
37.9632

> <Gold.PLP.PLP>
-35.3445

> <Gold.PLP.part.hbond>
-3.2940

> <Gold.PLP.part.metal>
0.0000

> <Gold.PLP.part.buried>
-5.0992

> <Gold.PLP.part.nonpolar>
-28.3048

> <Gold.PLP.part.repulsive>
1.1582

> <Gold.PLP.ligand.clash>
0.0000

> <Gold.PLP.ligand.torsion>
1.2509

> <Gold.PLP.Chemscore.Hbond>
1.2416

> <Gold.PLP.Chemscore.CHOScore>
0.0000

> <Gold.PLP.Chemscore.Metal>
0.0000

> <Gold.Chemscore.Hbonds>
donor molecule, donor type, donor heavy atom, donor atom, acceptor molecule, acceptor atom, score
      P1  H  6934  6947       L1    11  0.61
      P1  H  8011  8017       L1    19  0.78

> <Gold.PLP.Chemscore.Internal.Correction>
1.3958

> <Gold.Rescore>
     Score         DG    S(hbond)    S(metal)    S(lipo)     H(rot)  DE(clash)    DE(int)     intcor
     12.26     -14.51       1.14        0.00      86.84       1.93       0.13       2.12       ----

> <Gold.Chemscore.Fitness>
12.2580

> <Gold.Chemscore.DG>
-14.5076

> <Gold.Chemscore.ZeroCoef>
-5.4800

> <Gold.Chemscore.Hbond>
1.1393

> <Gold.Chemscore.Metal>
0.0000

> <Gold.Chemscore.Lipo>
86.8437

> <Gold.Chemscore.Internal_Hbond>
0.0000

> <Gold.Chemscore.DEClash>
0.1276

> <Gold.Chemscore.DEInternal>
2.1220

> <Gold.Chemscore.Rot>
1.9290

> <Gold.Chemscore.Internal.Correction>
   9.000000E+99

> <Gold.Chemscore.Hbonds>
donor molecule, donor type, donor heavy atom, donor atom, acceptor molecule, acceptor atom, score
      P1  H  6934  6947       L1    11  0.15
      P1  H  8011  8017       L1    19  0.68

> <Gold.Chemscore.Hbond.Weighted>
-3.8051

> <Gold.Chemscore.Metal.Weighted>
-0.0000

> <Gold.Chemscore.Lipo.Weighted>
-10.1607

> <Gold.Chemscore.Internal_Hbond.Weighted>
0.0000

> <Gold.Chemscore.DEClash.Weighted>
0.1276

> <Gold.Chemscore.DEInternal.Weighted>
2.1220

> <Gold.Chemscore.Rot.Weighted>
4.9383

> <Gold.Chemscore.Internal.Correction.Weighted>
   9.000000E+99

> <Gold.Protein.RotatedTorsions>
[ 6907 6896 6895 6894 ] final  -45.61 input  -60.11 | X-H torsion
[ 7974 7965 7964 7962 ] final   99.02 input  175.53 | X-H torsion
[ 8008 7997 7996 7995 ] final  -35.75 input   59.86 | X-H torsion
[ 10167 10162 10161 10158 ] final -172.46 input  -65.29 | X-H torsion
[ 10718 10713 10712 10709 ] final   28.79 input   66.30 | X-H torsion
[ 10763 10752 10751 10750 ] final  121.14 input  -60.55 | X-H torsion
[ 11005 11000 10999 10996 ] final   72.00 input  -57.11 | X-H torsion

> <Gold.Protein.ActiveResidues>
 VAL166  LYS551  ARG553  GLY616  TRP617  ASP618  TYR619  PRO620  LYS621  CYS622 
 ASP623  PHE694  ASN695  SER759  ASP760  ASP761  ALA762  ILE779  LEU786  VAL792 
 PHE793  MET794  SER795  GLU796  ALA797  LYS798  CYS799  TRP800  GLU811  SER814 

> <Gold.Protein.RotatedAtoms>
  150.9201  134.8619  159.7482 H   0  0  0  0  0  0  0  0  0  0  0  0  # atno 6907 bound_to 6896
  152.4988  134.4231  159.9497 H   0  0  0  0  0  0  0  0  0  0  0  0  # atno 6908 bound_to 6896
  151.4265  133.3643  159.2798 H   0  0  0  0  0  0  0  0  0  0  0  0  # atno 6909 bound_to 6896
  145.4044  139.2343  143.3282 H   0  0  0  0  0  0  0  0  0  0  0  0  # atno 7974 bound_to 7965
  154.4088  140.1649  156.2263 H   0  0  0  0  0  0  0  0  0  0  0  0  # atno 8008 bound_to 7997
  155.9321  140.3414  155.6234 H   0  0  0  0  0  0  0  0  0  0  0  0  # atno 8009 bound_to 7997
  155.7094  140.0755  157.2368 H   0  0  0  0  0  0  0  0  0  0  0  0  # atno 8010 bound_to 7997
  139.5743  144.1568  152.1429 H   0  0  0  0  0  0  0  0  0  0  0  0  # atno 10167 bound_to 10162
  157.2381  130.7056  149.6345 H   0  0  0  0  0  0  0  0  0  0  0  0  # atno 10718 bound_to 10713
  153.6094  135.3433  155.2973 H   0  0  0  0  0  0  0  0  0  0  0  0  # atno 10763 bound_to 10752
  154.8621  135.4246  154.2326 H   0  0  0  0  0  0  0  0  0  0  0  0  # atno 10764 bound_to 10752
  153.3173  135.7036  153.7133 H   0  0  0  0  0  0  0  0  0  0  0  0  # atno 10765 bound_to 10752
  139.9514  134.7221  156.0854 H   0  0  0  0  0  0  0  0  0  0  0  0  # atno 11005 bound_to 11000
  146.2736  140.4746  142.8804 LP  0  0  0  0  0  0  0  0  0  0  0  0  # atno 17320 bound_to 7965
  144.8352  140.6770  143.6265 LP  0  0  0  0  0  0  0  0  0  0  0  0  # atno 17321 bound_to 7965
  140.1108  144.5459  150.6926 LP  0  0  0  0  0  0  0  0  0  0  0  0  # atno 17342 bound_to 10162
  140.7027  143.2446  151.4818 LP  0  0  0  0  0  0  0  0  0  0  0  0  # atno 17343 bound_to 10162
  155.9671  130.4467  150.5550 LP  0  0  0  0  0  0  0  0  0  0  0  0  # atno 17370 bound_to 10713
  157.3407  131.0716  151.1790 LP  0  0  0  0  0  0  0  0  0  0  0  0  # atno 17371 bound_to 10713
  141.1177  133.6622  156.3136 LP  0  0  0  0  0  0  0  0  0  0  0  0  # atno 17394 bound_to 11000
  140.5711  134.5839  157.5457 LP  0  0  0  0  0  0  0  0  0  0  0  0  # atno 17395 bound_to 11000

$$$$
