#       Name:                AV-unprocessed.smi:1872
#       Creating user name   scv26
#       Creation time:       Fri Mar 27 09:32:14 2020


#       File generated by GOLD software.
#

@<TRIPOS>MOLECULE
AV-unprocessed.smi:1872
    44    46     1
SMALL
NO_CHARGES


@<TRIPOS>ATOM
      1 ****        -1.4158   1.8204   2.9440 C.3            1 S1                 0.0000
      2 ****        -1.6110   2.4014   1.5794 C.2            1 S1                 0.0000
      3 ****        -2.0464   3.6475   1.3926 N.2            1 S1                 0.0000
      4 ****        -2.0842   3.7516   0.0152 C.ar           1 S1                 0.0000
      5 ****        -2.4633   4.8311  -0.8147 C.ar           1 S1                 0.0000
      6 ****        -2.4218   4.7012  -2.2184 C.ar           1 S1                 0.0000
      7 ****        -2.0010   3.4933  -2.8115 C.ar           1 S1                 0.0000
      8 ****        -1.6177   2.4059  -2.0032 C.ar           1 S1                 0.0000
      9 ****        -1.6614   2.5403  -0.6026 C.ar           1 S1                 0.0000
     10 ****        -1.3591   1.6877   0.4550 N.pl3          1 S1                 0.0000
     11 ****        -0.8779   0.3168   0.3522 C.3            1 S1                 0.0000
     12 ****         0.6588   0.2118   0.4271 C.3            1 S1                 0.0000
     13 ****         1.2503   0.9857  -0.5992 O.3            1 S1                 0.0000
     14 ****         1.1105  -1.2394   0.3848 C.ar           1 S1                 0.0000
     15 ****         1.4640  -1.9028   1.5780 C.ar           1 S1                 0.0000
     16 ****         1.8708  -3.2506   1.5474 C.ar           1 S1                 0.0000
     17 ****         1.9377  -3.9529   0.3271 C.ar           1 S1                 0.0000
     18 ****         2.3318  -5.2715   0.3636 O.3            1 S1                 0.0000
     19 ****         2.9753  -5.8043  -0.7094 C.3            1 S1                 0.0000
     20 ****         3.8265  -6.7745  -0.2975 F              1 S1                 0.0000
     21 ****         2.0869  -6.3737  -1.5605 F              1 S1                 0.0000
     22 ****         1.5679  -3.2902  -0.8677 C.ar           1 S1                 0.0000
     23 ****         1.1594  -1.9430  -0.8377 C.ar           1 S1                 0.0000
     24 ****        -1.6912   2.5459   3.7102 H              1 S1                 0.0000
     25 ****        -0.3728   1.5431   3.0939 H              1 S1                 0.0000
     26 ****        -2.0401   0.9360   3.0716 H              1 S1                 0.0000
     27 ****        -2.7867   5.7607  -0.3704 H              1 S1                 0.0000
     28 ****        -2.7145   5.5320  -2.8435 H              1 S1                 0.0000
     29 ****        -1.9720   3.4016  -3.8874 H              1 S1                 0.0000
     30 ****        -1.2916   1.4804  -2.4540 H              1 S1                 0.0000
     31 ****        -1.3354  -0.2749   1.1454 H              1 S1                 0.0000
     32 ****        -1.2404  -0.1071  -0.5851 H              1 S1                 0.0000
     33 ****         0.9970   0.6437   1.3694 H              1 S1                 0.0000
     34 ****         2.1863   0.9902  -0.4694 H              1 S1                 0.0000
     35 ****         1.4213  -1.3818   2.5232 H              1 S1                 0.0000
     36 ****         2.1360  -3.7487   2.4685 H              1 S1                 0.0000
     37 ****         3.5596  -5.0541  -1.2429 H              1 S1                 0.0000
     38 ****         1.5856  -3.8064  -1.8160 H              1 S1                 0.0000
     39 ****         0.8770  -1.4529  -1.7582 H              1 S1                 0.0000
     40 ****        -2.2858   4.3351   2.0781 LP             1 S1                 0.0000
     41 ****         0.8999   1.9215  -0.5607 LP             1 S1                 0.0000
     42 ****         1.0352   0.5856  -1.4900 LP             1 S1                 0.0000
     43 ****         1.5075  -5.8183   0.5103 LP             1 S1                 0.0000
     44 ****         2.9425  -5.3717   1.1492 LP             1 S1                 0.0000
@<TRIPOS>BOND
    1    1    2 1     
    2    1   24 1     
    3    1   25 1     
    4    1   26 1     
    5    2   10 1     
    6    2    3 2     
    7    3    4 1     
    8    4    9 ar    
    9    4    5 ar    
   10    5    6 ar    
   11    5   27 1     
   12    6    7 ar    
   13    6   28 1     
   14    7    8 ar    
   15    7   29 1     
   16    8    9 ar    
   17    8   30 1     
   18    9   10 1     
   19   10   11 1     
   20   11   12 1     
   21   11   31 1     
   22   11   32 1     
   23   12   13 1     
   24   12   14 1     
   25   12   33 1     
   26   13   34 1     
   27   14   23 ar    
   28   14   15 ar    
   29   15   16 ar    
   30   15   35 1     
   31   16   17 ar    
   32   16   36 1     
   33   17   18 1     
   34   17   22 ar    
   35   18   19 1     
   36   19   20 1     
   37   19   21 1     
   38   19   37 1     
   39   22   23 ar    
   40   22   38 1     
   41   23   39 1     
   42    3   40 1     
   43   13   41 1     
   44   13   42 1     
   45   18   43 1     
   46   18   44 1     
@<TRIPOS>SUBSTRUCTURE
      1 S1             1
@<TRIPOS>SET
LONE_PAIRS      STATIC     ATOMS    <user>   **** ""
5 40 41 42 43 44
DONOR_HYDROGENS      STATIC     ATOMS    <user>   **** ""
1 34
ATOM$BLUE        STATIC     ATOMS    COLORGROUP SYSTEM
5 40 41 42 43 44
ATOM$RED        STATIC     ATOMS    COLORGROUP SYSTEM
1 34
