#       Name:                AV-unprocessed.smi:1047
#       Creating user name   scv26
#       Creation time:       Fri Mar 27 03:04:22 2020


#       File generated by GOLD software.
#

@<TRIPOS>MOLECULE
AV-unprocessed.smi:1047
    62    64     1
SMALL
NO_CHARGES


@<TRIPOS>ATOM
      1 ****        -4.7093   5.8484   0.9773 C.3            1 S1                 0.0000
      2 ****        -4.3151   4.3766   0.7884 C.3            1 S1                 0.0000
      3 ****        -2.8688   4.2060   0.5019 N.4            1 S1                 1.0000
      4 ****        -2.4785   4.6402  -0.8621 C.3            1 S1                 0.0000
      5 ****        -0.9673   4.4528  -1.0744 C.3            1 S1                 0.0000
      6 ****        -0.6160   3.0969  -0.8292 O.3            1 S1                 0.0000
      7 ****        -0.8853   2.7059   0.5135 C.3            1 S1                 0.0000
      8 ****        -0.3832   1.2670   0.7058 C.3            1 S1                 0.0000
      9 ****         1.0743   1.2255   0.7612 N.3            1 S1                 0.0000
     10 ****         1.6125  -0.1160   0.9687 C.3            1 S1                 0.0000
     11 ****         3.1536  -0.0999   0.9670 C.3            1 S1                 0.0000
     12 ****         3.5945   0.4475   2.1921 O.3            1 S1                 0.0000
     13 ****         3.7894  -1.4979   0.8373 C.3            1 S1                 0.0000
     14 ****         3.4116  -2.1760  -0.3894 N.pl3          1 S1                 0.0000
     15 ****         3.8636  -1.9131  -1.6305 C.2            1 S1                 0.0000
     16 ****         3.3860  -2.6581  -2.6231 N.2            1 S1                 0.0000
     17 ****         2.5287  -3.5085  -1.9459 C.ar           1 S1                 0.0000
     18 ****         1.7049  -4.5506  -2.4245 C.ar           1 S1                 0.0000
     19 ****         0.8980  -5.3010  -1.5398 C.ar           1 S1                 0.0000
     20 ****         0.0271  -6.4131  -2.0975 C.3            1 S1                 0.0000
     21 ****         0.9088  -5.0134  -0.1513 C.ar           1 S1                 0.0000
     22 ****         0.0527  -5.8083   0.8187 C.3            1 S1                 0.0000
     23 ****         1.7242  -3.9741   0.3433 C.ar           1 S1                 0.0000
     24 ****         2.5230  -3.2345  -0.5468 C.ar           1 S1                 0.0000
     25 ****        -2.4027   2.8216   0.7562 C.3            1 S1                 0.0000
     26 ****        -5.7544   5.9285   1.2770 H              1 S1                 0.0000
     27 ****        -4.5926   6.4249   0.0601 H              1 S1                 0.0000
     28 ****        -4.1074   6.3219   1.7535 H              1 S1                 0.0000
     29 ****        -4.5597   3.8454   1.7093 H              1 S1                 0.0000
     30 ****        -4.9111   3.9165  -0.0013 H              1 S1                 0.0000
     31 ****        -3.0314   4.0610  -1.6032 H              1 S1                 0.0000
     32 ****        -2.7346   5.6878  -1.0176 H              1 S1                 0.0000
     33 ****        -0.6979   4.7071  -2.0996 H              1 S1                 0.0000
     34 ****        -0.3951   5.1145  -0.4219 H              1 S1                 0.0000
     35 ****        -0.3591   3.3663   1.2059 H              1 S1                 0.0000
     36 ****        -0.7883   0.8648   1.6352 H              1 S1                 0.0000
     37 ****        -0.7550   0.6309  -0.0985 H              1 S1                 0.0000
     38 ****         1.4587   1.6176  -0.0929 H              1 S1                 0.0000
     39 ****         1.2367  -0.5457   1.8984 H              1 S1                 0.0000
     40 ****         1.2534  -0.7602   0.1661 H              1 S1                 0.0000
     41 ****         3.5177   0.5302   0.1539 H              1 S1                 0.0000
     42 ****         3.2201   1.3103   2.2843 H              1 S1                 0.0000
     43 ****         4.8776  -1.4207   0.8585 H              1 S1                 0.0000
     44 ****         3.5073  -2.1245   1.6842 H              1 S1                 0.0000
     45 ****         4.5819  -1.1275  -1.8154 H              1 S1                 0.0000
     46 ****         1.6979  -4.7700  -3.4820 H              1 S1                 0.0000
     47 ****         0.3402  -7.3781  -1.6985 H              1 S1                 0.0000
     48 ****         0.0911  -6.4623  -3.1849 H              1 S1                 0.0000
     49 ****        -1.0179  -6.2511  -1.8327 H              1 S1                 0.0000
     50 ****         0.2246  -5.4955   1.8491 H              1 S1                 0.0000
     51 ****         0.2834  -6.8716   0.7504 H              1 S1                 0.0000
     52 ****        -1.0054  -5.6673   0.5974 H              1 S1                 0.0000
     53 ****         1.7389  -3.7441   1.3983 H              1 S1                 0.0000
     54 ****        -2.6303   2.5430   1.7860 H              1 S1                 0.0000
     55 ****        -2.9437   2.1291   0.1088 H              1 S1                 0.0000
     56 ****        -2.3729   4.7964   1.1546 H              1 S1                 0.0000
     57 ****         0.3607   2.9796  -1.0091 LP             1 S1                 0.0000
     58 ****        -1.1413   2.5114  -1.4467 LP             1 S1                 0.0000
     59 ****         1.3457   1.7688   1.5557 LP             1 S1                 0.0000
     60 ****         4.5925   0.5101   2.1945 LP             1 S1                 0.0000
     61 ****         3.2952  -0.1335   2.9490 LP             1 S1                 0.0000
     62 ****         3.5918  -2.6154  -3.6008 LP             1 S1                 0.0000
@<TRIPOS>BOND
    1    1    2 1     
    2    1   26 1     
    3    1   27 1     
    4    1   28 1     
    5    2    3 1     
    6    2   29 1     
    7    2   30 1     
    8    3   25 1     
    9    3    4 1     
   10    3   56 1     
   11    4    5 1     
   12    4   31 1     
   13    4   32 1     
   14    5    6 1     
   15    5   33 1     
   16    5   34 1     
   17    6    7 1     
   18    7    8 1     
   19    7   25 1     
   20    7   35 1     
   21    8    9 1     
   22    8   36 1     
   23    8   37 1     
   24    9   10 1     
   25    9   38 1     
   26   10   11 1     
   27   10   39 1     
   28   10   40 1     
   29   11   12 1     
   30   11   13 1     
   31   11   41 1     
   32   12   42 1     
   33   13   14 1     
   34   13   43 1     
   35   13   44 1     
   36   14   24 1     
   37   14   15 1     
   38   15   16 2     
   39   15   45 1     
   40   16   17 1     
   41   17   24 ar    
   42   17   18 ar    
   43   18   19 ar    
   44   18   46 1     
   45   19   20 1     
   46   19   21 ar    
   47   20   47 1     
   48   20   48 1     
   49   20   49 1     
   50   21   22 1     
   51   21   23 ar    
   52   22   50 1     
   53   22   51 1     
   54   22   52 1     
   55   23   24 ar    
   56   23   53 1     
   57   25   54 1     
   58   25   55 1     
   59    6   57 1     
   60    6   58 1     
   61    9   59 1     
   62   12   60 1     
   63   12   61 1     
   64   16   62 1     
@<TRIPOS>SUBSTRUCTURE
      1 S1             1
@<TRIPOS>SET
LONE_PAIRS      STATIC     ATOMS    <user>   **** ""
6 57 58 59 60 61 62
DONOR_HYDROGENS      STATIC     ATOMS    <user>   **** ""
3 56 38 42
ATOM$BLUE        STATIC     ATOMS    COLORGROUP SYSTEM
6 57 58 59 60 61 62
ATOM$RED        STATIC     ATOMS    COLORGROUP SYSTEM
3 56 38 42
