AV-unprocessed.smi:176|AV-procd|sdf|1433|dock4
  -GOLD-   2262019213D 1   1.00000     0.00000
 Structure written by MMmdl.
 57 61  0  0  0  0  0  0  0  0  1 V2000
  147.4467  133.9105  152.8345 O   0  0  0  0  0  0  0  0  0  0  0  0
  147.9516  132.6834  153.3193 C   0  0  0  0  0  0  0  0  0  0  0  0
  149.0368  132.8923  154.3900 C   0  0  0  0  0  0  0  0  0  0  0  0
  149.5943  131.5199  154.8244 C   0  0  0  0  0  0  0  0  0  0  0  0
  148.5899  130.6745  155.3468 O   0  0  0  0  0  0  0  0  0  0  0  0
  150.1289  133.9161  154.0045 C   0  0  0  0  0  0  0  0  0  0  0  0
  150.1156  134.4564  155.4363 C   0  0  0  0  0  0  0  0  0  0  0  0
  150.3919  135.8374  155.7026 N   0  0  0  0  0  0  0  0  0  0  0  0
  150.7767  136.7984  154.7943 C   0  0  0  0  0  0  0  0  0  0  0  0
  150.9271  137.9985  155.2847 N   0  0  0  0  0  0  0  0  0  0  0  0
  150.5921  137.8617  156.6268 C   0  0  0  0  0  0  0  0  0  0  0  0
  150.5195  138.7622  157.7268 C   0  0  0  0  0  0  0  0  0  0  0  0
  150.8430  140.0757  157.6197 N   0  0  0  0  0  0  0  0  0  0  0  0
  150.1909  140.8534  156.5646 C   0  0  0  0  0  0  0  0  0  0  0  0
  150.9132  142.1951  156.3356 C   0  0  0  0  0  0  0  0  0  0  0  0
  151.0786  142.9933  157.6464 C   0  0  2  0  0  0  0  0  0  0  0  0
  149.7829  143.3761  158.0791 O   0  0  0  0  0  0  0  0  0  0  0  0
  151.8987  144.2848  157.4309 C   0  0  0  0  0  0  0  0  0  0  0  0
  152.1621  145.0376  158.7496 C   0  0  0  0  0  0  0  0  0  0  0  0
  152.8147  144.1274  159.8026 C   0  0  0  0  0  0  0  0  0  0  0  0
  151.9920  142.8487  160.0330 C   0  0  0  0  0  0  0  0  0  0  0  0
  151.7626  142.0938  158.7094 C   0  0  1  0  0  0  0  0  0  0  0  0
  151.0025  140.7673  158.8986 C   0  0  0  0  0  0  0  0  0  0  0  0
  150.1055  138.2587  158.9206 N   0  0  0  0  0  0  0  0  0  0  0  0
  149.7939  136.9644  159.0358 C   0  0  0  0  0  0  0  0  0  0  0  0
  149.8251  136.0119  158.1019 N   0  0  0  0  0  0  0  0  0  0  0  0
  150.2346  136.5113  156.9007 C   0  0  0  0  0  0  0  0  0  0  0  0
  148.6966  133.8902  155.5210 C   0  0  0  0  0  0  0  0  0  0  0  0
  148.1750  134.4793  152.6374 H   0  0  0  0  0  0  0  0  0  0  0  0
  147.1239  132.0859  153.7027 H   0  0  0  0  0  0  0  0  0  0  0  0
  148.3514  132.1375  152.4642 H   0  0  0  0  0  0  0  0  0  0  0  0
  150.0789  131.0108  153.9909 H   0  0  0  0  0  0  0  0  0  0  0  0
  150.3591  131.6312  155.5932 H   0  0  0  0  0  0  0  0  0  0  0  0
  147.8049  131.1843  155.4762 H   0  0  0  0  0  0  0  0  0  0  0  0
  151.0804  133.4817  153.6956 H   0  0  0  0  0  0  0  0  0  0  0  0
  149.7892  134.6588  153.2800 H   0  0  0  0  0  0  0  0  0  0  0  0
  150.7954  133.8863  156.0718 H   0  0  0  0  0  0  0  0  0  0  0  0
  150.9487  136.5825  153.7499 H   0  0  0  0  0  0  0  0  0  0  0  0
  150.1839  140.2854  155.6334 H   0  0  0  0  0  0  0  0  0  0  0  0
  149.1499  141.0306  156.8390 H   0  0  0  0  0  0  0  0  0  0  0  0
  151.8965  141.9944  155.9075 H   0  0  0  0  0  0  0  0  0  0  0  0
  150.3735  142.7849  155.5937 H   0  0  0  0  0  0  0  0  0  0  0  0
  149.3353  143.7851  157.3544 H   0  0  0  0  0  0  0  0  0  0  0  0
  152.8568  144.0327  156.9743 H   0  0  0  0  0  0  0  0  0  0  0  0
  151.3915  144.9433  156.7242 H   0  0  0  0  0  0  0  0  0  0  0  0
  152.8018  145.8998  158.5600 H   0  0  0  0  0  0  0  0  0  0  0  0
  151.2252  145.4347  159.1416 H   0  0  0  0  0  0  0  0  0  0  0  0
  153.8199  143.8577  159.4761 H   0  0  0  0  0  0  0  0  0  0  0  0
  152.9310  144.6693  160.7415 H   0  0  0  0  0  0  0  0  0  0  0  0
  152.5128  142.2045  160.7423 H   0  0  0  0  0  0  0  0  0  0  0  0
  151.0363  143.1009  160.4939 H   0  0  0  0  0  0  0  0  0  0  0  0
  152.7505  141.8307  158.3263 H   0  0  0  0  0  0  0  0  0  0  0  0
  150.0156  140.9520  159.3250 H   0  0  0  0  0  0  0  0  0  0  0  0
  151.5374  140.1463  159.6163 H   0  0  0  0  0  0  0  0  0  0  0  0
  149.4742  136.6469  160.0173 H   0  0  0  0  0  0  0  0  0  0  0  0
  147.9357  134.6154  155.2257 H   0  0  0  0  0  0  0  0  0  0  0  0
  148.4495  133.4364  156.4812 H   0  0  0  0  0  0  0  0  0  0  0  0
  1  2  1  0  0  0  0
  1 29  1  0  0  0  0
  2  3  1  0  0  0  0
  2 30  1  0  0  0  0
  2 31  1  0  0  0  0
  3 28  1  0  0  0  0
  3  4  1  0  0  0  0
  3  6  1  0  0  0  0
  4  5  1  0  0  0  0
  4 32  1  0  0  0  0
  4 33  1  0  0  0  0
  5 34  1  0  0  0  0
  6  7  1  0  0  0  0
  6 35  1  0  0  0  0
  6 36  1  0  0  0  0
  7  8  1  0  0  0  0
  7 28  1  0  0  0  0
  7 37  1  0  0  0  0
  8 27  1  0  0  0  0
  8  9  1  0  0  0  0
  9 10  2  0  0  0  0
  9 38  1  0  0  0  0
 10 11  1  0  0  0  0
 11 27  2  0  0  0  0
 11 12  1  0  0  0  0
 12 13  1  0  0  0  0
 12 24  2  0  0  0  0
 13 23  1  0  0  0  0
 13 14  1  0  0  0  0
 14 15  1  0  0  0  0
 14 39  1  0  0  0  0
 14 40  1  0  0  0  0
 15 16  1  0  0  0  0
 15 41  1  0  0  0  0
 15 42  1  0  0  0  0
 16 22  1  0  0  0  0
 16 17  1  0  0  0  0
 16 18  1  0  0  0  0
 17 43  1  0  0  0  0
 18 19  1  0  0  0  0
 18 44  1  0  0  0  0
 18 45  1  0  0  0  0
 19 20  1  0  0  0  0
 19 46  1  0  0  0  0
 19 47  1  0  0  0  0
 20 21  1  0  0  0  0
 20 48  1  0  0  0  0
 20 49  1  0  0  0  0
 21 22  1  0  0  0  0
 21 50  1  0  0  0  0
 21 51  1  0  0  0  0
 22 23  1  0  0  0  0
 22 52  1  0  0  0  0
 23 53  1  0  0  0  0
 23 54  1  0  0  0  0
 24 25  1  0  0  0  0
 25 26  2  0  0  0  0
 25 55  1  0  0  0  0
 26 27  1  0  0  0  0
 28 56  1  0  0  0  0
 28 57  1  0  0  0  0
M  END
> <s_m_source_file>
AV-unprocessed.smi

> <i_m_source_file_index>
176

> <i_lp_mmshare_version>
43012

> <i_f3d_flags>
0

> <s_epik_input>
W09IXVtDSDJdQzEoW0NIMl1bT0hdKVtDSDJdW0NIXShbQ0gyXTEpbihbY0hdbjIpYyhjMjMpbltjSF1uYzNOKFtDSDJdW0NIMl00KVtDSDJdW0NAQEhdKFtDQF00NVtPSF0pW0NIMl1bQ0gyXVtDSDJdW0NIMl01

> <s_epik_cmdline>
J2VwaWtfcHl0aG9uJywgJy1waCcsICc3LjAnLCAnLXRuJywgJzgnLCAnLW1hJywgJzIwMCcsICctbWV0YWxfYmluZGluZycsICctaW1hZScsICc8aW5maWxlLm1hZT4nLCAnLW9tYWUnLCAnPG91dGZpbGUubWFlPic=

> <r_lp_tautomer_probability>
1

> <r_epik_Ionization_Penalty>
0.00642876

> <r_epik_Ionization_Penalty_Charging>
0

> <r_epik_Ionization_Penalty_Neutral>
0.00642876

> <r_epik_State_Penalty>
0.00467813

> <r_epik_Charging_Adjusted_Penalty>
0.00467813

> <i_epik_Tot_Q>
0

> <i_epik_Tot_abs_Q>
0

> <r_epik_Metal_State_Penalty>
-0

> <b_epik_Metal_Only>
0

> <s_lp_Force_Field>
OPLS_2005

> <r_lp_Energy>
51.6301

> <b_lp_Chiralities_Consistent>
1

> <s_lp_Variant>
AV-unprocessed.smi:176-1

> <Gold.Version>
5.8.1

> <Gold.Id.Protein>
6NUR|6NUR_protein|mol2

> <Gold.PLP.Fitness>
55.5762

> <Gold.PLP.PLP>
-45.4277

> <Gold.PLP.part.hbond>
-3.2673

> <Gold.PLP.part.metal>
0.0000

> <Gold.PLP.part.buried>
-7.7617

> <Gold.PLP.part.nonpolar>
-34.8474

> <Gold.PLP.part.repulsive>
0.0775

> <Gold.PLP.ligand.clash>
0.0000

> <Gold.PLP.ligand.torsion>
0.4581

> <Gold.PLP.Chemscore.Hbond>
2.3527

> <Gold.PLP.Chemscore.CHOScore>
1.0384

> <Gold.PLP.Chemscore.Metal>
0.0000

> <Gold.Chemscore.Hbonds>
donor molecule, donor type, donor heavy atom, donor atom, acceptor molecule, acceptor atom, score
      L1  H     1    29       P1  7948  1.00
      L1  H    17    43       P1  8028  1.00
      P1  H  6896  6907       L1    26  0.31
      L1  C     9    38       P1  7948  0.06
      L1  C     9    38       P1  7949  0.96

> <Gold.PLP.Chemscore.Internal.Correction>
0.8913

> <Gold.Rescore>
     Score         DG    S(hbond)    S(metal)    S(lipo)     H(rot)  DE(clash)    DE(int)     intcor
     14.07     -14.90       1.34        0.00     123.40       3.71       0.36       0.47       ----

> <Gold.Chemscore.Fitness>
14.0702

> <Gold.Chemscore.DG>
-14.9010

> <Gold.Chemscore.ZeroCoef>
-5.4800

> <Gold.Chemscore.Hbond>
1.3424

> <Gold.Chemscore.Metal>
0.0000

> <Gold.Chemscore.Lipo>
123.3972

> <Gold.Chemscore.Internal_Hbond>
0.0000

> <Gold.Chemscore.DEClash>
0.3621

> <Gold.Chemscore.DEInternal>
0.4687

> <Gold.Chemscore.Rot>
3.7109

> <Gold.Chemscore.Internal.Correction>
   9.000000E+99

> <Gold.Chemscore.Hbonds>
donor molecule, donor type, donor heavy atom, donor atom, acceptor molecule, acceptor atom, score
      L1  H     1    29       P1  7948  0.32
      L1  H    17    43       P1  8028  0.39
      P1  H  6896  6907       L1    26  0.03

> <Gold.Chemscore.Hbond.Weighted>
-4.4835

> <Gold.Chemscore.Metal.Weighted>
-0.0000

> <Gold.Chemscore.Lipo.Weighted>
-14.4375

> <Gold.Chemscore.Internal_Hbond.Weighted>
0.0000

> <Gold.Chemscore.DEClash.Weighted>
0.3621

> <Gold.Chemscore.DEInternal.Weighted>
0.4687

> <Gold.Chemscore.Rot.Weighted>
9.5000

> <Gold.Chemscore.Internal.Correction.Weighted>
   9.000000E+99

> <Gold.Protein.RotatedTorsions>
[ 6907 6896 6895 6894 ] final  -76.77 input  -60.11 | X-H torsion
[ 7974 7965 7964 7962 ] final    3.70 input  175.53 | X-H torsion
[ 8008 7997 7996 7995 ] final   45.02 input   59.86 | X-H torsion
[ 10167 10162 10161 10158 ] final -133.89 input  -65.29 | X-H torsion
[ 10718 10713 10712 10709 ] final -126.42 input   66.30 | X-H torsion
[ 10763 10752 10751 10750 ] final  -50.53 input  -60.55 | X-H torsion
[ 11005 11000 10999 10996 ] final    7.46 input  -57.11 | X-H torsion

> <Gold.Protein.ActiveResidues>
 VAL166  LYS551  ARG553  GLY616  TRP617  ASP618  TYR619  PRO620  LYS621  CYS622 
 ASP623  PHE694  ASN695  SER759  ASP760  ASP761  ALA762  ILE779  LEU786  VAL792 
 PHE793  MET794  SER795  GLU796  ALA797  LYS798  CYS799  TRP800  GLU811  SER814 

> <Gold.Protein.RotatedAtoms>
  150.7018  134.4522  159.5341 H   0  0  0  0  0  0  0  0  0  0  0  0  # atno 6907 bound_to 6896
  152.2213  134.8408  160.0495 H   0  0  0  0  0  0  0  0  0  0  0  0  # atno 6908 bound_to 6896
  151.9257  133.3562  159.3950 H   0  0  0  0  0  0  0  0  0  0  0  0  # atno 6909 bound_to 6896
  146.2445  140.0646  142.8366 H   0  0  0  0  0  0  0  0  0  0  0  0  # atno 7974 bound_to 7965
  155.3290  140.3401  155.4240 H   0  0  0  0  0  0  0  0  0  0  0  0  # atno 8008 bound_to 7997
  156.1871  140.1684  156.8201 H   0  0  0  0  0  0  0  0  0  0  0  0  # atno 8009 bound_to 7997
  154.5399  140.0727  156.8475 H   0  0  0  0  0  0  0  0  0  0  0  0  # atno 8010 bound_to 7997
  139.8936  143.6692  152.2608 H   0  0  0  0  0  0  0  0  0  0  0  0  # atno 10167 bound_to 10162
  156.1763  130.6702  151.0247 H   0  0  0  0  0  0  0  0  0  0  0  0  # atno 10718 bound_to 10713
  154.1119  135.6548  153.4886 H   0  0  0  0  0  0  0  0  0  0  0  0  # atno 10763 bound_to 10752
  153.0254  135.5249  154.7183 H   0  0  0  0  0  0  0  0  0  0  0  0  # atno 10764 bound_to 10752
  154.6366  135.2983  155.0123 H   0  0  0  0  0  0  0  0  0  0  0  0  # atno 10765 bound_to 10752
  140.5480  134.0310  155.7927 H   0  0  0  0  0  0  0  0  0  0  0  0  # atno 11005 bound_to 11000
  145.0870  140.9259  143.4791 LP  0  0  0  0  0  0  0  0  0  0  0  0  # atno 17320 bound_to 7965
  145.0810  139.2959  143.5783 LP  0  0  0  0  0  0  0  0  0  0  0  0  # atno 17321 bound_to 7965
  139.7087  144.7624  151.1148 LP  0  0  0  0  0  0  0  0  0  0  0  0  # atno 17342 bound_to 10162
  140.7721  143.5359  150.9369 LP  0  0  0  0  0  0  0  0  0  0  0  0  # atno 17343 bound_to 10162
  157.6838  131.0830  150.7298 LP  0  0  0  0  0  0  0  0  0  0  0  0  # atno 17370 bound_to 10713
  156.7356  130.4723  149.5489 LP  0  0  0  0  0  0  0  0  0  0  0  0  # atno 17371 bound_to 10713
  141.1188  133.9495  157.2770 LP  0  0  0  0  0  0  0  0  0  0  0  0  # atno 17394 bound_to 11000
  139.9469  135.0182  156.8880 LP  0  0  0  0  0  0  0  0  0  0  0  0  # atno 17395 bound_to 11000

$$$$
