AV-unprocessed.smi:3241|AV-procd|sdf|12390|dock3
  -GOLD-   2272018263D 1   1.00000     0.00000
 Structure written by MMmdl.
 43 44  0  0  0  0  0  0  0  0  1 V2000
  151.2559  145.4850  159.8636 C   0  0  0  0  0  0  0  0  0  0  0  0
  152.3007  144.4059  160.1882 C   0  0  1  0  0  0  0  0  0  0  0  0
  152.0091  143.7097  161.5330 C   0  0  0  0  0  0  0  0  0  0  0  0
  153.0802  142.6594  161.8685 C   0  0  0  0  0  0  0  0  0  0  0  0
  153.2309  141.6333  160.7353 C   0  0  0  0  0  0  0  0  0  0  0  0
  153.5220  142.3251  159.3932 C   0  0  0  0  0  0  0  0  0  0  0  0
  152.4443  143.3749  159.0463 C   0  0  1  0  0  0  0  0  0  0  0  0
  151.1855  142.7402  158.8504 O   0  0  0  0  0  0  0  0  0  0  0  0
  150.8553  142.4867  157.4932 C   0  0  0  0  0  0  0  0  0  0  0  0
  149.6265  141.5733  157.4563 C   0  0  0  0  0  0  0  0  0  0  0  0
  148.6202  142.1014  156.5427 N   0  0  0  0  0  0  0  0  0  0  0  0
  148.0448  141.0944  155.6563 C   0  0  0  0  0  0  0  0  0  0  0  0
  148.8119  141.0030  154.3270 C   0  0  0  0  0  0  0  0  0  0  0  0
  149.8562  139.9944  154.3591 N   0  0  0  0  0  0  0  0  0  0  0  0
  149.7747  138.6679  153.9916 C   0  0  0  0  0  0  0  0  0  0  0  0
  151.0078  138.1151  154.1881 C   0  0  0  0  0  0  0  0  0  0  0  0
  151.7875  139.1966  154.6850 C   0  0  0  0  0  0  0  0  0  0  0  0
  151.0950  140.3192  154.7894 N   0  0  0  0  0  0  0  0  0  0  0  0
  150.2574  145.0581  159.7651 H   0  0  0  0  0  0  0  0  0  0  0  0
  151.4941  145.9929  158.9287 H   0  0  0  0  0  0  0  0  0  0  0  0
  151.2170  146.2407  160.6484 H   0  0  0  0  0  0  0  0  0  0  0  0
  153.2599  144.9163  160.2877 H   0  0  0  0  0  0  0  0  0  0  0  0
  151.9628  144.4494  162.3329 H   0  0  0  0  0  0  0  0  0  0  0  0
  151.0288  143.2324  161.4993 H   0  0  0  0  0  0  0  0  0  0  0  0
  154.0360  143.1555  162.0408 H   0  0  0  0  0  0  0  0  0  0  0  0
  152.8245  142.1510  162.7985 H   0  0  0  0  0  0  0  0  0  0  0  0
  154.0318  140.9329  160.9737 H   0  0  0  0  0  0  0  0  0  0  0  0
  152.3185  141.0413  160.6523 H   0  0  0  0  0  0  0  0  0  0  0  0
  154.4943  142.8161  159.4484 H   0  0  0  0  0  0  0  0  0  0  0  0
  153.6100  141.5790  158.6043 H   0  0  0  0  0  0  0  0  0  0  0  0
  152.7336  143.9064  158.1377 H   0  0  0  0  0  0  0  0  0  0  0  0
  150.6241  143.4331  157.0025 H   0  0  0  0  0  0  0  0  0  0  0  0
  151.6831  142.0326  156.9477 H   0  0  0  0  0  0  0  0  0  0  0  0
  149.9230  140.5655  157.1636 H   0  0  0  0  0  0  0  0  0  0  0  0
  149.2027  141.4987  158.4584 H   0  0  0  0  0  0  0  0  0  0  0  0
  149.0204  142.8559  155.9935 H   0  0  0  0  0  0  0  0  0  0  0  0
  148.0727  140.1199  156.1454 H   0  0  0  0  0  0  0  0  0  0  0  0
  146.9942  141.3153  155.4647 H   0  0  0  0  0  0  0  0  0  0  0  0
  148.1309  140.7939  153.5002 H   0  0  0  0  0  0  0  0  0  0  0  0
  149.2803  141.9632  154.1080 H   0  0  0  0  0  0  0  0  0  0  0  0
  148.8569  138.2343  153.6228 H   0  0  0  0  0  0  0  0  0  0  0  0
  151.3077  137.0944  154.0036 H   0  0  0  0  0  0  0  0  0  0  0  0
  152.8286  139.1989  154.9715 H   0  0  0  0  0  0  0  0  0  0  0  0
  1  2  1  0  0  0  0
  1 19  1  0  0  0  0
  1 20  1  0  0  0  0
  1 21  1  0  0  0  0
  2  7  1  0  0  0  0
  2  3  1  0  0  0  0
  2 22  1  0  0  0  0
  3  4  1  0  0  0  0
  3 23  1  0  0  0  0
  3 24  1  0  0  0  0
  4  5  1  0  0  0  0
  4 25  1  0  0  0  0
  4 26  1  0  0  0  0
  5  6  1  0  0  0  0
  5 27  1  0  0  0  0
  5 28  1  0  0  0  0
  6  7  1  0  0  0  0
  6 29  1  0  0  0  0
  6 30  1  0  0  0  0
  7  8  1  0  0  0  0
  7 31  1  0  0  0  0
  8  9  1  0  0  0  0
  9 10  1  0  0  0  0
  9 32  1  0  0  0  0
  9 33  1  0  0  0  0
 10 11  1  0  0  0  0
 10 34  1  0  0  0  0
 10 35  1  0  0  0  0
 11 12  1  0  0  0  0
 11 36  1  0  0  0  0
 12 13  1  0  0  0  0
 12 37  1  0  0  0  0
 12 38  1  0  0  0  0
 13 14  1  0  0  0  0
 13 39  1  0  0  0  0
 13 40  1  0  0  0  0
 14 18  1  0  0  0  0
 14 15  1  0  0  0  0
 15 16  2  0  0  0  0
 15 41  1  0  0  0  0
 16 17  1  0  0  0  0
 16 42  1  0  0  0  0
 17 18  2  0  0  0  0
 17 43  1  0  0  0  0
M  END
> <s_m_source_file>
AV-unprocessed.smi

> <i_m_source_file_index>
3241

> <i_lp_mmshare_version>
43012

> <i_f3d_flags>
0

> <s_epik_input>
W0NIM11bQ0BASF0xW0NIMl1bQ0gyXVtDSDJdW0NIMl1bQ0BIXTFPW0NIMl1bQ0gyXVtOSF1bQ0gyXVtDSDJdbjJbY0hdW2NIXVtjSF1uMg==

> <s_epik_cmdline>
J2VwaWtfcHl0aG9uJywgJy1waCcsICc3LjAnLCAnLXRuJywgJzgnLCAnLW1hJywgJzIwMCcsICctbWV0YWxfYmluZGluZycsICctaW1hZScsICc8aW5maWxlLm1hZT4nLCAnLW9tYWUnLCAnPG91dGZpbGUubWFlPic=

> <r_lp_tautomer_probability>
1

> <r_epik_Ionization_Penalty>
2.47055

> <r_epik_Ionization_Penalty_Charging>
0

> <r_epik_Ionization_Penalty_Neutral>
2.47055

> <r_epik_State_Penalty>
2.6322

> <r_epik_Charging_Adjusted_Penalty>
2.6322

> <i_epik_Tot_Q>
0

> <i_epik_Tot_abs_Q>
0

> <r_epik_Metal_State_Penalty>
2.63108

> <b_epik_Metal_Only>
0

> <s_lp_Force_Field>
OPLS_2005

> <r_lp_Energy>
16.4291

> <b_lp_Chiralities_Consistent>
1

> <s_lp_Variant>
AV-unprocessed.smi:3241-6

> <Gold.Version>
5.8.1

> <Gold.Id.Protein>
6NUR|6NUR_protein|mol2

> <Gold.PLP.Fitness>
51.5494

> <Gold.PLP.PLP>
-49.0555

> <Gold.PLP.part.hbond>
-2.0000

> <Gold.PLP.part.metal>
0.0000

> <Gold.PLP.part.buried>
-4.3196

> <Gold.PLP.part.nonpolar>
-43.1049

> <Gold.PLP.part.repulsive>
0.0981

> <Gold.PLP.ligand.clash>
0.0000

> <Gold.PLP.ligand.torsion>
2.0200

> <Gold.PLP.Chemscore.Hbond>
1.6020

> <Gold.PLP.Chemscore.CHOScore>
0.5539

> <Gold.PLP.Chemscore.Metal>
0.0000

> <Gold.Chemscore.Hbonds>
donor molecule, donor type, donor heavy atom, donor atom, acceptor molecule, acceptor atom, score
      L1  H    11    36       P1  8028  0.85
      P1  H  7989  7998       L1    18  0.57
      L1  C    15    41       P1  7948  0.55

> <Gold.PLP.Chemscore.Internal.Correction>
0.0665

> <Gold.Rescore>
     Score         DG    S(hbond)    S(metal)    S(lipo)     H(rot)  DE(clash)    DE(int)     intcor
     19.72     -21.43       1.76        0.00     125.26       1.79       0.02       1.70       ----

> <Gold.Chemscore.Fitness>
19.7186

> <Gold.Chemscore.DG>
-21.4341

> <Gold.Chemscore.ZeroCoef>
-5.4800

> <Gold.Chemscore.Hbond>
1.7610

> <Gold.Chemscore.Metal>
0.0000

> <Gold.Chemscore.Lipo>
125.2559

> <Gold.Chemscore.Internal_Hbond>
0.0000

> <Gold.Chemscore.DEClash>
0.0164

> <Gold.Chemscore.DEInternal>
1.6991

> <Gold.Chemscore.Rot>
1.7901

> <Gold.Chemscore.Internal.Correction>
   9.000000E+99

> <Gold.Chemscore.Hbonds>
donor molecule, donor type, donor heavy atom, donor atom, acceptor molecule, acceptor atom, score
      L1  H    11    36       P1  8028  0.85
      P1  H  7989  7998       L1    18  0.01

> <Gold.Chemscore.Hbond.Weighted>
-5.8819

> <Gold.Chemscore.Metal.Weighted>
-0.0000

> <Gold.Chemscore.Lipo.Weighted>
-14.6549

> <Gold.Chemscore.Internal_Hbond.Weighted>
0.0000

> <Gold.Chemscore.DEClash.Weighted>
0.0164

> <Gold.Chemscore.DEInternal.Weighted>
1.6991

> <Gold.Chemscore.Rot.Weighted>
4.5827

> <Gold.Chemscore.Internal.Correction.Weighted>
   9.000000E+99

> <Gold.Protein.RotatedTorsions>
[ 6907 6896 6895 6894 ] final   61.18 input  -60.11 | X-H torsion
[ 7974 7965 7964 7962 ] final  -15.99 input  175.53 | X-H torsion
[ 8008 7997 7996 7995 ] final   -3.30 input   59.86 | X-H torsion
[ 10167 10162 10161 10158 ] final  116.88 input  -65.29 | X-H torsion
[ 10718 10713 10712 10709 ] final   65.92 input   66.30 | X-H torsion
[ 10763 10752 10751 10750 ] final   83.91 input  -60.55 | X-H torsion
[ 11005 11000 10999 10996 ] final  -53.87 input  -57.11 | X-H torsion

> <Gold.Protein.ActiveResidues>
 VAL166  LYS551  ARG553  GLY616  TRP617  ASP618  TYR619  PRO620  LYS621  CYS622 
 ASP623  PHE694  ASN695  SER759  ASP760  ASP761  ALA762  ILE779  LEU786  VAL792 
 PHE793  MET794  SER795  GLU796  ALA797  LYS798  CYS799  TRP800  GLU811  SER814 

> <Gold.Protein.RotatedAtoms>
  152.4067  134.6194  160.0046 H   0  0  0  0  0  0  0  0  0  0  0  0  # atno 6907 bound_to 6896
  151.6384  133.3322  159.3132 H   0  0  0  0  0  0  0  0  0  0  0  0  # atno 6908 bound_to 6896
  150.7961  134.7063  159.6623 H   0  0  0  0  0  0  0  0  0  0  0  0  # atno 6909 bound_to 6896
  146.2008  140.3572  142.8424 H   0  0  0  0  0  0  0  0  0  0  0  0  # atno 7974 bound_to 7965
  154.6264  140.2513  155.7486 H   0  0  0  0  0  0  0  0  0  0  0  0  # atno 8008 bound_to 7997
  156.2455  140.2916  156.0515 H   0  0  0  0  0  0  0  0  0  0  0  0  # atno 8009 bound_to 7997
  155.1814  140.0389  157.2873 H   0  0  0  0  0  0  0  0  0  0  0  0  # atno 8010 bound_to 7997
  139.6217  144.7102  151.2621 H   0  0  0  0  0  0  0  0  0  0  0  0  # atno 10167 bound_to 10162
  157.6137  130.9240  150.0041 H   0  0  0  0  0  0  0  0  0  0  0  0  # atno 10718 bound_to 10713
  153.1333  135.4674  154.9383 H   0  0  0  0  0  0  0  0  0  0  0  0  # atno 10763 bound_to 10752
  154.7684  135.3151  154.8242 H   0  0  0  0  0  0  0  0  0  0  0  0  # atno 10764 bound_to 10752
  153.8780  135.6897  153.4823 H   0  0  0  0  0  0  0  0  0  0  0  0  # atno 10765 bound_to 10752
  141.0998  133.6619  156.4237 H   0  0  0  0  0  0  0  0  0  0  0  0  # atno 11005 bound_to 11000
  144.8679  140.7231  143.6066 LP  0  0  0  0  0  0  0  0  0  0  0  0  # atno 17320 bound_to 7965
  145.3491  139.1711  143.4444 LP  0  0  0  0  0  0  0  0  0  0  0  0  # atno 17321 bound_to 7965
  140.7386  143.6644  150.8136 LP  0  0  0  0  0  0  0  0  0  0  0  0  # atno 17342 bound_to 10162
  140.0255  143.5497  152.2782 LP  0  0  0  0  0  0  0  0  0  0  0  0  # atno 17343 bound_to 10162
  156.1249  130.3645  149.9825 LP  0  0  0  0  0  0  0  0  0  0  0  0  # atno 17370 bound_to 10713
  156.7898  130.9252  151.3646 LP  0  0  0  0  0  0  0  0  0  0  0  0  # atno 17371 bound_to 10713
  140.5051  134.6449  157.5263 LP  0  0  0  0  0  0  0  0  0  0  0  0  # atno 17394 bound_to 11000
  139.9845  134.7083  155.9798 LP  0  0  0  0  0  0  0  0  0  0  0  0  # atno 17395 bound_to 11000

$$$$
