AV-unprocessed.smi:1156|AV-procd|sdf|4905|dock1
  -GOLD-   22720 3483D 1   1.00000     0.00000
 Structure written by MMmdl.
 31 32  0  0  0  0  0  0  0  0  1 V2000
  154.8157  140.3790  161.6521 C   0  0  0  0  0  0  0  0  0  0  0  0
  154.0227  141.3279  160.8863 N   0  0  0  0  0  0  0  0  0  0  0  0
  153.5914  141.1125  159.6342 C   0  0  0  0  0  0  0  0  0  0  0  0
  153.8206  140.0768  159.0086 O   0  0  0  0  0  0  0  0  0  0  0  0
  152.7577  142.2203  159.0430 C   0  0  0  0  0  0  0  0  0  0  0  0
  152.8498  143.5225  159.5880 C   0  0  0  0  0  0  0  0  0  0  0  0
  152.1115  144.5719  159.0133 C   0  0  0  0  0  0  0  0  0  0  0  0
  151.3059  144.2843  157.8989 C   0  0  0  0  0  0  0  0  0  0  0  0
  151.2060  143.0525  157.3614 N   0  0  0  0  0  0  0  0  0  0  0  0
  151.9113  142.0311  157.9092 C   0  0  0  0  0  0  0  0  0  0  0  0
  151.7318  140.7610  157.3249 N   0  0  0  0  0  0  0  0  0  0  0  0
  151.1648  139.7688  158.2301 C   0  0  0  0  0  0  0  0  0  0  0  0
  151.2676  138.3679  157.6028 C   0  0  0  0  0  0  0  0  0  0  0  0
  150.6415  138.3669  156.3224 O   0  0  0  0  0  0  0  0  0  0  0  0
  151.2573  139.2858  155.4239 C   0  0  0  0  0  0  0  0  0  0  0  0
  151.1456  140.7117  155.9894 C   0  0  0  0  0  0  0  0  0  0  0  0
  155.0526  140.7965  162.6308 H   0  0  0  0  0  0  0  0  0  0  0  0
  155.7529  140.1535  161.1414 H   0  0  0  0  0  0  0  0  0  0  0  0
  154.2675  139.4479  161.8017 H   0  0  0  0  0  0  0  0  0  0  0  0
  153.7791  142.1981  161.3371 H   0  0  0  0  0  0  0  0  0  0  0  0
  153.4886  143.7270  160.4351 H   0  0  0  0  0  0  0  0  0  0  0  0
  152.1680  145.5736  159.4127 H   0  0  0  0  0  0  0  0  0  0  0  0
  150.7260  145.0630  157.4261 H   0  0  0  0  0  0  0  0  0  0  0  0
  151.6787  139.7827  159.1914 H   0  0  0  0  0  0  0  0  0  0  0  0
  150.1204  140.0173  158.4231 H   0  0  0  0  0  0  0  0  0  0  0  0
  152.3107  138.0614  157.5093 H   0  0  0  0  0  0  0  0  0  0  0  0
  150.7756  137.6334  158.2400 H   0  0  0  0  0  0  0  0  0  0  0  0
  152.3015  139.0111  155.2647 H   0  0  0  0  0  0  0  0  0  0  0  0
  150.7602  139.2254  154.4556 H   0  0  0  0  0  0  0  0  0  0  0  0
  150.0966  141.0081  156.0347 H   0  0  0  0  0  0  0  0  0  0  0  0
  151.6570  141.4166  155.3328 H   0  0  0  0  0  0  0  0  0  0  0  0
  1  2  1  0  0  0  0
  1 17  1  0  0  0  0
  1 18  1  0  0  0  0
  1 19  1  0  0  0  0
  2  3  1  0  0  0  0
  2 20  1  0  0  0  0
  3  4  2  0  0  0  0
  3  5  1  0  0  0  0
  5 10  1  0  0  0  0
  5  6  2  0  0  0  0
  6  7  1  0  0  0  0
  6 21  1  0  0  0  0
  7  8  2  0  0  0  0
  7 22  1  0  0  0  0
  8  9  1  0  0  0  0
  8 23  1  0  0  0  0
  9 10  2  0  0  0  0
 10 11  1  0  0  0  0
 11 16  1  0  0  0  0
 11 12  1  0  0  0  0
 12 13  1  0  0  0  0
 12 24  1  0  0  0  0
 12 25  1  0  0  0  0
 13 14  1  0  0  0  0
 13 26  1  0  0  0  0
 13 27  1  0  0  0  0
 14 15  1  0  0  0  0
 15 16  1  0  0  0  0
 15 28  1  0  0  0  0
 15 29  1  0  0  0  0
 16 30  1  0  0  0  0
 16 31  1  0  0  0  0
M  END
> <s_m_source_file>
AV-unprocessed.smi

> <i_m_source_file_index>
1156

> <i_lp_mmshare_version>
43012

> <i_f3d_flags>
0

> <s_epik_input>
W0NIM11bTkhdQyg9TyljMVtjSF1bY0hdW2NIXW5jMU4yW0NIMl1bQ0gyXU9bQ0gyXVtDSDJdMg==

> <s_epik_cmdline>
J2VwaWtfcHl0aG9uJywgJy1waCcsICc3LjAnLCAnLXRuJywgJzgnLCAnLW1hJywgJzIwMCcsICctbWV0YWxfYmluZGluZycsICctaW1hZScsICc8aW5maWxlLm1hZT4nLCAnLW9tYWUnLCAnPG91dGZpbGUubWFlPic=

> <r_lp_tautomer_probability>
1

> <r_epik_Ionization_Penalty>
1.43053e-05

> <r_epik_Ionization_Penalty_Charging>
0

> <r_epik_Ionization_Penalty_Neutral>
1.43053e-05

> <r_epik_State_Penalty>
-0

> <r_epik_Charging_Adjusted_Penalty>
0

> <i_epik_Tot_Q>
0

> <i_epik_Tot_abs_Q>
0

> <r_epik_Metal_State_Penalty>
-0

> <b_epik_Metal_Only>
0

> <s_lp_Force_Field>
OPLS_2005

> <r_lp_Energy>
24.2931

> <b_lp_Chiralities_Consistent>
1

> <s_lp_Variant>
AV-unprocessed.smi:1156-1

> <Gold.Version>
5.8.1

> <Gold.Id.Protein>
6NUR|6NUR_protein|mol2

> <Gold.PLP.Fitness>
37.2692

> <Gold.PLP.PLP>
-32.0471

> <Gold.PLP.part.hbond>
-1.0000

> <Gold.PLP.part.metal>
0.0000

> <Gold.PLP.part.buried>
-4.0893

> <Gold.PLP.part.nonpolar>
-27.0178

> <Gold.PLP.part.repulsive>
0.1387

> <Gold.PLP.ligand.clash>
0.0000

> <Gold.PLP.ligand.torsion>
0.3757

> <Gold.PLP.Chemscore.Hbond>
0.9920

> <Gold.PLP.Chemscore.CHOScore>
0.9221

> <Gold.PLP.Chemscore.Metal>
0.0000

> <Gold.Chemscore.Hbonds>
donor molecule, donor type, donor heavy atom, donor atom, acceptor molecule, acceptor atom, score
      P1  H  7997  8010       L1     4  0.96
      L1  C     8    23       P1  8028  0.95

> <Gold.PLP.Chemscore.Internal.Correction>
0.2312

> <Gold.Rescore>
     Score         DG    S(hbond)    S(metal)    S(lipo)     H(rot)  DE(clash)    DE(int)     intcor
     12.03     -15.24       0.98        0.00      77.33       1.00       0.02       3.20       ----

> <Gold.Chemscore.Fitness>
12.0326

> <Gold.Chemscore.DG>
-15.2428

> <Gold.Chemscore.ZeroCoef>
-5.4800

> <Gold.Chemscore.Hbond>
0.9807

> <Gold.Chemscore.Metal>
0.0000

> <Gold.Chemscore.Lipo>
77.3266

> <Gold.Chemscore.Internal_Hbond>
0.0000

> <Gold.Chemscore.DEClash>
0.0151

> <Gold.Chemscore.DEInternal>
3.1951

> <Gold.Chemscore.Rot>
1.0000

> <Gold.Chemscore.Internal.Correction>
   9.000000E+99

> <Gold.Chemscore.Hbonds>
donor molecule, donor type, donor heavy atom, donor atom, acceptor molecule, acceptor atom, score
      P1  H  7997  8010       L1     4  0.86

> <Gold.Chemscore.Hbond.Weighted>
-3.2755

> <Gold.Chemscore.Metal.Weighted>
-0.0000

> <Gold.Chemscore.Lipo.Weighted>
-9.0472

> <Gold.Chemscore.Internal_Hbond.Weighted>
0.0000

> <Gold.Chemscore.DEClash.Weighted>
0.0151

> <Gold.Chemscore.DEInternal.Weighted>
3.1951

> <Gold.Chemscore.Rot.Weighted>
2.5600

> <Gold.Chemscore.Internal.Correction.Weighted>
   9.000000E+99

> <Gold.Protein.RotatedTorsions>
[ 6907 6896 6895 6894 ] final  137.99 input  -60.11 | X-H torsion
[ 7974 7965 7964 7962 ] final  -66.89 input  175.53 | X-H torsion
[ 8008 7997 7996 7995 ] final   15.09 input   59.86 | X-H torsion
[ 10167 10162 10161 10158 ] final  -80.93 input  -65.29 | X-H torsion
[ 10718 10713 10712 10709 ] final   22.25 input   66.30 | X-H torsion
[ 10763 10752 10751 10750 ] final -140.33 input  -60.55 | X-H torsion
[ 11005 11000 10999 10996 ] final  175.28 input  -57.11 | X-H torsion

> <Gold.Protein.ActiveResidues>
 VAL166  LYS551  ARG553  GLY616  TRP617  ASP618  TYR619  PRO620  LYS621  CYS622 
 ASP623  PHE694  ASN695  SER759  ASP760  ASP761  ALA762  ILE779  LEU786  VAL792 
 PHE793  MET794  SER795  GLU796  ALA797  LYS798  CYS799  TRP800  GLU811  SER814 

> <Gold.Protein.RotatedAtoms>
  152.2717  133.5389  159.5443 H   0  0  0  0  0  0  0  0  0  0  0  0  # atno 6907 bound_to 6896
  150.7162  134.0688  159.3866 H   0  0  0  0  0  0  0  0  0  0  0  0  # atno 6908 bound_to 6896
  151.8602  135.0527  160.0519 H   0  0  0  0  0  0  0  0  0  0  0  0  # atno 6909 bound_to 6896
  145.7360  140.8975  143.0555 H   0  0  0  0  0  0  0  0  0  0  0  0  # atno 7974 bound_to 7965
  154.8577  140.2939  155.5558 H   0  0  0  0  0  0  0  0  0  0  0  0  # atno 8008 bound_to 7997
  156.3019  140.2484  156.3478 H   0  0  0  0  0  0  0  0  0  0  0  0  # atno 8009 bound_to 7997
  154.8952  140.0393  157.1851 H   0  0  0  0  0  0  0  0  0  0  0  0  # atno 8010 bound_to 7997
  140.4458  143.2499  151.8560 H   0  0  0  0  0  0  0  0  0  0  0  0  # atno 10167 bound_to 10162
  157.1498  130.6669  149.6008 H   0  0  0  0  0  0  0  0  0  0  0  0  # atno 10718 bound_to 10713
  154.8582  135.3556  154.5691 H   0  0  0  0  0  0  0  0  0  0  0  0  # atno 10763 bound_to 10752
  153.6304  135.7002  153.5282 H   0  0  0  0  0  0  0  0  0  0  0  0  # atno 10764 bound_to 10752
  153.3054  135.4194  155.1249 H   0  0  0  0  0  0  0  0  0  0  0  0  # atno 10765 bound_to 10752
  140.3605  134.7117  157.4328 H   0  0  0  0  0  0  0  0  0  0  0  0  # atno 11005 bound_to 11000
  144.6881  139.9396  143.7474 LP  0  0  0  0  0  0  0  0  0  0  0  0  # atno 17320 bound_to 7965
  146.0492  139.3495  143.0649 LP  0  0  0  0  0  0  0  0  0  0  0  0  # atno 17321 bound_to 7965
  139.4793  144.5177  151.8845 LP  0  0  0  0  0  0  0  0  0  0  0  0  # atno 17342 bound_to 10162
  140.4265  144.2173  150.5887 LP  0  0  0  0  0  0  0  0  0  0  0  0  # atno 17343 bound_to 10162
  155.9773  130.4748  150.6582 LP  0  0  0  0  0  0  0  0  0  0  0  0  # atno 17370 bound_to 10713
  157.4231  131.0839  151.1111 LP  0  0  0  0  0  0  0  0  0  0  0  0  # atno 17371 bound_to 10713
  140.0630  134.5968  155.8727 LP  0  0  0  0  0  0  0  0  0  0  0  0  # atno 17394 bound_to 11000
  141.1985  133.6602  156.5797 LP  0  0  0  0  0  0  0  0  0  0  0  0  # atno 17395 bound_to 11000

$$$$
