AV-unprocessed.smi:1451|AV-procd|sdf|5902|dock8
  -GOLD-   22720 5593D 1   1.00000     0.00000
 Structure written by MMmdl.
 47 48  0  0  0  0  0  0  0  0  2 V2000
  143.3747  145.9803  154.1350 C   0  0  0  0  0  0  0  0  0  0  0  0
  144.1660  144.9149  154.9068 C   0  0  1  0  0  0  0  0  0  0  0  0
  143.2404  144.0494  155.7780 C   0  0  0  0  0  0  0  0  0  0  0  0
  144.0532  142.9777  156.5150 C   0  0  0  0  0  0  0  0  0  0  0  0
  144.8803  142.1385  155.5283 C   0  0  0  0  0  0  0  0  0  0  0  0
  145.7684  143.0002  154.7058 N   0  3  1  0  0  0  0  0  0  0  0  0
  146.6777  142.2047  153.8422 C   0  0  0  0  0  0  0  0  0  0  0  0
  147.2315  140.9622  154.5593 C   0  0  0  0  0  0  0  0  0  0  0  0
  148.6748  141.0712  154.7270 N   0  0  0  0  0  0  0  0  0  0  0  0
  149.2864  141.3828  155.8788 C   0  0  0  0  0  0  0  0  0  0  0  0
  148.6782  141.5856  156.9301 O   0  0  0  0  0  0  0  0  0  0  0  0
  150.8192  141.4570  155.8343 C   0  0  0  0  0  0  0  0  0  0  0  0
  151.4205  141.6808  157.1596 N   0  0  0  0  0  0  0  0  0  0  0  0
  151.1437  142.9078  157.7941 C   0  0  0  0  0  0  0  0  0  0  0  0
  151.6489  143.2408  158.9975 C   0  0  0  0  0  0  0  0  0  0  0  0
  151.2895  144.5510  159.6807 C   0  0  0  0  0  0  0  0  0  0  0  0
  151.7367  145.5954  158.9828 F   0  0  0  0  0  0  0  0  0  0  0  0
  149.9659  144.6588  159.7868 F   0  0  0  0  0  0  0  0  0  0  0  0
  151.8104  144.6129  160.9070 F   0  0  0  0  0  0  0  0  0  0  0  0
  152.4835  142.2473  159.6443 C   0  0  0  0  0  0  0  0  0  0  0  0
  152.7522  141.0661  159.0545 C   0  0  0  0  0  0  0  0  0  0  0  0
  152.2143  140.7283  157.7350 C   0  0  0  0  0  0  0  0  0  0  0  0
  152.4615  139.6567  157.1807 O   0  0  0  0  0  0  0  0  0  0  0  0
  144.9908  144.0240  153.9559 C   0  0  0  0  0  0  0  0  0  0  0  0
  142.6516  145.5249  153.4576 H   0  0  0  0  0  0  0  0  0  0  0  0
  144.0379  146.6090  153.5403 H   0  0  0  0  0  0  0  0  0  0  0  0
  142.8273  146.6326  154.8161 H   0  0  0  0  0  0  0  0  0  0  0  0
  144.8611  145.4374  155.5661 H   0  0  0  0  0  0  0  0  0  0  0  0
  142.7066  144.6705  156.4980 H   0  0  0  0  0  0  0  0  0  0  0  0
  142.4824  143.5712  155.1560 H   0  0  0  0  0  0  0  0  0  0  0  0
  144.7171  143.4533  157.2384 H   0  0  0  0  0  0  0  0  0  0  0  0
  143.3857  142.3317  157.0860 H   0  0  0  0  0  0  0  0  0  0  0  0
  145.4775  141.4183  156.0887 H   0  0  0  0  0  0  0  0  0  0  0  0
  144.2209  141.5646  154.8749 H   0  0  0  0  0  0  0  0  0  0  0  0
  146.1317  141.8672  152.9598 H   0  0  0  0  0  0  0  0  0  0  0  0
  147.4884  142.8382  153.4785 H   0  0  0  0  0  0  0  0  0  0  0  0
  146.7621  140.8418  155.5358 H   0  0  0  0  0  0  0  0  0  0  0  0
  147.0108  140.0625  153.9832 H   0  0  0  0  0  0  0  0  0  0  0  0
  149.2491  140.9064  153.9131 H   0  0  0  0  0  0  0  0  0  0  0  0
  151.1902  140.5309  155.3932 H   0  0  0  0  0  0  0  0  0  0  0  0
  151.1313  142.2448  155.1458 H   0  0  0  0  0  0  0  0  0  0  0  0
  150.4946  143.5669  157.2359 H   0  0  0  0  0  0  0  0  0  0  0  0
  152.9060  142.4552  160.6161 H   0  0  0  0  0  0  0  0  0  0  0  0
  153.3811  140.3510  159.5644 H   0  0  0  0  0  0  0  0  0  0  0  0
  144.3343  143.5277  153.2389 H   0  0  0  0  0  0  0  0  0  0  0  0
  145.6628  144.6569  153.3777 H   0  0  0  0  0  0  0  0  0  0  0  0
  146.3579  143.4972  155.3585 H   0  0  0  0  0  0  0  0  0  0  0  0
  1  2  1  0  0  0  0
  1 25  1  0  0  0  0
  1 26  1  0  0  0  0
  1 27  1  0  0  0  0
  2 24  1  0  0  0  0
  2  3  1  0  0  0  0
  2 28  1  0  0  0  0
  3  4  1  0  0  0  0
  3 29  1  0  0  0  0
  3 30  1  0  0  0  0
  4  5  1  0  0  0  0
  4 31  1  0  0  0  0
  4 32  1  0  0  0  0
  5  6  1  0  0  0  0
  5 33  1  0  0  0  0
  5 34  1  0  0  0  0
  6  7  1  0  0  0  0
  6 24  1  0  0  0  0
  6 47  1  0  0  0  0
  7  8  1  0  0  0  0
  7 35  1  0  0  0  0
  7 36  1  0  0  0  0
  8  9  1  0  0  0  0
  8 37  1  0  0  0  0
  8 38  1  0  0  0  0
  9 10  1  0  0  0  0
  9 39  1  0  0  0  0
 10 11  2  0  0  0  0
 10 12  1  0  0  0  0
 12 13  1  0  0  0  0
 12 40  1  0  0  0  0
 12 41  1  0  0  0  0
 13 22  1  0  0  0  0
 13 14  1  0  0  0  0
 14 15  2  0  0  0  0
 14 42  1  0  0  0  0
 15 16  1  0  0  0  0
 15 20  1  0  0  0  0
 16 17  1  0  0  0  0
 16 18  1  0  0  0  0
 16 19  1  0  0  0  0
 20 21  2  0  0  0  0
 20 43  1  0  0  0  0
 21 22  1  0  0  0  0
 21 44  1  0  0  0  0
 22 23  2  0  0  0  0
 24 45  1  0  0  0  0
 24 46  1  0  0  0  0
M  CHG  1   6   1
M  END
> <s_m_source_file>
AV-unprocessed.smi

> <i_m_source_file_index>
1451

> <i_lp_mmshare_version>
43012

> <i_f3d_flags>
0

> <s_epik_input>
W0NIM11bQ0BASF0xW0NIMl1bQ0gyXVtDSDJdTihbQ0gyXTEpW0NIMl1bQ0gyXVtOSF1DKD1PKVtDSDJdbjJbY0hdYyhDKEYpKEYpRilbY0hdW2NIXWMyPU8=

> <s_epik_cmdline>
J2VwaWtfcHl0aG9uJywgJy1waCcsICc3LjAnLCAnLXRuJywgJzgnLCAnLW1hJywgJzIwMCcsICctbWV0YWxfYmluZGluZycsICctaW1hZScsICc8aW5maWxlLm1hZT4nLCAnLW9tYWUnLCAnPG91dGZpbGUubWFlPic=

> <r_lp_tautomer_probability>
1

> <r_epik_Ionization_Penalty>
0.00192452

> <r_epik_Ionization_Penalty_Charging>
0.00192444

> <r_epik_Ionization_Penalty_Neutral>
8.16761e-08

> <r_epik_State_Penalty>
0.00131115

> <r_epik_Charging_Adjusted_Penalty>
0.00323559

> <i_epik_Tot_Q>
1

> <i_epik_Tot_abs_Q>
1

> <r_epik_Metal_State_Penalty>
-0

> <b_epik_Metal_Only>
0

> <s_lp_Force_Field>
OPLS_2005

> <r_lp_Energy>
29.222

> <b_lp_Chiralities_Consistent>
1

> <s_lp_Variant>
AV-unprocessed.smi:1451-4

> <Gold.Version>
5.8.1

> <Gold.Id.Protein>
6NUR|6NUR_protein|mol2

> <Gold.PLP.Fitness>
51.1357

> <Gold.PLP.PLP>
-47.1020

> <Gold.PLP.part.hbond>
-1.0000

> <Gold.PLP.part.metal>
0.0000

> <Gold.PLP.part.buried>
-7.5086

> <Gold.PLP.part.nonpolar>
-38.9832

> <Gold.PLP.part.repulsive>
0.2951

> <Gold.PLP.ligand.clash>
0.0000

> <Gold.PLP.ligand.torsion>
0.7053

> <Gold.PLP.Chemscore.Hbond>
0.8426

> <Gold.PLP.Chemscore.CHOScore>
0.9527

> <Gold.PLP.Chemscore.Metal>
0.0000

> <Gold.Chemscore.Hbonds>
donor molecule, donor type, donor heavy atom, donor atom, acceptor molecule, acceptor atom, score
      P1  H  7997  8008       L1    23  0.88
      L1  C    14    42       P1  8028  1.00

> <Gold.PLP.Chemscore.Internal.Correction>
0.0586

> <Gold.Rescore>
     Score         DG    S(hbond)    S(metal)    S(lipo)     H(rot)  DE(clash)    DE(int)     intcor
     12.09     -14.31       0.81        0.00      97.65       2.08       0.30       1.91       ----

> <Gold.Chemscore.Fitness>
12.0947

> <Gold.Chemscore.DG>
-14.3095

> <Gold.Chemscore.ZeroCoef>
-5.4800

> <Gold.Chemscore.Hbond>
0.8141

> <Gold.Chemscore.Metal>
0.0000

> <Gold.Chemscore.Lipo>
97.6518

> <Gold.Chemscore.Internal_Hbond>
0.0000

> <Gold.Chemscore.DEClash>
0.3014

> <Gold.Chemscore.DEInternal>
1.9133

> <Gold.Chemscore.Rot>
2.0762

> <Gold.Chemscore.Internal.Correction>
   9.000000E+99

> <Gold.Chemscore.Hbonds>
donor molecule, donor type, donor heavy atom, donor atom, acceptor molecule, acceptor atom, score
      P1  H  7997  8008       L1    23  0.17

> <Gold.Chemscore.Hbond.Weighted>
-2.7192

> <Gold.Chemscore.Metal.Weighted>
-0.0000

> <Gold.Chemscore.Lipo.Weighted>
-11.4253

> <Gold.Chemscore.Internal_Hbond.Weighted>
0.0000

> <Gold.Chemscore.DEClash.Weighted>
0.3014

> <Gold.Chemscore.DEInternal.Weighted>
1.9133

> <Gold.Chemscore.Rot.Weighted>
5.3150

> <Gold.Chemscore.Internal.Correction.Weighted>
   9.000000E+99

> <Gold.Protein.RotatedTorsions>
[ 6907 6896 6895 6894 ] final  -84.30 input  -60.11 | X-H torsion
[ 7974 7965 7964 7962 ] final  -34.14 input  175.53 | X-H torsion
[ 8008 7997 7996 7995 ] final  -56.07 input   59.86 | X-H torsion
[ 10167 10162 10161 10158 ] final  149.16 input  -65.29 | X-H torsion
[ 10718 10713 10712 10709 ] final   61.32 input   66.30 | X-H torsion
[ 10763 10752 10751 10750 ] final  158.53 input  -60.55 | X-H torsion
[ 11005 11000 10999 10996 ] final  110.73 input  -57.11 | X-H torsion

> <Gold.Protein.ActiveResidues>
 VAL166  LYS551  ARG553  GLY616  TRP617  ASP618  TYR619  PRO620  LYS621  CYS622 
 ASP623  PHE694  ASN695  SER759  ASP760  ASP761  ALA762  ILE779  LEU786  VAL792 
 PHE793  MET794  SER795  GLU796  ALA797  LYS798  CYS799  TRP800  GLU811  SER814 

> <Gold.Protein.RotatedAtoms>
  150.6877  134.3380  159.4855 H   0  0  0  0  0  0  0  0  0  0  0  0  # atno 6907 bound_to 6896
  152.1236  134.9184  160.0571 H   0  0  0  0  0  0  0  0  0  0  0  0  # atno 6908 bound_to 6896
  152.0381  133.3931  159.4362 H   0  0  0  0  0  0  0  0  0  0  0  0  # atno 6909 bound_to 6896
  146.0854  140.6002  142.8889 H   0  0  0  0  0  0  0  0  0  0  0  0  # atno 7974 bound_to 7965
  154.4217  140.1138  156.5578 H   0  0  0  0  0  0  0  0  0  0  0  0  # atno 8008 bound_to 7997
  155.6343  140.3496  155.4674 H   0  0  0  0  0  0  0  0  0  0  0  0  # atno 8009 bound_to 7997
  155.9922  140.1182  157.0617 H   0  0  0  0  0  0  0  0  0  0  0  0  # atno 8010 bound_to 7997
  139.4865  144.5623  151.7208 H   0  0  0  0  0  0  0  0  0  0  0  0  # atno 10167 bound_to 10162
  157.5819  130.8988  149.9446 H   0  0  0  0  0  0  0  0  0  0  0  0  # atno 10718 bound_to 10713
  154.2175  135.2783  155.2936 H   0  0  0  0  0  0  0  0  0  0  0  0  # atno 10763 bound_to 10752
  154.5729  135.5613  153.7115 H   0  0  0  0  0  0  0  0  0  0  0  0  # atno 10764 bound_to 10752
  153.0049  135.6325  154.2315 H   0  0  0  0  0  0  0  0  0  0  0  0  # atno 10765 bound_to 10752
  139.8888  134.9491  156.6323 H   0  0  0  0  0  0  0  0  0  0  0  0  # atno 11005 bound_to 11000
  144.7322  140.4704  143.6930 LP  0  0  0  0  0  0  0  0  0  0  0  0  # atno 17320 bound_to 7965
  145.6140  139.1516  143.3059 LP  0  0  0  0  0  0  0  0  0  0  0  0  # atno 17321 bound_to 7965
  140.5195  144.0901  150.6018 LP  0  0  0  0  0  0  0  0  0  0  0  0  # atno 17342 bound_to 10162
  140.3854  143.2780  152.0122 LP  0  0  0  0  0  0  0  0  0  0  0  0  # atno 17343 bound_to 10162
  156.0865  130.3667  150.0477 LP  0  0  0  0  0  0  0  0  0  0  0  0  # atno 17370 bound_to 10713
  156.8614  130.9493  151.3617 LP  0  0  0  0  0  0  0  0  0  0  0  0  # atno 17371 bound_to 10713
  140.7657  133.8780  155.8452 LP  0  0  0  0  0  0  0  0  0  0  0  0  # atno 17394 bound_to 11000
  140.9884  134.1311  157.4430 LP  0  0  0  0  0  0  0  0  0  0  0  0  # atno 17395 bound_to 11000

$$$$
