AV-unprocessed.smi:686|AV-procd|sdf|3344|dock10
  -GOLD-   22720 0323D 1   1.00000     0.00000
 Structure written by MMmdl.
 41 42  0  0  0  0  0  0  0  0  2 V2000
  149.1736  141.2210  154.6251 C   0  0  0  0  0  0  0  0  0  0  0  0
  149.8852  140.6868  155.8791 C   0  0  1  0  0  0  0  0  0  0  0  0
  150.8603  141.7130  156.4603 C   0  0  0  0  0  0  0  0  0  0  0  0
  150.0574  142.5653  157.3629 N   0  3  2  0  0  0  0  0  0  0  0  0
  150.8282  143.3242  158.3882 C   0  0  0  0  0  0  0  0  0  0  0  0
  151.7011  144.4118  157.7335 C   0  0  0  0  0  0  0  0  0  0  0  0
  151.7159  142.3953  159.2384 C   0  0  0  0  0  0  0  0  0  0  0  0
  148.9655  141.7153  157.8964 C   0  0  0  0  0  0  0  0  0  0  0  0
  148.9116  140.4365  157.0385 C   0  0  2  0  0  0  0  0  0  0  0  0
  149.3505  139.2698  157.8114 N   0  0  0  0  0  0  0  0  0  0  0  0
  148.2025  138.0208  158.1284 S   0  0  0  0  0  0  0  0  0  0  0  0
  147.0927  138.6132  158.8909 O   0  0  0  0  0  0  0  0  0  0  0  0
  147.9345  137.3375  156.8540 O   0  0  0  0  0  0  0  0  0  0  0  0
  149.1385  136.8863  159.2373 C   0  0  0  0  0  0  0  0  0  0  0  0
  148.2334  136.3972  160.3312 C   0  0  0  0  0  0  0  0  0  0  0  0
  147.9069  135.0563  160.6751 C   0  0  0  0  0  0  0  0  0  0  0  0
  147.0527  135.1972  161.7306 C   0  0  0  0  0  0  0  0  0  0  0  0
  146.8674  136.5100  162.0198 O   0  0  0  0  0  0  0  0  0  0  0  0
  147.6264  137.2686  161.1214 N   0  0  0  0  0  0  0  0  0  0  0  0
  148.6215  142.1379  154.8352 H   0  0  0  0  0  0  0  0  0  0  0  0
  148.4650  140.4887  154.2370 H   0  0  0  0  0  0  0  0  0  0  0  0
  149.8885  141.4374  153.8308 H   0  0  0  0  0  0  0  0  0  0  0  0
  150.4168  139.7765  155.5965 H   0  0  0  0  0  0  0  0  0  0  0  0
  151.6255  141.1948  157.0411 H   0  0  0  0  0  0  0  0  0  0  0  0
  151.3642  142.2950  155.6878 H   0  0  0  0  0  0  0  0  0  0  0  0
  150.1159  143.8123  159.0554 H   0  0  0  0  0  0  0  0  0  0  0  0
  152.2788  144.9522  158.4838 H   0  0  0  0  0  0  0  0  0  0  0  0
  151.1058  145.1528  157.2004 H   0  0  0  0  0  0  0  0  0  0  0  0
  152.4070  143.9787  157.0241 H   0  0  0  0  0  0  0  0  0  0  0  0
  152.3115  142.9691  159.9491 H   0  0  0  0  0  0  0  0  0  0  0  0
  152.4059  141.8252  158.6152 H   0  0  0  0  0  0  0  0  0  0  0  0
  151.1275  141.6877  159.8227 H   0  0  0  0  0  0  0  0  0  0  0  0
  149.1369  141.4740  158.9468 H   0  0  0  0  0  0  0  0  0  0  0  0
  148.0255  142.2652  157.8404 H   0  0  0  0  0  0  0  0  0  0  0  0
  147.9022  140.2461  156.6699 H   0  0  0  0  0  0  0  0  0  0  0  0
  150.2098  138.8793  157.4242 H   0  0  0  0  0  0  0  0  0  0  0  0
  149.5197  136.0559  158.6434 H   0  0  0  0  0  0  0  0  0  0  0  0
  149.9940  137.4285  159.6413 H   0  0  0  0  0  0  0  0  0  0  0  0
  148.2426  134.1376  160.2173 H   0  0  0  0  0  0  0  0  0  0  0  0
  146.5194  134.4941  162.3531 H   0  0  0  0  0  0  0  0  0  0  0  0
  149.6094  143.2462  156.7664 H   0  0  0  0  0  0  0  0  0  0  0  0
  1  2  1  0  0  0  0
  1 20  1  0  0  0  0
  1 21  1  0  0  0  0
  1 22  1  0  0  0  0
  2  9  1  0  0  0  0
  2  3  1  0  0  0  0
  2 23  1  0  0  0  0
  3  4  1  0  0  0  0
  3 24  1  0  0  0  0
  3 25  1  0  0  0  0
  4  5  1  0  0  0  0
  4  8  1  0  0  0  0
  4 41  1  0  0  0  0
  5  6  1  0  0  0  0
  5  7  1  0  0  0  0
  5 26  1  0  0  0  0
  6 27  1  0  0  0  0
  6 28  1  0  0  0  0
  6 29  1  0  0  0  0
  7 30  1  0  0  0  0
  7 31  1  0  0  0  0
  7 32  1  0  0  0  0
  8  9  1  0  0  0  0
  8 33  1  0  0  0  0
  8 34  1  0  0  0  0
  9 10  1  0  0  0  0
  9 35  1  0  0  0  0
 10 11  1  0  0  0  0
 10 36  1  0  0  0  0
 11 12  2  0  0  0  0
 11 13  2  0  0  0  0
 11 14  1  0  0  0  0
 14 15  1  0  0  0  0
 14 37  1  0  0  0  0
 14 38  1  0  0  0  0
 15 19  2  0  0  0  0
 15 16  1  0  0  0  0
 16 17  2  0  0  0  0
 16 39  1  0  0  0  0
 17 18  1  0  0  0  0
 17 40  1  0  0  0  0
 18 19  1  0  0  0  0
M  CHG  1   4   1
M  END
> <s_m_source_file>
AV-unprocessed.smi

> <i_m_source_file_index>
686

> <i_lp_mmshare_version>
43012

> <i_f3d_flags>
0

> <s_epik_input>
W0NIM11bQ0BASF0xW0NIMl1OKFtDSF0oW0NIM10pW0NIM10pW0NIMl1bQ0BIXTFbTkhdUyg9TykoPU8pW0NIMl1jMltjSF1bY0hdb24y

> <s_epik_cmdline>
J2VwaWtfcHl0aG9uJywgJy1waCcsICc3LjAnLCAnLXRuJywgJzgnLCAnLW1hJywgJzIwMCcsICctbWV0YWxfYmluZGluZycsICctaW1hZScsICc8aW5maWxlLm1hZT4nLCAnLW9tYWUnLCAnPG91dGZpbGUubWFlPic=

> <r_epik_Ionization_Penalty>
0.00200818

> <r_epik_Ionization_Penalty_Charging>
0.000701289

> <r_epik_Ionization_Penalty_Neutral>
0.00130689

> <r_epik_State_Penalty>
0.00131314

> <r_epik_Charging_Adjusted_Penalty>
0.00201443

> <i_epik_Tot_Q>
1

> <i_epik_Tot_abs_Q>
1

> <r_epik_Metal_State_Penalty>
0.310831

> <b_epik_Metal_Only>
0

> <s_lp_Force_Field>
OPLS_2005

> <r_lp_Energy>
21.6188

> <b_lp_Chiralities_Consistent>
1

> <s_lp_Variant>
AV-unprocessed.smi:686-8

> <Gold.Version>
5.8.1

> <Gold.Id.Protein>
6NUR|6NUR_protein|mol2

> <Gold.PLP.Fitness>
41.6915

> <Gold.PLP.PLP>
-32.7059

> <Gold.PLP.part.hbond>
-4.0000

> <Gold.PLP.part.metal>
0.0000

> <Gold.PLP.part.buried>
-5.2779

> <Gold.PLP.part.nonpolar>
-24.2380

> <Gold.PLP.part.repulsive>
0.0194

> <Gold.PLP.ligand.clash>
0.0000

> <Gold.PLP.ligand.torsion>
1.2760

> <Gold.PLP.Chemscore.Hbond>
3.7920

> <Gold.PLP.Chemscore.CHOScore>
0.0000

> <Gold.PLP.Chemscore.Metal>
0.0000

> <Gold.Chemscore.Hbonds>
donor molecule, donor type, donor heavy atom, donor atom, acceptor molecule, acceptor atom, score
      L1  H     4    41       P1  8028  2.00
      P1  H  6931  6943       L1    19  0.88
      P1  H  6934  6947       L1    19  0.90

> <Gold.PLP.Chemscore.Internal.Correction>
0.1615

> <Gold.Rescore>
     Score         DG    S(hbond)    S(metal)    S(lipo)     H(rot)  DE(clash)    DE(int)     intcor
     15.78     -18.55       2.56        0.00      80.40       1.91       0.03       2.75       ----

> <Gold.Chemscore.Fitness>
15.7759

> <Gold.Chemscore.DG>
-18.5532

> <Gold.Chemscore.ZeroCoef>
-5.4800

> <Gold.Chemscore.Hbond>
2.5629

> <Gold.Chemscore.Metal>
0.0000

> <Gold.Chemscore.Lipo>
80.3992

> <Gold.Chemscore.Internal_Hbond>
0.0000

> <Gold.Chemscore.DEClash>
0.0310

> <Gold.Chemscore.DEInternal>
2.7463

> <Gold.Chemscore.Rot>
1.9115

> <Gold.Chemscore.Internal.Correction>
   9.000000E+99

> <Gold.Chemscore.Hbonds>
donor molecule, donor type, donor heavy atom, donor atom, acceptor molecule, acceptor atom, score
      L1  H     4    41       P1  8028  0.98
      P1  H  6931  6943       L1    19  0.39
      P1  H  6934  6947       L1    19  0.83

> <Gold.Chemscore.Hbond.Weighted>
-8.5600

> <Gold.Chemscore.Metal.Weighted>
-0.0000

> <Gold.Chemscore.Lipo.Weighted>
-9.4067

> <Gold.Chemscore.Internal_Hbond.Weighted>
0.0000

> <Gold.Chemscore.DEClash.Weighted>
0.0310

> <Gold.Chemscore.DEInternal.Weighted>
2.7463

> <Gold.Chemscore.Rot.Weighted>
4.8935

> <Gold.Chemscore.Internal.Correction.Weighted>
   9.000000E+99

> <Gold.Protein.RotatedTorsions>
[ 6907 6896 6895 6894 ] final  -91.10 input  -60.11 | X-H torsion
[ 7974 7965 7964 7962 ] final   71.11 input  175.53 | X-H torsion
[ 8008 7997 7996 7995 ] final   15.81 input   59.86 | X-H torsion
[ 10167 10162 10161 10158 ] final -179.96 input  -65.29 | X-H torsion
[ 10718 10713 10712 10709 ] final  -89.48 input   66.30 | X-H torsion
[ 10763 10752 10751 10750 ] final   29.78 input  -60.55 | X-H torsion
[ 11005 11000 10999 10996 ] final -100.46 input  -57.11 | X-H torsion

> <Gold.Protein.ActiveResidues>
 VAL166  LYS551  ARG553  GLY616  TRP617  ASP618  TYR619  PRO620  LYS621  CYS622 
 ASP623  PHE694  ASN695  SER759  ASP760  ASP761  ALA762  ILE779  LEU786  VAL792 
 PHE793  MET794  SER795  GLU796  ALA797  LYS798  CYS799  TRP800  GLU811  SER814 

> <Gold.Protein.RotatedAtoms>
  150.6888  134.2330  159.4441 H   0  0  0  0  0  0  0  0  0  0  0  0  # atno 6907 bound_to 6896
  152.0279  134.9782  160.0581 H   0  0  0  0  0  0  0  0  0  0  0  0  # atno 6908 bound_to 6896
  152.1333  133.4386  159.4768 H   0  0  0  0  0  0  0  0  0  0  0  0  # atno 6909 bound_to 6896
  145.7698  139.2838  143.1327 H   0  0  0  0  0  0  0  0  0  0  0  0  # atno 7974 bound_to 7965
  154.8680  140.2954  155.5498 H   0  0  0  0  0  0  0  0  0  0  0  0  # atno 8008 bound_to 7997
  156.3021  140.2465  156.3598 H   0  0  0  0  0  0  0  0  0  0  0  0  # atno 8009 bound_to 7997
  154.8847  140.0396  157.1792 H   0  0  0  0  0  0  0  0  0  0  0  0  # atno 8010 bound_to 7997
  139.5363  144.2489  152.0800 H   0  0  0  0  0  0  0  0  0  0  0  0  # atno 10167 bound_to 10162
  155.9984  130.4874  150.5178 H   0  0  0  0  0  0  0  0  0  0  0  0  # atno 10718 bound_to 10713
  153.0410  135.6480  154.0943 H   0  0  0  0  0  0  0  0  0  0  0  0  # atno 10763 bound_to 10752
  154.0650  135.2885  155.3320 H   0  0  0  0  0  0  0  0  0  0  0  0  # atno 10764 bound_to 10752
  154.6632  135.5383  153.8109 H   0  0  0  0  0  0  0  0  0  0  0  0  # atno 10765 bound_to 10752
  141.1269  133.8401  157.1106 H   0  0  0  0  0  0  0  0  0  0  0  0  # atno 11005 bound_to 11000
  146.0181  140.8373  142.9937 LP  0  0  0  0  0  0  0  0  0  0  0  0  # atno 17320 bound_to 7965
  144.6815  140.2588  143.7322 LP  0  0  0  0  0  0  0  0  0  0  0  0  # atno 17321 bound_to 7965
  140.1960  144.4704  150.6455 LP  0  0  0  0  0  0  0  0  0  0  0  0  # atno 17342 bound_to 10162
  140.6570  143.2240  151.5945 LP  0  0  0  0  0  0  0  0  0  0  0  0  # atno 17343 bound_to 10162
  157.3143  131.0669  151.1978 LP  0  0  0  0  0  0  0  0  0  0  0  0  # atno 17370 bound_to 10713
  157.2914  130.6798  149.6116 LP  0  0  0  0  0  0  0  0  0  0  0  0  # atno 17371 bound_to 10713
  140.0277  134.9916  157.0719 LP  0  0  0  0  0  0  0  0  0  0  0  0  # atno 17394 bound_to 11000
  140.4335  134.1755  155.7169 LP  0  0  0  0  0  0  0  0  0  0  0  0  # atno 17395 bound_to 11000

$$$$
