#       Name:                AV-unprocessed.smi:1247
#       Creating user name   scv26
#       Creation time:       Fri Mar 27 04:36:03 2020


#       File generated by GOLD software.
#

@<TRIPOS>MOLECULE
AV-unprocessed.smi:1247
    52    53     1
SMALL
NO_CHARGES


@<TRIPOS>ATOM
      1 ****        -6.8027   2.8575  -0.1230 C.3            1 S1                 0.0000
      2 ****        -5.7957   1.8470  -0.5874 C.2            1 S1                 0.0000
      3 ****        -4.3783   1.9841  -0.6490 C.2            1 S1                 0.0000
      4 ****        -3.9801   0.7712  -1.1410 C.2            1 S1                 0.0000
      5 ****        -2.7229   0.3359  -1.4204 N.am           1 S1                 0.0000
      6 ****        -1.5500   0.9039  -1.0906 C.2            1 S1                 0.0000
      7 ****        -1.4163   1.9420  -0.4420 O.2            1 S1                 0.0000
      8 ****        -0.5144   0.1832  -1.5450 N.am           1 S1                 0.0000
      9 ****         0.8892   0.5175  -1.3303 C.3            1 S1                 0.0000
     10 ****         1.3616   0.0765   0.0682 C.3            1 S1                 0.0000
     11 ****         2.7699   0.4665   0.3444 N.4            1 S1                 1.0000
     12 ****         3.0935   0.5253   1.7911 C.3            1 S1                 0.0000
     13 ****         3.2991  -0.8868   2.3761 C.3            1 S1                 0.0000
     14 ****         3.7126  -0.8474   3.8512 C.3            1 S1                 0.0000
     15 ****         4.3310  -1.5404   1.6450 O.3            1 S1                 0.0000
     16 ****         4.0122  -1.7108   0.2678 C.3            1 S1                 0.0000
     17 ****         5.1613  -2.4813  -0.3916 C.3            1 S1                 0.0000
     18 ****         3.7954  -0.3265  -0.3813 C.3            1 S1                 0.0000
     19 ****        -5.0937  -0.0091  -1.3582 N.pl3          1 S1                 0.0000
     20 ****        -5.1845  -1.3616  -1.8722 C.3            1 S1                 0.0000
     21 ****        -6.2145   0.6592  -1.0100 N.2            1 S1                 0.0000
     22 ****        -6.3155   3.7677   0.2268 H              1 S1                 0.0000
     23 ****        -7.4024   2.4660   0.6991 H              1 S1                 0.0000
     24 ****        -7.4815   3.1342  -0.9302 H              1 S1                 0.0000
     25 ****        -3.7760   2.8382  -0.3782 H              1 S1                 0.0000
     26 ****        -2.6718  -0.5416  -1.9167 H              1 S1                 0.0000
     27 ****        -0.7104  -0.6559  -2.0714 H              1 S1                 0.0000
     28 ****         1.4624   0.0181  -2.1103 H              1 S1                 0.0000
     29 ****         1.0447   1.5891  -1.4680 H              1 S1                 0.0000
     30 ****         0.7189   0.5526   0.8099 H              1 S1                 0.0000
     31 ****         1.2255  -0.9975   0.1947 H              1 S1                 0.0000
     32 ****         4.0091   1.1063   1.9121 H              1 S1                 0.0000
     33 ****         2.3173   1.0644   2.3358 H              1 S1                 0.0000
     34 ****         2.3775  -1.4654   2.2954 H              1 S1                 0.0000
     35 ****         2.9480  -0.3651   4.4607 H              1 S1                 0.0000
     36 ****         4.6453  -0.2990   3.9869 H              1 S1                 0.0000
     37 ****         3.8592  -1.8552   4.2405 H              1 S1                 0.0000
     38 ****         3.1071  -2.3134   0.1821 H              1 S1                 0.0000
     39 ****         4.9664  -2.6469  -1.4513 H              1 S1                 0.0000
     40 ****         5.2954  -3.4563   0.0772 H              1 S1                 0.0000
     41 ****         6.1031  -1.9386  -0.3051 H              1 S1                 0.0000
     42 ****         3.5405  -0.4302  -1.4352 H              1 S1                 0.0000
     43 ****         4.7308   0.2343  -0.3528 H              1 S1                 0.0000
     44 ****        -4.6177  -2.0358  -1.2297 H              1 S1                 0.0000
     45 ****        -4.7724  -1.3986  -2.8807 H              1 S1                 0.0000
     46 ****        -6.2233  -1.6929  -1.9025 H              1 S1                 0.0000
     47 ****         2.8486   1.4161   0.0084 H              1 S1                 0.0000
     48 ****        -2.2228   2.4343  -0.1145 LP             1 S1                 0.0000
     49 ****        -0.5013   2.2927  -0.2427 LP             1 S1                 0.0000
     50 ****         4.4875  -2.4412   2.0501 LP             1 S1                 0.0000
     51 ****         5.1658  -0.9943   1.7140 LP             1 S1                 0.0000
     52 ****        -7.1576   0.3304  -1.0596 LP             1 S1                 0.0000
@<TRIPOS>BOND
    1    1    2 1     
    2    1   22 1     
    3    1   23 1     
    4    1   24 1     
    5    2   21 2     
    6    2    3 1     
    7    3    4 2     
    8    3   25 1     
    9    4    5 1     
   10    4   19 1     
   11    5    6 am    
   12    5   26 1     
   13    6    7 2     
   14    6    8 am    
   15    8    9 1     
   16    8   27 1     
   17    9   10 1     
   18    9   28 1     
   19    9   29 1     
   20   10   11 1     
   21   10   30 1     
   22   10   31 1     
   23   11   18 1     
   24   11   12 1     
   25   11   47 1     
   26   12   13 1     
   27   12   32 1     
   28   12   33 1     
   29   13   14 1     
   30   13   15 1     
   31   13   34 1     
   32   14   35 1     
   33   14   36 1     
   34   14   37 1     
   35   15   16 1     
   36   16   17 1     
   37   16   18 1     
   38   16   38 1     
   39   17   39 1     
   40   17   40 1     
   41   17   41 1     
   42   18   42 1     
   43   18   43 1     
   44   19   20 1     
   45   19   21 1     
   46   20   44 1     
   47   20   45 1     
   48   20   46 1     
   49    7   48 1     
   50    7   49 1     
   51   15   50 1     
   52   15   51 1     
   53   21   52 1     
@<TRIPOS>SUBSTRUCTURE
      1 S1             1
@<TRIPOS>SET
LONE_PAIRS      STATIC     ATOMS    <user>   **** ""
5 48 49 50 51 52
DONOR_HYDROGENS      STATIC     ATOMS    <user>   **** ""
3 26 27 47
ATOM$BLUE        STATIC     ATOMS    COLORGROUP SYSTEM
5 48 49 50 51 52
ATOM$RED        STATIC     ATOMS    COLORGROUP SYSTEM
3 26 27 47
