AV-unprocessed.smi:2935|AV-procd|sdf|11256|dock1
  -GOLD-   2272016153D 1   1.00000     0.00000
 Structure written by MMmdl.
 36 37  0  0  0  0  0  0  0  0  1 V2000
  152.3244  144.6301  157.6674 C   0  0  0  0  0  0  0  0  0  0  0  0
  151.5777  143.6133  158.5571 C   0  0  0  0  0  0  0  0  0  0  0  0
  151.3256  142.3289  157.7348 C   0  0  0  0  0  0  0  0  0  0  0  0
  151.8491  141.2725  158.0928 O   0  0  0  0  0  0  0  0  0  0  0  0
  150.5108  142.4351  156.6669 N   0  0  0  0  0  0  0  0  0  0  0  0
  150.1299  141.4162  155.7573 C   0  0  0  0  0  0  0  0  0  0  0  0
  149.2263  141.6939  154.6950 C   0  0  0  0  0  0  0  0  0  0  0  0
  149.1111  140.4912  154.0576 C   0  0  0  0  0  0  0  0  0  0  0  0
  149.9108  139.5871  154.7288 N   0  0  0  0  0  0  0  0  0  0  0  0
  150.1196  138.1797  154.4389 C   0  0  0  0  0  0  0  0  0  0  0  0
  150.9450  137.5041  155.5353 C   0  0  0  0  0  0  0  0  0  0  0  0
  150.4457  137.5231  156.7740 N   0  0  0  0  0  0  0  0  0  0  0  0
  152.0214  136.9750  155.2677 O   0  0  0  0  0  0  0  0  0  0  0  0
  150.5423  140.1564  155.7788 N   0  0  0  0  0  0  0  0  0  0  0  0
  152.3398  143.3565  159.8761 C   0  0  0  0  0  0  0  0  0  0  0  0
  151.9583  144.5066  160.8104 C   0  0  0  0  0  0  0  0  0  0  0  0
  150.5642  144.9633  160.3692 C   0  0  0  0  0  0  0  0  0  0  0  0
  150.2495  144.2163  159.0653 C   0  0  0  0  0  0  0  0  0  0  0  0
  152.4869  145.5758  158.1848 H   0  0  0  0  0  0  0  0  0  0  0  0
  151.7647  144.8529  156.7579 H   0  0  0  0  0  0  0  0  0  0  0  0
  153.3022  144.2515  157.3668 H   0  0  0  0  0  0  0  0  0  0  0  0
  150.1247  143.3501  156.4865 H   0  0  0  0  0  0  0  0  0  0  0  0
  148.7388  142.6235  154.4411 H   0  0  0  0  0  0  0  0  0  0  0  0
  148.5316  140.2040  153.1924 H   0  0  0  0  0  0  0  0  0  0  0  0
  149.1472  137.6936  154.3507 H   0  0  0  0  0  0  0  0  0  0  0  0
  150.6197  138.0738  153.4748 H   0  0  0  0  0  0  0  0  0  0  0  0
  150.9619  137.0968  157.5302 H   0  0  0  0  0  0  0  0  0  0  0  0
  149.5586  137.9714  156.9512 H   0  0  0  0  0  0  0  0  0  0  0  0
  152.0156  142.4206  160.3351 H   0  0  0  0  0  0  0  0  0  0  0  0
  153.4196  143.2927  159.7357 H   0  0  0  0  0  0  0  0  0  0  0  0
  151.9818  144.2050  161.8580 H   0  0  0  0  0  0  0  0  0  0  0  0
  152.6661  145.3280  160.6931 H   0  0  0  0  0  0  0  0  0  0  0  0
  149.8143  144.7431  161.1296 H   0  0  0  0  0  0  0  0  0  0  0  0
  150.5564  146.0420  160.2088 H   0  0  0  0  0  0  0  0  0  0  0  0
  149.7823  144.8736  158.3306 H   0  0  0  0  0  0  0  0  0  0  0  0
  149.5274  143.4276  159.2849 H   0  0  0  0  0  0  0  0  0  0  0  0
  1  2  1  0  0  0  0
  1 19  1  0  0  0  0
  1 20  1  0  0  0  0
  1 21  1  0  0  0  0
  2 18  1  0  0  0  0
  2  3  1  0  0  0  0
  2 15  1  0  0  0  0
  3  4  2  0  0  0  0
  3  5  1  0  0  0  0
  5  6  1  0  0  0  0
  5 22  1  0  0  0  0
  6 14  2  0  0  0  0
  6  7  1  0  0  0  0
  7  8  2  0  0  0  0
  7 23  1  0  0  0  0
  8  9  1  0  0  0  0
  8 24  1  0  0  0  0
  9 10  1  0  0  0  0
  9 14  1  0  0  0  0
 10 11  1  0  0  0  0
 10 25  1  0  0  0  0
 10 26  1  0  0  0  0
 11 12  1  0  0  0  0
 11 13  2  0  0  0  0
 12 27  1  0  0  0  0
 12 28  1  0  0  0  0
 15 16  1  0  0  0  0
 15 29  1  0  0  0  0
 15 30  1  0  0  0  0
 16 17  1  0  0  0  0
 16 31  1  0  0  0  0
 16 32  1  0  0  0  0
 17 18  1  0  0  0  0
 17 33  1  0  0  0  0
 17 34  1  0  0  0  0
 18 35  1  0  0  0  0
 18 36  1  0  0  0  0
M  END
> <s_m_source_file>
AV-unprocessed.smi

> <i_m_source_file_index>
2935

> <i_lp_mmshare_version>
43012

> <i_f3d_flags>
0

> <s_epik_input>
W0NIMl0xW0NIMl1bQ0gyXVtDSDJdQzEoW0NIM10pQyg9TylbTkhdYzJbY0hdW2NIXW4objIpW0NIMl1DKD1PKVtOSDJd

> <s_epik_cmdline>
J2VwaWtfcHl0aG9uJywgJy1waCcsICc3LjAnLCAnLXRuJywgJzgnLCAnLW1hJywgJzIwMCcsICctbWV0YWxfYmluZGluZycsICctaW1hZScsICc8aW5maWxlLm1hZT4nLCAnLW9tYWUnLCAnPG91dGZpbGUubWFlPic=

> <r_lp_tautomer_probability>
1

> <r_epik_Ionization_Penalty>
1.6611e-05

> <r_epik_Ionization_Penalty_Charging>
0

> <r_epik_Ionization_Penalty_Neutral>
1.6611e-05

> <r_epik_State_Penalty>
-0

> <r_epik_Charging_Adjusted_Penalty>
0

> <i_epik_Tot_Q>
0

> <i_epik_Tot_abs_Q>
0

> <r_epik_Metal_State_Penalty>
-0

> <b_epik_Metal_Only>
0

> <s_lp_Force_Field>
OPLS_2005

> <r_lp_Energy>
27.108

> <b_lp_Chiralities_Consistent>
1

> <s_lp_Variant>
AV-unprocessed.smi:2935-1

> <Gold.Version>
5.8.1

> <Gold.Id.Protein>
6NUR|6NUR_protein|mol2

> <Gold.PLP.Fitness>
45.9950

> <Gold.PLP.PLP>
-38.2459

> <Gold.PLP.part.hbond>
-2.0000

> <Gold.PLP.part.metal>
0.0000

> <Gold.PLP.part.buried>
-3.7972

> <Gold.PLP.part.nonpolar>
-33.5477

> <Gold.PLP.part.repulsive>
0.1720

> <Gold.PLP.ligand.clash>
0.0000

> <Gold.PLP.ligand.torsion>
0.1365

> <Gold.PLP.Chemscore.Hbond>
1.8960

> <Gold.PLP.Chemscore.CHOScore>
0.7563

> <Gold.PLP.Chemscore.Metal>
0.0000

> <Gold.Chemscore.Hbonds>
donor molecule, donor type, donor heavy atom, donor atom, acceptor molecule, acceptor atom, score
      L1  H     5    22       P1  8028  1.00
      P1  H 10752 10763       L1    13  0.98
      L1  C     8    24       P1  7957  0.77

> <Gold.PLP.Chemscore.Internal.Correction>
0.0652

> <Gold.Rescore>
     Score         DG    S(hbond)    S(metal)    S(lipo)     H(rot)  DE(clash)    DE(int)     intcor
     15.47     -17.34       1.80        0.00      91.80       1.91       0.24       1.63       ----

> <Gold.Chemscore.Fitness>
15.4672

> <Gold.Chemscore.DG>
-17.3388

> <Gold.Chemscore.ZeroCoef>
-5.4800

> <Gold.Chemscore.Hbond>
1.7994

> <Gold.Chemscore.Metal>
0.0000

> <Gold.Chemscore.Lipo>
91.7990

> <Gold.Chemscore.Internal_Hbond>
0.0000

> <Gold.Chemscore.DEClash>
0.2443

> <Gold.Chemscore.DEInternal>
1.6274

> <Gold.Chemscore.Rot>
1.9108

> <Gold.Chemscore.Internal.Correction>
   9.000000E+99

> <Gold.Chemscore.Hbonds>
donor molecule, donor type, donor heavy atom, donor atom, acceptor molecule, acceptor atom, score
      L1  H     5    22       P1  8028  0.94
      P1  H 10752 10763       L1    13  0.93

> <Gold.Chemscore.Hbond.Weighted>
-6.0100

> <Gold.Chemscore.Metal.Weighted>
-0.0000

> <Gold.Chemscore.Lipo.Weighted>
-10.7405

> <Gold.Chemscore.Internal_Hbond.Weighted>
0.0000

> <Gold.Chemscore.DEClash.Weighted>
0.2443

> <Gold.Chemscore.DEInternal.Weighted>
1.6274

> <Gold.Chemscore.Rot.Weighted>
4.8916

> <Gold.Chemscore.Internal.Correction.Weighted>
   9.000000E+99

> <Gold.Protein.RotatedTorsions>
[ 6907 6896 6895 6894 ] final  -11.75 input  -60.11 | X-H torsion
[ 7974 7965 7964 7962 ] final  115.04 input  175.53 | X-H torsion
[ 8008 7997 7996 7995 ] final  -92.52 input   59.86 | X-H torsion
[ 10167 10162 10161 10158 ] final  113.77 input  -65.29 | X-H torsion
[ 10718 10713 10712 10709 ] final  -36.57 input   66.30 | X-H torsion
[ 10763 10752 10751 10750 ] final   67.91 input  -60.55 | X-H torsion
[ 11005 11000 10999 10996 ] final  153.47 input  -57.11 | X-H torsion

> <Gold.Protein.ActiveResidues>
 VAL166  LYS551  ARG553  GLY616  TRP617  ASP618  TYR619  PRO620  LYS621  CYS622 
 ASP623  PHE694  ASN695  SER759  ASP760  ASP761  ALA762  ILE779  LEU786  VAL792 
 PHE793  MET794  SER795  GLU796  ALA797  LYS798  CYS799  TRP800  GLU811  SER814 

> <Gold.Protein.RotatedAtoms>
  151.3813  135.0940  159.9496 H   0  0  0  0  0  0  0  0  0  0  0  0  # atno 6907 bound_to 6896
  152.5107  133.9069  159.7479 H   0  0  0  0  0  0  0  0  0  0  0  0  # atno 6908 bound_to 6896
  150.9503  133.6501  159.2802 H   0  0  0  0  0  0  0  0  0  0  0  0  # atno 6909 bound_to 6896
  145.1969  139.2971  143.4338 H   0  0  0  0  0  0  0  0  0  0  0  0  # atno 7974 bound_to 7965
  154.7241  140.0508  157.0667 H   0  0  0  0  0  0  0  0  0  0  0  0  # atno 8008 bound_to 7997
  155.0388  140.3166  155.4713 H   0  0  0  0  0  0  0  0  0  0  0  0  # atno 8009 bound_to 7997
  156.2824  140.2136  156.5511 H   0  0  0  0  0  0  0  0  0  0  0  0  # atno 8010 bound_to 7997
  139.6437  144.7125  151.2185 H   0  0  0  0  0  0  0  0  0  0  0  0  # atno 10167 bound_to 10162
  156.3253  130.4271  149.7922 H   0  0  0  0  0  0  0  0  0  0  0  0  # atno 10718 bound_to 10713
  153.0209  135.5266  154.7053 H   0  0  0  0  0  0  0  0  0  0  0  0  # atno 10763 bound_to 10752
  154.6150  135.2882  155.0392 H   0  0  0  0  0  0  0  0  0  0  0  0  # atno 10764 bound_to 10752
  154.1399  135.6579  153.4992 H   0  0  0  0  0  0  0  0  0  0  0  0  # atno 10765 bound_to 10752
  140.1401  134.8745  157.2319 H   0  0  0  0  0  0  0  0  0  0  0  0  # atno 11005 bound_to 11000
  146.3425  140.2201  142.8591 LP  0  0  0  0  0  0  0  0  0  0  0  0  # atno 17320 bound_to 7965
  144.9985  140.8611  143.5296 LP  0  0  0  0  0  0  0  0  0  0  0  0  # atno 17321 bound_to 7965
  140.7504  143.6267  150.8461 LP  0  0  0  0  0  0  0  0  0  0  0  0  # atno 17342 bound_to 10162
  139.9908  143.5849  152.2911 LP  0  0  0  0  0  0  0  0  0  0  0  0  # atno 17343 bound_to 10162
  156.5215  130.8217  151.3205 LP  0  0  0  0  0  0  0  0  0  0  0  0  # atno 17370 bound_to 10713
  157.7420  130.9881  150.2484 LP  0  0  0  0  0  0  0  0  0  0  0  0  # atno 17371 bound_to 10713
  140.2733  134.3435  155.7366 LP  0  0  0  0  0  0  0  0  0  0  0  0  # atno 17394 bound_to 11000
  141.2184  133.7436  156.9255 LP  0  0  0  0  0  0  0  0  0  0  0  0  # atno 17395 bound_to 11000

$$$$
