AV-unprocessed.smi:671|AV-procd|sdf|3277|dock9
  -GOLD-   22720 0233D 1   1.00000     0.00000
 Structure written by MMmdl.
 49 50  0  0  0  0  0  0  0  0  1 V2000
  147.7620  141.0743  155.8037 C   0  0  0  0  0  0  0  0  0  0  0  0
  146.6851  141.9286  155.1973 C   0  0  0  0  0  0  0  0  0  0  0  0
  146.8021  142.3039  153.9349 N   0  0  0  0  0  0  0  0  0  0  0  0
  145.7030  143.0459  153.6927 N   0  0  0  0  0  0  0  0  0  0  0  0
  145.5120  143.6255  152.3773 C   0  0  0  0  0  0  0  0  0  0  0  0
  144.8883  143.1386  154.8042 C   0  0  0  0  0  0  0  0  0  0  0  0
  143.6062  143.9072  154.7871 C   0  0  0  0  0  0  0  0  0  0  0  0
  145.4931  142.4244  155.8042 C   0  0  0  0  0  0  0  0  0  0  0  0
  145.0294  142.2010  157.2208 C   0  0  0  0  0  0  0  0  0  0  0  0
  145.1902  143.4632  158.0975 C   0  0  2  0  0  0  0  0  0  0  0  0
  144.3121  144.6289  157.6161 C   0  0  0  0  0  0  0  0  0  0  0  0
  146.5887  143.9009  158.1151 N   0  0  0  0  0  0  0  0  0  0  0  0
  147.6048  143.4071  158.8469 C   0  0  0  0  0  0  0  0  0  0  0  0
  147.4457  142.4766  159.6344 O   0  0  0  0  0  0  0  0  0  0  0  0
  148.7835  144.0200  158.6455 N   0  0  0  0  0  0  0  0  0  0  0  0
  150.0467  143.7210  159.3181 C   0  0  2  0  0  0  0  0  0  0  0  0
  150.8559  145.0197  159.5043 C   0  0  0  0  0  0  0  0  0  0  0  0
  152.0567  144.9401  158.5508 C   0  0  0  0  0  0  0  0  0  0  0  0
  151.7779  143.7580  157.6226 C   0  0  0  0  0  0  0  0  0  0  0  0
  150.9494  142.7967  158.4754 C   0  0  2  0  0  0  0  0  0  0  0  0
  150.2407  141.6969  157.6661 C   0  0  0  0  0  0  0  0  0  0  0  0
  147.5016  140.7587  156.8127 H   0  0  0  0  0  0  0  0  0  0  0  0
  148.7057  141.6166  155.8629 H   0  0  0  0  0  0  0  0  0  0  0  0
  147.9298  140.1740  155.2124 H   0  0  0  0  0  0  0  0  0  0  0  0
  144.6173  143.2047  151.9181 H   0  0  0  0  0  0  0  0  0  0  0  0
  146.3693  143.4173  151.7354 H   0  0  0  0  0  0  0  0  0  0  0  0
  145.3931  144.7056  152.4664 H   0  0  0  0  0  0  0  0  0  0  0  0
  143.0302  143.7405  155.6969 H   0  0  0  0  0  0  0  0  0  0  0  0
  142.9841  143.6074  153.9436 H   0  0  0  0  0  0  0  0  0  0  0  0
  143.7984  144.9771  154.7034 H   0  0  0  0  0  0  0  0  0  0  0  0
  143.9848  141.8890  157.2121 H   0  0  0  0  0  0  0  0  0  0  0  0
  145.5634  141.3698  157.6821 H   0  0  0  0  0  0  0  0  0  0  0  0
  144.8847  143.2313  159.1192 H   0  0  0  0  0  0  0  0  0  0  0  0
  143.2530  144.3750  157.6621 H   0  0  0  0  0  0  0  0  0  0  0  0
  144.5443  144.9029  156.5864 H   0  0  0  0  0  0  0  0  0  0  0  0
  144.4593  145.5129  158.2374 H   0  0  0  0  0  0  0  0  0  0  0  0
  146.8087  144.6828  157.5151 H   0  0  0  0  0  0  0  0  0  0  0  0
  148.8052  144.7714  157.9718 H   0  0  0  0  0  0  0  0  0  0  0  0
  149.8537  143.2638  160.2903 H   0  0  0  0  0  0  0  0  0  0  0  0
  150.2536  145.9053  159.2960 H   0  0  0  0  0  0  0  0  0  0  0  0
  151.2029  145.1131  160.5337 H   0  0  0  0  0  0  0  0  0  0  0  0
  152.2086  145.8677  157.9983 H   0  0  0  0  0  0  0  0  0  0  0  0
  152.9646  144.7481  159.1237 H   0  0  0  0  0  0  0  0  0  0  0  0
  151.1943  144.0935  156.7642 H   0  0  0  0  0  0  0  0  0  0  0  0
  152.6929  143.3018  157.2440 H   0  0  0  0  0  0  0  0  0  0  0  0
  151.6357  142.3046  159.1667 H   0  0  0  0  0  0  0  0  0  0  0  0
  149.5918  142.1126  156.8947 H   0  0  0  0  0  0  0  0  0  0  0  0
  149.6308  141.0677  158.3147 H   0  0  0  0  0  0  0  0  0  0  0  0
  150.9673  141.0535  157.1695 H   0  0  0  0  0  0  0  0  0  0  0  0
  1  2  1  0  0  0  0
  1 22  1  0  0  0  0
  1 23  1  0  0  0  0
  1 24  1  0  0  0  0
  2  8  1  0  0  0  0
  2  3  2  0  0  0  0
  3  4  1  0  0  0  0
  4  5  1  0  0  0  0
  4  6  1  0  0  0  0
  5 25  1  0  0  0  0
  5 26  1  0  0  0  0
  5 27  1  0  0  0  0
  6  7  1  0  0  0  0
  6  8  2  0  0  0  0
  7 28  1  0  0  0  0
  7 29  1  0  0  0  0
  7 30  1  0  0  0  0
  8  9  1  0  0  0  0
  9 10  1  0  0  0  0
  9 31  1  0  0  0  0
  9 32  1  0  0  0  0
 10 11  1  0  0  0  0
 10 12  1  0  0  0  0
 10 33  1  0  0  0  0
 11 34  1  0  0  0  0
 11 35  1  0  0  0  0
 11 36  1  0  0  0  0
 12 13  1  0  0  0  0
 12 37  1  0  0  0  0
 13 14  2  0  0  0  0
 13 15  1  0  0  0  0
 15 16  1  0  0  0  0
 15 38  1  0  0  0  0
 16 20  1  0  0  0  0
 16 17  1  0  0  0  0
 16 39  1  0  0  0  0
 17 18  1  0  0  0  0
 17 40  1  0  0  0  0
 17 41  1  0  0  0  0
 18 19  1  0  0  0  0
 18 42  1  0  0  0  0
 18 43  1  0  0  0  0
 19 20  1  0  0  0  0
 19 44  1  0  0  0  0
 19 45  1  0  0  0  0
 20 21  1  0  0  0  0
 20 46  1  0  0  0  0
 21 47  1  0  0  0  0
 21 48  1  0  0  0  0
 21 49  1  0  0  0  0
M  END
> <s_m_source_file>
AV-unprocessed.smi

> <i_m_source_file_index>
671

> <i_lp_mmshare_version>
43012

> <i_f3d_flags>
0

> <s_epik_input>
W0NIM11jMW5uKFtDSDNdKWMoW0NIM10pYzFbQ0gyXVtDQEhdKFtDSDNdKVtOSF1DKD1PKVtOSF1bQ0BASF0yW0NIMl1bQ0gyXVtDSDJdW0NASF0yW0NIM10=

> <s_epik_cmdline>
J2VwaWtfcHl0aG9uJywgJy1waCcsICc3LjAnLCAnLXRuJywgJzgnLCAnLW1hJywgJzIwMCcsICctbWV0YWxfYmluZGluZycsICctaW1hZScsICc8aW5maWxlLm1hZT4nLCAnLW9tYWUnLCAnPG91dGZpbGUubWFlPic=

> <r_lp_tautomer_probability>
1

> <r_epik_Ionization_Penalty>
0.0126855

> <r_epik_Ionization_Penalty_Charging>
0

> <r_epik_Ionization_Penalty_Neutral>
0.0126855

> <r_epik_State_Penalty>
0.00977547

> <r_epik_Charging_Adjusted_Penalty>
0.00977547

> <i_epik_Tot_Q>
0

> <i_epik_Tot_abs_Q>
0

> <r_epik_Metal_State_Penalty>
0.00957132

> <b_epik_Metal_Only>
0

> <s_lp_Force_Field>
OPLS_2005

> <r_lp_Energy>
22.3824

> <b_lp_Chiralities_Consistent>
1

> <s_lp_Variant>
AV-unprocessed.smi:671-5

> <Gold.Version>
5.8.1

> <Gold.Id.Protein>
6NUR|6NUR_protein|mol2

> <Gold.PLP.Fitness>
45.0815

> <Gold.PLP.PLP>
-37.5148

> <Gold.PLP.part.hbond>
-4.8624

> <Gold.PLP.part.metal>
0.0000

> <Gold.PLP.part.buried>
-0.6010

> <Gold.PLP.part.nonpolar>
-32.7081

> <Gold.PLP.part.repulsive>
0.3637

> <Gold.PLP.ligand.clash>
0.0000

> <Gold.PLP.ligand.torsion>
0.8123

> <Gold.PLP.Chemscore.Hbond>
3.0482

> <Gold.PLP.Chemscore.CHOScore>
0.0000

> <Gold.PLP.Chemscore.Metal>
0.0000

> <Gold.Chemscore.Hbonds>
donor molecule, donor type, donor heavy atom, donor atom, acceptor molecule, acceptor atom, score
      L1  H    12    37       P1  8029  0.59
      L1  H    15    38       P1  8029  0.84
      P1  H  6933  6944       L1    14  0.49
      P1  H  6934  6946       L1    14  0.61

> <Gold.PLP.Chemscore.Internal.Correction>
0.0466

> <Gold.Rescore>
     Score         DG    S(hbond)    S(metal)    S(lipo)     H(rot)  DE(clash)    DE(int)     intcor
     19.51     -22.34       2.94        0.00      91.88       1.45       0.79       2.04       ----

> <Gold.Chemscore.Fitness>
19.5109

> <Gold.Chemscore.DG>
-22.3376

> <Gold.Chemscore.ZeroCoef>
-5.4800

> <Gold.Chemscore.Hbond>
2.9399

> <Gold.Chemscore.Metal>
0.0000

> <Gold.Chemscore.Lipo>
91.8816

> <Gold.Chemscore.Internal_Hbond>
0.0000

> <Gold.Chemscore.DEClash>
0.7910

> <Gold.Chemscore.DEInternal>
2.0358

> <Gold.Chemscore.Rot>
1.4499

> <Gold.Chemscore.Internal.Correction>
   9.000000E+99

> <Gold.Chemscore.Hbonds>
donor molecule, donor type, donor heavy atom, donor atom, acceptor molecule, acceptor atom, score
      L1  H    12    37       P1  8029  0.05
      L1  H    15    38       P1  8029  0.19
      P1  H  6933  6944       L1    14  0.48
      P1  H  6934  6946       L1    14  0.58

> <Gold.Chemscore.Hbond.Weighted>
-9.8193

> <Gold.Chemscore.Metal.Weighted>
-0.0000

> <Gold.Chemscore.Lipo.Weighted>
-10.7501

> <Gold.Chemscore.Internal_Hbond.Weighted>
0.0000

> <Gold.Chemscore.DEClash.Weighted>
0.7910

> <Gold.Chemscore.DEInternal.Weighted>
2.0358

> <Gold.Chemscore.Rot.Weighted>
3.7118

> <Gold.Chemscore.Internal.Correction.Weighted>
   9.000000E+99

> <Gold.Protein.RotatedTorsions>
[ 6907 6896 6895 6894 ] final -144.02 input  -60.11 | X-H torsion
[ 7974 7965 7964 7962 ] final  115.26 input  175.53 | X-H torsion
[ 8008 7997 7996 7995 ] final   54.71 input   59.86 | X-H torsion
[ 10167 10162 10161 10158 ] final   21.82 input  -65.29 | X-H torsion
[ 10718 10713 10712 10709 ] final   -2.46 input   66.30 | X-H torsion
[ 10763 10752 10751 10750 ] final  -85.64 input  -60.55 | X-H torsion
[ 11005 11000 10999 10996 ] final  -33.78 input  -57.11 | X-H torsion

> <Gold.Protein.ActiveResidues>
 VAL166  LYS551  ARG553  GLY616  TRP617  ASP618  TYR619  PRO620  LYS621  CYS622 
 ASP623  PHE694  ASN695  SER759  ASP760  ASP761  ALA762  ILE779  LEU786  VAL792 
 PHE793  MET794  SER795  GLU796  ALA797  LYS798  CYS799  TRP800  GLU811  SER814 

> <Gold.Protein.RotatedAtoms>
  151.1083  133.5192  159.2606 H   0  0  0  0  0  0  0  0  0  0  0  0  # atno 6907 bound_to 6896
  151.1996  135.0436  159.8876 H   0  0  0  0  0  0  0  0  0  0  0  0  # atno 6908 bound_to 6896
  152.5448  134.0913  159.8331 H   0  0  0  0  0  0  0  0  0  0  0  0  # atno 6909 bound_to 6896
  145.1942  139.2985  143.4352 H   0  0  0  0  0  0  0  0  0  0  0  0  # atno 7974 bound_to 7965
  155.4892  140.3471  155.4352 H   0  0  0  0  0  0  0  0  0  0  0  0  # atno 8008 bound_to 7997
  156.0988  140.1430  156.9523 H   0  0  0  0  0  0  0  0  0  0  0  0  # atno 8009 bound_to 7997
  154.4680  140.0910  156.7049 H   0  0  0  0  0  0  0  0  0  0  0  0  # atno 8010 bound_to 7997
  140.5397  143.9699  150.6512 H   0  0  0  0  0  0  0  0  0  0  0  0  # atno 10167 bound_to 10162
  156.7905  130.5360  149.5736 H   0  0  0  0  0  0  0  0  0  0  0  0  # atno 10718 bound_to 10713
  154.6133  135.5478  153.7497 H   0  0  0  0  0  0  0  0  0  0  0  0  # atno 10763 bound_to 10752
  153.0205  135.6395  154.1546 H   0  0  0  0  0  0  0  0  0  0  0  0  # atno 10764 bound_to 10752
  154.1483  135.2904  155.3122 H   0  0  0  0  0  0  0  0  0  0  0  0  # atno 10765 bound_to 10752
  140.9663  133.7135  156.1450 H   0  0  0  0  0  0  0  0  0  0  0  0  # atno 11005 bound_to 11000
  146.3430  140.2165  142.8591 LP  0  0  0  0  0  0  0  0  0  0  0  0  # atno 17320 bound_to 7965
  145.0011  140.8633  143.5281 LP  0  0  0  0  0  0  0  0  0  0  0  0  # atno 17321 bound_to 7965
  140.3096  143.3207  152.0892 LP  0  0  0  0  0  0  0  0  0  0  0  0  # atno 17342 bound_to 10162
  139.4984  144.6645  151.6389 LP  0  0  0  0  0  0  0  0  0  0  0  0  # atno 17343 bound_to 10162
  156.1162  130.6076  151.0124 LP  0  0  0  0  0  0  0  0  0  0  0  0  # atno 17370 bound_to 10713
  157.6603  131.0882  150.7854 LP  0  0  0  0  0  0  0  0  0  0  0  0  # atno 17371 bound_to 10713
  140.7395  134.4166  157.5556 LP  0  0  0  0  0  0  0  0  0  0  0  0  # atno 17394 bound_to 11000
  139.8896  134.8827  156.2415 LP  0  0  0  0  0  0  0  0  0  0  0  0  # atno 17395 bound_to 11000

$$$$
