#       Name:                AV-unprocessed.smi:234
#       Creating user name   scv26
#       Creation time:       Thu Mar 26 20:36:01 2020


#       File generated by GOLD software.
#

@<TRIPOS>MOLECULE
AV-unprocessed.smi:234
    69    72     1
SMALL
NO_CHARGES


@<TRIPOS>ATOM
      1 ****        -5.5952  -2.4994  -3.1406 C.3            1 S1                 0.0000
      2 ****        -5.7274  -1.8290  -1.7670 C.3            1 S1                 0.0000
      3 ****        -4.4659  -1.5390  -1.1796 O.3            1 S1                 0.0000
      4 ****        -3.8127  -0.3873  -1.6982 C.3            1 S1                 0.0000
      5 ****        -2.8894  -0.6421  -2.8933 C.3            1 S1                 0.0000
      6 ****        -1.9622   0.3947  -2.2549 C.3            1 S1                 0.0000
      7 ****        -0.5391   0.0948  -2.4299 N.3            1 S1                 0.0000
      8 ****        -0.0424   0.0795  -3.7997 C.3            1 S1                 0.0000
      9 ****         0.3065   0.7791  -1.6248 C.ar           1 S1                 0.0000
     10 ****         0.1042   2.1017  -1.3831 N.ar           1 S1                 0.0000
     11 ****         0.9362   2.7684  -0.5777 C.ar           1 S1                 0.0000
     12 ****         2.0098   2.3152   0.0734 N.ar           1 S1                 0.0000
     13 ****         2.2194   0.9906  -0.1768 C.ar           1 S1                 0.0000
     14 ****         1.4283   0.1580  -1.0156 C.ar           1 S1                 0.0000
     15 ****         1.9444  -1.1310  -1.0353 N.2            1 S1                 0.0000
     16 ****         2.9810  -1.0665  -0.2449 C.2            1 S1                 0.0000
     17 ****         3.2100   0.1657   0.3268 N.pl3          1 S1                 0.0000
     18 ****         4.2717   0.5088   1.2601 C.3            1 S1                 0.0000
     19 ****         3.9661   0.0891   2.7192 C.3            1 S1                 0.0000
     20 ****         3.9302  -1.3273   2.7756 O.3            1 S1                 0.0000
     21 ****         5.0393   0.5781   3.6976 C.3            1 S1                 0.0000
     22 ****         4.3196   1.6165   4.5503 C.3            1 S1                 0.0000
     23 ****         2.9921   1.1258   4.5959 O.3            1 S1                 0.0000
     24 ****         2.6595   0.7103   3.2798 C.3            1 S1                 0.0000
     25 ****         1.4053  -0.1799   3.2935 C.3            1 S1                 0.0000
     26 ****        -2.5633   0.0108  -0.8710 C.3            1 S1                 0.0000
     27 ****        -2.7770   1.1564   0.1187 C.3            1 S1                 0.0000
     28 ****        -1.8922  -1.1367  -0.0923 C.3            1 S1                 0.0000
     29 ****        -6.5700  -2.8244  -3.5040 H              1 S1                 0.0000
     30 ****        -4.9504  -3.3769  -3.0875 H              1 S1                 0.0000
     31 ****        -5.1831  -1.8201  -3.8852 H              1 S1                 0.0000
     32 ****        -6.3469  -0.9330  -1.8252 H              1 S1                 0.0000
     33 ****        -6.2437  -2.5147  -1.0949 H              1 S1                 0.0000
     34 ****        -4.4832   0.4617  -1.8530 H              1 S1                 0.0000
     35 ****        -2.4797  -1.6534  -2.9174 H              1 S1                 0.0000
     36 ****        -3.2966  -0.3449  -3.8597 H              1 S1                 0.0000
     37 ****        -2.2388   1.4066  -2.5592 H              1 S1                 0.0000
     38 ****        -0.1689   1.0575  -4.2654 H              1 S1                 0.0000
     39 ****        -0.5852  -0.6539  -4.3958 H              1 S1                 0.0000
     40 ****         1.0155  -0.1843  -3.8371 H              1 S1                 0.0000
     41 ****         0.7067   3.8135  -0.4313 H              1 S1                 0.0000
     42 ****         3.6035  -1.9262  -0.0437 H              1 S1                 0.0000
     43 ****         5.1949   0.0414   0.9148 H              1 S1                 0.0000
     44 ****         4.4379   1.5855   1.2076 H              1 S1                 0.0000
     45 ****         3.7320  -1.5843   3.6632 H              1 S1                 0.0000
     46 ****         5.3841  -0.2320   4.3426 H              1 S1                 0.0000
     47 ****         5.9184   0.9948   3.2050 H              1 S1                 0.0000
     48 ****         4.7489   1.7145   5.5475 H              1 S1                 0.0000
     49 ****         4.3339   2.5956   4.0689 H              1 S1                 0.0000
     50 ****         2.4294   1.6223   2.7276 H              1 S1                 0.0000
     51 ****         1.1502  -0.5208   2.2899 H              1 S1                 0.0000
     52 ****         0.5480   0.3704   3.6808 H              1 S1                 0.0000
     53 ****         1.5416  -1.0582   3.9245 H              1 S1                 0.0000
     54 ****        -1.8467   1.4483   0.6068 H              1 S1                 0.0000
     55 ****        -3.4841   0.8784   0.9007 H              1 S1                 0.0000
     56 ****        -3.1729   2.0433  -0.3764 H              1 S1                 0.0000
     57 ****        -0.9660  -0.8161   0.3846 H              1 S1                 0.0000
     58 ****        -1.6458  -1.9825  -0.7342 H              1 S1                 0.0000
     59 ****        -2.5421  -1.5135   0.6978 H              1 S1                 0.0000
     60 ****        -3.8675  -2.3269  -1.3248 LP             1 S1                 0.0000
     61 ****        -4.6044  -1.4019  -0.1988 LP             1 S1                 0.0000
     62 ****        -0.5312  -0.8569  -2.1230 LP             1 S1                 0.0000
     63 ****        -0.6671   2.5754  -1.8080 LP             1 S1                 0.0000
     64 ****         2.5866   2.8750   0.6684 LP             1 S1                 0.0000
     65 ****         1.6015  -1.9244  -1.5382 LP             1 S1                 0.0000
     66 ****         4.8187  -1.6990   2.5065 LP             1 S1                 0.0000
     67 ****         3.2236  -1.6724   2.1579 LP             1 S1                 0.0000
     68 ****         2.3689   1.8479   4.8962 LP             1 S1                 0.0000
     69 ****         2.9334   0.3515   5.2260 LP             1 S1                 0.0000
@<TRIPOS>BOND
    1    1    2 1     
    2    1   29 1     
    3    1   30 1     
    4    1   31 1     
    5    2    3 1     
    6    2   32 1     
    7    2   33 1     
    8    3    4 1     
    9    4   26 1     
   10    4    5 1     
   11    4   34 1     
   12    5    6 1     
   13    5   35 1     
   14    5   36 1     
   15    6    7 1     
   16    6   26 1     
   17    6   37 1     
   18    7    8 1     
   19    7    9 1     
   20    8   38 1     
   21    8   39 1     
   22    8   40 1     
   23    9   14 ar    
   24    9   10 ar    
   25   10   11 ar    
   26   11   12 ar    
   27   11   41 1     
   28   12   13 ar    
   29   13   17 1     
   30   13   14 ar    
   31   14   15 1     
   32   15   16 2     
   33   16   17 1     
   34   16   42 1     
   35   17   18 1     
   36   18   19 1     
   37   18   43 1     
   38   18   44 1     
   39   19   24 1     
   40   19   20 1     
   41   19   21 1     
   42   20   45 1     
   43   21   22 1     
   44   21   46 1     
   45   21   47 1     
   46   22   23 1     
   47   22   48 1     
   48   22   49 1     
   49   23   24 1     
   50   24   25 1     
   51   24   50 1     
   52   25   51 1     
   53   25   52 1     
   54   25   53 1     
   55   26   27 1     
   56   26   28 1     
   57   27   54 1     
   58   27   55 1     
   59   27   56 1     
   60   28   57 1     
   61   28   58 1     
   62   28   59 1     
   63    3   60 1     
   64    3   61 1     
   65    7   62 1     
   66   10   63 1     
   67   12   64 1     
   68   15   65 1     
   69   20   66 1     
   70   20   67 1     
   71   23   68 1     
   72   23   69 1     
@<TRIPOS>SUBSTRUCTURE
      1 S1             1
@<TRIPOS>SET
LONE_PAIRS      STATIC     ATOMS    <user>   **** ""
10 60 61 62 63 64 65 66 67 68 69
DONOR_HYDROGENS      STATIC     ATOMS    <user>   **** ""
1 45
ATOM$BLUE        STATIC     ATOMS    COLORGROUP SYSTEM
10 60 61 62 63 64 65 66 67 68 69
ATOM$RED        STATIC     ATOMS    COLORGROUP SYSTEM
1 45
