AV-unprocessed.smi:1484|AV-procd|sdf|6000|dock9
  -GOLD-   22720 6 93D 1   1.00000     0.00000
 Structure written by MMmdl.
 38 39  0  0  0  0  0  0  0  0  1 V2000
  153.0259  143.3450  162.4406 C   0  0  0  0  0  0  0  0  0  0  0  0
  152.3734  143.4613  161.0563 C   0  0  1  0  0  0  0  0  0  0  0  0
  151.7140  144.8394  160.8568 C   0  0  0  0  0  0  0  0  0  0  0  0
  151.0651  144.9633  159.4686 C   0  0  0  0  0  0  0  0  0  0  0  0
  152.0744  144.6645  158.3450 C   0  0  0  0  0  0  0  0  0  0  0  0
  152.7517  143.2919  158.5236 C   0  0  2  0  0  0  0  0  0  0  0  0
  151.7799  142.2244  158.2983 N   0  0  0  0  0  0  0  0  0  0  0  0
  151.0753  142.0291  157.1739 C   0  0  0  0  0  0  0  0  0  0  0  0
  151.1053  142.7925  156.2092 O   0  0  0  0  0  0  0  0  0  0  0  0
  150.2147  140.7634  157.1325 C   0  0  0  0  0  0  0  0  0  0  0  0
  150.6741  139.8542  156.0748 N   0  0  0  0  0  0  0  0  0  0  0  0
  149.6940  139.5405  155.1440 N   0  0  0  0  0  0  0  0  0  0  0  0
  149.9522  138.7143  154.1879 C   0  0  0  0  0  0  0  0  0  0  0  0
  148.9498  138.4277  153.2944 O   0  0  0  0  0  0  0  0  0  0  0  0
  151.2573  138.1054  154.0576 C   0  0  0  0  0  0  0  0  0  0  0  0
  152.2069  138.4197  154.9657 C   0  0  0  0  0  0  0  0  0  0  0  0
  151.9459  139.3485  156.0671 C   0  0  0  0  0  0  0  0  0  0  0  0
  152.7901  139.6430  156.9125 O   0  0  0  0  0  0  0  0  0  0  0  0
  153.3893  143.1846  159.9280 C   0  0  0  0  0  0  0  0  0  0  0  0
  149.1268  138.9655  152.5380 H   0  0  0  0  0  0  0  0  0  0  0  0
  153.8207  144.0805  162.5688 H   0  0  0  0  0  0  0  0  0  0  0  0
  153.4601  142.3556  162.5869 H   0  0  0  0  0  0  0  0  0  0  0  0
  152.2940  143.5030  163.2333 H   0  0  0  0  0  0  0  0  0  0  0  0
  151.5913  142.7021  161.0053 H   0  0  0  0  0  0  0  0  0  0  0  0
  150.9607  145.0078  161.6272 H   0  0  0  0  0  0  0  0  0  0  0  0
  152.4602  145.6256  160.9786 H   0  0  0  0  0  0  0  0  0  0  0  0
  150.2192  144.2785  159.3987 H   0  0  0  0  0  0  0  0  0  0  0  0
  150.6570  145.9663  159.3407 H   0  0  0  0  0  0  0  0  0  0  0  0
  151.5803  144.7192  157.3740 H   0  0  0  0  0  0  0  0  0  0  0  0
  152.8394  145.4419  158.3392 H   0  0  0  0  0  0  0  0  0  0  0  0
  153.5362  143.1979  157.7705 H   0  0  0  0  0  0  0  0  0  0  0  0
  151.6796  141.5440  159.0373 H   0  0  0  0  0  0  0  0  0  0  0  0
  150.2483  140.2618  158.1018 H   0  0  0  0  0  0  0  0  0  0  0  0
  149.1699  141.0429  156.9872 H   0  0  0  0  0  0  0  0  0  0  0  0
  151.4587  137.4173  153.2497 H   0  0  0  0  0  0  0  0  0  0  0  0
  153.1862  137.9725  154.8798 H   0  0  0  0  0  0  0  0  0  0  0  0
  154.2098  143.9001  159.9992 H   0  0  0  0  0  0  0  0  0  0  0  0
  153.8415  142.2019  160.0653 H   0  0  0  0  0  0  0  0  0  0  0  0
  1  2  1  0  0  0  0
  1 21  1  0  0  0  0
  1 22  1  0  0  0  0
  1 23  1  0  0  0  0
  2 19  1  0  0  0  0
  2  3  1  0  0  0  0
  2 24  1  0  0  0  0
  3  4  1  0  0  0  0
  3 25  1  0  0  0  0
  3 26  1  0  0  0  0
  4  5  1  0  0  0  0
  4 27  1  0  0  0  0
  4 28  1  0  0  0  0
  5  6  1  0  0  0  0
  5 29  1  0  0  0  0
  5 30  1  0  0  0  0
  6  7  1  0  0  0  0
  6 19  1  0  0  0  0
  6 31  1  0  0  0  0
  7  8  1  0  0  0  0
  7 32  1  0  0  0  0
  8  9  2  0  0  0  0
  8 10  1  0  0  0  0
 10 33  1  0  0  0  0
 10 34  1  0  0  0  0
 10 11  1  0  0  0  0
 11 12  1  0  0  0  0
 11 17  1  0  0  0  0
 12 13  2  0  0  0  0
 13 14  1  0  0  0  0
 13 15  1  0  0  0  0
 14 20  1  0  0  0  0
 15 35  1  0  0  0  0
 15 16  2  0  0  0  0
 16 36  1  0  0  0  0
 16 17  1  0  0  0  0
 17 18  2  0  0  0  0
 19 37  1  0  0  0  0
 19 38  1  0  0  0  0
M  END
> <s_m_source_file>
AV-unprocessed.smi

> <i_m_source_file_index>
1484

> <i_lp_mmshare_version>
43012

> <i_f3d_flags>
0

> <s_epik_input>
W0NIM11bQ0BASF0xW0NIMl1bQ0gyXVtDSDJdW0NASF0oW0NIMl0xKVtOSF1DKD1PKVtDSDJdbjJbbkhdYyg9TylbY0hdW2NIXWMyPU8=

> <s_epik_cmdline>
J2VwaWtfcHl0aG9uJywgJy1waCcsICc3LjAnLCAnLXRuJywgJzgnLCAnLW1hJywgJzIwMCcsICctbWV0YWxfYmluZGluZycsICctaW1hZScsICc8aW5maWxlLm1hZT4nLCAnLW9tYWUnLCAnPG91dGZpbGUubWFlPic=

> <r_lp_tautomer_probability>
0.9996

> <r_epik_Ionization_Penalty>
2.10343

> <r_epik_Ionization_Penalty_Charging>
3.97871e-08

> <r_epik_Ionization_Penalty_Neutral>
2.10343

> <r_epik_State_Penalty>
1.67966

> <r_epik_Charging_Adjusted_Penalty>
1.67966

> <i_epik_Tot_Q>
0

> <i_epik_Tot_abs_Q>
0

> <r_epik_Metal_State_Penalty>
1.67966

> <b_epik_Metal_Only>
0

> <s_lp_Force_Field>
OPLS_2005

> <r_lp_Energy>
21.1153

> <b_lp_Chiralities_Consistent>
1

> <s_lp_Variant>
AV-unprocessed.smi:1484-8

> <Gold.Version>
5.8.1

> <Gold.Id.Protein>
6NUR|6NUR_protein|mol2

> <Gold.PLP.Fitness>
50.4941

> <Gold.PLP.PLP>
-44.5174

> <Gold.PLP.part.hbond>
-3.0000

> <Gold.PLP.part.metal>
0.0000

> <Gold.PLP.part.buried>
-3.3637

> <Gold.PLP.part.nonpolar>
-38.4828

> <Gold.PLP.part.repulsive>
0.8303

> <Gold.PLP.ligand.clash>
0.0000

> <Gold.PLP.ligand.torsion>
0.0156

> <Gold.PLP.Chemscore.Hbond>
2.0000

> <Gold.PLP.Chemscore.CHOScore>
0.0000

> <Gold.PLP.Chemscore.Metal>
0.0000

> <Gold.Chemscore.Hbonds>
donor molecule, donor type, donor heavy atom, donor atom, acceptor molecule, acceptor atom, score
      L1  H    14    20       P1  7957  1.00
      P1  H  7997  8008       L1    18  1.00

> <Gold.PLP.Chemscore.Internal.Correction>
0.0079

> <Gold.Rescore>
     Score         DG    S(hbond)    S(metal)    S(lipo)     H(rot)  DE(clash)    DE(int)     intcor
     15.62     -18.95       1.97        0.00     107.89       2.24       0.99       2.35       ----

> <Gold.Chemscore.Fitness>
15.6171

> <Gold.Chemscore.DG>
-18.9520

> <Gold.Chemscore.ZeroCoef>
-5.4800

> <Gold.Chemscore.Hbond>
1.9725

> <Gold.Chemscore.Metal>
0.0000

> <Gold.Chemscore.Lipo>
107.8944

> <Gold.Chemscore.Internal_Hbond>
0.0000

> <Gold.Chemscore.DEClash>
0.9851

> <Gold.Chemscore.DEInternal>
2.3498

> <Gold.Chemscore.Rot>
2.2421

> <Gold.Chemscore.Internal.Correction>
   9.000000E+99

> <Gold.Chemscore.Hbonds>
donor molecule, donor type, donor heavy atom, donor atom, acceptor molecule, acceptor atom, score
      L1  H    14    20       P1  7957  0.98
      P1  H  7997  8008       L1    18  0.93

> <Gold.Chemscore.Hbond.Weighted>
-6.5881

> <Gold.Chemscore.Metal.Weighted>
-0.0000

> <Gold.Chemscore.Lipo.Weighted>
-12.6236

> <Gold.Chemscore.Internal_Hbond.Weighted>
0.0000

> <Gold.Chemscore.DEClash.Weighted>
0.9851

> <Gold.Chemscore.DEInternal.Weighted>
2.3498

> <Gold.Chemscore.Rot.Weighted>
5.7398

> <Gold.Chemscore.Internal.Correction.Weighted>
   9.000000E+99

> <Gold.Protein.RotatedTorsions>
[ 6907 6896 6895 6894 ] final  105.66 input  -60.11 | X-H torsion
[ 7974 7965 7964 7962 ] final   96.28 input  175.53 | X-H torsion
[ 8008 7997 7996 7995 ] final  -41.35 input   59.86 | X-H torsion
[ 10167 10162 10161 10158 ] final  135.67 input  -65.29 | X-H torsion
[ 10718 10713 10712 10709 ] final -114.10 input   66.30 | X-H torsion
[ 10763 10752 10751 10750 ] final  -68.05 input  -60.55 | X-H torsion
[ 11005 11000 10999 10996 ] final  -18.26 input  -57.11 | X-H torsion

> <Gold.Protein.ActiveResidues>
 VAL166  LYS551  ARG553  GLY616  TRP617  ASP618  TYR619  PRO620  LYS621  CYS622 
 ASP623  PHE694  ASN695  SER759  ASP760  ASP761  ALA762  ILE779  LEU786  VAL792 
 PHE793  MET794  SER795  GLU796  ALA797  LYS798  CYS799  TRP800  GLU811  SER814 

> <Gold.Protein.RotatedAtoms>
  152.5222  133.9496  159.7665 H   0  0  0  0  0  0  0  0  0  0  0  0  # atno 6907 bound_to 6896
  150.9809  133.6238  159.2730 H   0  0  0  0  0  0  0  0  0  0  0  0  # atno 6908 bound_to 6896
  151.3416  135.0870  159.9426 H   0  0  0  0  0  0  0  0  0  0  0  0  # atno 6909 bound_to 6896
  145.4410  139.2301  143.3092 H   0  0  0  0  0  0  0  0  0  0  0  0  # atno 7974 bound_to 7965
  154.4005  140.1501  156.3177 H   0  0  0  0  0  0  0  0  0  0  0  0  # atno 8008 bound_to 7997
  155.8558  140.3456  155.5702 H   0  0  0  0  0  0  0  0  0  0  0  0  # atno 8009 bound_to 7997
  155.7934  140.0860  157.1987 H   0  0  0  0  0  0  0  0  0  0  0  0  # atno 8010 bound_to 7997
  139.5208  144.6504  151.5317 H   0  0  0  0  0  0  0  0  0  0  0  0  # atno 10167 bound_to 10162
  156.0808  130.6008  150.8730 H   0  0  0  0  0  0  0  0  0  0  0  0  # atno 10718 bound_to 10713
  154.3834  135.6069  153.5803 H   0  0  0  0  0  0  0  0  0  0  0  0  # atno 10763 bound_to 10752
  152.9788  135.5866  154.4383 H   0  0  0  0  0  0  0  0  0  0  0  0  # atno 10764 bound_to 10752
  154.4156  135.2845  155.1986 H   0  0  0  0  0  0  0  0  0  0  0  0  # atno 10765 bound_to 10752
  140.8250  133.8039  155.9699 H   0  0  0  0  0  0  0  0  0  0  0  0  # atno 11005 bound_to 11000
  146.2556  140.5158  142.8875 LP  0  0  0  0  0  0  0  0  0  0  0  0  # atno 17320 bound_to 7965
  144.8121  140.6405  143.6408 LP  0  0  0  0  0  0  0  0  0  0  0  0  # atno 17321 bound_to 7965
  140.6307  143.9081  150.6603 LP  0  0  0  0  0  0  0  0  0  0  0  0  # atno 17342 bound_to 10162
  140.2384  143.3682  152.1507 LP  0  0  0  0  0  0  0  0  0  0  0  0  # atno 17343 bound_to 10162
  157.5924  131.0944  150.9097 LP  0  0  0  0  0  0  0  0  0  0  0  0  # atno 17370 bound_to 10713
  156.9270  130.5336  149.5279 LP  0  0  0  0  0  0  0  0  0  0  0  0  # atno 17371 bound_to 10713
  140.9059  134.2321  157.5015 LP  0  0  0  0  0  0  0  0  0  0  0  0  # atno 17394 bound_to 11000
  139.8707  134.9728  156.4785 LP  0  0  0  0  0  0  0  0  0  0  0  0  # atno 17395 bound_to 11000

$$$$
