AV-unprocessed.smi:1897|AV-procd|sdf|7697|dock1
  -GOLD-   22720 9433D 1   1.00000     0.00000
 Structure written by MMmdl.
 38 40  0  0  0  0  0  0  0  0  3 V2000
  150.7619  134.2418  156.2053 C   0  0  0  0  0  0  0  0  0  0  0  0
  151.5488  135.5073  156.1853 C   0  0  0  0  0  0  0  0  0  0  0  0
  152.8014  135.5858  156.6400 N   0  0  0  0  0  0  0  0  0  0  0  0
  153.3209  136.8666  156.5229 N   0  0  0  0  0  0  0  0  0  0  0  0
  152.4619  137.7341  155.9695 C   0  0  0  0  0  0  0  0  0  0  0  0
  152.7737  139.0272  155.7628 N   0  5  0  0  0  0  0  0  0  0  0  0
  151.8321  140.0021  155.6713 C   0  0  0  0  0  0  0  0  0  0  0  0
  151.1079  140.1547  154.6886 O   0  0  0  0  0  0  0  0  0  0  0  0
  151.6932  140.8387  156.7165 N   0  0  0  0  0  0  0  0  0  0  0  0
  150.7459  141.9424  156.8072 C   0  0  1  0  0  0  0  0  0  0  0  0
  149.2782  141.4952  156.9470 C   0  0  0  0  0  0  0  0  0  0  0  0
  148.6485  142.4745  157.9568 C   0  0  0  0  0  0  0  0  0  0  0  0
  149.6977  143.4733  158.2352 N   0  3  1  0  0  0  0  0  0  0  0  0
  149.6091  144.2091  159.5150 C   0  0  0  0  0  0  0  0  0  0  0  0
  150.7423  145.2530  159.5803 C   0  0  0  0  0  0  0  0  0  0  0  0
  152.1248  144.6147  159.3313 C   0  0  0  0  0  0  0  0  0  0  0  0
  152.1286  143.7833  158.0337 C   0  0  0  0  0  0  0  0  0  0  0  0
  150.9762  142.7668  158.0714 C   0  0  2  0  0  0  0  0  0  0  0  0
  150.9057  137.0150  155.5563 S   0  0  0  0  0  0  0  0  0  0  0  0
  151.0334  133.6209  155.3516 H   0  0  0  0  0  0  0  0  0  0  0  0
  149.6949  134.4593  156.1564 H   0  0  0  0  0  0  0  0  0  0  0  0
  150.9617  133.6866  157.1221 H   0  0  0  0  0  0  0  0  0  0  0  0
  152.2967  140.6879  157.5117 H   0  0  0  0  0  0  0  0  0  0  0  0
  150.8444  142.5934  155.9360 H   0  0  0  0  0  0  0  0  0  0  0  0
  148.7697  141.5231  155.9828 H   0  0  0  0  0  0  0  0  0  0  0  0
  149.2057  140.4744  157.3255 H   0  0  0  0  0  0  0  0  0  0  0  0
  147.7492  142.9530  157.5684 H   0  0  0  0  0  0  0  0  0  0  0  0
  148.3830  141.9455  158.8734 H   0  0  0  0  0  0  0  0  0  0  0  0
  148.6387  144.7011  159.5884 H   0  0  0  0  0  0  0  0  0  0  0  0
  149.6829  143.5116  160.3510 H   0  0  0  0  0  0  0  0  0  0  0  0
  150.5639  146.0248  158.8302 H   0  0  0  0  0  0  0  0  0  0  0  0
  150.7320  145.7567  160.5474 H   0  0  0  0  0  0  0  0  0  0  0  0
  152.8925  145.3877  159.2847 H   0  0  0  0  0  0  0  0  0  0  0  0
  152.3841  143.9723  160.1739 H   0  0  0  0  0  0  0  0  0  0  0  0
  152.0217  144.4421  157.1709 H   0  0  0  0  0  0  0  0  0  0  0  0
  153.0832  143.2686  157.9189 H   0  0  0  0  0  0  0  0  0  0  0  0
  151.1122  142.0929  158.9212 H   0  0  0  0  0  0  0  0  0  0  0  0
  149.6513  144.1536  157.4902 H   0  0  0  0  0  0  0  0  0  0  0  0
  1  2  1  0  0  0  0
  1 20  1  0  0  0  0
  1 21  1  0  0  0  0
  1 22  1  0  0  0  0
  2 19  1  0  0  0  0
  2  3  2  0  0  0  0
  3  4  1  0  0  0  0
  4  5  2  0  0  0  0
  5  6  1  0  0  0  0
  5 19  1  0  0  0  0
  6  7  1  0  0  0  0
  7  8  2  0  0  0  0
  7  9  1  0  0  0  0
  9 10  1  0  0  0  0
  9 23  1  0  0  0  0
 10 18  1  0  0  0  0
 10 11  1  0  0  0  0
 10 24  1  0  0  0  0
 11 12  1  0  0  0  0
 11 25  1  0  0  0  0
 11 26  1  0  0  0  0
 12 13  1  0  0  0  0
 12 27  1  0  0  0  0
 12 28  1  0  0  0  0
 13 18  1  0  0  0  0
 13 14  1  0  0  0  0
 13 38  1  0  0  0  0
 14 15  1  0  0  0  0
 14 29  1  0  0  0  0
 14 30  1  0  0  0  0
 15 16  1  0  0  0  0
 15 31  1  0  0  0  0
 15 32  1  0  0  0  0
 16 17  1  0  0  0  0
 16 33  1  0  0  0  0
 16 34  1  0  0  0  0
 17 18  1  0  0  0  0
 17 35  1  0  0  0  0
 17 36  1  0  0  0  0
 18 37  1  0  0  0  0
M  CHG  1   6  -1
M  CHG  1  13   1
M  END
> <s_m_source_file>
AV-unprocessed.smi

> <i_m_source_file_index>
1897

> <i_lp_mmshare_version>
43012

> <i_f3d_flags>
0

> <s_epik_input>
W0NIM11jMW5uYyhzMSlbTkhdQyg9TylbTkhdW0NASF0oW0NIMl1bQ0gyXTIpW0NAQEhdKE4yMylbQ0gyXVtDSDJdW0NIMl1bQ0gyXTM=

> <s_epik_cmdline>
J2VwaWtfcHl0aG9uJywgJy1waCcsICc3LjAnLCAnLXRuJywgJzgnLCAnLW1hJywgJzIwMCcsICctbWV0YWxfYmluZGluZycsICctaW1hZScsICc8aW5maWxlLm1hZT4nLCAnLW9tYWUnLCAnPG91dGZpbGUubWFlPic=

> <r_lp_tautomer_probability>
1

> <r_epik_Ionization_Penalty>
3.77712

> <r_epik_Ionization_Penalty_Charging>
3.67739

> <r_epik_Ionization_Penalty_Neutral>
0.0997294

> <r_epik_State_Penalty>
3.67514

> <r_epik_Charging_Adjusted_Penalty>
7.35254

> <i_epik_Tot_Q>
0

> <i_epik_Tot_abs_Q>
2

> <r_epik_Metal_State_Penalty>
0.540795

> <b_epik_Metal_Only>
1

> <s_lp_Force_Field>
OPLS_2005

> <r_lp_Energy>
28.3621

> <b_lp_Chiralities_Consistent>
1

> <s_lp_Variant>
AV-unprocessed.smi:1897-14

> <Gold.Version>
5.8.1

> <Gold.Id.Protein>
6NUR|6NUR_protein|mol2

> <Gold.PLP.Fitness>
47.7102

> <Gold.PLP.PLP>
-34.2669

> <Gold.PLP.part.hbond>
-5.5266

> <Gold.PLP.part.metal>
0.0000

> <Gold.PLP.part.buried>
-3.7266

> <Gold.PLP.part.nonpolar>
-25.5705

> <Gold.PLP.part.repulsive>
0.2413

> <Gold.PLP.ligand.clash>
0.0000

> <Gold.PLP.ligand.torsion>
0.8908

> <Gold.PLP.Chemscore.Hbond>
5.0650

> <Gold.PLP.Chemscore.CHOScore>
0.0000

> <Gold.PLP.Chemscore.Metal>
0.0000

> <Gold.Chemscore.Hbonds>
donor molecule, donor type, donor heavy atom, donor atom, acceptor molecule, acceptor atom, score
      L1  H    13    38       P1  8028  1.98
      P1  H  7989  7998       L1     8  0.88
      P1  H  7997  8010       L1     6  2.00
      P1  H 10752 10765       L1     3  0.11

> <Gold.PLP.Chemscore.Internal.Correction>
0.0301

> <Gold.Rescore>
     Score         DG    S(hbond)    S(metal)    S(lipo)     H(rot)  DE(clash)    DE(int)     intcor
     16.63     -17.57       1.68        0.00      77.31       1.00       0.27       0.67       ----

> <Gold.Chemscore.Fitness>
16.6263

> <Gold.Chemscore.DG>
-17.5688

> <Gold.Chemscore.ZeroCoef>
-5.4800

> <Gold.Chemscore.Hbond>
1.6776

> <Gold.Chemscore.Metal>
0.0000

> <Gold.Chemscore.Lipo>
77.3120

> <Gold.Chemscore.Internal_Hbond>
0.0000

> <Gold.Chemscore.DEClash>
0.2687

> <Gold.Chemscore.DEInternal>
0.6738

> <Gold.Chemscore.Rot>
1.0000

> <Gold.Chemscore.Internal.Correction>
   9.000000E+99

> <Gold.Chemscore.Hbonds>
donor molecule, donor type, donor heavy atom, donor atom, acceptor molecule, acceptor atom, score
      L1  H    13    38       P1  8028  0.22
      P1  H  7989  7998       L1     8  0.83
      P1  H  7997  8010       L1     6  0.28

> <Gold.Chemscore.Hbond.Weighted>
-5.6033

> <Gold.Chemscore.Metal.Weighted>
-0.0000

> <Gold.Chemscore.Lipo.Weighted>
-9.0455

> <Gold.Chemscore.Internal_Hbond.Weighted>
0.0000

> <Gold.Chemscore.DEClash.Weighted>
0.2687

> <Gold.Chemscore.DEInternal.Weighted>
0.6738

> <Gold.Chemscore.Rot.Weighted>
2.5600

> <Gold.Chemscore.Internal.Correction.Weighted>
   9.000000E+99

> <Gold.Protein.RotatedTorsions>
[ 6907 6896 6895 6894 ] final  -92.30 input  -60.11 | X-H torsion
[ 7974 7965 7964 7962 ] final  -64.83 input  175.53 | X-H torsion
[ 8008 7997 7996 7995 ] final   69.45 input   59.86 | X-H torsion
[ 10167 10162 10161 10158 ] final   67.47 input  -65.29 | X-H torsion
[ 10718 10713 10712 10709 ] final   55.40 input   66.30 | X-H torsion
[ 10763 10752 10751 10750 ] final -126.92 input  -60.55 | X-H torsion
[ 11005 11000 10999 10996 ] final   95.17 input  -57.11 | X-H torsion

> <Gold.Protein.ActiveResidues>
 VAL166  LYS551  ARG553  GLY616  TRP617  ASP618  TYR619  PRO620  LYS621  CYS622 
 ASP623  PHE694  ASN695  SER759  ASP760  ASP761  ALA762  ILE779  LEU786  VAL792 
 PHE793  MET794  SER795  GLU796  ALA797  LYS798  CYS799  TRP800  GLU811  SER814 

> <Gold.Protein.RotatedAtoms>
  150.6904  134.2143  159.4371 H   0  0  0  0  0  0  0  0  0  0  0  0  # atno 6907 bound_to 6896
  152.0103  134.9877  160.0577 H   0  0  0  0  0  0  0  0  0  0  0  0  # atno 6908 bound_to 6896
  152.1495  133.4478  159.4843 H   0  0  0  0  0  0  0  0  0  0  0  0  # atno 6909 bound_to 6896
  145.7618  140.8857  143.0426 H   0  0  0  0  0  0  0  0  0  0  0  0  # atno 7974 bound_to 7965
  155.7238  140.3493  155.5028 H   0  0  0  0  0  0  0  0  0  0  0  0  # atno 8008 bound_to 7997
  155.9245  140.1073  157.1202 H   0  0  0  0  0  0  0  0  0  0  0  0  # atno 8009 bound_to 7997
  154.4075  140.1243  156.4709 H   0  0  0  0  0  0  0  0  0  0  0  0  # atno 8010 bound_to 7997
  140.0892  144.5003  150.7110 H   0  0  0  0  0  0  0  0  0  0  0  0  # atno 10167 bound_to 10162
  157.5342  130.8651  149.8729 H   0  0  0  0  0  0  0  0  0  0  0  0  # atno 10718 bound_to 10713
  154.8749  135.3979  154.3509 H   0  0  0  0  0  0  0  0  0  0  0  0  # atno 10763 bound_to 10752
  153.4295  135.7025  153.6245 H   0  0  0  0  0  0  0  0  0  0  0  0  # atno 10764 bound_to 10752
  153.4873  135.3756  155.2443 H   0  0  0  0  0  0  0  0  0  0  0  0  # atno 10765 bound_to 10752
  139.8791  134.8885  156.3972 H   0  0  0  0  0  0  0  0  0  0  0  0  # atno 11005 bound_to 11000
  144.6829  139.9734  143.7482 LP  0  0  0  0  0  0  0  0  0  0  0  0  # atno 17320 bound_to 7965
  146.0256  139.3289  143.0786 LP  0  0  0  0  0  0  0  0  0  0  0  0  # atno 17321 bound_to 7965
  140.7037  143.2453  151.4788 LP  0  0  0  0  0  0  0  0  0  0  0  0  # atno 17342 bound_to 10162
  139.5735  144.1874  152.1870 LP  0  0  0  0  0  0  0  0  0  0  0  0  # atno 17343 bound_to 10162
  156.0445  130.3731  150.1351 LP  0  0  0  0  0  0  0  0  0  0  0  0  # atno 17370 bound_to 10713
  156.9534  130.9782  151.3493 LP  0  0  0  0  0  0  0  0  0  0  0  0  # atno 17371 bound_to 10713
  140.9292  133.7591  156.0003 LP  0  0  0  0  0  0  0  0  0  0  0  0  # atno 17394 bound_to 11000
  140.8350  134.3133  157.5335 LP  0  0  0  0  0  0  0  0  0  0  0  0  # atno 17395 bound_to 11000

$$$$
