AV-unprocessed.smi:1940|AV-procd|sdf|7839|dock1
  -GOLD-   22720 9583D 1   1.00000     0.00000
 Structure written by MMmdl.
 49 51  0  0  0  0  0  0  0  0  1 V2000
  144.4284  137.2794  152.0727 C   0  0  0  0  0  0  0  0  0  0  0  0
  145.3729  136.1317  152.4588 C   0  0  2  0  0  0  0  0  0  0  0  0
  146.6649  136.6913  152.8536 N   0  0  0  0  0  0  0  0  0  0  0  0
  146.8710  137.5889  153.8285 C   0  0  0  0  0  0  0  0  0  0  0  0
  145.9690  138.0659  154.5155 O   0  0  0  0  0  0  0  0  0  0  0  0
  148.1778  137.8838  153.9377 N   0  0  0  0  0  0  0  0  0  0  0  0
  148.8335  138.7778  154.8290 C   0  0  0  0  0  0  0  0  0  0  0  0
  148.3170  139.2127  156.0726 C   0  0  0  0  0  0  0  0  0  0  0  0
  149.0821  140.0971  156.8571 C   0  0  0  0  0  0  0  0  0  0  0  0
  150.3451  140.5260  156.3874 C   0  0  0  0  0  0  0  0  0  0  0  0
  151.1226  141.4157  157.1598 N   0  0  0  0  0  0  0  0  0  0  0  0
  150.7557  142.8339  157.1362 C   0  0  0  0  0  0  0  0  0  0  0  0
  151.8859  143.7101  157.7024 C   0  0  0  0  0  0  0  0  0  0  0  0
  152.3042  143.2340  159.1010 C   0  0  0  0  0  0  0  0  0  0  0  0
  152.6812  141.7456  159.0586 C   0  0  0  0  0  0  0  0  0  0  0  0
  151.5400  140.9012  158.4658 C   0  0  0  0  0  0  0  0  0  0  0  0
  150.8418  140.0995  155.2009 N   0  0  0  0  0  0  0  0  0  0  0  0
  150.1050  139.2536  154.4516 C   0  0  0  0  0  0  0  0  0  0  0  0
  145.5625  135.1271  151.3053 C   0  0  1  0  0  0  0  0  0  0  0  0
  146.4011  133.8970  151.6571 C   0  0  0  0  0  0  0  0  0  0  0  0
  145.9375  132.9062  150.6146 C   0  0  0  0  0  0  0  0  0  0  0  0
  144.4473  133.2220  150.5214 C   0  0  0  0  0  0  0  0  0  0  0  0
  144.3073  134.5915  150.8933 O   0  0  0  0  0  0  0  0  0  0  0  0
  143.4417  136.9024  151.8018 H   0  0  0  0  0  0  0  0  0  0  0  0
  144.8132  137.8438  151.2226 H   0  0  0  0  0  0  0  0  0  0  0  0
  144.2956  137.9744  152.9025 H   0  0  0  0  0  0  0  0  0  0  0  0
  144.9203  135.6005  153.2981 H   0  0  0  0  0  0  0  0  0  0  0  0
  147.4706  136.3582  152.3448 H   0  0  0  0  0  0  0  0  0  0  0  0
  148.7852  137.4220  153.2768 H   0  0  0  0  0  0  0  0  0  0  0  0
  147.3617  138.8880  156.4519 H   0  0  0  0  0  0  0  0  0  0  0  0
  148.7011  140.4238  157.8133 H   0  0  0  0  0  0  0  0  0  0  0  0
  150.5388  143.1491  156.1147 H   0  0  0  0  0  0  0  0  0  0  0  0
  149.8449  142.9776  157.7191 H   0  0  0  0  0  0  0  0  0  0  0  0
  152.7458  143.6735  157.0321 H   0  0  0  0  0  0  0  0  0  0  0  0
  151.5671  144.7519  157.7404 H   0  0  0  0  0  0  0  0  0  0  0  0
  153.1434  143.8268  159.4660 H   0  0  0  0  0  0  0  0  0  0  0  0
  151.4831  143.3863  159.8029 H   0  0  0  0  0  0  0  0  0  0  0  0
  153.5818  141.6141  158.4573 H   0  0  0  0  0  0  0  0  0  0  0  0
  152.9238  141.3923  160.0610 H   0  0  0  0  0  0  0  0  0  0  0  0
  150.6793  140.9194  159.1355 H   0  0  0  0  0  0  0  0  0  0  0  0
  151.8644  139.8632  158.4043 H   0  0  0  0  0  0  0  0  0  0  0  0
  150.5487  138.9477  153.5153 H   0  0  0  0  0  0  0  0  0  0  0  0
  146.0097  135.6246  150.4425 H   0  0  0  0  0  0  0  0  0  0  0  0
  147.4744  134.0858  151.6188 H   0  0  0  0  0  0  0  0  0  0  0  0
  146.1525  133.5339  152.6554 H   0  0  0  0  0  0  0  0  0  0  0  0
  146.4258  133.1124  149.6613 H   0  0  0  0  0  0  0  0  0  0  0  0
  146.1386  131.8695  150.8854 H   0  0  0  0  0  0  0  0  0  0  0  0
  144.0488  133.0395  149.5231 H   0  0  0  0  0  0  0  0  0  0  0  0
  143.8820  132.6135  151.2280 H   0  0  0  0  0  0  0  0  0  0  0  0
  1  2  1  0  0  0  0
  1 24  1  0  0  0  0
  1 25  1  0  0  0  0
  1 26  1  0  0  0  0
  2  3  1  0  0  0  0
  2 19  1  0  0  0  0
  2 27  1  0  0  0  0
  3  4  1  0  0  0  0
  3 28  1  0  0  0  0
  4  5  2  0  0  0  0
  4  6  1  0  0  0  0
  6  7  1  0  0  0  0
  6 29  1  0  0  0  0
  7 18  1  0  0  0  0
  7  8  2  0  0  0  0
  8  9  1  0  0  0  0
  8 30  1  0  0  0  0
  9 10  2  0  0  0  0
  9 31  1  0  0  0  0
 10 11  1  0  0  0  0
 10 17  1  0  0  0  0
 11 16  1  0  0  0  0
 11 12  1  0  0  0  0
 12 13  1  0  0  0  0
 12 32  1  0  0  0  0
 12 33  1  0  0  0  0
 13 14  1  0  0  0  0
 13 34  1  0  0  0  0
 13 35  1  0  0  0  0
 14 15  1  0  0  0  0
 14 36  1  0  0  0  0
 14 37  1  0  0  0  0
 15 16  1  0  0  0  0
 15 38  1  0  0  0  0
 15 39  1  0  0  0  0
 16 40  1  0  0  0  0
 16 41  1  0  0  0  0
 17 18  2  0  0  0  0
 18 42  1  0  0  0  0
 19 23  1  0  0  0  0
 19 20  1  0  0  0  0
 19 43  1  0  0  0  0
 20 21  1  0  0  0  0
 20 44  1  0  0  0  0
 20 45  1  0  0  0  0
 21 22  1  0  0  0  0
 21 46  1  0  0  0  0
 21 47  1  0  0  0  0
 22 23  1  0  0  0  0
 22 48  1  0  0  0  0
 22 49  1  0  0  0  0
M  END
> <s_m_source_file>
AV-unprocessed.smi

> <i_m_source_file_index>
1940

> <i_lp_mmshare_version>
43012

> <i_f3d_flags>
0

> <s_epik_input>
TzFbQ0gyXVtDSDJdW0NIMl1bQ0BIXTFbQ0BIXShbQ0gzXSlbTkhdQyg9TylbTkhdYzJbY0hdW2NIXWMobltjSF0yKU4zW0NIMl1bQ0gyXVtDSDJdW0NIMl1bQ0gyXTM=

> <s_epik_cmdline>
J2VwaWtfcHl0aG9uJywgJy1waCcsICc3LjAnLCAnLXRuJywgJzgnLCAnLW1hJywgJzIwMCcsICctbWV0YWxfYmluZGluZycsICctaW1hZScsICc8aW5maWxlLm1hZT4nLCAnLW9tYWUnLCAnPG91dGZpbGUubWFlPic=

> <r_lp_tautomer_probability>
1

> <r_epik_Ionization_Penalty>
0.105688

> <r_epik_Ionization_Penalty_Charging>
0

> <r_epik_Ionization_Penalty_Neutral>
0.105688

> <r_epik_State_Penalty>
0.0895745

> <r_epik_Charging_Adjusted_Penalty>
0.0895745

> <i_epik_Tot_Q>
0

> <i_epik_Tot_abs_Q>
0

> <r_epik_Metal_State_Penalty>
0.0765749

> <b_epik_Metal_Only>
0

> <s_lp_Force_Field>
OPLS_2005

> <r_lp_Energy>
32.8596

> <b_lp_Chiralities_Consistent>
1

> <s_lp_Variant>
AV-unprocessed.smi:1940-3

> <Gold.Version>
5.8.1

> <Gold.Id.Protein>
6NUR|6NUR_protein|mol2

> <Gold.PLP.Fitness>
45.8627

> <Gold.PLP.PLP>
-35.5536

> <Gold.PLP.part.hbond>
-3.0000

> <Gold.PLP.part.metal>
0.0000

> <Gold.PLP.part.buried>
-5.5884

> <Gold.PLP.part.nonpolar>
-27.7320

> <Gold.PLP.part.repulsive>
0.3133

> <Gold.PLP.ligand.clash>
0.0000

> <Gold.PLP.ligand.torsion>
0.3744

> <Gold.PLP.Chemscore.Hbond>
2.5420

> <Gold.PLP.Chemscore.CHOScore>
1.0000

> <Gold.PLP.Chemscore.Metal>
0.0000

> <Gold.Chemscore.Hbonds>
donor molecule, donor type, donor heavy atom, donor atom, acceptor molecule, acceptor atom, score
      L1  H     3    28       P1  7948  1.00
      L1  H     6    29       P1  7948  0.98
      P1  H  7989  7998       L1    17  0.45
      L1  C    18    42       P1  7957  0.37

> <Gold.PLP.Chemscore.Internal.Correction>
0.4319

> <Gold.Rescore>
     Score         DG    S(hbond)    S(metal)    S(lipo)     H(rot)  DE(clash)    DE(int)     intcor
     18.88     -19.83       1.99        0.00      95.15       1.34       0.14       0.81       ----

> <Gold.Chemscore.Fitness>
18.8813

> <Gold.Chemscore.DG>
-19.8316

> <Gold.Chemscore.ZeroCoef>
-5.4800

> <Gold.Chemscore.Hbond>
1.9876

> <Gold.Chemscore.Metal>
0.0000

> <Gold.Chemscore.Lipo>
95.1534

> <Gold.Chemscore.Internal_Hbond>
0.0000

> <Gold.Chemscore.DEClash>
0.1426

> <Gold.Chemscore.DEInternal>
0.8077

> <Gold.Chemscore.Rot>
1.3359

> <Gold.Chemscore.Internal.Correction>
   9.000000E+99

> <Gold.Chemscore.Hbonds>
donor molecule, donor type, donor heavy atom, donor atom, acceptor molecule, acceptor atom, score
      L1  H     3    28       P1  7948  0.95
      L1  H     6    29       P1  7948  0.93
      P1  H  7989  7998       L1    17  0.01

> <Gold.Chemscore.Hbond.Weighted>
-6.6385

> <Gold.Chemscore.Metal.Weighted>
-0.0000

> <Gold.Chemscore.Lipo.Weighted>
-11.1329

> <Gold.Chemscore.Internal_Hbond.Weighted>
0.0000

> <Gold.Chemscore.DEClash.Weighted>
0.1426

> <Gold.Chemscore.DEInternal.Weighted>
0.8077

> <Gold.Chemscore.Rot.Weighted>
3.4199

> <Gold.Chemscore.Internal.Correction.Weighted>
   9.000000E+99

> <Gold.Protein.RotatedTorsions>
[ 6907 6896 6895 6894 ] final  -52.22 input  -60.11 | X-H torsion
[ 7974 7965 7964 7962 ] final  -37.35 input  175.53 | X-H torsion
[ 8008 7997 7996 7995 ] final   54.63 input   59.86 | X-H torsion
[ 10167 10162 10161 10158 ] final  145.92 input  -65.29 | X-H torsion
[ 10718 10713 10712 10709 ] final -160.71 input   66.30 | X-H torsion
[ 10763 10752 10751 10750 ] final  140.50 input  -60.55 | X-H torsion
[ 11005 11000 10999 10996 ] final -126.70 input  -57.11 | X-H torsion

> <Gold.Protein.ActiveResidues>
 VAL166  LYS551  ARG553  GLY616  TRP617  ASP618  TYR619  PRO620  LYS621  CYS622 
 ASP623  PHE694  ASN695  SER759  ASP760  ASP761  ALA762  ILE779  LEU786  VAL792 
 PHE793  MET794  SER795  GLU796  ALA797  LYS798  CYS799  TRP800  GLU811  SER814 

> <Gold.Protein.RotatedAtoms>
  150.8538  134.7870  159.7028 H   0  0  0  0  0  0  0  0  0  0  0  0  # atno 6907 bound_to 6896
  152.4595  134.5213  159.9793 H   0  0  0  0  0  0  0  0  0  0  0  0  # atno 6908 bound_to 6896
  151.5329  133.3408  159.2957 H   0  0  0  0  0  0  0  0  0  0  0  0  # atno 6909 bound_to 6896
  146.0582  140.6386  142.9009 H   0  0  0  0  0  0  0  0  0  0  0  0  # atno 7974 bound_to 7965
  155.4878  140.3470  155.4350 H   0  0  0  0  0  0  0  0  0  0  0  0  # atno 8008 bound_to 7997
  156.0997  140.1432  156.9512 H   0  0  0  0  0  0  0  0  0  0  0  0  # atno 8009 bound_to 7997
  154.4686  140.0909  156.7062 H   0  0  0  0  0  0  0  0  0  0  0  0  # atno 8010 bound_to 7997
  139.4917  144.5867  151.6764 H   0  0  0  0  0  0  0  0  0  0  0  0  # atno 10167 bound_to 10162
  156.5860  130.8750  151.2877 H   0  0  0  0  0  0  0  0  0  0  0  0  # atno 10718 bound_to 10713
  153.9237  135.2998  155.3447 H   0  0  0  0  0  0  0  0  0  0  0  0  # atno 10763 bound_to 10752
  154.7562  135.4956  153.9382 H   0  0  0  0  0  0  0  0  0  0  0  0  # atno 10764 bound_to 10752
  153.1128  135.6763  153.9574 H   0  0  0  0  0  0  0  0  0  0  0  0  # atno 10765 bound_to 10752
  140.9660  134.0871  157.3919 H   0  0  0  0  0  0  0  0  0  0  0  0  # atno 11005 bound_to 11000
  144.7160  140.4210  143.7044 LP  0  0  0  0  0  0  0  0  0  0  0  0  # atno 17320 bound_to 7965
  145.6606  139.1581  143.2810 LP  0  0  0  0  0  0  0  0  0  0  0  0  # atno 17321 bound_to 7965
  140.5484  144.0465  150.6117 LP  0  0  0  0  0  0  0  0  0  0  0  0  # atno 17342 bound_to 10162
  140.3511  143.2962  152.0486 LP  0  0  0  0  0  0  0  0  0  0  0  0  # atno 17343 bound_to 10162
  157.7315  130.9701  150.1884 LP  0  0  0  0  0  0  0  0  0  0  0  0  # atno 17370 bound_to 10713
  156.2591  130.3709  149.8150 LP  0  0  0  0  0  0  0  0  0  0  0  0  # atno 17371 bound_to 10713
  139.8895  135.0105  156.6681 LP  0  0  0  0  0  0  0  0  0  0  0  0  # atno 17394 bound_to 11000
  140.7398  133.8987  155.8270 LP  0  0  0  0  0  0  0  0  0  0  0  0  # atno 17395 bound_to 11000

$$$$
