AV-unprocessed.smi:753|AV-procd|sdf|3601|dock6
  -GOLD-   22720 0593D 1   1.00000     0.00000
 Structure written by MMmdl.
 43 45  0  0  0  0  0  0  0  0  1 V2000
  150.3381  141.5214  155.5693 C   0  0  0  0  0  0  0  0  0  0  0  0
  150.4861  140.0145  155.5870 C   0  0  0  0  0  0  0  0  0  0  0  0
  150.3366  139.2886  156.7874 C   0  0  0  0  0  0  0  0  0  0  0  0
  150.4868  137.8893  156.7477 C   0  0  0  0  0  0  0  0  0  0  0  0
  150.7799  137.2714  155.5145 C   0  0  0  0  0  0  0  0  0  0  0  0
  150.9780  135.7687  155.4191 C   0  0  0  0  0  0  0  0  0  0  0  0
  149.6748  134.9634  155.5793 C   0  0  0  0  0  0  0  0  0  0  0  0
  148.9730  134.7886  154.3104 N   0  0  0  0  0  0  0  0  0  0  0  0
  147.8880  134.0192  154.1149 C   0  0  0  0  0  0  0  0  0  0  0  0
  147.3576  133.3519  155.0009 O   0  0  0  0  0  0  0  0  0  0  0  0
  147.4070  134.0389  152.8599 N   0  0  0  0  0  0  0  0  0  0  0  0
  146.2479  133.3160  152.3300 C   0  0  2  0  0  0  0  0  0  0  0  0
  146.2384  133.3366  150.7853 C   0  0  0  0  0  0  0  0  0  0  0  0
  144.8864  133.9941  150.4526 C   0  0  2  0  0  0  0  0  0  0  0  0
  144.9386  135.4928  150.8072 C   0  0  0  0  0  0  0  0  0  0  0  0
  144.8881  135.4809  152.3466 C   0  0  0  0  0  0  0  0  0  0  0  0
  144.8837  133.9714  152.6716 C   0  0  1  0  0  0  0  0  0  0  0  0
  143.9940  133.4382  151.5537 C   0  0  0  0  0  0  0  0  0  0  0  0
  150.9047  138.0888  154.3714 C   0  0  0  0  0  0  0  0  0  0  0  0
  150.7610  139.4312  154.3994 N   0  0  0  0  0  0  0  0  0  0  0  0
  150.4237  141.9356  156.5744 H   0  0  0  0  0  0  0  0  0  0  0  0
  149.3647  141.7997  155.1655 H   0  0  0  0  0  0  0  0  0  0  0  0
  151.1111  141.9780  154.9501 H   0  0  0  0  0  0  0  0  0  0  0  0
  150.1150  139.7895  157.7182 H   0  0  0  0  0  0  0  0  0  0  0  0
  150.3873  137.3045  157.6503 H   0  0  0  0  0  0  0  0  0  0  0  0
  151.4412  135.5291  154.4610 H   0  0  0  0  0  0  0  0  0  0  0  0
  151.6922  135.4633  156.1845 H   0  0  0  0  0  0  0  0  0  0  0  0
  149.9044  133.9748  155.9772 H   0  0  0  0  0  0  0  0  0  0  0  0
  149.0261  135.4416  156.3153 H   0  0  0  0  0  0  0  0  0  0  0  0
  149.3341  135.3004  153.5187 H   0  0  0  0  0  0  0  0  0  0  0  0
  147.8903  134.6341  152.2027 H   0  0  0  0  0  0  0  0  0  0  0  0
  146.2672  132.2789  152.6713 H   0  0  0  0  0  0  0  0  0  0  0  0
  147.0760  133.8864  150.3530 H   0  0  0  0  0  0  0  0  0  0  0  0
  146.2775  132.3196  150.3928 H   0  0  0  0  0  0  0  0  0  0  0  0
  144.5439  133.7967  149.4365 H   0  0  0  0  0  0  0  0  0  0  0  0
  145.8395  135.9744  150.4251 H   0  0  0  0  0  0  0  0  0  0  0  0
  144.0768  136.0228  150.3996 H   0  0  0  0  0  0  0  0  0  0  0  0
  145.7168  136.0248  152.7997 H   0  0  0  0  0  0  0  0  0  0  0  0
  143.9665  135.9473  152.6976 H   0  0  0  0  0  0  0  0  0  0  0  0
  144.5299  133.7462  153.6781 H   0  0  0  0  0  0  0  0  0  0  0  0
  142.9900  133.8664  151.5556 H   0  0  0  0  0  0  0  0  0  0  0  0
  143.9185  132.3494  151.5421 H   0  0  0  0  0  0  0  0  0  0  0  0
  151.1345  137.6550  153.4092 H   0  0  0  0  0  0  0  0  0  0  0  0
  1  2  1  0  0  0  0
  1 21  1  0  0  0  0
  1 22  1  0  0  0  0
  1 23  1  0  0  0  0
  2 20  1  0  0  0  0
  2  3  2  0  0  0  0
  3  4  1  0  0  0  0
  3 24  1  0  0  0  0
  4  5  2  0  0  0  0
  4 25  1  0  0  0  0
  5  6  1  0  0  0  0
  5 19  1  0  0  0  0
  6  7  1  0  0  0  0
  6 26  1  0  0  0  0
  6 27  1  0  0  0  0
  7  8  1  0  0  0  0
  7 28  1  0  0  0  0
  7 29  1  0  0  0  0
  8  9  1  0  0  0  0
  8 30  1  0  0  0  0
  9 10  2  0  0  0  0
  9 11  1  0  0  0  0
 11 12  1  0  0  0  0
 11 31  1  0  0  0  0
 12 17  1  0  0  0  0
 12 13  1  0  0  0  0
 12 32  1  0  0  0  0
 13 14  1  0  0  0  0
 13 33  1  0  0  0  0
 13 34  1  0  0  0  0
 14 18  1  0  0  0  0
 14 15  1  0  0  0  0
 14 35  1  0  0  0  0
 15 16  1  0  0  0  0
 15 36  1  0  0  0  0
 15 37  1  0  0  0  0
 16 17  1  0  0  0  0
 16 38  1  0  0  0  0
 16 39  1  0  0  0  0
 17 18  1  0  0  0  0
 17 40  1  0  0  0  0
 18 41  1  0  0  0  0
 18 42  1  0  0  0  0
 19 20  2  0  0  0  0
 19 43  1  0  0  0  0
M  END
> <s_m_source_file>
AV-unprocessed.smi

> <i_m_source_file_index>
753

> <i_lp_mmshare_version>
43012

> <i_f3d_flags>
0

> <s_epik_input>
W0NIM11jMVtjSF1bY0hdYyhbY0hdbjEpW0NIMl1bQ0gyXVtOSF1DKD1PKVtOSF1bQ0BIXShbQ0gyXVtDQEBIXTIzKVtDQEBIXShbQ0gyXTMpW0NIMl1bQ0gyXTI=

> <s_epik_cmdline>
J2VwaWtfcHl0aG9uJywgJy1waCcsICc3LjAnLCAnLXRuJywgJzgnLCAnLW1hJywgJzIwMCcsICctbWV0YWxfYmluZGluZycsICctaW1hZScsICc8aW5maWxlLm1hZT4nLCAnLW9tYWUnLCAnPG91dGZpbGUubWFlPic=

> <r_epik_Ionization_Penalty>
0.0569047

> <r_epik_Ionization_Penalty_Charging>
0

> <r_epik_Ionization_Penalty_Neutral>
0.0569047

> <r_epik_State_Penalty>
0.0490541

> <r_epik_Charging_Adjusted_Penalty>
0.0490541

> <i_epik_Tot_Q>
0

> <i_epik_Tot_abs_Q>
0

> <r_epik_Metal_State_Penalty>
0.0447357

> <b_epik_Metal_Only>
0

> <s_lp_Force_Field>
OPLS_2005

> <r_lp_Energy>
52.9013

> <b_lp_Chiralities_Consistent>
1

> <s_lp_Variant>
AV-unprocessed.smi:753-3

> <Gold.Version>
5.8.1

> <Gold.Id.Protein>
6NUR|6NUR_protein|mol2

> <Gold.PLP.Fitness>
41.7226

> <Gold.PLP.PLP>
-30.9847

> <Gold.PLP.part.hbond>
-3.0000

> <Gold.PLP.part.metal>
0.0000

> <Gold.PLP.part.buried>
-3.8566

> <Gold.PLP.part.nonpolar>
-23.9904

> <Gold.PLP.part.repulsive>
0.1636

> <Gold.PLP.ligand.clash>
0.0000

> <Gold.PLP.ligand.torsion>
0.5203

> <Gold.PLP.Chemscore.Hbond>
2.9424

> <Gold.PLP.Chemscore.CHOScore>
0.9773

> <Gold.PLP.Chemscore.Metal>
0.0000

> <Gold.Chemscore.Hbonds>
donor molecule, donor type, donor heavy atom, donor atom, acceptor molecule, acceptor atom, score
      L1  H     8    30       P1  7948  0.93
      L1  H    11    31       P1  7948  1.00
      P1  H  7989  7998       L1    20  1.00
      L1  C    19    43       P1  7949  0.98

> <Gold.PLP.Chemscore.Internal.Correction>
0.0193

> <Gold.Rescore>
     Score         DG    S(hbond)    S(metal)    S(lipo)     H(rot)  DE(clash)    DE(int)     intcor
     18.20     -18.86       2.47        0.00      75.15       1.43       0.04       0.63       ----

> <Gold.Chemscore.Fitness>
18.1970

> <Gold.Chemscore.DG>
-18.8648

> <Gold.Chemscore.ZeroCoef>
-5.4800

> <Gold.Chemscore.Hbond>
2.4703

> <Gold.Chemscore.Metal>
0.0000

> <Gold.Chemscore.Lipo>
75.1484

> <Gold.Chemscore.Internal_Hbond>
0.0000

> <Gold.Chemscore.DEClash>
0.0402

> <Gold.Chemscore.DEInternal>
0.6276

> <Gold.Chemscore.Rot>
1.4291

> <Gold.Chemscore.Internal.Correction>
   9.000000E+99

> <Gold.Chemscore.Hbonds>
donor molecule, donor type, donor heavy atom, donor atom, acceptor molecule, acceptor atom, score
      L1  H     8    30       P1  7948  0.20
      L1  H    11    31       P1  7948  0.43
      P1  H  7989  7998       L1    20  0.30

> <Gold.Chemscore.Hbond.Weighted>
-8.2509

> <Gold.Chemscore.Metal.Weighted>
-0.0000

> <Gold.Chemscore.Lipo.Weighted>
-8.7924

> <Gold.Chemscore.Internal_Hbond.Weighted>
0.0000

> <Gold.Chemscore.DEClash.Weighted>
0.0402

> <Gold.Chemscore.DEInternal.Weighted>
0.6276

> <Gold.Chemscore.Rot.Weighted>
3.6585

> <Gold.Chemscore.Internal.Correction.Weighted>
   9.000000E+99

> <Gold.Protein.RotatedTorsions>
[ 6907 6896 6895 6894 ] final  -36.32 input  -60.11 | X-H torsion
[ 7974 7965 7964 7962 ] final  -59.38 input  175.53 | X-H torsion
[ 8008 7997 7996 7995 ] final   50.41 input   59.86 | X-H torsion
[ 10167 10162 10161 10158 ] final -104.35 input  -65.29 | X-H torsion
[ 10718 10713 10712 10709 ] final  110.35 input   66.30 | X-H torsion
[ 10763 10752 10751 10750 ] final  -34.68 input  -60.55 | X-H torsion
[ 11005 11000 10999 10996 ] final  149.01 input  -57.11 | X-H torsion

> <Gold.Protein.ActiveResidues>
 VAL166  LYS551  ARG553  GLY616  TRP617  ASP618  TYR619  PRO620  LYS621  CYS622 
 ASP623  PHE694  ASN695  SER759  ASP760  ASP761  ALA762  ILE779  LEU786  VAL792 
 PHE793  MET794  SER795  GLU796  ALA797  LYS798  CYS799  TRP800  GLU811  SER814 

> <Gold.Protein.RotatedAtoms>
  151.0287  134.9523  159.8098 H   0  0  0  0  0  0  0  0  0  0  0  0  # atno 6907 bound_to 6896
  152.5341  134.2808  159.9017 H   0  0  0  0  0  0  0  0  0  0  0  0  # atno 6908 bound_to 6896
  151.2817  133.4164  159.2661 H   0  0  0  0  0  0  0  0  0  0  0  0  # atno 6909 bound_to 6896
  145.8282  140.8497  143.0097 H   0  0  0  0  0  0  0  0  0  0  0  0  # atno 7974 bound_to 7965
  155.4182  140.3445  155.4269 H   0  0  0  0  0  0  0  0  0  0  0  0  # atno 8008 bound_to 7997
  156.1408  140.1541  156.8954 H   0  0  0  0  0  0  0  0  0  0  0  0  # atno 8009 bound_to 7997
  154.4970  140.0825  156.7697 H   0  0  0  0  0  0  0  0  0  0  0  0  # atno 8010 bound_to 7997
  140.2103  143.3752  152.1056 H   0  0  0  0  0  0  0  0  0  0  0  0  # atno 10167 bound_to 10162
  157.6498  131.0931  150.6589 H   0  0  0  0  0  0  0  0  0  0  0  0  # atno 10718 bound_to 10713
  153.8506  135.6849  153.4793 H   0  0  0  0  0  0  0  0  0  0  0  0  # atno 10763 bound_to 10752
  153.1399  135.4662  154.9478 H   0  0  0  0  0  0  0  0  0  0  0  0  # atno 10764 bound_to 10752
  154.7804  135.3267  154.7950 H   0  0  0  0  0  0  0  0  0  0  0  0  # atno 10765 bound_to 10752
  140.1009  134.8984  157.1793 H   0  0  0  0  0  0  0  0  0  0  0  0  # atno 11005 bound_to 11000
  144.6742  140.0633  143.7475 LP  0  0  0  0  0  0  0  0  0  0  0  0  # atno 17320 bound_to 7965
  145.9600  139.2794  143.1161 LP  0  0  0  0  0  0  0  0  0  0  0  0  # atno 17321 bound_to 7965
  139.5183  144.7003  151.5512 LP  0  0  0  0  0  0  0  0  0  0  0  0  # atno 17342 bound_to 10162
  140.6328  143.9042  150.6621 LP  0  0  0  0  0  0  0  0  0  0  0  0  # atno 17343 bound_to 10162
  156.6901  130.4592  149.5602 LP  0  0  0  0  0  0  0  0  0  0  0  0  # atno 17370 bound_to 10713
  156.1867  130.6534  151.1015 LP  0  0  0  0  0  0  0  0  0  0  0  0  # atno 17371 bound_to 10713
  140.3222  134.2904  155.7244 LP  0  0  0  0  0  0  0  0  0  0  0  0  # atno 17394 bound_to 11000
  141.2105  133.7717  156.9927 LP  0  0  0  0  0  0  0  0  0  0  0  0  # atno 17395 bound_to 11000

$$$$
