AV-unprocessed.smi:1196|AV-procd|sdf|4996|dock7
  -GOLD-   22720 4 03D 1   1.00000     0.00000
 Structure written by MMmdl.
 37 38  0  0  0  0  0  0  0  0  1 V2000
  145.8957  137.5915  152.0500 C   0  0  0  0  0  0  0  0  0  0  0  0
  145.2014  136.2222  152.1163 C   0  0  2  0  0  0  0  0  0  0  0  0
  144.9831  135.6328  150.7090 C   0  0  0  0  0  0  0  0  0  0  0  0
  145.0172  134.1809  150.7023 N   0  0  0  0  0  0  0  0  0  0  0  0
  143.9980  133.2982  150.9924 C   0  0  0  0  0  0  0  0  0  0  0  0
  144.5025  132.0366  150.8576 C   0  0  0  0  0  0  0  0  0  0  0  0
  145.8556  132.2531  150.4736 C   0  0  0  0  0  0  0  0  0  0  0  0
  146.1599  133.5375  150.3793 N   0  0  0  0  0  0  0  0  0  0  0  0
  143.9217  136.3463  152.8126 N   0  0  0  0  0  0  0  0  0  0  0  0
  143.4799  135.5300  153.7817 C   0  0  0  0  0  0  0  0  0  0  0  0
  144.1291  134.5748  154.2083 O   0  0  0  0  0  0  0  0  0  0  0  0
  142.0902  135.8425  154.3454 C   0  0  0  0  0  0  0  0  0  0  0  0
  141.5138  137.1756  153.8293 C   0  0  0  0  0  0  0  0  0  0  0  0
  139.9870  137.2841  154.0111 C   0  0  2  0  0  0  0  0  0  0  0  0
  139.4744  138.6069  153.6966 N   0  0  0  0  0  0  0  0  0  0  0  0
  138.8557  139.1781  154.7391 C   0  0  0  0  0  0  0  0  0  0  0  0
  138.3287  140.2880  154.7454 O   0  0  0  0  0  0  0  0  0  0  0  0
  138.9143  138.3284  155.7700 N   0  0  0  0  0  0  0  0  0  0  0  0
  139.5577  137.2026  155.4654 C   0  0  0  0  0  0  0  0  0  0  0  0
  139.7784  136.2511  156.2120 O   0  0  0  0  0  0  0  0  0  0  0  0
  146.8603  137.5166  151.5473 H   0  0  0  0  0  0  0  0  0  0  0  0
  146.0777  137.9915  153.0480 H   0  0  0  0  0  0  0  0  0  0  0  0
  145.2916  138.3175  151.5048 H   0  0  0  0  0  0  0  0  0  0  0  0
  145.8504  135.5419  152.6711 H   0  0  0  0  0  0  0  0  0  0  0  0
  144.0278  135.9626  150.2982 H   0  0  0  0  0  0  0  0  0  0  0  0
  145.7548  135.9921  150.0265 H   0  0  0  0  0  0  0  0  0  0  0  0
  143.0110  133.6374  151.2704 H   0  0  0  0  0  0  0  0  0  0  0  0
  143.9843  131.1016  151.0098 H   0  0  0  0  0  0  0  0  0  0  0  0
  146.6201  131.5202  150.2614 H   0  0  0  0  0  0  0  0  0  0  0  0
  143.3211  137.1051  152.5255 H   0  0  0  0  0  0  0  0  0  0  0  0
  141.4134  135.0246  154.0940 H   0  0  0  0  0  0  0  0  0  0  0  0
  142.1612  135.8664  155.4333 H   0  0  0  0  0  0  0  0  0  0  0  0
  141.9881  138.0031  154.3598 H   0  0  0  0  0  0  0  0  0  0  0  0
  141.7718  137.3017  152.7760 H   0  0  0  0  0  0  0  0  0  0  0  0
  139.4614  136.5293  153.4249 H   0  0  0  0  0  0  0  0  0  0  0  0
  139.5747  139.0339  152.7874 H   0  0  0  0  0  0  0  0  0  0  0  0
  138.5231  138.5229  156.6801 H   0  0  0  0  0  0  0  0  0  0  0  0
  1  2  1  0  0  0  0
  1 21  1  0  0  0  0
  1 22  1  0  0  0  0
  1 23  1  0  0  0  0
  2  3  1  0  0  0  0
  2  9  1  0  0  0  0
  2 24  1  0  0  0  0
  3  4  1  0  0  0  0
  3 25  1  0  0  0  0
  3 26  1  0  0  0  0
  4  8  1  0  0  0  0
  4  5  1  0  0  0  0
  5  6  2  0  0  0  0
  5 27  1  0  0  0  0
  6  7  1  0  0  0  0
  6 28  1  0  0  0  0
  7  8  2  0  0  0  0
  7 29  1  0  0  0  0
  9 10  1  0  0  0  0
  9 30  1  0  0  0  0
 10 11  2  0  0  0  0
 10 12  1  0  0  0  0
 12 13  1  0  0  0  0
 12 31  1  0  0  0  0
 12 32  1  0  0  0  0
 13 14  1  0  0  0  0
 13 33  1  0  0  0  0
 13 34  1  0  0  0  0
 14 19  1  0  0  0  0
 14 15  1  0  0  0  0
 14 35  1  0  0  0  0
 15 16  1  0  0  0  0
 15 36  1  0  0  0  0
 16 17  2  0  0  0  0
 16 18  1  0  0  0  0
 18 19  1  0  0  0  0
 18 37  1  0  0  0  0
 19 20  2  0  0  0  0
M  END
> <s_m_source_file>
AV-unprocessed.smi

> <i_m_source_file_index>
1196

> <i_lp_mmshare_version>
43012

> <i_f3d_flags>
0

> <s_epik_input>
bjFbY0hdW2NIXVtjSF1uMVtDSDJdW0NAQEhdKFtDSDNdKVtOSF1DKD1PKVtDSDJdW0NIMl1bQ0BASF0yW05IXUMoPU8pW05IXUMyPU8=

> <s_epik_cmdline>
J2VwaWtfcHl0aG9uJywgJy1waCcsICc3LjAnLCAnLXRuJywgJzgnLCAnLW1hJywgJzIwMCcsICctbWV0YWxfYmluZGluZycsICctaW1hZScsICc8aW5maWxlLm1hZT4nLCAnLW9tYWUnLCAnPG91dGZpbGUubWFlPic=

> <r_lp_tautomer_probability>
1

> <r_epik_Ionization_Penalty>
0.00815973

> <r_epik_Ionization_Penalty_Charging>
0

> <r_epik_Ionization_Penalty_Neutral>
0.00815973

> <r_epik_State_Penalty>
0.00583796

> <r_epik_Charging_Adjusted_Penalty>
0.00583796

> <i_epik_Tot_Q>
0

> <i_epik_Tot_abs_Q>
0

> <r_epik_Metal_State_Penalty>
0.409204

> <b_epik_Metal_Only>
0

> <s_lp_Force_Field>
OPLS_2005

> <r_lp_Energy>
19.6523

> <b_lp_Chiralities_Consistent>
1

> <s_lp_Variant>
AV-unprocessed.smi:1196-1

> <Gold.Version>
5.8.1

> <Gold.Id.Protein>
6NUR|6NUR_protein|mol2

> <Gold.PLP.Fitness>
43.9775

> <Gold.PLP.PLP>
-34.2425

> <Gold.PLP.part.hbond>
-2.0000

> <Gold.PLP.part.metal>
0.0000

> <Gold.PLP.part.buried>
-7.3338

> <Gold.PLP.part.nonpolar>
-26.0231

> <Gold.PLP.part.repulsive>
0.4816

> <Gold.PLP.ligand.clash>
0.2849

> <Gold.PLP.ligand.torsion>
1.0403

> <Gold.PLP.Chemscore.Hbond>
2.0000

> <Gold.PLP.Chemscore.CHOScore>
2.0000

> <Gold.PLP.Chemscore.Metal>
0.0000

> <Gold.Chemscore.Hbonds>
donor molecule, donor type, donor heavy atom, donor atom, acceptor molecule, acceptor atom, score
      P1  H 11000 11005       L1    20  0.46
      L1  C     5    27       P1 10186  0.43
      L1  C     7    29       P1 10747  1.00

> <Gold.PLP.Chemscore.Internal.Correction>
0.1006

> <Gold.Rescore>
     Score         DG    S(hbond)    S(metal)    S(lipo)     H(rot)  DE(clash)    DE(int)     intcor
     10.08     -12.11       1.99        0.00      64.69       2.96       0.11       1.92       ----

> <Gold.Chemscore.Fitness>
10.0849

> <Gold.Chemscore.DG>
-12.1145

> <Gold.Chemscore.ZeroCoef>
-5.4800

> <Gold.Chemscore.Hbond>
1.9872

> <Gold.Chemscore.Metal>
0.0000

> <Gold.Chemscore.Lipo>
64.6896

> <Gold.Chemscore.Internal_Hbond>
0.0000

> <Gold.Chemscore.DEClash>
0.1050

> <Gold.Chemscore.DEInternal>
1.9245

> <Gold.Chemscore.Rot>
2.9575

> <Gold.Chemscore.Internal.Correction>
   9.000000E+99

> <Gold.Chemscore.Hbonds>
donor molecule, donor type, donor heavy atom, donor atom, acceptor molecule, acceptor atom, score
      P1  H 11000 11005       L1    20  0.44

> <Gold.Chemscore.Hbond.Weighted>
-6.6371

> <Gold.Chemscore.Metal.Weighted>
-0.0000

> <Gold.Chemscore.Lipo.Weighted>
-7.5687

> <Gold.Chemscore.Internal_Hbond.Weighted>
0.0000

> <Gold.Chemscore.DEClash.Weighted>
0.1050

> <Gold.Chemscore.DEInternal.Weighted>
1.9245

> <Gold.Chemscore.Rot.Weighted>
7.5713

> <Gold.Chemscore.Internal.Correction.Weighted>
   9.000000E+99

> <Gold.Protein.RotatedTorsions>
[ 6907 6896 6895 6894 ] final   26.51 input  -60.11 | X-H torsion
[ 7974 7965 7964 7962 ] final -122.78 input  175.53 | X-H torsion
[ 8008 7997 7996 7995 ] final  163.08 input   59.86 | X-H torsion
[ 10167 10162 10161 10158 ] final  -59.08 input  -65.29 | X-H torsion
[ 10718 10713 10712 10709 ] final   95.29 input   66.30 | X-H torsion
[ 10763 10752 10751 10750 ] final -169.71 input  -60.55 | X-H torsion
[ 11005 11000 10999 10996 ] final   94.70 input  -57.11 | X-H torsion

> <Gold.Protein.ActiveResidues>
 VAL166  LYS551  ARG553  GLY616  TRP617  ASP618  TYR619  PRO620  LYS621  CYS622 
 ASP623  PHE694  ASN695  SER759  ASP760  ASP761  ALA762  ILE779  LEU786  VAL792 
 PHE793  MET794  SER795  GLU796  ALA797  LYS798  CYS799  TRP800  GLU811  SER814 

> <Gold.Protein.RotatedAtoms>
  151.9886  134.9991  160.0560 H   0  0  0  0  0  0  0  0  0  0  0  0  # atno 6907 bound_to 6896
  152.1630  133.4589  159.4878 H   0  0  0  0  0  0  0  0  0  0  0  0  # atno 6908 bound_to 6896
  150.6890  134.1966  159.4349 H   0  0  0  0  0  0  0  0  0  0  0  0  # atno 6909 bound_to 6896
  145.0258  140.8026  143.4353 H   0  0  0  0  0  0  0  0  0  0  0  0  # atno 7974 bound_to 7965
  156.1983  140.1733  156.7952 H   0  0  0  0  0  0  0  0  0  0  0  0  # atno 8008 bound_to 7997
  154.5559  140.0709  156.8773 H   0  0  0  0  0  0  0  0  0  0  0  0  # atno 8009 bound_to 7997
  155.2940  140.3357  155.4253 H   0  0  0  0  0  0  0  0  0  0  0  0  # atno 8010 bound_to 7997
  140.6157  143.2402  151.5602 H   0  0  0  0  0  0  0  0  0  0  0  0  # atno 10167 bound_to 10162
  157.6940  131.0541  150.4317 H   0  0  0  0  0  0  0  0  0  0  0  0  # atno 10718 bound_to 10713
  154.6493  135.2909  155.0006 H   0  0  0  0  0  0  0  0  0  0  0  0  # atno 10763 bound_to 10752
  154.1105  135.6563  153.4888 H   0  0  0  0  0  0  0  0  0  0  0  0  # atno 10764 bound_to 10752
  153.0368  135.5264  154.7395 H   0  0  0  0  0  0  0  0  0  0  0  0  # atno 10765 bound_to 10752
  139.8796  134.8859  156.3903 H   0  0  0  0  0  0  0  0  0  0  0  0  # atno 11005 bound_to 11000
  145.1835  139.2339  143.5280 LP  0  0  0  0  0  0  0  0  0  0  0  0  # atno 17320 bound_to 7965
  146.3492  140.1615  142.8590 LP  0  0  0  0  0  0  0  0  0  0  0  0  # atno 17321 bound_to 7965
  139.5397  144.2682  152.1325 LP  0  0  0  0  0  0  0  0  0  0  0  0  # atno 17342 bound_to 10162
  140.1891  144.4769  150.6488 LP  0  0  0  0  0  0  0  0  0  0  0  0  # atno 17343 bound_to 10162
  156.4683  130.4047  149.6534 LP  0  0  0  0  0  0  0  0  0  0  0  0  # atno 17370 bound_to 10713
  156.3624  130.7488  151.2462 LP  0  0  0  0  0  0  0  0  0  0  0  0  # atno 17371 bound_to 10713
  140.9338  133.7561  156.0058 LP  0  0  0  0  0  0  0  0  0  0  0  0  # atno 17394 bound_to 11000
  140.8300  134.3190  157.5352 LP  0  0  0  0  0  0  0  0  0  0  0  0  # atno 17395 bound_to 11000

$$$$
