#       Name:                AV-unprocessed.smi:13
#       Creating user name   scv26
#       Creation time:       Thu Mar 26 15:19:56 2020


#       File generated by GOLD software.
#

@<TRIPOS>MOLECULE
AV-unprocessed.smi:13
    64    68     1
SMALL
NO_CHARGES


@<TRIPOS>ATOM
      1 ****        -4.7110   0.3716   0.5467 C.3            1 S1                 0.0000
      2 ****        -3.3430   0.8147   1.0836 C.3            1 S1                 0.0000
      3 ****        -3.5869   1.3971   2.4757 C.3            1 S1                 0.0000
      4 ****        -2.2388  -0.2496   0.9900 C.3            1 S1                 0.0000
      5 ****        -1.8144   0.3984  -0.2383 N.3            1 S1                 0.0000
      6 ****        -0.4040   0.3730  -0.4432 C.ar           1 S1                 0.0000
      7 ****         0.2994   1.5255  -0.6072 N.ar           1 S1                 0.0000
      8 ****         1.6194   1.5066  -0.8108 C.ar           1 S1                 0.0000
      9 ****         2.4349   0.4549  -0.8881 N.ar           1 S1                 0.0000
     10 ****         1.7454  -0.7099  -0.7306 C.ar           1 S1                 0.0000
     11 ****         0.3439  -0.8368  -0.5130 C.ar           1 S1                 0.0000
     12 ****         0.0022  -2.1805  -0.4165 N.2            1 S1                 0.0000
     13 ****         1.1354  -2.8104  -0.5635 C.2            1 S1                 0.0000
     14 ****         2.2367  -2.0042  -0.7443 N.pl3          1 S1                 0.0000
     15 ****         3.6151  -2.4335  -0.9268 C.3            1 S1                 0.0000
     16 ****         4.4121  -2.5461   0.3961 C.3            1 S1                 0.0000
     17 ****         4.4482  -1.2765   1.0220 O.3            1 S1                 0.0000
     18 ****         5.8460  -3.0330   0.1739 C.3            1 S1                 0.0000
     19 ****         5.8396  -4.4466   0.7430 C.3            1 S1                 0.0000
     20 ****         4.9428  -4.3377   1.8337 O.3            1 S1                 0.0000
     21 ****         3.8305  -3.5784   1.3829 C.3            1 S1                 0.0000
     22 ****        -2.4377   1.6580   0.1537 C.3            1 S1                 0.0000
     23 ****        -3.0078   2.4331  -1.0400 C.3            1 S1                 0.0000
     24 ****        -3.9363   3.5805  -0.6383 C.3            1 S1                 0.0000
     25 ****        -3.8162   4.5095  -1.8239 C.3            1 S1                 0.0000
     26 ****        -2.3365   4.3804  -2.1651 C.3            1 S1                 0.0000
     27 ****        -1.9642   3.0597  -1.7835 O.3            1 S1                 0.0000
     28 ****        -5.1397  -0.4205   1.1614 H              1 S1                 0.0000
     29 ****        -4.6400  -0.0189  -0.4688 H              1 S1                 0.0000
     30 ****        -5.4277   1.1921   0.5304 H              1 S1                 0.0000
     31 ****        -2.6545   1.7103   2.9461 H              1 S1                 0.0000
     32 ****        -4.0529   0.6683   3.1395 H              1 S1                 0.0000
     33 ****        -4.2366   2.2719   2.4346 H              1 S1                 0.0000
     34 ****        -1.4967  -0.1791   1.7877 H              1 S1                 0.0000
     35 ****        -2.5980  -1.2693   0.8481 H              1 S1                 0.0000
     36 ****         2.0880   2.4725  -0.9293 H              1 S1                 0.0000
     37 ****         1.1973  -3.8885  -0.5407 H              1 S1                 0.0000
     38 ****         3.6062  -3.3948  -1.4420 H              1 S1                 0.0000
     39 ****         4.1044  -1.7313  -1.6032 H              1 S1                 0.0000
     40 ****         4.9162  -1.3581   1.8389 H              1 S1                 0.0000
     41 ****         6.1570  -3.0091  -0.8712 H              1 S1                 0.0000
     42 ****         6.5575  -2.4277   0.7381 H              1 S1                 0.0000
     43 ****         5.4517  -5.1618   0.0157 H              1 S1                 0.0000
     44 ****         6.8277  -4.7775   1.0627 H              1 S1                 0.0000
     45 ****         3.2864  -3.1306   2.2155 H              1 S1                 0.0000
     46 ****         3.1510  -4.2656   0.8782 H              1 S1                 0.0000
     47 ****        -1.7587   2.2622   0.7588 H              1 S1                 0.0000
     48 ****        -3.5422   1.7703  -1.7224 H              1 S1                 0.0000
     49 ****        -4.9619   3.2614  -0.4559 H              1 S1                 0.0000
     50 ****        -3.5671   4.0749   0.2615 H              1 S1                 0.0000
     51 ****        -4.4275   4.1441  -2.6502 H              1 S1                 0.0000
     52 ****        -4.1152   5.5340  -1.6010 H              1 S1                 0.0000
     53 ****        -2.1349   4.5617  -3.2210 H              1 S1                 0.0000
     54 ****        -1.7467   5.0872  -1.5802 H              1 S1                 0.0000
     55 ****        -2.0635   0.0301  -1.1340 LP             1 S1                 0.0000
     56 ****        -0.1800   2.4025  -0.5748 LP             1 S1                 0.0000
     57 ****         3.4214   0.5130  -1.0413 LP             1 S1                 0.0000
     58 ****        -0.9048  -2.5745  -0.2683 LP             1 S1                 0.0000
     59 ****         3.5158  -0.9603   1.1975 LP             1 S1                 0.0000
     60 ****         4.9162  -0.6212   0.4291 LP             1 S1                 0.0000
     61 ****         5.3881  -3.8732   2.5993 LP             1 S1                 0.0000
     62 ****         4.6432  -5.2465   2.1240 LP             1 S1                 0.0000
     63 ****        -1.7785   2.5212  -2.6054 LP             1 S1                 0.0000
     64 ****        -1.1396   3.1018  -1.2193 LP             1 S1                 0.0000
@<TRIPOS>BOND
    1    1    2 1     
    2    1   28 1     
    3    1   29 1     
    4    1   30 1     
    5    2   22 1     
    6    2    3 1     
    7    2    4 1     
    8    3   31 1     
    9    3   32 1     
   10    3   33 1     
   11    4    5 1     
   12    4   34 1     
   13    4   35 1     
   14    5    6 1     
   15    5   22 1     
   16    6   11 ar    
   17    6    7 ar    
   18    7    8 ar    
   19    8    9 ar    
   20    8   36 1     
   21    9   10 ar    
   22   10   14 1     
   23   10   11 ar    
   24   11   12 1     
   25   12   13 2     
   26   13   14 1     
   27   13   37 1     
   28   14   15 1     
   29   15   16 1     
   30   15   38 1     
   31   15   39 1     
   32   16   21 1     
   33   16   17 1     
   34   16   18 1     
   35   17   40 1     
   36   18   19 1     
   37   18   41 1     
   38   18   42 1     
   39   19   20 1     
   40   19   43 1     
   41   19   44 1     
   42   20   21 1     
   43   21   45 1     
   44   21   46 1     
   45   22   23 1     
   46   22   47 1     
   47   23   27 1     
   48   23   24 1     
   49   23   48 1     
   50   24   25 1     
   51   24   49 1     
   52   24   50 1     
   53   25   26 1     
   54   25   51 1     
   55   25   52 1     
   56   26   27 1     
   57   26   53 1     
   58   26   54 1     
   59    5   55 1     
   60    7   56 1     
   61    9   57 1     
   62   12   58 1     
   63   17   59 1     
   64   17   60 1     
   65   20   61 1     
   66   20   62 1     
   67   27   63 1     
   68   27   64 1     
@<TRIPOS>SUBSTRUCTURE
      1 S1             1
@<TRIPOS>SET
LONE_PAIRS      STATIC     ATOMS    <user>   **** ""
10 55 56 57 58 59 60 61 62 63 64
DONOR_HYDROGENS      STATIC     ATOMS    <user>   **** ""
1 40
ATOM$BLUE        STATIC     ATOMS    COLORGROUP SYSTEM
10 55 56 57 58 59 60 61 62 63 64
ATOM$RED        STATIC     ATOMS    COLORGROUP SYSTEM
1 40
