AV-unprocessed.smi:36|AV-procd|sdf|289|dock7
  -GOLD-   2262016 73D 1   1.00000     0.00000
 Structure written by MMmdl.
 64 67  0  0  0  0  0  0  0  0  1 V2000
  147.9296  132.8201  161.5951 C   0  0  0  0  0  0  0  0  0  0  0  0
  147.0981  134.0344  161.1495 C   0  0  0  0  0  0  0  0  0  0  0  0
  146.0819  134.4038  162.2436 C   0  0  0  0  0  0  0  0  0  0  0  0
  148.0235  135.2319  160.8776 C   0  0  0  0  0  0  0  0  0  0  0  0
  146.1504  133.6024  159.5484 Si  0  0  0  0  0  0  0  0  0  0  0  0
  144.9130  132.1911  159.8405 C   0  0  0  0  0  0  0  0  0  0  0  0
  145.2325  135.1234  158.8717 C   0  0  0  0  0  0  0  0  0  0  0  0
  147.2855  133.0772  158.4068 O   0  0  0  0  0  0  0  0  0  0  0  0
  147.0673  133.0685  157.0106 C   0  0  0  0  0  0  0  0  0  0  0  0
  148.3586  133.4664  156.2824 C   0  0  2  0  0  0  0  0  0  0  0  0
  149.1316  134.3006  157.1401 O   0  0  0  0  0  0  0  0  0  0  0  0
  149.8170  135.2039  156.3425 C   0  0  2  0  0  0  0  0  0  0  0  0
  150.2043  136.3806  157.1726 N   0  0  0  0  0  0  0  0  0  0  0  0
  149.4455  137.0300  158.0762 C   0  0  0  0  0  0  0  0  0  0  0  0
  150.0352  138.0593  158.6787 N   0  0  0  0  0  0  0  0  0  0  0  0
  151.2986  138.0693  158.0962 C   0  0  0  0  0  0  0  0  0  0  0  0
  152.4489  138.9710  158.3210 C   0  0  0  0  0  0  0  0  0  0  0  0
  152.3092  139.9171  159.1994 N   0  0  0  0  0  0  0  0  0  0  0  0
  153.3554  140.7948  159.4516 C   0  0  0  0  0  0  0  0  0  0  0  0
  154.5693  140.5721  159.4558 O   0  0  0  0  0  0  0  0  0  0  0  0
  152.8980  142.1857  159.7470 C   0  0  0  0  0  0  0  0  0  0  0  0
  152.5840  143.0667  158.6904 C   0  0  0  0  0  0  0  0  0  0  0  0
  152.1632  144.3818  158.9694 C   0  0  0  0  0  0  0  0  0  0  0  0
  152.0575  144.8201  160.3037 C   0  0  0  0  0  0  0  0  0  0  0  0
  152.3721  143.9432  161.3599 C   0  0  0  0  0  0  0  0  0  0  0  0
  152.7930  142.6277  161.0827 C   0  0  0  0  0  0  0  0  0  0  0  0
  153.5149  138.5981  157.4920 N   0  0  0  0  0  0  0  0  0  0  0  0
  153.5135  137.5325  156.5783 C   0  0  0  0  0  0  0  0  0  0  0  0
  152.5057  136.7273  156.3708 N   0  0  0  0  0  0  0  0  0  0  0  0
  151.4206  137.0547  157.1714 C   0  0  0  0  0  0  0  0  0  0  0  0
  148.8306  135.6059  155.2571 C   0  0  0  0  0  0  0  0  0  0  0  0
  148.1202  134.2873  154.9958 C   0  0  1  0  0  0  0  0  0  0  0  0
  148.6977  133.6331  153.8829 O   0  0  0  0  0  0  0  0  0  0  0  0
  148.4838  133.0335  162.5098 H   0  0  0  0  0  0  0  0  0  0  0  0
  148.6532  132.5324  160.8319 H   0  0  0  0  0  0  0  0  0  0  0  0
  147.2957  131.9548  161.7904 H   0  0  0  0  0  0  0  0  0  0  0  0
  145.4176  133.5691  162.4686 H   0  0  0  0  0  0  0  0  0  0  0  0
  145.4588  135.2453  161.9382 H   0  0  0  0  0  0  0  0  0  0  0  0
  146.5820  134.6836  163.1714 H   0  0  0  0  0  0  0  0  0  0  0  0
  148.5673  135.5248  161.7764 H   0  0  0  0  0  0  0  0  0  0  0  0
  147.4573  136.0998  160.5378 H   0  0  0  0  0  0  0  0  0  0  0  0
  148.7613  134.9992  160.1095 H   0  0  0  0  0  0  0  0  0  0  0  0
  144.1638  132.4623  160.5841 H   0  0  0  0  0  0  0  0  0  0  0  0
  145.4101  131.2879  160.1937 H   0  0  0  0  0  0  0  0  0  0  0  0
  144.3816  131.9310  158.9252 H   0  0  0  0  0  0  0  0  0  0  0  0
  144.4770  135.4780  159.5724 H   0  0  0  0  0  0  0  0  0  0  0  0
  144.7232  134.8997  157.9346 H   0  0  0  0  0  0  0  0  0  0  0  0
  145.9130  135.9529  158.6820 H   0  0  0  0  0  0  0  0  0  0  0  0
  146.7434  132.0735  156.7048 H   0  0  0  0  0  0  0  0  0  0  0  0
  146.2609  133.7583  156.7583 H   0  0  0  0  0  0  0  0  0  0  0  0
  148.9558  132.5799  156.0663 H   0  0  0  0  0  0  0  0  0  0  0  0
  150.7446  134.7712  155.9642 H   0  0  0  0  0  0  0  0  0  0  0  0
  148.4286  136.7402  158.2975 H   0  0  0  0  0  0  0  0  0  0  0  0
  152.6658  142.7385  157.6642 H   0  0  0  0  0  0  0  0  0  0  0  0
  151.9228  145.0546  158.1593 H   0  0  0  0  0  0  0  0  0  0  0  0
  151.7364  145.8289  160.5169 H   0  0  0  0  0  0  0  0  0  0  0  0
  152.2923  144.2801  162.3828 H   0  0  0  0  0  0  0  0  0  0  0  0
  153.0361  141.9617  161.8981 H   0  0  0  0  0  0  0  0  0  0  0  0
  154.4496  137.4173  156.0302 H   0  0  0  0  0  0  0  0  0  0  0  0
  148.1280  136.3367  155.6609 H   0  0  0  0  0  0  0  0  0  0  0  0
  149.3378  136.0362  154.3925 H   0  0  0  0  0  0  0  0  0  0  0  0
  147.0609  134.4511  154.7939 H   0  0  0  0  0  0  0  0  0  0  0  0
  149.0396  134.2884  153.2942 H   0  0  0  0  0  0  0  0  0  0  0  0
  154.3604  139.1461  157.5590 H   0  0  0  0  0  0  0  0  0  0  0  0
  1  2  1  0  0  0  0
  1 34  1  0  0  0  0
  1 35  1  0  0  0  0
  1 36  1  0  0  0  0
  2  3  1  0  0  0  0
  2  4  1  0  0  0  0
  2  5  1  0  0  0  0
  3 37  1  0  0  0  0
  3 38  1  0  0  0  0
  3 39  1  0  0  0  0
  4 40  1  0  0  0  0
  4 41  1  0  0  0  0
  4 42  1  0  0  0  0
  5  6  1  0  0  0  0
  5  7  1  0  0  0  0
  5  8  1  0  0  0  0
  6 43  1  0  0  0  0
  6 44  1  0  0  0  0
  6 45  1  0  0  0  0
  7 46  1  0  0  0  0
  7 47  1  0  0  0  0
  7 48  1  0  0  0  0
  8  9  1  0  0  0  0
  9 10  1  0  0  0  0
  9 49  1  0  0  0  0
  9 50  1  0  0  0  0
 10 32  1  0  0  0  0
 10 11  1  0  0  0  0
 10 51  1  0  0  0  0
 11 12  1  0  0  0  0
 12 13  1  0  0  0  0
 12 31  1  0  0  0  0
 12 52  1  0  0  0  0
 13 30  1  0  0  0  0
 13 14  1  0  0  0  0
 14 15  2  0  0  0  0
 14 53  1  0  0  0  0
 15 16  1  0  0  0  0
 16 30  2  0  0  0  0
 16 17  1  0  0  0  0
 17 18  2  0  0  0  0
 17 27  1  0  0  0  0
 18 19  1  0  0  0  0
 19 20  2  0  0  0  0
 19 21  1  0  0  0  0
 21 26  1  0  0  0  0
 21 22  2  0  0  0  0
 22 23  1  0  0  0  0
 22 54  1  0  0  0  0
 23 24  2  0  0  0  0
 23 55  1  0  0  0  0
 24 25  1  0  0  0  0
 24 56  1  0  0  0  0
 25 26  2  0  0  0  0
 25 57  1  0  0  0  0
 26 58  1  0  0  0  0
 27 28  1  0  0  0  0
 27 64  1  0  0  0  0
 28 29  2  0  0  0  0
 28 59  1  0  0  0  0
 29 30  1  0  0  0  0
 31 32  1  0  0  0  0
 31 60  1  0  0  0  0
 31 61  1  0  0  0  0
 32 33  1  0  0  0  0
 32 62  1  0  0  0  0
 33 63  1  0  0  0  0
M  END
> <s_m_source_file>
AV-unprocessed.smi

> <i_m_source_file_index>
36

> <i_lp_mmshare_version>
43012

> <i_f3d_flags>
0

> <s_epik_input>
W0NIM11DKFtDSDNdKShbQ0gzXSlbU2ldKFtDSDNdKShbQ0gzXSlPW0NIMl1bQ0BASF0xT1tDQEhdKFtDSDJdW0NASF0xW09IXSluKFtjSF1uMiljKGMyMyluW2NIXW5jM1tOSF1DKD1PKWM0W2NIXVtjSF1bY0hdW2NIXVtjSF00

> <s_epik_cmdline>
J2VwaWtfcHl0aG9uJywgJy1waCcsICc3LjAnLCAnLXRuJywgJzgnLCAnLW1hJywgJzIwMCcsICctbWV0YWxfYmluZGluZycsICctaW1hZScsICc8aW5maWxlLm1hZT4nLCAnLW9tYWUnLCAnPG91dGZpbGUubWFlPic=

> <r_epik_Ionization_Penalty>
0.0850405

> <r_epik_Ionization_Penalty_Charging>
0.0850403

> <r_epik_Ionization_Penalty_Neutral>
1.47497e-07

> <r_epik_State_Penalty>
2.6133

> <r_epik_Charging_Adjusted_Penalty>
2.69834

> <i_epik_Tot_Q>
0

> <i_epik_Tot_abs_Q>
0

> <r_epik_Metal_State_Penalty>
2.92945

> <b_epik_Metal_Only>
0

> <s_epik_Chemistry_Notes>
This compound contains an acetal/aminal-like group ( X-CH(R)-Y where X, Y are N, S, or O) that may be acid/base labile, releasing an aldehyde.

> <s_lp_Force_Field>
OPLS_2005

> <r_lp_Energy>
44.9546

> <b_lp_Chiralities_Consistent>
1

> <s_lp_Variant>
AV-unprocessed.smi:36-11

> <Gold.Version>
5.8.1

> <Gold.Id.Protein>
6NUR|6NUR_protein|mol2

> <Gold.PLP.Fitness>
45.9246

> <Gold.PLP.PLP>
-45.0299

> <Gold.PLP.part.hbond>
-2.7397

> <Gold.PLP.part.metal>
0.0000

> <Gold.PLP.part.buried>
-6.7893

> <Gold.PLP.part.nonpolar>
-35.7605

> <Gold.PLP.part.repulsive>
2.1430

> <Gold.PLP.ligand.clash>
0.0000

> <Gold.PLP.ligand.torsion>
3.1470

> <Gold.PLP.Chemscore.Hbond>
2.2783

> <Gold.PLP.Chemscore.CHOScore>
0.0000

> <Gold.PLP.Chemscore.Metal>
0.0000

> <Gold.Chemscore.Hbonds>
donor molecule, donor type, donor heavy atom, donor atom, acceptor molecule, acceptor atom, score
      L1  H    33    63       P1  7948  0.09
      P1  H  7997  8010       L1    20  0.32
      P1  H 10752 10765       L1    29  1.00

> <Gold.PLP.Chemscore.Internal.Correction>
0.3538

> <Gold.Rescore>
     Score         DG    S(hbond)    S(metal)    S(lipo)     H(rot)  DE(clash)    DE(int)     intcor
     14.05     -17.09       1.84        0.00     105.88       2.70       0.05       2.99       ----

> <Gold.Chemscore.Fitness>
14.0510

> <Gold.Chemscore.DG>
-17.0925

> <Gold.Chemscore.ZeroCoef>
-5.4800

> <Gold.Chemscore.Hbond>
1.8406

> <Gold.Chemscore.Metal>
0.0000

> <Gold.Chemscore.Lipo>
105.8760

> <Gold.Chemscore.Internal_Hbond>
0.0000

> <Gold.Chemscore.DEClash>
0.0524

> <Gold.Chemscore.DEInternal>
2.9891

> <Gold.Chemscore.Rot>
2.7041

> <Gold.Chemscore.Internal.Correction>
   9.000000E+99

> <Gold.Chemscore.Hbonds>
donor molecule, donor type, donor heavy atom, donor atom, acceptor molecule, acceptor atom, score
      L1  H    33    63       P1  7948  0.01
      P1  H  7997  8010       L1    20  0.22
      P1  H 10752 10765       L1    29  0.38

> <Gold.Chemscore.Hbond.Weighted>
-6.1475

> <Gold.Chemscore.Metal.Weighted>
-0.0000

> <Gold.Chemscore.Lipo.Weighted>
-12.3875

> <Gold.Chemscore.Internal_Hbond.Weighted>
0.0000

> <Gold.Chemscore.DEClash.Weighted>
0.0524

> <Gold.Chemscore.DEInternal.Weighted>
2.9891

> <Gold.Chemscore.Rot.Weighted>
6.9225

> <Gold.Chemscore.Internal.Correction.Weighted>
   9.000000E+99

> <Gold.Protein.RotatedTorsions>
[ 6907 6896 6895 6894 ] final  -86.33 input  -60.11 | X-H torsion
[ 7974 7965 7964 7962 ] final -146.31 input  175.53 | X-H torsion
[ 8008 7997 7996 7995 ] final   -6.58 input   59.86 | X-H torsion
[ 10167 10162 10161 10158 ] final -102.22 input  -65.29 | X-H torsion
[ 10718 10713 10712 10709 ] final  101.85 input   66.30 | X-H torsion
[ 10763 10752 10751 10750 ] final -147.47 input  -60.55 | X-H torsion
[ 11005 11000 10999 10996 ] final  -77.57 input  -57.11 | X-H torsion

> <Gold.Protein.ActiveResidues>
 VAL166  LYS551  ARG553  GLY616  TRP617  ASP618  TYR619  PRO620  LYS621  CYS622 
 ASP623  PHE694  ASN695  SER759  ASP760  ASP761  ALA762  ILE779  LEU786  VAL792 
 PHE793  MET794  SER795  GLU796  ALA797  LYS798  CYS799  TRP800  GLU811  SER814 

> <Gold.Protein.RotatedAtoms>
  150.6867  134.3067  159.4728 H   0  0  0  0  0  0  0  0  0  0  0  0  # atno 6907 bound_to 6896
  152.0957  134.9374  160.0580 H   0  0  0  0  0  0  0  0  0  0  0  0  # atno 6908 bound_to 6896
  152.0672  133.4055  159.4480 H   0  0  0  0  0  0  0  0  0  0  0  0  # atno 6909 bound_to 6896
  144.8168  140.5472  143.5605 H   0  0  0  0  0  0  0  0  0  0  0  0  # atno 7974 bound_to 7965
  154.5923  140.2429  155.7904 H   0  0  0  0  0  0  0  0  0  0  0  0  # atno 8008 bound_to 7997
  156.2255  140.2984  156.0011 H   0  0  0  0  0  0  0  0  0  0  0  0  # atno 8009 bound_to 7997
  155.2353  140.0405  157.2958 H   0  0  0  0  0  0  0  0  0  0  0  0  # atno 8010 bound_to 7997
  140.2330  143.3593  152.0869 H   0  0  0  0  0  0  0  0  0  0  0  0  # atno 10167 bound_to 10162
  157.6818  131.0737  150.5315 H   0  0  0  0  0  0  0  0  0  0  0  0  # atno 10718 bound_to 10713
  154.8284  135.3359  154.6824 H   0  0  0  0  0  0  0  0  0  0  0  0  # atno 10763 bound_to 10752
  153.7447  135.6943  153.4963 H   0  0  0  0  0  0  0  0  0  0  0  0  # atno 10764 bound_to 10752
  153.2219  135.4446  155.0450 H   0  0  0  0  0  0  0  0  0  0  0  0  # atno 10765 bound_to 10752
  141.1661  133.7028  156.7840 H   0  0  0  0  0  0  0  0  0  0  0  0  # atno 11005 bound_to 11000
  145.5196  139.1477  143.3559 LP  0  0  0  0  0  0  0  0  0  0  0  0  # atno 17320 bound_to 7965
  146.2471  140.5337  142.8909 LP  0  0  0  0  0  0  0  0  0  0  0  0  # atno 17321 bound_to 7965
  139.5103  144.6882  151.5830 LP  0  0  0  0  0  0  0  0  0  0  0  0  # atno 17342 bound_to 10162
  140.6171  143.9329  150.6497 LP  0  0  0  0  0  0  0  0  0  0  0  0  # atno 17343 bound_to 10162
  156.5625  130.4259  149.6056 LP  0  0  0  0  0  0  0  0  0  0  0  0  # atno 17370 bound_to 10713
  156.2809  130.7070  151.1894 LP  0  0  0  0  0  0  0  0  0  0  0  0  # atno 17371 bound_to 10713
  140.2374  134.8640  157.3538 LP  0  0  0  0  0  0  0  0  0  0  0  0  # atno 17394 bound_to 11000
  140.1830  134.4466  155.7760 LP  0  0  0  0  0  0  0  0  0  0  0  0  # atno 17395 bound_to 11000

$$$$
