AV-unprocessed.smi:2510|AV-procd|sdf|9878|dock3
  -GOLD-   2272013513D 1   1.00000     0.00000
 Structure written by MMmdl.
 48 49  0  0  0  0  0  0  0  0  1 V2000
  145.2431  141.8759  156.5063 C   0  0  0  0  0  0  0  0  0  0  0  0
  146.7638  142.0057  156.3251 C   0  0  0  0  0  0  0  0  0  0  0  0
  147.3246  141.4162  155.0029 C   0  0  0  0  0  0  0  0  0  0  0  0
  146.6488  142.1473  153.8168 C   0  0  0  0  0  0  0  0  0  0  0  0
  146.0786  143.5382  154.1424 C   0  0  0  0  0  0  0  0  0  0  0  0
  148.8717  141.2773  154.8521 C   0  0  1  0  0  0  0  0  0  0  0  0
  149.5832  141.1687  156.1238 N   0  0  0  0  0  0  0  0  0  0  0  0
  150.8883  140.8953  156.2654 C   0  0  0  0  0  0  0  0  0  0  0  0
  151.6229  140.5837  155.3289 O   0  0  0  0  0  0  0  0  0  0  0  0
  151.4538  141.0294  157.6806 C   0  0  0  0  0  0  0  0  0  0  0  0
  151.5121  142.4693  158.0863 C   0  0  0  0  0  0  0  0  0  0  0  0
  152.0236  143.0711  159.2025 C   0  0  0  0  0  0  0  0  0  0  0  0
  151.7137  144.4517  159.0325 C   0  0  0  0  0  0  0  0  0  0  0  0
  152.0055  145.5873  159.9677 C   0  0  0  0  0  0  0  0  0  0  0  0
  151.0825  144.6917  157.8929 N   0  0  0  0  0  0  0  0  0  0  0  0
  150.9665  143.4773  157.3241 N   0  0  0  0  0  0  0  0  0  0  0  0
  148.6612  139.8967  154.2052 C   0  0  1  0  0  0  0  0  0  0  0  0
  149.6663  138.7641  154.4068 C   0  0  0  0  0  0  0  0  0  0  0  0
  147.2805  139.8677  154.8867 C   0  0  1  0  0  0  0  0  0  0  0  0
  147.3170  139.2409  156.1652 O   0  0  0  0  0  0  0  0  0  0  0  0
  147.3354  137.8261  156.0967 C   0  0  0  0  0  0  0  0  0  0  0  0
  150.5046  143.3506  156.4347 H   0  0  0  0  0  0  0  0  0  0  0  0
  144.9520  142.1924  157.5078 H   0  0  0  0  0  0  0  0  0  0  0  0
  144.9137  140.8446  156.3798 H   0  0  0  0  0  0  0  0  0  0  0  0
  144.6923  142.4984  155.8021 H   0  0  0  0  0  0  0  0  0  0  0  0
  147.0574  143.0482  156.4432 H   0  0  0  0  0  0  0  0  0  0  0  0
  147.2108  141.5046  157.1824 H   0  0  0  0  0  0  0  0  0  0  0  0
  147.3669  142.2801  153.0078 H   0  0  0  0  0  0  0  0  0  0  0  0
  145.8651  141.5318  153.3767 H   0  0  0  0  0  0  0  0  0  0  0  0
  145.7407  144.0334  153.2319 H   0  0  0  0  0  0  0  0  0  0  0  0
  146.8249  144.1816  154.6078 H   0  0  0  0  0  0  0  0  0  0  0  0
  145.2198  143.4801  154.8103 H   0  0  0  0  0  0  0  0  0  0  0  0
  149.3217  141.9916  154.1612 H   0  0  0  0  0  0  0  0  0  0  0  0
  149.0620  141.4162  156.9527 H   0  0  0  0  0  0  0  0  0  0  0  0
  150.8232  140.4692  158.3716 H   0  0  0  0  0  0  0  0  0  0  0  0
  152.4475  140.5818  157.7255 H   0  0  0  0  0  0  0  0  0  0  0  0
  152.5214  142.5918  160.0323 H   0  0  0  0  0  0  0  0  0  0  0  0
  152.5462  145.2422  160.8493 H   0  0  0  0  0  0  0  0  0  0  0  0
  151.0839  146.0593  160.3092 H   0  0  0  0  0  0  0  0  0  0  0  0
  152.6132  146.3511  159.4826 H   0  0  0  0  0  0  0  0  0  0  0  0
  148.5102  140.0469  153.1352 H   0  0  0  0  0  0  0  0  0  0  0  0
  149.7961  138.5123  155.4595 H   0  0  0  0  0  0  0  0  0  0  0  0
  150.6455  139.0350  154.0118 H   0  0  0  0  0  0  0  0  0  0  0  0
  149.3453  137.8588  153.8916 H   0  0  0  0  0  0  0  0  0  0  0  0
  146.4685  139.5112  154.2499 H   0  0  0  0  0  0  0  0  0  0  0  0
  147.4009  137.4143  157.1037 H   0  0  0  0  0  0  0  0  0  0  0  0
  148.1896  137.4621  155.5259 H   0  0  0  0  0  0  0  0  0  0  0  0
  146.4219  137.4467  155.6375 H   0  0  0  0  0  0  0  0  0  0  0  0
  1  2  1  0  0  0  0
  1 23  1  0  0  0  0
  1 24  1  0  0  0  0
  1 25  1  0  0  0  0
  2  3  1  0  0  0  0
  2 26  1  0  0  0  0
  2 27  1  0  0  0  0
  3 19  1  0  0  0  0
  3  4  1  0  0  0  0
  3  6  1  0  0  0  0
  4  5  1  0  0  0  0
  4 28  1  0  0  0  0
  4 29  1  0  0  0  0
  5 30  1  0  0  0  0
  5 31  1  0  0  0  0
  5 32  1  0  0  0  0
  6  7  1  0  0  0  0
  6 17  1  0  0  0  0
  6 33  1  0  0  0  0
  7  8  1  0  0  0  0
  7 34  1  0  0  0  0
  8  9  2  0  0  0  0
  8 10  1  0  0  0  0
 10 35  1  0  0  0  0
 10 36  1  0  0  0  0
 10 11  1  0  0  0  0
 11 16  1  0  0  0  0
 11 12  2  0  0  0  0
 12 13  1  0  0  0  0
 12 37  1  0  0  0  0
 13 14  1  0  0  0  0
 13 15  2  0  0  0  0
 14 38  1  0  0  0  0
 14 39  1  0  0  0  0
 14 40  1  0  0  0  0
 15 16  1  0  0  0  0
 16 22  1  0  0  0  0
 17 18  1  0  0  0  0
 17 19  1  0  0  0  0
 17 41  1  0  0  0  0
 18 42  1  0  0  0  0
 18 43  1  0  0  0  0
 18 44  1  0  0  0  0
 19 20  1  0  0  0  0
 19 45  1  0  0  0  0
 20 21  1  0  0  0  0
 21 46  1  0  0  0  0
 21 47  1  0  0  0  0
 21 48  1  0  0  0  0
M  END
> <s_m_source_file>
AV-unprocessed.smi

> <i_m_source_file_index>
2510

> <i_lp_mmshare_version>
43012

> <i_f3d_flags>
0

> <s_epik_input>
W0NIM11PW0NAQEhdMVtDQEhdKFtDSDNdKVtDQEBIXShDMShbQ0gyXVtDSDNdKVtDSDJdW0NIM10pW05IXUMoPU8pW0NIMl1jMltjSF1jKFtDSDNdKVtuSF1uMg==

> <s_epik_cmdline>
J2VwaWtfcHl0aG9uJywgJy1waCcsICc3LjAnLCAnLXRuJywgJzgnLCAnLW1hJywgJzIwMCcsICctbWV0YWxfYmluZGluZycsICctaW1hZScsICc8aW5maWxlLm1hZT4nLCAnLW9tYWUnLCAnPG91dGZpbGUubWFlPic=

> <r_lp_tautomer_probability>
0.5

> <r_epik_Ionization_Penalty>
0.000134763

> <r_epik_Ionization_Penalty_Charging>
0

> <r_epik_Ionization_Penalty_Neutral>
0.000134763

> <r_epik_State_Penalty>
0.41068

> <r_epik_Charging_Adjusted_Penalty>
0.41068

> <i_epik_Tot_Q>
0

> <i_epik_Tot_abs_Q>
0

> <r_epik_Metal_State_Penalty>
0.410661

> <b_epik_Metal_Only>
0

> <s_lp_Force_Field>
OPLS_2005

> <r_lp_Energy>
25.663

> <b_lp_Chiralities_Consistent>
1

> <s_lp_Variant>
AV-unprocessed.smi:2510-9

> <Gold.Version>
5.8.1

> <Gold.Id.Protein>
6NUR|6NUR_protein|mol2

> <Gold.PLP.Fitness>
39.9523

> <Gold.PLP.PLP>
-38.5860

> <Gold.PLP.part.hbond>
-2.0000

> <Gold.PLP.part.metal>
0.0000

> <Gold.PLP.part.buried>
-5.7441

> <Gold.PLP.part.nonpolar>
-31.2104

> <Gold.PLP.part.repulsive>
0.7413

> <Gold.PLP.ligand.clash>
0.0000

> <Gold.PLP.ligand.torsion>
1.1712

> <Gold.PLP.Chemscore.Hbond>
1.0097

> <Gold.PLP.Chemscore.CHOScore>
0.0000

> <Gold.PLP.Chemscore.Metal>
0.0000

> <Gold.Chemscore.Hbonds>
donor molecule, donor type, donor heavy atom, donor atom, acceptor molecule, acceptor atom, score
      L1  H    16    22       P1  8028  0.21
      P1  H  7989  7998       L1     9  0.75

> <Gold.PLP.Chemscore.Internal.Correction>
0.6797

> <Gold.Rescore>
     Score         DG    S(hbond)    S(metal)    S(lipo)     H(rot)  DE(clash)    DE(int)     intcor
     10.51     -15.04       0.93        0.00      94.75       1.81       0.21       4.32       ----

> <Gold.Chemscore.Fitness>
10.5125

> <Gold.Chemscore.DG>
-15.0425

> <Gold.Chemscore.ZeroCoef>
-5.4800

> <Gold.Chemscore.Hbond>
0.9313

> <Gold.Chemscore.Metal>
0.0000

> <Gold.Chemscore.Lipo>
94.7517

> <Gold.Chemscore.Internal_Hbond>
0.0000

> <Gold.Chemscore.DEClash>
0.2144

> <Gold.Chemscore.DEInternal>
4.3156

> <Gold.Chemscore.Rot>
1.8102

> <Gold.Chemscore.Internal.Correction>
   9.000000E+99

> <Gold.Chemscore.Hbonds>
donor molecule, donor type, donor heavy atom, donor atom, acceptor molecule, acceptor atom, score
      L1  H    16    22       P1  8028  0.21
      P1  H  7989  7998       L1     9  0.76

> <Gold.Chemscore.Hbond.Weighted>
-3.1106

> <Gold.Chemscore.Metal.Weighted>
-0.0000

> <Gold.Chemscore.Lipo.Weighted>
-11.0859

> <Gold.Chemscore.Internal_Hbond.Weighted>
0.0000

> <Gold.Chemscore.DEClash.Weighted>
0.2144

> <Gold.Chemscore.DEInternal.Weighted>
4.3156

> <Gold.Chemscore.Rot.Weighted>
4.6341

> <Gold.Chemscore.Internal.Correction.Weighted>
   9.000000E+99

> <Gold.Protein.RotatedTorsions>
[ 6907 6896 6895 6894 ] final -145.90 input  -60.11 | X-H torsion
[ 7974 7965 7964 7962 ] final   81.10 input  175.53 | X-H torsion
[ 8008 7997 7996 7995 ] final -169.55 input   59.86 | X-H torsion
[ 10167 10162 10161 10158 ] final  -54.07 input  -65.29 | X-H torsion
[ 10718 10713 10712 10709 ] final   32.37 input   66.30 | X-H torsion
[ 10763 10752 10751 10750 ] final   69.71 input  -60.55 | X-H torsion
[ 11005 11000 10999 10996 ] final -130.15 input  -57.11 | X-H torsion

> <Gold.Protein.ActiveResidues>
 VAL166  LYS551  ARG553  GLY616  TRP617  ASP618  TYR619  PRO620  LYS621  CYS622 
 ASP623  PHE694  ASN695  SER759  ASP760  ASP761  ALA762  ILE779  LEU786  VAL792 
 PHE793  MET794  SER795  GLU796  ALA797  LYS798  CYS799  TRP800  GLU811  SER814 

> <Gold.Protein.RotatedAtoms>
  151.1342  133.5016  159.2598 H   0  0  0  0  0  0  0  0  0  0  0  0  # atno 6907 bound_to 6896
  151.1724  135.0323  159.8767 H   0  0  0  0  0  0  0  0  0  0  0  0  # atno 6908 bound_to 6896
  152.5461  134.1204  159.8449 H   0  0  0  0  0  0  0  0  0  0  0  0  # atno 6909 bound_to 6896
  145.6426  139.2429  143.2022 H   0  0  0  0  0  0  0  0  0  0  0  0  # atno 7974 bound_to 7965
  155.9064  140.1050  157.1312 H   0  0  0  0  0  0  0  0  0  0  0  0  # atno 8008 bound_to 7997
  154.4033  140.1282  156.4566 H   0  0  0  0  0  0  0  0  0  0  0  0  # atno 8009 bound_to 7997
  155.7362  140.3467  155.5085 H   0  0  0  0  0  0  0  0  0  0  0  0  # atno 8010 bound_to 7997
  140.6450  143.2530  151.4883 H   0  0  0  0  0  0  0  0  0  0  0  0  # atno 10167 bound_to 10162
  157.2843  130.7271  149.6574 H   0  0  0  0  0  0  0  0  0  0  0  0  # atno 10718 bound_to 10713
  153.0302  135.5200  154.7330 H   0  0  0  0  0  0  0  0  0  0  0  0  # atno 10763 bound_to 10752
  154.6352  135.2905  155.0171 H   0  0  0  0  0  0  0  0  0  0  0  0  # atno 10764 bound_to 10752
  154.1109  135.6622  153.4937 H   0  0  0  0  0  0  0  0  0  0  0  0  # atno 10765 bound_to 10752
  140.9371  134.1243  157.4184 H   0  0  0  0  0  0  0  0  0  0  0  0  # atno 11005 bound_to 11000
  146.1268  140.7237  142.9431 LP  0  0  0  0  0  0  0  0  0  0  0  0  # atno 17320 bound_to 7965
  144.7152  140.4183  143.7050 LP  0  0  0  0  0  0  0  0  0  0  0  0  # atno 17321 bound_to 7965
  139.5661  144.2040  152.1766 LP  0  0  0  0  0  0  0  0  0  0  0  0  # atno 17342 bound_to 10162
  140.1322  144.5278  150.6795 LP  0  0  0  0  0  0  0  0  0  0  0  0  # atno 17343 bound_to 10162
  155.9665  130.4328  150.4980 LP  0  0  0  0  0  0  0  0  0  0  0  0  # atno 17370 bound_to 10713
  157.2930  131.0630  151.2121 LP  0  0  0  0  0  0  0  0  0  0  0  0  # atno 17371 bound_to 10713
  139.8810  135.0024  156.6126 LP  0  0  0  0  0  0  0  0  0  0  0  0  # atno 17394 bound_to 11000
  140.7785  133.8680  155.8548 LP  0  0  0  0  0  0  0  0  0  0  0  0  # atno 17395 bound_to 11000

$$$$
