AV-unprocessed.smi:276|AV-procd|sdf|2077|dock2
  -GOLD-   2262021343D 1   1.00000     0.00000
 Structure written by MMmdl.
 57 61  0  0  0  0  0  0  0  0  1 V2000
  145.4538  132.5763  151.6511 C   0  0  0  0  0  0  0  0  0  0  0  0
  146.4415  132.6103  152.6659 O   0  0  0  0  0  0  0  0  0  0  0  0
  146.7077  133.9271  153.1221 C   0  0  1  0  0  0  0  0  0  0  0  0
  145.6228  134.5158  154.0322 C   0  0  0  0  0  0  0  0  0  0  0  0
  146.7420  135.0996  154.9172 C   0  0  2  0  0  0  0  0  0  0  0  0
  147.0767  136.4764  154.5253 N   0  0  0  0  0  0  0  0  0  0  0  0
  145.9585  137.4115  154.4450 C   0  0  0  0  0  0  0  0  0  0  0  0
  148.1091  137.0497  155.1832 C   0  0  0  0  0  0  0  0  0  0  0  0
  148.7083  136.3090  156.1486 N   0  0  0  0  0  0  0  0  0  0  0  0
  149.7295  136.8172  156.8448 C   0  0  0  0  0  0  0  0  0  0  0  0
  150.2993  138.0191  156.7345 N   0  0  0  0  0  0  0  0  0  0  0  0
  149.7090  138.7599  155.7533 C   0  0  0  0  0  0  0  0  0  0  0  0
  148.6198  138.3558  154.9307 C   0  0  0  0  0  0  0  0  0  0  0  0
  148.2966  139.3751  154.0421 N   0  0  0  0  0  0  0  0  0  0  0  0
  149.1367  140.3306  154.3316 C   0  0  0  0  0  0  0  0  0  0  0  0
  150.0184  140.0462  155.3490 N   0  0  0  0  0  0  0  0  0  0  0  0
  151.0475  140.9263  155.8737 C   0  0  0  0  0  0  0  0  0  0  0  0
  150.4571  142.1344  156.6264 C   0  0  1  0  0  0  0  0  0  0  0  0
  149.6857  141.6730  157.7193 O   0  0  0  0  0  0  0  0  0  0  0  0
  151.5501  143.0809  157.1548 C   0  0  2  0  0  0  0  0  0  0  0  0
  152.3762  142.5155  158.3116 C   0  0  0  0  0  0  0  0  0  0  0  0
  152.8780  143.7561  159.0333 C   0  0  0  0  0  0  0  0  0  0  0  0
  151.9854  144.8819  158.5036 C   0  0  0  0  0  0  0  0  0  0  0  0
  150.9707  144.2306  157.7523 O   0  0  0  0  0  0  0  0  0  0  0  0
  147.6581  133.9903  154.3313 C   0  0  0  0  0  0  0  0  0  0  0  0
  147.9297  132.7213  155.1602 C   0  0  0  0  0  0  0  0  0  0  0  0
  149.2594  132.5833  154.4135 C   0  0  0  0  0  0  0  0  0  0  0  0
  149.1838  134.0868  154.1372 C   0  0  0  0  0  0  0  0  0  0  0  0
  145.2882  131.5462  151.3362 H   0  0  0  0  0  0  0  0  0  0  0  0
  145.7682  133.1491  150.7777 H   0  0  0  0  0  0  0  0  0  0  0  0
  144.5034  132.9755  152.0077 H   0  0  0  0  0  0  0  0  0  0  0  0
  147.0151  134.6116  152.3286 H   0  0  0  0  0  0  0  0  0  0  0  0
  144.9650  135.2300  153.5379 H   0  0  0  0  0  0  0  0  0  0  0  0
  145.0465  133.7458  154.5479 H   0  0  0  0  0  0  0  0  0  0  0  0
  146.5285  134.9777  155.9790 H   0  0  0  0  0  0  0  0  0  0  0  0
  146.2848  138.4529  154.4701 H   0  0  0  0  0  0  0  0  0  0  0  0
  145.2673  137.2555  155.2742 H   0  0  0  0  0  0  0  0  0  0  0  0
  145.4113  137.2693  153.5136 H   0  0  0  0  0  0  0  0  0  0  0  0
  150.1491  136.1681  157.5990 H   0  0  0  0  0  0  0  0  0  0  0  0
  149.1349  141.2766  153.8097 H   0  0  0  0  0  0  0  0  0  0  0  0
  151.7056  140.3508  156.5262 H   0  0  0  0  0  0  0  0  0  0  0  0
  151.6597  141.2648  155.0370 H   0  0  0  0  0  0  0  0  0  0  0  0
  149.7951  142.6860  155.9573 H   0  0  0  0  0  0  0  0  0  0  0  0
  150.1182  140.9216  158.0959 H   0  0  0  0  0  0  0  0  0  0  0  0
  152.2097  143.3974  156.3442 H   0  0  0  0  0  0  0  0  0  0  0  0
  151.7393  141.9372  158.9825 H   0  0  0  0  0  0  0  0  0  0  0  0
  153.1839  141.8657  157.9734 H   0  0  0  0  0  0  0  0  0  0  0  0
  152.7892  143.6418  160.1141 H   0  0  0  0  0  0  0  0  0  0  0  0
  153.9245  143.9561  158.8009 H   0  0  0  0  0  0  0  0  0  0  0  0
  151.5536  145.4854  159.3024 H   0  0  0  0  0  0  0  0  0  0  0  0
  152.5519  145.5427  157.8459 H   0  0  0  0  0  0  0  0  0  0  0  0
  148.0675  132.9358  156.2215 H   0  0  0  0  0  0  0  0  0  0  0  0
  147.2299  131.8990  155.0091 H   0  0  0  0  0  0  0  0  0  0  0  0
  150.1019  132.2727  155.0320 H   0  0  0  0  0  0  0  0  0  0  0  0
  149.1757  131.9813  153.5071 H   0  0  0  0  0  0  0  0  0  0  0  0
  149.5036  134.3855  153.1386 H   0  0  0  0  0  0  0  0  0  0  0  0
  149.6983  134.6547  154.9118 H   0  0  0  0  0  0  0  0  0  0  0  0
  1  2  1  0  0  0  0
  1 29  1  0  0  0  0
  1 30  1  0  0  0  0
  1 31  1  0  0  0  0
  2  3  1  0  0  0  0
  3 25  1  0  0  0  0
  3  4  1  0  0  0  0
  3 32  1  0  0  0  0
  4  5  1  0  0  0  0
  4 33  1  0  0  0  0
  4 34  1  0  0  0  0
  5  6  1  0  0  0  0
  5 25  1  0  0  0  0
  5 35  1  0  0  0  0
  6  7  1  0  0  0  0
  6  8  1  0  0  0  0
  7 36  1  0  0  0  0
  7 37  1  0  0  0  0
  7 38  1  0  0  0  0
  8 13  1  0  0  0  0
  8  9  2  0  0  0  0
  9 10  1  0  0  0  0
 10 11  2  0  0  0  0
 10 39  1  0  0  0  0
 11 12  1  0  0  0  0
 12 16  1  0  0  0  0
 12 13  2  0  0  0  0
 13 14  1  0  0  0  0
 14 15  2  0  0  0  0
 15 16  1  0  0  0  0
 15 40  1  0  0  0  0
 16 17  1  0  0  0  0
 17 18  1  0  0  0  0
 17 41  1  0  0  0  0
 17 42  1  0  0  0  0
 18 19  1  0  0  0  0
 18 20  1  0  0  0  0
 18 43  1  0  0  0  0
 19 44  1  0  0  0  0
 20 24  1  0  0  0  0
 20 21  1  0  0  0  0
 20 45  1  0  0  0  0
 21 22  1  0  0  0  0
 21 46  1  0  0  0  0
 21 47  1  0  0  0  0
 22 23  1  0  0  0  0
 22 48  1  0  0  0  0
 22 49  1  0  0  0  0
 23 24  1  0  0  0  0
 23 50  1  0  0  0  0
 23 51  1  0  0  0  0
 25 28  1  0  0  0  0
 25 26  1  0  0  0  0
 26 27  1  0  0  0  0
 26 52  1  0  0  0  0
 26 53  1  0  0  0  0
 27 28  1  0  0  0  0
 27 54  1  0  0  0  0
 27 55  1  0  0  0  0
 28 56  1  0  0  0  0
 28 57  1  0  0  0  0
M  END
> <s_m_source_file>
AV-unprocessed.smi

> <i_m_source_file_index>
276

> <i_lp_mmshare_version>
43012

> <i_f3d_flags>
0

> <s_epik_input>
W0NIMl0xW0NIMl1bQ0gyXUMxMltDQEhdKE9bQ0gzXSlbQ0gyXVtDQEhdMk4oW0NIM10pYyhuW2NIXW4zKWMoYzM0KW5bY0hdbjRbQ0gyXVtDQEhdKFtPSF0pW0NAQEhdNVtDSDJdW0NIMl1bQ0gyXU81

> <s_epik_cmdline>
J2VwaWtfcHl0aG9uJywgJy1waCcsICc3LjAnLCAnLXRuJywgJzgnLCAnLW1hJywgJzIwMCcsICctbWV0YWxfYmluZGluZycsICctaW1hZScsICc8aW5maWxlLm1hZT4nLCAnLW9tYWUnLCAnPG91dGZpbGUubWFlPic=

> <r_lp_tautomer_probability>
1

> <r_epik_Ionization_Penalty>
0.00204117

> <r_epik_Ionization_Penalty_Charging>
0

> <r_epik_Ionization_Penalty_Neutral>
0.00204117

> <r_epik_State_Penalty>
0.00127401

> <r_epik_Charging_Adjusted_Penalty>
0.00127401

> <i_epik_Tot_Q>
0

> <i_epik_Tot_abs_Q>
0

> <r_epik_Metal_State_Penalty>
-0

> <b_epik_Metal_Only>
0

> <s_lp_Force_Field>
OPLS_2005

> <r_lp_Energy>
57.0409

> <b_lp_Chiralities_Consistent>
1

> <s_lp_Variant>
AV-unprocessed.smi:276-8

> <Gold.Version>
5.8.1

> <Gold.Id.Protein>
6NUR|6NUR_protein|mol2

> <Gold.PLP.Fitness>
36.8759

> <Gold.PLP.PLP>
-37.3634

> <Gold.PLP.part.hbond>
0.0000

> <Gold.PLP.part.metal>
0.0000

> <Gold.PLP.part.buried>
-5.2490

> <Gold.PLP.part.nonpolar>
-32.4719

> <Gold.PLP.part.repulsive>
1.8716

> <Gold.PLP.ligand.clash>
0.0000

> <Gold.PLP.ligand.torsion>
0.6325

> <Gold.PLP.Chemscore.Hbond>
0.0000

> <Gold.PLP.Chemscore.CHOScore>
0.0000

> <Gold.PLP.Chemscore.Metal>
0.0000

> <Gold.PLP.Chemscore.Internal.Correction>
0.7773

> <Gold.Rescore>
     Score         DG    S(hbond)    S(metal)    S(lipo)     H(rot)  DE(clash)    DE(int)     intcor
      9.39     -10.33       0.00        0.00     100.94       2.72       0.16       0.78       ----

> <Gold.Chemscore.Fitness>
9.3903

> <Gold.Chemscore.DG>
-10.3340

> <Gold.Chemscore.ZeroCoef>
-5.4800

> <Gold.Chemscore.Hbond>
0.0000

> <Gold.Chemscore.Metal>
0.0000

> <Gold.Chemscore.Lipo>
100.9404

> <Gold.Chemscore.Internal_Hbond>
0.0000

> <Gold.Chemscore.DEClash>
0.1644

> <Gold.Chemscore.DEInternal>
0.7793

> <Gold.Chemscore.Rot>
2.7172

> <Gold.Chemscore.Internal.Correction>
   9.000000E+99

> <Gold.Chemscore.Hbond.Weighted>
-0.0000

> <Gold.Chemscore.Metal.Weighted>
-0.0000

> <Gold.Chemscore.Lipo.Weighted>
-11.8100

> <Gold.Chemscore.Internal_Hbond.Weighted>
0.0000

> <Gold.Chemscore.DEClash.Weighted>
0.1644

> <Gold.Chemscore.DEInternal.Weighted>
0.7793

> <Gold.Chemscore.Rot.Weighted>
6.9560

> <Gold.Chemscore.Internal.Correction.Weighted>
   9.000000E+99

> <Gold.Protein.RotatedTorsions>
[ 6907 6896 6895 6894 ] final  -90.18 input  -60.11 | X-H torsion
[ 7974 7965 7964 7962 ] final  129.85 input  175.53 | X-H torsion
[ 8008 7997 7996 7995 ] final  -91.59 input   59.86 | X-H torsion
[ 10167 10162 10161 10158 ] final   64.99 input  -65.29 | X-H torsion
[ 10718 10713 10712 10709 ] final  153.19 input   66.30 | X-H torsion
[ 10763 10752 10751 10750 ] final  -67.55 input  -60.55 | X-H torsion
[ 11005 11000 10999 10996 ] final -129.20 input  -57.11 | X-H torsion

> <Gold.Protein.ActiveResidues>
 VAL166  LYS551  ARG553  GLY616  TRP617  ASP618  TYR619  PRO620  LYS621  CYS622 
 ASP623  PHE694  ASN695  SER759  ASP760  ASP761  ALA762  ILE779  LEU786  VAL792 
 PHE793  MET794  SER795  GLU796  ALA797  LYS798  CYS799  TRP800  GLU811  SER814 

> <Gold.Protein.RotatedAtoms>
  150.6879  134.2472  159.4495 H   0  0  0  0  0  0  0  0  0  0  0  0  # atno 6907 bound_to 6896
  152.0412  134.9708  160.0583 H   0  0  0  0  0  0  0  0  0  0  0  0  # atno 6908 bound_to 6896
  152.1209  133.4318  159.4712 H   0  0  0  0  0  0  0  0  0  0  0  0  # atno 6909 bound_to 6896
  145.0243  139.4104  143.5182 H   0  0  0  0  0  0  0  0  0  0  0  0  # atno 7974 bound_to 7965
  154.7126  140.0518  157.0564 H   0  0  0  0  0  0  0  0  0  0  0  0  # atno 8008 bound_to 7997
  155.0534  140.3181  155.4665 H   0  0  0  0  0  0  0  0  0  0  0  0  # atno 8009 bound_to 7997
  156.2794  140.2111  156.5660 H   0  0  0  0  0  0  0  0  0  0  0  0  # atno 8010 bound_to 7997
  140.1161  144.4774  150.6948 H   0  0  0  0  0  0  0  0  0  0  0  0  # atno 10167 bound_to 10162
  157.2480  131.0773  151.1749 H   0  0  0  0  0  0  0  0  0  0  0  0  # atno 10718 bound_to 10713
  154.3761  135.6084  153.5766 H   0  0  0  0  0  0  0  0  0  0  0  0  # atno 10763 bound_to 10752
  152.9789  135.5849  154.4465 H   0  0  0  0  0  0  0  0  0  0  0  0  # atno 10764 bound_to 10752
  154.4226  135.2846  155.1943 H   0  0  0  0  0  0  0  0  0  0  0  0  # atno 10765 bound_to 10752
  140.9452  134.1139  157.4114 H   0  0  0  0  0  0  0  0  0  0  0  0  # atno 11005 bound_to 11000
  146.3490  139.9757  142.8701 LP  0  0  0  0  0  0  0  0  0  0  0  0  # atno 17320 bound_to 7965
  145.1855  140.9787  143.4241 LP  0  0  0  0  0  0  0  0  0  0  0  0  # atno 17321 bound_to 7965
  140.6898  143.2370  151.5162 LP  0  0  0  0  0  0  0  0  0  0  0  0  # atno 17342 bound_to 10162
  139.5593  144.2196  152.1665 LP  0  0  0  0  0  0  0  0  0  0  0  0  # atno 17343 bound_to 10162
  157.3308  130.6984  149.6323 LP  0  0  0  0  0  0  0  0  0  0  0  0  # atno 17370 bound_to 10713
  155.9667  130.4308  150.4892 LP  0  0  0  0  0  0  0  0  0  0  0  0  # atno 17371 bound_to 10713
  139.8831  135.0049  156.6279 LP  0  0  0  0  0  0  0  0  0  0  0  0  # atno 17394 bound_to 11000
  140.7679  133.8763  155.8469 LP  0  0  0  0  0  0  0  0  0  0  0  0  # atno 17395 bound_to 11000

$$$$
