AV-unprocessed.smi:661|AV-procd|sdf|3241|dock8
  -GOLD-   22720 0193D 1   1.00000     0.00000
 Structure written by MMmdl.
 30 31  0  0  0  0  0  0  0  0  1 V2000
  147.7328  141.6163  154.1568 C   0  0  0  0  0  0  0  0  0  0  0  0
  149.0608  142.1123  154.4699 N   0  0  0  0  0  0  0  0  0  0  0  0
  149.8565  141.0439  155.0515 C   0  0  0  0  0  0  0  0  0  0  0  0
  150.6397  141.5011  156.2431 C   0  0  0  0  0  0  0  0  0  0  0  0
  150.6760  142.7836  156.6061 N   0  0  0  0  0  0  0  0  0  0  0  0
  151.4944  142.7615  157.7187 C   0  0  0  0  0  0  0  0  0  0  0  0
  151.9256  143.8096  158.5629 C   0  0  0  0  0  0  0  0  0  0  0  0
  152.7764  143.5420  159.6555 C   0  0  0  0  0  0  0  0  0  0  0  0
  153.2077  142.2258  159.9187 C   0  0  0  0  0  0  0  0  0  0  0  0
  152.7893  141.1667  159.0902 C   0  0  0  0  0  0  0  0  0  0  0  0
  151.9393  141.4391  158.0017 C   0  0  0  0  0  0  0  0  0  0  0  0
  151.3591  140.6476  157.0158 N   0  0  0  0  0  0  0  0  0  0  0  0
  151.5213  139.2085  156.8724 C   0  0  0  0  0  0  0  0  0  0  0  0
  152.0209  138.8326  155.4707 C   0  0  0  0  0  0  0  0  0  0  0  0
  153.3154  139.3566  155.2711 O   0  0  0  0  0  0  0  0  0  0  0  0
  147.1294  142.4173  153.7294 H   0  0  0  0  0  0  0  0  0  0  0  0
  147.2300  141.2542  155.0544 H   0  0  0  0  0  0  0  0  0  0  0  0
  147.7817  140.8036  153.4311 H   0  0  0  0  0  0  0  0  0  0  0  0
  148.9788  142.8620  155.1420 H   0  0  0  0  0  0  0  0  0  0  0  0
  149.1963  140.2301  155.3547 H   0  0  0  0  0  0  0  0  0  0  0  0
  150.5402  140.6310  154.3093 H   0  0  0  0  0  0  0  0  0  0  0  0
  151.6013  144.8212  158.3697 H   0  0  0  0  0  0  0  0  0  0  0  0
  153.0999  144.3509  160.2940 H   0  0  0  0  0  0  0  0  0  0  0  0
  153.8601  142.0298  160.7572 H   0  0  0  0  0  0  0  0  0  0  0  0
  153.1183  140.1572  159.2878 H   0  0  0  0  0  0  0  0  0  0  0  0
  152.2306  138.8682  157.6279 H   0  0  0  0  0  0  0  0  0  0  0  0
  150.5794  138.7065  157.0912 H   0  0  0  0  0  0  0  0  0  0  0  0
  152.0535  137.7503  155.3459 H   0  0  0  0  0  0  0  0  0  0  0  0
  151.3557  139.2301  154.7035 H   0  0  0  0  0  0  0  0  0  0  0  0
  153.6396  139.0460  154.4394 H   0  0  0  0  0  0  0  0  0  0  0  0
  1  2  1  0  0  0  0
  1 16  1  0  0  0  0
  1 17  1  0  0  0  0
  1 18  1  0  0  0  0
  2  3  1  0  0  0  0
  2 19  1  0  0  0  0
  3  4  1  0  0  0  0
  3 20  1  0  0  0  0
  3 21  1  0  0  0  0
  4 12  1  0  0  0  0
  4  5  2  0  0  0  0
  5  6  1  0  0  0  0
  6 11  2  0  0  0  0
  6  7  1  0  0  0  0
  7  8  2  0  0  0  0
  7 22  1  0  0  0  0
  8  9  1  0  0  0  0
  8 23  1  0  0  0  0
  9 10  2  0  0  0  0
  9 24  1  0  0  0  0
 10 11  1  0  0  0  0
 10 25  1  0  0  0  0
 11 12  1  0  0  0  0
 12 13  1  0  0  0  0
 13 14  1  0  0  0  0
 13 26  1  0  0  0  0
 13 27  1  0  0  0  0
 14 15  1  0  0  0  0
 14 28  1  0  0  0  0
 14 29  1  0  0  0  0
 15 30  1  0  0  0  0
M  END
> <s_m_source_file>
AV-unprocessed.smi

> <i_m_source_file_index>
661

> <i_lp_mmshare_version>
43012

> <i_f3d_flags>
0

> <s_epik_input>
W0NIM11bTkhdW0NIMl1jKG4xKW4oW0NIMl1bQ0gyXVtPSF0pYyhjMTIpW2NIXVtjSF1bY0hdW2NIXTI=

> <s_epik_cmdline>
J2VwaWtfcHl0aG9uJywgJy1waCcsICc3LjAnLCAnLXRuJywgJzgnLCAnLW1hJywgJzIwMCcsICctbWV0YWxfYmluZGluZycsICctaW1hZScsICc8aW5maWxlLm1hZT4nLCAnLW9tYWUnLCAnPG91dGZpbGUubWFlPic=

> <r_epik_Ionization_Penalty>
1.98932

> <r_epik_Ionization_Penalty_Charging>
0

> <r_epik_Ionization_Penalty_Neutral>
1.98932

> <r_epik_State_Penalty>
1.95598

> <r_epik_Charging_Adjusted_Penalty>
1.95598

> <i_epik_Tot_Q>
0

> <i_epik_Tot_abs_Q>
0

> <r_epik_Metal_State_Penalty>
1.80219

> <b_epik_Metal_Only>
0

> <s_lp_Force_Field>
OPLS_2005

> <r_lp_Energy>
9.98392

> <b_lp_Chiralities_Consistent>
1

> <s_lp_Variant>
AV-unprocessed.smi:661-2

> <Gold.Version>
5.8.1

> <Gold.Id.Protein>
6NUR|6NUR_protein|mol2

> <Gold.PLP.Fitness>
41.1653

> <Gold.PLP.PLP>
-35.4875

> <Gold.PLP.part.hbond>
-3.0558

> <Gold.PLP.part.metal>
0.0000

> <Gold.PLP.part.buried>
-3.5693

> <Gold.PLP.part.nonpolar>
-29.8784

> <Gold.PLP.part.repulsive>
2.1408

> <Gold.PLP.ligand.clash>
0.0000

> <Gold.PLP.ligand.torsion>
0.3871

> <Gold.PLP.Chemscore.Hbond>
2.1498

> <Gold.PLP.Chemscore.CHOScore>
0.0000

> <Gold.PLP.Chemscore.Metal>
0.0000

> <Gold.Chemscore.Hbonds>
donor molecule, donor type, donor heavy atom, donor atom, acceptor molecule, acceptor atom, score
      L1  H     2    19       P1  8028  1.00
      P1  H  7997  8010       L1    15  1.00
      P1  H  8011  8017       L1     2  0.11

> <Gold.PLP.Chemscore.Internal.Correction>
0.0027

> <Gold.Rescore>
     Score         DG    S(hbond)    S(metal)    S(lipo)     H(rot)  DE(clash)    DE(int)     intcor
     15.49     -17.12       2.00        0.00      92.84       2.30       1.27       0.35       ----

> <Gold.Chemscore.Fitness>
15.4891

> <Gold.Chemscore.DG>
-17.1162

> <Gold.Chemscore.ZeroCoef>
-5.4800

> <Gold.Chemscore.Hbond>
1.9970

> <Gold.Chemscore.Metal>
0.0000

> <Gold.Chemscore.Lipo>
92.8403

> <Gold.Chemscore.Internal_Hbond>
0.0000

> <Gold.Chemscore.DEClash>
1.2728

> <Gold.Chemscore.DEInternal>
0.3543

> <Gold.Chemscore.Rot>
2.3031

> <Gold.Chemscore.Internal.Correction>
   9.000000E+99

> <Gold.Chemscore.Hbonds>
donor molecule, donor type, donor heavy atom, donor atom, acceptor molecule, acceptor atom, score
      L1  H     2    19       P1  8028  0.97
      P1  H  7997  8010       L1    15  0.82
      P1  H  8011  8017       L1     2  0.01

> <Gold.Chemscore.Hbond.Weighted>
-6.6699

> <Gold.Chemscore.Metal.Weighted>
-0.0000

> <Gold.Chemscore.Lipo.Weighted>
-10.8623

> <Gold.Chemscore.Internal_Hbond.Weighted>
0.0000

> <Gold.Chemscore.DEClash.Weighted>
1.2728

> <Gold.Chemscore.DEInternal.Weighted>
0.3543

> <Gold.Chemscore.Rot.Weighted>
5.8960

> <Gold.Chemscore.Internal.Correction.Weighted>
   9.000000E+99

> <Gold.Protein.RotatedTorsions>
[ 6907 6896 6895 6894 ] final    8.93 input  -60.11 | X-H torsion
[ 7974 7965 7964 7962 ] final   22.36 input  175.53 | X-H torsion
[ 8008 7997 7996 7995 ] final   90.91 input   59.86 | X-H torsion
[ 10167 10162 10161 10158 ] final  -46.89 input  -65.29 | X-H torsion
[ 10718 10713 10712 10709 ] final -147.98 input   66.30 | X-H torsion
[ 10763 10752 10751 10750 ] final  103.11 input  -60.55 | X-H torsion
[ 11005 11000 10999 10996 ] final -170.41 input  -57.11 | X-H torsion

> <Gold.Protein.ActiveResidues>
 VAL166  LYS551  ARG553  GLY616  TRP617  ASP618  TYR619  PRO620  LYS621  CYS622 
 ASP623  PHE694  ASN695  SER759  ASP760  ASP761  ALA762  ILE779  LEU786  VAL792 
 PHE793  MET794  SER795  GLU796  ALA797  LYS798  CYS799  TRP800  GLU811  SER814 

> <Gold.Protein.RotatedAtoms>
  151.7139  135.0907  160.0272 H   0  0  0  0  0  0  0  0  0  0  0  0  # atno 6907 bound_to 6896
  152.3644  133.6334  159.6048 H   0  0  0  0  0  0  0  0  0  0  0  0  # atno 6908 bound_to 6896
  150.7627  133.9288  159.3462 H   0  0  0  0  0  0  0  0  0  0  0  0  # atno 6909 bound_to 6896
  146.2032  139.7896  142.8746 H   0  0  0  0  0  0  0  0  0  0  0  0  # atno 7974 bound_to 7965
  156.0176  140.3344  155.7005 H   0  0  0  0  0  0  0  0  0  0  0  0  # atno 8008 bound_to 7997
  155.6069  140.0661  157.2735 H   0  0  0  0  0  0  0  0  0  0  0  0  # atno 8009 bound_to 7997
  154.4304  140.1800  156.1219 H   0  0  0  0  0  0  0  0  0  0  0  0  # atno 8010 bound_to 7997
  140.6798  143.2809  151.3848 H   0  0  0  0  0  0  0  0  0  0  0  0  # atno 10167 bound_to 10162
  156.4144  130.7998  151.2217 H   0  0  0  0  0  0  0  0  0  0  0  0  # atno 10718 bound_to 10713
  153.3484  135.3988  155.1626 H   0  0  0  0  0  0  0  0  0  0  0  0  # atno 10763 bound_to 10752
  154.8657  135.3650  154.5255 H   0  0  0  0  0  0  0  0  0  0  0  0  # atno 10764 bound_to 10752
  153.5704  135.7079  153.5567 H   0  0  0  0  0  0  0  0  0  0  0  0  # atno 10765 bound_to 10752
  140.5198  134.5721  157.5044 H   0  0  0  0  0  0  0  0  0  0  0  0  # atno 11005 bound_to 11000
  145.3411  141.0288  143.3392 LP  0  0  0  0  0  0  0  0  0  0  0  0  # atno 17320 bound_to 7965
  144.8731  139.5010  143.6758 LP  0  0  0  0  0  0  0  0  0  0  0  0  # atno 17321 bound_to 7965
  139.6113  144.1092  152.2302 LP  0  0  0  0  0  0  0  0  0  0  0  0  # atno 17342 bound_to 10162
  140.0507  144.5935  150.7338 LP  0  0  0  0  0  0  0  0  0  0  0  0  # atno 17343 bound_to 10162
  157.7507  131.0247  150.3889 LP  0  0  0  0  0  0  0  0  0  0  0  0  # atno 17370 bound_to 10713
  156.4194  130.3950  149.6835 LP  0  0  0  0  0  0  0  0  0  0  0  0  # atno 17371 bound_to 10713
  139.9612  134.7449  156.0233 LP  0  0  0  0  0  0  0  0  0  0  0  0  # atno 17394 bound_to 11000
  141.1340  133.6579  156.3543 LP  0  0  0  0  0  0  0  0  0  0  0  0  # atno 17395 bound_to 11000

$$$$
