AV-unprocessed.smi:1743|AV-procd|sdf|7023|dock1
  -GOLD-   22720 8243D 1   1.00000     0.00000
 Structure written by MMmdl.
 38 39  0  0  0  0  0  0  0  0  1 V2000
  153.5269  135.8389  157.6919 C   0  0  0  0  0  0  0  0  0  0  0  0
  152.7308  134.6597  157.6475 O   0  0  0  0  0  0  0  0  0  0  0  0
  151.7800  134.5485  156.6537 C   0  0  0  0  0  0  0  0  0  0  0  0
  151.0086  133.3712  156.5870 C   0  0  0  0  0  0  0  0  0  0  0  0
  150.0379  133.2487  155.5745 C   0  0  0  0  0  0  0  0  0  0  0  0
  149.8740  134.3096  154.6524 C   0  0  0  0  0  0  0  0  0  0  0  0
  148.9174  134.3139  153.6017 N   0  0  0  0  0  0  0  0  0  0  0  0
  148.0186  133.3653  153.2867 C   0  0  0  0  0  0  0  0  0  0  0  0
  147.9043  132.2796  153.8552 O   0  0  0  0  0  0  0  0  0  0  0  0
  147.2634  133.7440  152.2454 N   0  0  0  0  0  0  0  0  0  0  0  0
  146.2006  132.9562  151.6262 C   0  0  2  0  0  0  0  0  0  0  0  0
  146.4293  132.8739  150.1056 C   0  0  0  0  0  0  0  0  0  0  0  0
  145.2891  132.1168  149.4014 C   0  0  0  0  0  0  0  0  0  0  0  0
  143.9048  132.7086  149.7279 C   0  0  2  0  0  0  0  0  0  0  0  0
  143.7603  133.9723  149.1104 O   0  0  0  0  0  0  0  0  0  0  0  0
  143.6868  132.8349  151.2476 C   0  0  0  0  0  0  0  0  0  0  0  0
  144.8338  133.5906  151.9414 C   0  0  0  0  0  0  0  0  0  0  0  0
  150.6846  135.4520  154.8158 C   0  0  0  0  0  0  0  0  0  0  0  0
  151.6183  135.5751  155.7824 N   0  0  0  0  0  0  0  0  0  0  0  0
  154.2226  135.7737  158.5283 H   0  0  0  0  0  0  0  0  0  0  0  0
  152.9145  136.7295  157.8399 H   0  0  0  0  0  0  0  0  0  0  0  0
  154.1149  135.9570  156.7806 H   0  0  0  0  0  0  0  0  0  0  0  0
  151.1558  132.5764  157.3032 H   0  0  0  0  0  0  0  0  0  0  0  0
  149.4329  132.3564  155.5354 H   0  0  0  0  0  0  0  0  0  0  0  0
  148.9555  135.1121  152.9849 H   0  0  0  0  0  0  0  0  0  0  0  0
  147.4400  134.6526  151.8424 H   0  0  0  0  0  0  0  0  0  0  0  0
  146.1994  131.9410  152.0272 H   0  0  0  0  0  0  0  0  0  0  0  0
  146.5095  133.8787  149.6878 H   0  0  0  0  0  0  0  0  0  0  0  0
  147.3788  132.3792  149.8979 H   0  0  0  0  0  0  0  0  0  0  0  0
  145.4531  132.1106  148.3232 H   0  0  0  0  0  0  0  0  0  0  0  0
  145.3117  131.0732  149.7175 H   0  0  0  0  0  0  0  0  0  0  0  0
  143.1332  132.0617  149.3090 H   0  0  0  0  0  0  0  0  0  0  0  0
  144.6204  134.3096  148.9122 H   0  0  0  0  0  0  0  0  0  0  0  0
  142.7349  133.3252  151.4547 H   0  0  0  0  0  0  0  0  0  0  0  0
  143.6128  131.8358  151.6790 H   0  0  0  0  0  0  0  0  0  0  0  0
  144.6667  133.5970  153.0193 H   0  0  0  0  0  0  0  0  0  0  0  0
  144.8270  134.6343  151.6237 H   0  0  0  0  0  0  0  0  0  0  0  0
  150.5858  136.2945  154.1470 H   0  0  0  0  0  0  0  0  0  0  0  0
  1  2  1  0  0  0  0
  1 20  1  0  0  0  0
  1 21  1  0  0  0  0
  1 22  1  0  0  0  0
  2  3  1  0  0  0  0
  3 19  1  0  0  0  0
  3  4  2  0  0  0  0
  4  5  1  0  0  0  0
  4 23  1  0  0  0  0
  5  6  2  0  0  0  0
  5 24  1  0  0  0  0
  6  7  1  0  0  0  0
  6 18  1  0  0  0  0
  7  8  1  0  0  0  0
  7 25  1  0  0  0  0
  8  9  2  0  0  0  0
  8 10  1  0  0  0  0
 10 11  1  0  0  0  0
 10 26  1  0  0  0  0
 11 17  1  0  0  0  0
 11 12  1  0  0  0  0
 11 27  1  0  0  0  0
 12 13  1  0  0  0  0
 12 28  1  0  0  0  0
 12 29  1  0  0  0  0
 13 14  1  0  0  0  0
 13 30  1  0  0  0  0
 13 31  1  0  0  0  0
 14 15  1  0  0  0  0
 14 16  1  0  0  0  0
 14 32  1  0  0  0  0
 15 33  1  0  0  0  0
 16 17  1  0  0  0  0
 16 34  1  0  0  0  0
 16 35  1  0  0  0  0
 17 36  1  0  0  0  0
 17 37  1  0  0  0  0
 18 19  2  0  0  0  0
 18 38  1  0  0  0  0
M  END
> <s_m_source_file>
AV-unprocessed.smi

> <i_m_source_file_index>
1743

> <i_lp_mmshare_version>
43012

> <i_f3d_flags>
0

> <s_epik_input>
W0NIM11PYzFbY0hdW2NIXWMoW2NIXW4xKVtOSF1DKD1PKVtOSF1bQ0BASF0yW0NIMl1bQ0gyXVtDQEBIXShbT0hdKVtDSDJdW0NIMl0y

> <s_epik_cmdline>
J2VwaWtfcHl0aG9uJywgJy1waCcsICc3LjAnLCAnLXRuJywgJzgnLCAnLW1hJywgJzIwMCcsICctbWV0YWxfYmluZGluZycsICctaW1hZScsICc8aW5maWxlLm1hZT4nLCAnLW9tYWUnLCAnPG91dGZpbGUubWFlPic=

> <r_lp_tautomer_probability>
1

> <r_epik_Ionization_Penalty>
9.95686e-05

> <r_epik_Ionization_Penalty_Charging>
0

> <r_epik_Ionization_Penalty_Neutral>
9.95686e-05

> <r_epik_State_Penalty>
-0

> <r_epik_Charging_Adjusted_Penalty>
0

> <i_epik_Tot_Q>
0

> <i_epik_Tot_abs_Q>
0

> <r_epik_Metal_State_Penalty>
-0

> <b_epik_Metal_Only>
0

> <s_lp_Force_Field>
OPLS_2005

> <r_lp_Energy>
13.581

> <b_lp_Chiralities_Consistent>
1

> <s_lp_Variant>
AV-unprocessed.smi:1743-2

> <Gold.Version>
5.8.1

> <Gold.Id.Protein>
6NUR|6NUR_protein|mol2

> <Gold.PLP.Fitness>
43.1926

> <Gold.PLP.PLP>
-31.3373

> <Gold.PLP.part.hbond>
-5.9798

> <Gold.PLP.part.metal>
0.0000

> <Gold.PLP.part.buried>
-0.4001

> <Gold.PLP.part.nonpolar>
-25.2586

> <Gold.PLP.part.repulsive>
0.1429

> <Gold.PLP.ligand.clash>
0.0000

> <Gold.PLP.ligand.torsion>
0.0824

> <Gold.PLP.Chemscore.Hbond>
3.5730

> <Gold.PLP.Chemscore.CHOScore>
0.4325

> <Gold.PLP.Chemscore.Metal>
0.0000

> <Gold.Chemscore.Hbonds>
donor molecule, donor type, donor heavy atom, donor atom, acceptor molecule, acceptor atom, score
      L1  H     7    25       P1  7948  0.95
      L1  H    10    26       P1  7948  0.59
      L1  H    15    33       P1  7921  0.98
      P1  H  6896  6907       L1     2  0.02
      P1  H 10752 10763       L1    19  1.00
      L1  C    18    38       P1  7948  0.19
      L1  C    18    38       P1  7949  0.23

> <Gold.PLP.Chemscore.Internal.Correction>
0.0036

> <Gold.Rescore>
     Score         DG    S(hbond)    S(metal)    S(lipo)     H(rot)  DE(clash)    DE(int)     intcor
     13.55     -15.50       1.67        0.00      76.73       1.77       0.61       1.33       ----

> <Gold.Chemscore.Fitness>
13.5534

> <Gold.Chemscore.DG>
-15.5025

> <Gold.Chemscore.ZeroCoef>
-5.4800

> <Gold.Chemscore.Hbond>
1.6705

> <Gold.Chemscore.Metal>
0.0000

> <Gold.Chemscore.Lipo>
76.7315

> <Gold.Chemscore.Internal_Hbond>
0.0000

> <Gold.Chemscore.DEClash>
0.6146

> <Gold.Chemscore.DEInternal>
1.3345

> <Gold.Chemscore.Rot>
1.7714

> <Gold.Chemscore.Internal.Correction>
   9.000000E+99

> <Gold.Chemscore.Hbonds>
donor molecule, donor type, donor heavy atom, donor atom, acceptor molecule, acceptor atom, score
      L1  H     7    25       P1  7948  0.20
      L1  H    10    26       P1  7948  0.35
      L1  H    15    33       P1  7921  0.88
      P1  H  6896  6907       L1     2  0.02
      P1  H 10752 10763       L1    19  0.12

> <Gold.Chemscore.Hbond.Weighted>
-5.5796

> <Gold.Chemscore.Metal.Weighted>
-0.0000

> <Gold.Chemscore.Lipo.Weighted>
-8.9776

> <Gold.Chemscore.Internal_Hbond.Weighted>
0.0000

> <Gold.Chemscore.DEClash.Weighted>
0.6146

> <Gold.Chemscore.DEInternal.Weighted>
1.3345

> <Gold.Chemscore.Rot.Weighted>
4.5347

> <Gold.Chemscore.Internal.Correction.Weighted>
   9.000000E+99

> <Gold.Protein.RotatedTorsions>
[ 6907 6896 6895 6894 ] final   93.45 input  -60.11 | X-H torsion
[ 7974 7965 7964 7962 ] final -158.22 input  175.53 | X-H torsion
[ 8008 7997 7996 7995 ] final  -88.91 input   59.86 | X-H torsion
[ 10167 10162 10161 10158 ] final  -50.27 input  -65.29 | X-H torsion
[ 10718 10713 10712 10709 ] final   62.71 input   66.30 | X-H torsion
[ 10763 10752 10751 10750 ] final   80.66 input  -60.55 | X-H torsion
[ 11005 11000 10999 10996 ] final  -49.59 input  -57.11 | X-H torsion

> <Gold.Protein.ActiveResidues>
 VAL166  LYS551  ARG553  GLY616  TRP617  ASP618  TYR619  PRO620  LYS621  CYS622 
 ASP623  PHE694  ASN695  SER759  ASP760  ASP761  ALA762  ILE779  LEU786  VAL792 
 PHE793  MET794  SER795  GLU796  ALA797  LYS798  CYS799  TRP800  GLU811  SER814 

> <Gold.Protein.RotatedAtoms>
  152.5452  134.1345  159.8452 H   0  0  0  0  0  0  0  0  0  0  0  0  # atno 6907 bound_to 6896
  151.1387  133.4979  159.2605 H   0  0  0  0  0  0  0  0  0  0  0  0  # atno 6908 bound_to 6896
  151.1596  135.0277  159.8759 H   0  0  0  0  0  0  0  0  0  0  0  0  # atno 6909 bound_to 6896
  144.7515  140.3858  143.6044 H   0  0  0  0  0  0  0  0  0  0  0  0  # atno 7974 bound_to 7965
  154.6804  140.0548  157.0260 H   0  0  0  0  0  0  0  0  0  0  0  0  # atno 8008 bound_to 7997
  155.0960  140.3224  155.4541 H   0  0  0  0  0  0  0  0  0  0  0  0  # atno 8009 bound_to 7997
  156.2692  140.2039  156.6086 H   0  0  0  0  0  0  0  0  0  0  0  0  # atno 8010 bound_to 7997
  140.6645  143.2664  151.4336 H   0  0  0  0  0  0  0  0  0  0  0  0  # atno 10167 bound_to 10162
  157.5920  130.9065  149.9622 H   0  0  0  0  0  0  0  0  0  0  0  0  # atno 10718 bound_to 10713
  153.1052  135.4794  154.8938 H   0  0  0  0  0  0  0  0  0  0  0  0  # atno 10763 bound_to 10752
  154.7422  135.3085  154.8710 H   0  0  0  0  0  0  0  0  0  0  0  0  # atno 10764 bound_to 10752
  153.9315  135.6844  153.4799 H   0  0  0  0  0  0  0  0  0  0  0  0  # atno 10765 bound_to 10752
  141.0768  133.6664  156.3608 H   0  0  0  0  0  0  0  0  0  0  0  0  # atno 11005 bound_to 11000
  145.6929  139.1643  143.2637 LP  0  0  0  0  0  0  0  0  0  0  0  0  # atno 17320 bound_to 7965
  146.1470  140.6978  142.9340 LP  0  0  0  0  0  0  0  0  0  0  0  0  # atno 17321 bound_to 7965
  139.5889  144.1542  152.2064 LP  0  0  0  0  0  0  0  0  0  0  0  0  # atno 17342 bound_to 10162
  140.0890  144.5636  150.7068 LP  0  0  0  0  0  0  0  0  0  0  0  0  # atno 17343 bound_to 10162
  156.0976  130.3658  150.0277 LP  0  0  0  0  0  0  0  0  0  0  0  0  # atno 17370 bound_to 10713
  156.8398  130.9422  151.3632 LP  0  0  0  0  0  0  0  0  0  0  0  0  # atno 17371 bound_to 10713
  140.5556  134.5984  157.5420 LP  0  0  0  0  0  0  0  0  0  0  0  0  # atno 17394 bound_to 11000
  139.9580  134.7501  156.0298 LP  0  0  0  0  0  0  0  0  0  0  0  0  # atno 17395 bound_to 11000

$$$$
