AV-unprocessed.smi:977|AV-procd|sdf|4304|dock2
  -GOLD-   22720 2213D 1   1.00000     0.00000
 Structure written by MMmdl.
 37 38  0  0  0  0  0  0  0  0  1 V2000
  147.5470  141.6110  153.7260 C   0  0  0  0  0  0  0  0  0  0  0  0
  148.7853  140.8398  154.0898 C   0  0  0  0  0  0  0  0  0  0  0  0
  149.7619  141.4595  154.7364 N   0  0  0  0  0  0  0  0  0  0  0  0
  150.8039  140.5301  154.8804 O   0  0  0  0  0  0  0  0  0  0  0  0
  150.4276  139.3556  154.3104 C   0  0  0  0  0  0  0  0  0  0  0  0
  151.4144  138.2377  154.3444 C   0  0  0  0  0  0  0  0  0  0  0  0
  149.1599  139.4893  153.8263 C   0  0  0  0  0  0  0  0  0  0  0  0
  148.4486  138.4740  153.1396 N   0  0  0  0  0  0  0  0  0  0  0  0
  147.1232  138.2690  153.1562 C   0  0  0  0  0  0  0  0  0  0  0  0
  146.3200  138.9208  153.8228 O   0  0  0  0  0  0  0  0  0  0  0  0
  146.7786  137.2449  152.3625 N   0  0  0  0  0  0  0  0  0  0  0  0
  145.4207  136.7459  152.1493 C   0  0  2  0  0  0  0  0  0  0  0  0
  144.8259  136.3448  153.5072 C   0  0  0  0  0  0  0  0  0  0  0  0
  145.4254  135.5660  151.1544 C   0  0  2  0  0  0  0  0  0  0  0  0
  144.0591  134.9283  150.8941 C   0  0  0  0  0  0  0  0  0  0  0  0
  144.4532  133.5577  150.3950 C   0  0  0  0  0  0  0  0  0  0  0  0
  145.6597  133.2373  151.2731 C   0  0  0  0  0  0  0  0  0  0  0  0
  146.2208  134.4925  151.6519 O   0  0  0  0  0  0  0  0  0  0  0  0
  147.1373  141.2746  152.7735 H   0  0  0  0  0  0  0  0  0  0  0  0
  147.7546  142.6772  153.6306 H   0  0  0  0  0  0  0  0  0  0  0  0
  146.7746  141.4926  154.4856 H   0  0  0  0  0  0  0  0  0  0  0  0
  151.1073  137.4229  153.6885 H   0  0  0  0  0  0  0  0  0  0  0  0
  151.5110  137.8406  155.3549 H   0  0  0  0  0  0  0  0  0  0  0  0
  152.3972  138.5792  154.0195 H   0  0  0  0  0  0  0  0  0  0  0  0
  149.0099  137.7896  152.6542 H   0  0  0  0  0  0  0  0  0  0  0  0
  147.5146  136.7712  151.8596 H   0  0  0  0  0  0  0  0  0  0  0  0
  144.7956  137.5417  151.7402 H   0  0  0  0  0  0  0  0  0  0  0  0
  143.7957  136.0041  153.4012 H   0  0  0  0  0  0  0  0  0  0  0  0
  144.8207  137.1888  154.1977 H   0  0  0  0  0  0  0  0  0  0  0  0
  145.3962  135.5386  153.9697 H   0  0  0  0  0  0  0  0  0  0  0  0
  145.8546  135.8817  150.2017 H   0  0  0  0  0  0  0  0  0  0  0  0
  143.4928  134.8377  151.8221 H   0  0  0  0  0  0  0  0  0  0  0  0
  143.4561  135.4858  150.1768 H   0  0  0  0  0  0  0  0  0  0  0  0
  143.6535  132.8217  150.4823 H   0  0  0  0  0  0  0  0  0  0  0  0
  144.7539  133.6147  149.3480 H   0  0  0  0  0  0  0  0  0  0  0  0
  145.3478  132.7129  152.1771 H   0  0  0  0  0  0  0  0  0  0  0  0
  146.3910  132.6157  150.7562 H   0  0  0  0  0  0  0  0  0  0  0  0
  1  2  1  0  0  0  0
  1 19  1  0  0  0  0
  1 20  1  0  0  0  0
  1 21  1  0  0  0  0
  2  7  1  0  0  0  0
  2  3  2  0  0  0  0
  3  4  1  0  0  0  0
  4  5  1  0  0  0  0
  5  6  1  0  0  0  0
  5  7  2  0  0  0  0
  6 22  1  0  0  0  0
  6 23  1  0  0  0  0
  6 24  1  0  0  0  0
  7  8  1  0  0  0  0
  8  9  1  0  0  0  0
  8 25  1  0  0  0  0
  9 10  2  0  0  0  0
  9 11  1  0  0  0  0
 11 12  1  0  0  0  0
 11 26  1  0  0  0  0
 12 13  1  0  0  0  0
 12 14  1  0  0  0  0
 12 27  1  0  0  0  0
 13 28  1  0  0  0  0
 13 29  1  0  0  0  0
 13 30  1  0  0  0  0
 14 18  1  0  0  0  0
 14 15  1  0  0  0  0
 14 31  1  0  0  0  0
 15 16  1  0  0  0  0
 15 32  1  0  0  0  0
 15 33  1  0  0  0  0
 16 17  1  0  0  0  0
 16 34  1  0  0  0  0
 16 35  1  0  0  0  0
 17 18  1  0  0  0  0
 17 36  1  0  0  0  0
 17 37  1  0  0  0  0
M  END
> <s_m_source_file>
AV-unprocessed.smi

> <i_m_source_file_index>
977

> <i_lp_mmshare_version>
43012

> <i_f3d_flags>
0

> <s_epik_input>
W0NIM11jMW5vYyhbQ0gzXSljMVtOSF1DKD1PKVtOSF1bQ0BIXShbQ0gzXSlbQ0BASF0yW0NIMl1bQ0gyXVtDSDJdTzI=

> <s_epik_cmdline>
J2VwaWtfcHl0aG9uJywgJy1waCcsICc3LjAnLCAnLXRuJywgJzgnLCAnLW1hJywgJzIwMCcsICctbWV0YWxfYmluZGluZycsICctaW1hZScsICc8aW5maWxlLm1hZT4nLCAnLW9tYWUnLCAnPG91dGZpbGUubWFlPic=

> <r_lp_tautomer_probability>
1

> <r_epik_Ionization_Penalty>
3.41601e-05

> <r_epik_Ionization_Penalty_Charging>
0

> <r_epik_Ionization_Penalty_Neutral>
3.41601e-05

> <r_epik_State_Penalty>
-0

> <r_epik_Charging_Adjusted_Penalty>
0

> <i_epik_Tot_Q>
0

> <i_epik_Tot_abs_Q>
0

> <r_epik_Metal_State_Penalty>
-0

> <b_epik_Metal_Only>
0

> <s_lp_Force_Field>
OPLS_2005

> <r_lp_Energy>
19.4667

> <b_lp_Chiralities_Consistent>
1

> <s_lp_Variant>
AV-unprocessed.smi:977-1

> <Gold.Version>
5.8.1

> <Gold.Id.Protein>
6NUR|6NUR_protein|mol2

> <Gold.PLP.Fitness>
38.9882

> <Gold.PLP.PLP>
-32.3911

> <Gold.PLP.part.hbond>
-4.5700

> <Gold.PLP.part.metal>
0.0000

> <Gold.PLP.part.buried>
-1.9582

> <Gold.PLP.part.nonpolar>
-26.5087

> <Gold.PLP.part.repulsive>
0.6473

> <Gold.PLP.ligand.clash>
0.0000

> <Gold.PLP.ligand.torsion>
0.2426

> <Gold.PLP.Chemscore.Hbond>
2.2640

> <Gold.PLP.Chemscore.CHOScore>
0.0000

> <Gold.PLP.Chemscore.Metal>
0.0000

> <Gold.Chemscore.Hbonds>
donor molecule, donor type, donor heavy atom, donor atom, acceptor molecule, acceptor atom, score
      L1  H     8    25       P1  7948  0.90
      L1  H    11    26       P1  7948  0.95
      P1  H  7989  7998       L1     4  0.41

> <Gold.PLP.Chemscore.Internal.Correction>
0.2903

> <Gold.Rescore>
     Score         DG    S(hbond)    S(metal)    S(lipo)     H(rot)  DE(clash)    DE(int)     intcor
     16.44     -16.97       1.89        0.00      71.05       1.22       0.13       0.40       ----

> <Gold.Chemscore.Fitness>
16.4355

> <Gold.Chemscore.DG>
-16.9663

> <Gold.Chemscore.ZeroCoef>
-5.4800

> <Gold.Chemscore.Hbond>
1.8852

> <Gold.Chemscore.Metal>
0.0000

> <Gold.Chemscore.Lipo>
71.0497

> <Gold.Chemscore.Internal_Hbond>
0.0000

> <Gold.Chemscore.DEClash>
0.1289

> <Gold.Chemscore.DEInternal>
0.4019

> <Gold.Chemscore.Rot>
1.2200

> <Gold.Chemscore.Internal.Correction>
   9.000000E+99

> <Gold.Chemscore.Hbonds>
donor molecule, donor type, donor heavy atom, donor atom, acceptor molecule, acceptor atom, score
      L1  H     8    25       P1  7948  0.88
      L1  H    11    26       P1  7948  0.86

> <Gold.Chemscore.Hbond.Weighted>
-6.2967

> <Gold.Chemscore.Metal.Weighted>
-0.0000

> <Gold.Chemscore.Lipo.Weighted>
-8.3128

> <Gold.Chemscore.Internal_Hbond.Weighted>
0.0000

> <Gold.Chemscore.DEClash.Weighted>
0.1289

> <Gold.Chemscore.DEInternal.Weighted>
0.4019

> <Gold.Chemscore.Rot.Weighted>
3.1232

> <Gold.Chemscore.Internal.Correction.Weighted>
   9.000000E+99

> <Gold.Protein.RotatedTorsions>
[ 6907 6896 6895 6894 ] final  -58.78 input  -60.11 | X-H torsion
[ 7974 7965 7964 7962 ] final   20.79 input  175.53 | X-H torsion
[ 8008 7997 7996 7995 ] final  -35.77 input   59.86 | X-H torsion
[ 10167 10162 10161 10158 ] final  -50.28 input  -65.29 | X-H torsion
[ 10718 10713 10712 10709 ] final   10.00 input   66.30 | X-H torsion
[ 10763 10752 10751 10750 ] final  -11.77 input  -60.55 | X-H torsion
[ 11005 11000 10999 10996 ] final   85.41 input  -57.11 | X-H torsion

> <Gold.Protein.ActiveResidues>
 VAL166  LYS551  ARG553  GLY616  TRP617  ASP618  TYR619  PRO620  LYS621  CYS622 
 ASP623  PHE694  ASN695  SER759  ASP760  ASP761  ALA762  ILE779  LEU786  VAL792 
 PHE793  MET794  SER795  GLU796  ALA797  LYS798  CYS799  TRP800  GLU811  SER814 

> <Gold.Protein.RotatedAtoms>
  150.7981  134.7054  159.6573 H   0  0  0  0  0  0  0  0  0  0  0  0  # atno 6907 bound_to 6896
  152.4095  134.6146  160.0044 H   0  0  0  0  0  0  0  0  0  0  0  0  # atno 6908 bound_to 6896
  151.6393  133.3290  159.3162 H   0  0  0  0  0  0  0  0  0  0  0  0  # atno 6909 bound_to 6896
  146.2097  139.8120  142.8698 H   0  0  0  0  0  0  0  0  0  0  0  0  # atno 7974 bound_to 7965
  154.4088  140.1648  156.2265 H   0  0  0  0  0  0  0  0  0  0  0  0  # atno 8008 bound_to 7997
  155.9319  140.3414  155.6233 H   0  0  0  0  0  0  0  0  0  0  0  0  # atno 8009 bound_to 7997
  155.7096  140.0755  157.2367 H   0  0  0  0  0  0  0  0  0  0  0  0  # atno 8010 bound_to 7997
  140.6645  143.2664  151.4337 H   0  0  0  0  0  0  0  0  0  0  0  0  # atno 10167 bound_to 10162
  156.9746  130.5982  149.5671 H   0  0  0  0  0  0  0  0  0  0  0  0  # atno 10718 bound_to 10713
  153.4886  135.7017  153.5897 H   0  0  0  0  0  0  0  0  0  0  0  0  # atno 10763 bound_to 10752
  153.4079  135.3856  155.2031 H   0  0  0  0  0  0  0  0  0  0  0  0  # atno 10764 bound_to 10752
  154.8718  135.3897  154.4344 H   0  0  0  0  0  0  0  0  0  0  0  0  # atno 10765 bound_to 10752
  139.8972  134.8285  156.2579 H   0  0  0  0  0  0  0  0  0  0  0  0  # atno 11005 bound_to 11000
  145.3186  141.0238  143.3513 LP  0  0  0  0  0  0  0  0  0  0  0  0  # atno 17320 bound_to 7965
  144.8883  139.4809  143.6690 LP  0  0  0  0  0  0  0  0  0  0  0  0  # atno 17321 bound_to 7965
  139.5889  144.1543  152.2064 LP  0  0  0  0  0  0  0  0  0  0  0  0  # atno 17342 bound_to 10162
  140.0891  144.5636  150.7067 LP  0  0  0  0  0  0  0  0  0  0  0  0  # atno 17343 bound_to 10162
  156.0269  130.5362  150.8430 LP  0  0  0  0  0  0  0  0  0  0  0  0  # atno 17370 bound_to 10713
  157.5568  131.0945  150.9616 LP  0  0  0  0  0  0  0  0  0  0  0  0  # atno 17371 bound_to 10713
  141.0182  133.7056  156.1223 LP  0  0  0  0  0  0  0  0  0  0  0  0  # atno 17394 bound_to 11000
  140.7272  134.4294  157.5569 LP  0  0  0  0  0  0  0  0  0  0  0  0  # atno 17395 bound_to 11000

$$$$
