AV-unprocessed.smi:1381|AV-procd|sdf|5608|dock3
  -GOLD-   22720 5213D 1   1.00000     0.00000
 Structure written by MMmdl.
 43 44  0  0  0  0  0  0  0  0  2 V2000
  150.6852  141.8120  157.7174 C   0  0  0  0  0  0  0  0  0  0  0  0
  150.4445  141.0611  156.4529 C   0  0  0  0  0  0  0  0  0  0  0  0
  149.3219  140.8259  155.7103 C   0  0  0  0  0  0  0  0  0  0  0  0
  149.8137  140.0366  154.6299 C   0  0  0  0  0  0  0  0  0  0  0  0
  149.0502  139.5133  153.5543 N   0  0  0  0  0  0  0  0  0  0  0  0
  147.7679  139.1123  153.5569 C   0  0  0  0  0  0  0  0  0  0  0  0
  147.0142  139.1331  154.5298 O   0  0  0  0  0  0  0  0  0  0  0  0
  147.3909  138.6797  152.3447 N   0  0  0  0  0  0  0  0  0  0  0  0
  146.0640  138.1723  152.0139 C   0  0  0  0  0  0  0  0  0  0  0  0
  146.1432  136.8996  151.1490 C   0  0  0  0  0  0  0  0  0  0  0  0
  146.3709  135.6763  151.9635 N   0  3  1  0  0  0  0  0  0  0  0  0
  145.6437  135.6798  153.2565 C   0  0  0  0  0  0  0  0  0  0  0  0
  144.1501  135.3479  153.0603 C   0  0  2  0  0  0  0  0  0  0  0  0
  143.3994  135.2622  154.3935 C   0  0  0  0  0  0  0  0  0  0  0  0
  144.0403  134.0867  152.4085 O   0  0  0  0  0  0  0  0  0  0  0  0
  144.6358  134.0775  151.1154 C   0  0  2  0  0  0  0  0  0  0  0  0
  144.3920  132.7004  150.4882 C   0  0  0  0  0  0  0  0  0  0  0  0
  146.1413  134.3958  151.2462 C   0  0  0  0  0  0  0  0  0  0  0  0
  151.1122  139.8138  154.7124 N   0  0  0  0  0  0  0  0  0  0  0  0
  151.5255  140.4678  155.8790 O   0  0  0  0  0  0  0  0  0  0  0  0
  149.8273  142.4357  157.9692 H   0  0  0  0  0  0  0  0  0  0  0  0
  151.5572  142.4595  157.6241 H   0  0  0  0  0  0  0  0  0  0  0  0
  150.8597  141.1254  158.5459 H   0  0  0  0  0  0  0  0  0  0  0  0
  148.3210  141.1697  155.9225 H   0  0  0  0  0  0  0  0  0  0  0  0
  149.5420  139.4404  152.6760 H   0  0  0  0  0  0  0  0  0  0  0  0
  148.0727  138.6951  151.6001 H   0  0  0  0  0  0  0  0  0  0  0  0
  145.5533  137.9716  152.9548 H   0  0  0  0  0  0  0  0  0  0  0  0
  145.4856  138.9454  151.5052 H   0  0  0  0  0  0  0  0  0  0  0  0
  145.1983  136.7911  150.6151 H   0  0  0  0  0  0  0  0  0  0  0  0
  146.9120  137.0045  150.3837 H   0  0  0  0  0  0  0  0  0  0  0  0
  146.1006  134.9312  153.9055 H   0  0  0  0  0  0  0  0  0  0  0  0
  145.7686  136.6375  153.7634 H   0  0  0  0  0  0  0  0  0  0  0  0
  143.6728  136.1138  152.4468 H   0  0  0  0  0  0  0  0  0  0  0  0
  143.4452  136.2095  154.9315 H   0  0  0  0  0  0  0  0  0  0  0  0
  143.8226  134.4905  155.0372 H   0  0  0  0  0  0  0  0  0  0  0  0
  142.3482  135.0222  154.2337 H   0  0  0  0  0  0  0  0  0  0  0  0
  144.1445  134.8244  150.4906 H   0  0  0  0  0  0  0  0  0  0  0  0
  144.8240  132.6419  149.4888 H   0  0  0  0  0  0  0  0  0  0  0  0
  143.3247  132.4957  150.4002 H   0  0  0  0  0  0  0  0  0  0  0  0
  144.8344  131.9066  151.0912 H   0  0  0  0  0  0  0  0  0  0  0  0
  146.6205  134.4013  150.2680 H   0  0  0  0  0  0  0  0  0  0  0  0
  146.6283  133.6022  151.8150 H   0  0  0  0  0  0  0  0  0  0  0  0
  147.3521  135.7016  152.2028 H   0  0  0  0  0  0  0  0  0  0  0  0
  1  2  1  0  0  0  0
  1 21  1  0  0  0  0
  1 22  1  0  0  0  0
  1 23  1  0  0  0  0
  2 20  1  0  0  0  0
  2  3  2  0  0  0  0
  3  4  1  0  0  0  0
  3 24  1  0  0  0  0
  4  5  1  0  0  0  0
  4 19  2  0  0  0  0
  5  6  1  0  0  0  0
  5 25  1  0  0  0  0
  6  7  2  0  0  0  0
  6  8  1  0  0  0  0
  8  9  1  0  0  0  0
  8 26  1  0  0  0  0
  9 10  1  0  0  0  0
  9 27  1  0  0  0  0
  9 28  1  0  0  0  0
 10 11  1  0  0  0  0
 10 29  1  0  0  0  0
 10 30  1  0  0  0  0
 11 18  1  0  0  0  0
 11 12  1  0  0  0  0
 11 43  1  0  0  0  0
 12 13  1  0  0  0  0
 12 31  1  0  0  0  0
 12 32  1  0  0  0  0
 13 14  1  0  0  0  0
 13 15  1  0  0  0  0
 13 33  1  0  0  0  0
 14 34  1  0  0  0  0
 14 35  1  0  0  0  0
 14 36  1  0  0  0  0
 15 16  1  0  0  0  0
 16 17  1  0  0  0  0
 16 18  1  0  0  0  0
 16 37  1  0  0  0  0
 17 38  1  0  0  0  0
 17 39  1  0  0  0  0
 17 40  1  0  0  0  0
 18 41  1  0  0  0  0
 18 42  1  0  0  0  0
 19 20  1  0  0  0  0
M  CHG  1  11   1
M  END
> <s_m_source_file>
AV-unprocessed.smi

> <i_m_source_file_index>
1381

> <i_lp_mmshare_version>
43012

> <i_f3d_flags>
0

> <s_epik_input>
W0NIM11jMVtjSF1jKG5vMSlbTkhdQyg9TylbTkhdW0NIMl1bQ0gyXU4yW0NIMl1bQ0BASF0oW0NIM10pT1tDQEBIXShbQ0gzXSlbQ0gyXTI=

> <s_epik_cmdline>
J2VwaWtfcHl0aG9uJywgJy1waCcsICc3LjAnLCAnLXRuJywgJzgnLCAnLW1hJywgJzIwMCcsICctbWV0YWxfYmluZGluZycsICctaW1hZScsICc8aW5maWxlLm1hZT4nLCAnLW9tYWUnLCAnPG91dGZpbGUubWFlPic=

> <r_epik_Ionization_Penalty>
0.707076

> <r_epik_Ionization_Penalty_Charging>
0.707039

> <r_epik_Ionization_Penalty_Neutral>
3.6548e-05

> <r_epik_State_Penalty>
0.730276

> <r_epik_Charging_Adjusted_Penalty>
1.43732

> <i_epik_Tot_Q>
1

> <i_epik_Tot_abs_Q>
1

> <r_epik_Metal_State_Penalty>
0.743132

> <b_epik_Metal_Only>
0

> <s_lp_Force_Field>
OPLS_2005

> <r_lp_Energy>
17.699

> <b_lp_Chiralities_Consistent>
1

> <s_lp_Variant>
AV-unprocessed.smi:1381-7

> <Gold.Version>
5.8.1

> <Gold.Id.Protein>
6NUR|6NUR_protein|mol2

> <Gold.PLP.Fitness>
43.3763

> <Gold.PLP.PLP>
-30.6333

> <Gold.PLP.part.hbond>
-5.4580

> <Gold.PLP.part.metal>
0.0000

> <Gold.PLP.part.buried>
-1.6358

> <Gold.PLP.part.nonpolar>
-24.1454

> <Gold.PLP.part.repulsive>
0.5648

> <Gold.PLP.ligand.clash>
0.0000

> <Gold.PLP.ligand.torsion>
0.5858

> <Gold.PLP.Chemscore.Hbond>
4.6320

> <Gold.PLP.Chemscore.CHOScore>
0.0000

> <Gold.PLP.Chemscore.Metal>
0.0000

> <Gold.Chemscore.Hbonds>
donor molecule, donor type, donor heavy atom, donor atom, acceptor molecule, acceptor atom, score
      L1  H     5    25       P1  7957  0.88
      L1  H     8    26       P1  7957  0.63
      L1  H    11    43       P1  7948  1.95
      P1  H  7989  7998       L1    19  0.95

> <Gold.PLP.Chemscore.Internal.Correction>
0.0186

> <Gold.Rescore>
     Score         DG    S(hbond)    S(metal)    S(lipo)     H(rot)  DE(clash)    DE(int)     intcor
     17.53     -19.81       3.53        0.00      57.01       1.61       1.05       1.23       ----

> <Gold.Chemscore.Fitness>
17.5309

> <Gold.Chemscore.DG>
-19.8114

> <Gold.Chemscore.ZeroCoef>
-5.4800

> <Gold.Chemscore.Hbond>
3.5263

> <Gold.Chemscore.Metal>
0.0000

> <Gold.Chemscore.Lipo>
57.0118

> <Gold.Chemscore.Internal_Hbond>
0.0000

> <Gold.Chemscore.DEClash>
1.0545

> <Gold.Chemscore.DEInternal>
1.2260

> <Gold.Chemscore.Rot>
1.6081

> <Gold.Chemscore.Internal.Correction>
   9.000000E+99

> <Gold.Chemscore.Hbonds>
donor molecule, donor type, donor heavy atom, donor atom, acceptor molecule, acceptor atom, score
      L1  H     5    25       P1  7957  0.86
      L1  H     8    26       P1  7957  0.39
      L1  H    11    43       P1  7948  0.93
      P1  H  7989  7998       L1    19  0.09

> <Gold.Chemscore.Hbond.Weighted>
-11.7777

> <Gold.Chemscore.Metal.Weighted>
-0.0000

> <Gold.Chemscore.Lipo.Weighted>
-6.6704

> <Gold.Chemscore.Internal_Hbond.Weighted>
0.0000

> <Gold.Chemscore.DEClash.Weighted>
1.0545

> <Gold.Chemscore.DEInternal.Weighted>
1.2260

> <Gold.Chemscore.Rot.Weighted>
4.1167

> <Gold.Chemscore.Internal.Correction.Weighted>
   9.000000E+99

> <Gold.Protein.RotatedTorsions>
[ 6907 6896 6895 6894 ] final    9.73 input  -60.11 | X-H torsion
[ 7974 7965 7964 7962 ] final   70.58 input  175.53 | X-H torsion
[ 8008 7997 7996 7995 ] final  -65.82 input   59.86 | X-H torsion
[ 10167 10162 10161 10158 ] final  -75.56 input  -65.29 | X-H torsion
[ 10718 10713 10712 10709 ] final  -10.56 input   66.30 | X-H torsion
[ 10763 10752 10751 10750 ] final   91.45 input  -60.55 | X-H torsion
[ 11005 11000 10999 10996 ] final -128.43 input  -57.11 | X-H torsion

> <Gold.Protein.ActiveResidues>
 VAL166  LYS551  ARG553  GLY616  TRP617  ASP618  TYR619  PRO620  LYS621  CYS622 
 ASP623  PHE694  ASN695  SER759  ASP760  ASP761  ALA762  ILE779  LEU786  VAL792 
 PHE793  MET794  SER795  GLU796  ALA797  LYS798  CYS799  TRP800  GLU811  SER814 

> <Gold.Protein.RotatedAtoms>
  151.7269  135.0883  160.0293 H   0  0  0  0  0  0  0  0  0  0  0  0  # atno 6907 bound_to 6896
  152.3566  133.6240  159.5992 H   0  0  0  0  0  0  0  0  0  0  0  0  # atno 6908 bound_to 6896
  150.7575  133.9407  159.3496 H   0  0  0  0  0  0  0  0  0  0  0  0  # atno 6909 bound_to 6896
  145.7764  139.2867  143.1291 H   0  0  0  0  0  0  0  0  0  0  0  0  # atno 7974 bound_to 7965
  154.4695  140.0925  156.7108 H   0  0  0  0  0  0  0  0  0  0  0  0  # atno 8008 bound_to 7997
  155.4763  140.3466  155.4315 H   0  0  0  0  0  0  0  0  0  0  0  0  # atno 8009 bound_to 7997
  156.1015  140.1423  156.9450 H   0  0  0  0  0  0  0  0  0  0  0  0  # atno 8010 bound_to 7997
  140.4932  143.2376  151.7873 H   0  0  0  0  0  0  0  0  0  0  0  0  # atno 10167 bound_to 10162
  156.6717  130.5011  149.5998 H   0  0  0  0  0  0  0  0  0  0  0  0  # atno 10718 bound_to 10713
  153.2084  135.4397  155.0350 H   0  0  0  0  0  0  0  0  0  0  0  0  # atno 10763 bound_to 10752
  154.8186  135.3327  154.7107 H   0  0  0  0  0  0  0  0  0  0  0  0  # atno 10764 bound_to 10752
  153.7546  135.6996  153.4994 H   0  0  0  0  0  0  0  0  0  0  0  0  # atno 10765 bound_to 10752
  140.9517  134.1057  157.4056 H   0  0  0  0  0  0  0  0  0  0  0  0  # atno 11005 bound_to 11000
  146.0118  140.8428  142.9967 LP  0  0  0  0  0  0  0  0  0  0  0  0  # atno 17320 bound_to 7965
  144.6804  140.2502  143.7332 LP  0  0  0  0  0  0  0  0  0  0  0  0  # atno 17321 bound_to 7965
  139.4855  144.4622  151.9528 LP  0  0  0  0  0  0  0  0  0  0  0  0  # atno 17342 bound_to 10162
  140.3709  144.2857  150.5920 LP  0  0  0  0  0  0  0  0  0  0  0  0  # atno 17343 bound_to 10162
  156.1934  130.6574  151.1086 LP  0  0  0  0  0  0  0  0  0  0  0  0  # atno 17370 bound_to 10713
  157.7075  131.0750  150.6617 LP  0  0  0  0  0  0  0  0  0  0  0  0  # atno 17371 bound_to 10713
  139.8849  135.0067  156.6402 LP  0  0  0  0  0  0  0  0  0  0  0  0  # atno 17394 bound_to 11000
  140.7593  133.8831  155.8406 LP  0  0  0  0  0  0  0  0  0  0  0  0  # atno 17395 bound_to 11000

$$$$
