AV-unprocessed.smi:1809|AV-procd|sdf|7332|dock7
  -GOLD-   22720 8593D 1   1.00000     0.00000
 Structure written by MMmdl.
 38 40  0  0  0  0  0  0  0  0  2 V2000
  148.8115  141.1053  154.4743 C   0  0  0  0  0  0  0  0  0  0  0  0
  149.7629  139.9613  154.5614 C   0  0  0  0  0  0  0  0  0  0  0  0
  151.0774  140.1266  154.7277 N   0  0  0  0  0  0  0  0  0  0  0  0
  151.7542  138.9163  154.7785 N   0  0  0  0  0  0  0  0  0  0  0  0
  150.9430  137.8552  154.6611 C   0  0  0  0  0  0  0  0  0  0  0  0
  151.4002  136.5922  154.6800 N   0  5  0  0  0  0  0  0  0  0  0  0
  150.6553  135.6117  155.2397 C   0  0  0  0  0  0  0  0  0  0  0  0
  150.6962  135.2432  156.4161 O   0  0  0  0  0  0  0  0  0  0  0  0
  149.8090  135.0216  154.3858 N   0  0  0  0  0  0  0  0  0  0  0  0
  148.8918  133.9415  154.7260 C   0  0  0  0  0  0  0  0  0  0  0  0
  148.2974  133.3114  153.4589 C   0  0  1  0  0  0  0  0  0  0  0  0
  147.7964  131.8710  153.7146 C   0  0  0  0  0  0  0  0  0  0  0  0
  147.1285  131.3615  152.5320 N   0  0  0  0  0  0  0  0  0  0  0  0
  146.5281  130.0518  152.6328 C   0  0  0  0  0  0  0  0  0  0  0  0
  145.5783  129.9767  151.4240 C   0  0  0  0  0  0  0  0  0  0  0  0
  145.3366  131.4516  151.0314 C   0  0  0  0  0  0  0  0  0  0  0  0
  146.0376  132.2187  152.1538 C   0  0  2  0  0  0  0  0  0  0  0  0
  146.5424  133.6348  151.8435 C   0  0  0  0  0  0  0  0  0  0  0  0
  147.2075  134.1276  153.0088 O   0  0  0  0  0  0  0  0  0  0  0  0
  149.2455  138.2872  154.4557 S   0  0  0  0  0  0  0  0  0  0  0  0
  148.6418  141.5245  155.4661 H   0  0  0  0  0  0  0  0  0  0  0  0
  147.8566  140.7737  154.0661 H   0  0  0  0  0  0  0  0  0  0  0  0
  149.2154  141.8839  153.8269 H   0  0  0  0  0  0  0  0  0  0  0  0
  149.7980  135.3513  153.4317 H   0  0  0  0  0  0  0  0  0  0  0  0
  149.4352  133.1875  155.2972 H   0  0  0  0  0  0  0  0  0  0  0  0
  148.0946  134.3207  155.3672 H   0  0  0  0  0  0  0  0  0  0  0  0
  149.0607  133.2884  152.6789 H   0  0  0  0  0  0  0  0  0  0  0  0
  148.6326  131.2224  153.9774 H   0  0  0  0  0  0  0  0  0  0  0  0
  147.1095  131.8632  154.5624 H   0  0  0  0  0  0  0  0  0  0  0  0
  147.2797  129.2621  152.6274 H   0  0  0  0  0  0  0  0  0  0  0  0
  145.9569  129.9699  153.5591 H   0  0  0  0  0  0  0  0  0  0  0  0
  146.0403  129.4357  150.5975 H   0  0  0  0  0  0  0  0  0  0  0  0
  144.6514  129.4642  151.6835 H   0  0  0  0  0  0  0  0  0  0  0  0
  145.8014  131.6657  150.0680 H   0  0  0  0  0  0  0  0  0  0  0  0
  144.2776  131.7015  150.9609 H   0  0  0  0  0  0  0  0  0  0  0  0
  145.3394  132.2889  152.9907 H   0  0  0  0  0  0  0  0  0  0  0  0
  147.2281  133.6341  150.9947 H   0  0  0  0  0  0  0  0  0  0  0  0
  145.7122  134.2958  151.5939 H   0  0  0  0  0  0  0  0  0  0  0  0
  1  2  1  0  0  0  0
  1 21  1  0  0  0  0
  1 22  1  0  0  0  0
  1 23  1  0  0  0  0
  2 20  1  0  0  0  0
  2  3  2  0  0  0  0
  3  4  1  0  0  0  0
  4  5  2  0  0  0  0
  5  6  1  0  0  0  0
  5 20  1  0  0  0  0
  6  7  1  0  0  0  0
  7  8  2  0  0  0  0
  7  9  1  0  0  0  0
  9 10  1  0  0  0  0
  9 24  1  0  0  0  0
 10 11  1  0  0  0  0
 10 25  1  0  0  0  0
 10 26  1  0  0  0  0
 11 19  1  0  0  0  0
 11 12  1  0  0  0  0
 11 27  1  0  0  0  0
 12 13  1  0  0  0  0
 12 28  1  0  0  0  0
 12 29  1  0  0  0  0
 13 17  1  0  0  0  0
 13 14  1  0  0  0  0
 14 15  1  0  0  0  0
 14 30  1  0  0  0  0
 14 31  1  0  0  0  0
 15 16  1  0  0  0  0
 15 32  1  0  0  0  0
 15 33  1  0  0  0  0
 16 17  1  0  0  0  0
 16 34  1  0  0  0  0
 16 35  1  0  0  0  0
 17 18  1  0  0  0  0
 17 36  1  0  0  0  0
 18 19  1  0  0  0  0
 18 37  1  0  0  0  0
 18 38  1  0  0  0  0
M  CHG  1   6  -1
M  END
> <s_m_source_file>
AV-unprocessed.smi

> <i_m_source_file_index>
1809

> <i_lp_mmshare_version>
43012

> <i_f3d_flags>
0

> <s_epik_input>
W0NIM11jMW5uYyhzMSlbTkhdQyg9TylbTkhdW0NIMl1bQ0BIXShbQ0gyXTIpT1tDSDJdW0NAQEhdKE4yMylbQ0gyXVtDSDJdW0NIMl0z

> <s_epik_cmdline>
J2VwaWtfcHl0aG9uJywgJy1waCcsICc3LjAnLCAnLXRuJywgJzgnLCAnLW1hJywgJzIwMCcsICctbWV0YWxfYmluZGluZycsICctaW1hZScsICc8aW5maWxlLm1hZT4nLCAnLW9tYWUnLCAnPG91dGZpbGUubWFlPic=

> <r_lp_tautomer_probability>
1

> <r_epik_Ionization_Penalty>
4.48809

> <r_epik_Ionization_Penalty_Charging>
3.27284

> <r_epik_Ionization_Penalty_Neutral>
1.21525

> <r_epik_State_Penalty>
4.69427

> <r_epik_Charging_Adjusted_Penalty>
7.96711

> <i_epik_Tot_Q>
-1

> <i_epik_Tot_abs_Q>
1

> <r_epik_Metal_State_Penalty>
1.91976

> <b_epik_Metal_Only>
1

> <s_lp_Force_Field>
OPLS_2005

> <r_lp_Energy>
45.7242

> <b_lp_Chiralities_Consistent>
1

> <s_lp_Variant>
AV-unprocessed.smi:1809-24

> <Gold.Version>
5.8.1

> <Gold.Id.Protein>
6NUR|6NUR_protein|mol2

> <Gold.PLP.Fitness>
41.5752

> <Gold.PLP.PLP>
-33.9256

> <Gold.PLP.part.hbond>
-3.0889

> <Gold.PLP.part.metal>
0.0000

> <Gold.PLP.part.buried>
-6.6822

> <Gold.PLP.part.nonpolar>
-26.3757

> <Gold.PLP.part.repulsive>
2.5711

> <Gold.PLP.ligand.clash>
0.0000

> <Gold.PLP.ligand.torsion>
1.2871

> <Gold.PLP.Chemscore.Hbond>
3.4000

> <Gold.PLP.Chemscore.CHOScore>
0.0000

> <Gold.PLP.Chemscore.Metal>
0.0000

> <Gold.Chemscore.Hbonds>
donor molecule, donor type, donor heavy atom, donor atom, acceptor molecule, acceptor atom, score
      L1  H     9    24       P1  7948  0.35
      P1  H  7989  7998       L1     3  1.00
      P1  H 10752 10764       L1     6  1.70

> <Gold.PLP.Chemscore.Internal.Correction>
0.0238

> <Gold.Rescore>
     Score         DG    S(hbond)    S(metal)    S(lipo)     H(rot)  DE(clash)    DE(int)     intcor
     14.74     -16.25       1.78        0.00      69.84       1.31       0.26       1.25       ----

> <Gold.Chemscore.Fitness>
14.7411

> <Gold.Chemscore.DG>
-16.2493

> <Gold.Chemscore.ZeroCoef>
-5.4800

> <Gold.Chemscore.Hbond>
1.7781

> <Gold.Chemscore.Metal>
0.0000

> <Gold.Chemscore.Lipo>
69.8423

> <Gold.Chemscore.Internal_Hbond>
0.0000

> <Gold.Chemscore.DEClash>
0.2623

> <Gold.Chemscore.DEInternal>
1.2459

> <Gold.Chemscore.Rot>
1.3051

> <Gold.Chemscore.Internal.Correction>
   9.000000E+99

> <Gold.Chemscore.Hbonds>
donor molecule, donor type, donor heavy atom, donor atom, acceptor molecule, acceptor atom, score
      L1  H     9    24       P1  7948  0.01
      P1  H  7989  7998       L1     3  0.36
      P1  H 10752 10764       L1     6  0.15

> <Gold.Chemscore.Hbond.Weighted>
-5.9389

> <Gold.Chemscore.Metal.Weighted>
-0.0000

> <Gold.Chemscore.Lipo.Weighted>
-8.1715

> <Gold.Chemscore.Internal_Hbond.Weighted>
0.0000

> <Gold.Chemscore.DEClash.Weighted>
0.2623

> <Gold.Chemscore.DEInternal.Weighted>
1.2459

> <Gold.Chemscore.Rot.Weighted>
3.3412

> <Gold.Chemscore.Internal.Correction.Weighted>
   9.000000E+99

> <Gold.Protein.RotatedTorsions>
[ 6907 6896 6895 6894 ] final  113.25 input  -60.11 | X-H torsion
[ 7974 7965 7964 7962 ] final  154.66 input  175.53 | X-H torsion
[ 8008 7997 7996 7995 ] final  165.23 input   59.86 | X-H torsion
[ 10167 10162 10161 10158 ] final   28.55 input  -65.29 | X-H torsion
[ 10718 10713 10712 10709 ] final  -25.96 input   66.30 | X-H torsion
[ 10763 10752 10751 10750 ] final  -66.34 input  -60.55 | X-H torsion
[ 11005 11000 10999 10996 ] final  -25.81 input  -57.11 | X-H torsion

> <Gold.Protein.ActiveResidues>
 VAL166  LYS551  ARG553  GLY616  TRP617  ASP618  TYR619  PRO620  LYS621  CYS622 
 ASP623  PHE694  ASN695  SER759  ASP760  ASP761  ALA762  ILE779  LEU786  VAL792 
 PHE793  MET794  SER795  GLU796  ALA797  LYS798  CYS799  TRP800  GLU811  SER814 

> <Gold.Protein.RotatedAtoms>
  152.4871  133.8402  159.7148 H   0  0  0  0  0  0  0  0  0  0  0  0  # atno 6907 bound_to 6896
  150.8968  133.7162  159.2896 H   0  0  0  0  0  0  0  0  0  0  0  0  # atno 6908 bound_to 6896
  151.4616  135.1042  159.9778 H   0  0  0  0  0  0  0  0  0  0  0  0  # atno 6909 bound_to 6896
  144.8074  139.6963  143.6156 H   0  0  0  0  0  0  0  0  0  0  0  0  # atno 7974 bound_to 7965
  156.1817  140.1676  156.8261 H   0  0  0  0  0  0  0  0  0  0  0  0  # atno 8008 bound_to 7997
  154.5368  140.0745  156.8474 H   0  0  0  0  0  0  0  0  0  0  0  0  # atno 8009 bound_to 7997
  155.3295  140.3378  155.4242 H   0  0  0  0  0  0  0  0  0  0  0  0  # atno 8010 bound_to 7997
  140.4843  144.0568  150.6275 H   0  0  0  0  0  0  0  0  0  0  0  0  # atno 10167 bound_to 10162
  156.4575  130.4497  149.6950 H   0  0  0  0  0  0  0  0  0  0  0  0  # atno 10718 bound_to 10713
  154.3584  135.6121  153.5678 H   0  0  0  0  0  0  0  0  0  0  0  0  # atno 10763 bound_to 10752
  152.9794  135.5809  154.4661 H   0  0  0  0  0  0  0  0  0  0  0  0  # atno 10764 bound_to 10752
  154.4395  135.2850  155.1835 H   0  0  0  0  0  0  0  0  0  0  0  0  # atno 10765 bound_to 10752
  140.8972  133.7548  156.0497 H   0  0  0  0  0  0  0  0  0  0  0  0  # atno 11005 bound_to 11000
  146.2368  139.5921  142.9518 LP  0  0  0  0  0  0  0  0  0  0  0  0  # atno 17320 bound_to 7965
  145.5404  141.0421  143.2333 LP  0  0  0  0  0  0  0  0  0  0  0  0  # atno 17321 bound_to 7965
  140.3818  143.2798  152.0161 LP  0  0  0  0  0  0  0  0  0  0  0  0  # atno 17342 bound_to 10162
  139.4839  144.6148  151.7366 LP  0  0  0  0  0  0  0  0  0  0  0  0  # atno 17343 bound_to 10162
  156.3752  130.7551  151.2538 LP  0  0  0  0  0  0  0  0  0  0  0  0  # atno 17370 bound_to 10713
  157.7500  131.0312  150.4169 LP  0  0  0  0  0  0  0  0  0  0  0  0  # atno 17371 bound_to 10713
  140.8275  134.3218  157.5360 LP  0  0  0  0  0  0  0  0  0  0  0  0  # atno 17394 bound_to 11000
  139.8737  134.9344  156.3606 LP  0  0  0  0  0  0  0  0  0  0  0  0  # atno 17395 bound_to 11000

$$$$
