AV-unprocessed.smi:725|AV-procd|sdf|3509|dock7
  -GOLD-   22720 0503D 1   1.00000     0.00000
 Structure written by MMmdl.
 47 48  0  0  0  0  0  0  0  0  1 V2000
  152.9983  142.9546  161.9285 C   0  0  0  0  0  0  0  0  0  0  0  0
  152.7298  143.0233  160.4210 C   0  0  0  0  0  0  0  0  0  0  0  0
  152.1335  144.3797  159.9943 C   0  0  0  0  0  0  0  0  0  0  0  0
  151.2156  144.3597  158.7458 C   0  0  2  0  0  0  0  0  0  0  0  0
  151.9824  143.9496  157.4698 C   0  0  0  0  0  0  0  0  0  0  0  0
  150.7147  145.6713  158.5669 O   0  0  0  0  0  0  0  0  0  0  0  0
  149.9964  143.4476  159.0386 C   0  0  0  0  0  0  0  0  0  0  0  0
  149.1286  143.2419  157.8801 N   0  0  0  0  0  0  0  0  0  0  0  0
  148.1529  142.3238  157.7825 C   0  0  0  0  0  0  0  0  0  0  0  0
  147.8652  141.5354  158.6836 O   0  0  0  0  0  0  0  0  0  0  0  0
  147.3944  142.3384  156.4812 C   0  0  0  0  0  0  0  0  0  0  0  0
  146.2372  143.1435  156.3648 C   0  0  0  0  0  0  0  0  0  0  0  0
  145.5494  143.2000  155.1402 C   0  0  0  0  0  0  0  0  0  0  0  0
  146.0500  142.4512  154.0623 C   0  0  0  0  0  0  0  0  0  0  0  0
  147.1526  141.6808  154.1500 N   0  0  0  0  0  0  0  0  0  0  0  0
  147.8228  141.6154  155.3278 C   0  0  0  0  0  0  0  0  0  0  0  0
  148.9428  140.7604  155.3670 N   0  0  0  0  0  0  0  0  0  0  0  0
  150.2304  141.3522  155.7162 C   0  0  0  0  0  0  0  0  0  0  0  0
  151.2692  140.2415  155.9474 C   0  0  0  0  0  0  0  0  0  0  0  0
  151.3454  139.4105  154.7921 O   0  0  0  0  0  0  0  0  0  0  0  0
  150.1011  138.7787  154.5030 C   0  0  0  0  0  0  0  0  0  0  0  0
  149.0280  139.8472  154.2339 C   0  0  0  0  0  0  0  0  0  0  0  0
  153.4155  141.9862  162.2050 H   0  0  0  0  0  0  0  0  0  0  0  0
  152.0802  143.0963  162.4990 H   0  0  0  0  0  0  0  0  0  0  0  0
  153.7077  143.7226  162.2379 H   0  0  0  0  0  0  0  0  0  0  0  0
  153.6626  142.8379  159.8883 H   0  0  0  0  0  0  0  0  0  0  0  0
  152.0531  142.2121  160.1546 H   0  0  0  0  0  0  0  0  0  0  0  0
  151.5768  144.7919  160.8369 H   0  0  0  0  0  0  0  0  0  0  0  0
  152.9548  145.0755  159.8160 H   0  0  0  0  0  0  0  0  0  0  0  0
  152.3836  142.9401  157.5628 H   0  0  0  0  0  0  0  0  0  0  0  0
  152.8154  144.6198  157.2609 H   0  0  0  0  0  0  0  0  0  0  0  0
  151.3461  143.9714  156.5852 H   0  0  0  0  0  0  0  0  0  0  0  0
  151.4329  146.2360  158.3263 H   0  0  0  0  0  0  0  0  0  0  0  0
  150.3417  142.4841  159.4171 H   0  0  0  0  0  0  0  0  0  0  0  0
  149.3908  143.8741  159.8392 H   0  0  0  0  0  0  0  0  0  0  0  0
  149.2778  143.8542  157.0914 H   0  0  0  0  0  0  0  0  0  0  0  0
  145.8785  143.7257  157.2014 H   0  0  0  0  0  0  0  0  0  0  0  0
  144.6642  143.8084  155.0285 H   0  0  0  0  0  0  0  0  0  0  0  0
  145.5524  142.4703  153.1040 H   0  0  0  0  0  0  0  0  0  0  0  0
  150.5662  142.0079  154.9115 H   0  0  0  0  0  0  0  0  0  0  0  0
  150.1276  141.9623  156.6144 H   0  0  0  0  0  0  0  0  0  0  0  0
  152.2498  140.6774  156.1378 H   0  0  0  0  0  0  0  0  0  0  0  0
  151.0101  139.6425  156.8221 H   0  0  0  0  0  0  0  0  0  0  0  0
  150.2218  138.1386  153.6292 H   0  0  0  0  0  0  0  0  0  0  0  0
  149.8071  138.1339  155.3330 H   0  0  0  0  0  0  0  0  0  0  0  0
  148.0666  139.3683  154.0477 H   0  0  0  0  0  0  0  0  0  0  0  0
  149.2809  140.4144  153.3371 H   0  0  0  0  0  0  0  0  0  0  0  0
  1  2  1  0  0  0  0
  1 23  1  0  0  0  0
  1 24  1  0  0  0  0
  1 25  1  0  0  0  0
  2  3  1  0  0  0  0
  2 26  1  0  0  0  0
  2 27  1  0  0  0  0
  3  4  1  0  0  0  0
  3 28  1  0  0  0  0
  3 29  1  0  0  0  0
  4  5  1  0  0  0  0
  4  6  1  0  0  0  0
  4  7  1  0  0  0  0
  5 30  1  0  0  0  0
  5 31  1  0  0  0  0
  5 32  1  0  0  0  0
  6 33  1  0  0  0  0
  7  8  1  0  0  0  0
  7 34  1  0  0  0  0
  7 35  1  0  0  0  0
  8  9  1  0  0  0  0
  8 36  1  0  0  0  0
  9 10  2  0  0  0  0
  9 11  1  0  0  0  0
 11 16  1  0  0  0  0
 11 12  2  0  0  0  0
 12 13  1  0  0  0  0
 12 37  1  0  0  0  0
 13 14  2  0  0  0  0
 13 38  1  0  0  0  0
 14 15  1  0  0  0  0
 14 39  1  0  0  0  0
 15 16  2  0  0  0  0
 16 17  1  0  0  0  0
 17 22  1  0  0  0  0
 17 18  1  0  0  0  0
 18 19  1  0  0  0  0
 18 40  1  0  0  0  0
 18 41  1  0  0  0  0
 19 20  1  0  0  0  0
 19 42  1  0  0  0  0
 19 43  1  0  0  0  0
 20 21  1  0  0  0  0
 21 22  1  0  0  0  0
 21 44  1  0  0  0  0
 21 45  1  0  0  0  0
 22 46  1  0  0  0  0
 22 47  1  0  0  0  0
M  END
> <s_m_source_file>
AV-unprocessed.smi

> <i_m_source_file_index>
725

> <i_lp_mmshare_version>
43012

> <i_f3d_flags>
0

> <s_epik_input>
W0NIM11bQ0gyXVtDSDJdW0NAQF0oW0NIM10pKFtPSF0pW0NIMl1bTkhdQyg9TyljMVtjSF1bY0hdW2NIXW5jMU4yW0NIMl1bQ0gyXU9bQ0gyXVtDSDJdMg==

> <s_epik_cmdline>
J2VwaWtfcHl0aG9uJywgJy1waCcsICc3LjAnLCAnLXRuJywgJzgnLCAnLW1hJywgJzIwMCcsICctbWV0YWxfYmluZGluZycsICctaW1hZScsICc8aW5maWxlLm1hZT4nLCAnLW9tYWUnLCAnPG91dGZpbGUubWFlPic=

> <r_lp_tautomer_probability>
1

> <r_epik_Ionization_Penalty>
1.23446e-05

> <r_epik_Ionization_Penalty_Charging>
0

> <r_epik_Ionization_Penalty_Neutral>
1.23446e-05

> <r_epik_State_Penalty>
-0

> <r_epik_Charging_Adjusted_Penalty>
0

> <i_epik_Tot_Q>
0

> <i_epik_Tot_abs_Q>
0

> <r_epik_Metal_State_Penalty>
-0

> <b_epik_Metal_Only>
0

> <s_lp_Force_Field>
OPLS_2005

> <r_lp_Energy>
29.6434

> <b_lp_Chiralities_Consistent>
1

> <s_lp_Variant>
AV-unprocessed.smi:725-2

> <Gold.Version>
5.8.1

> <Gold.Id.Protein>
6NUR|6NUR_protein|mol2

> <Gold.PLP.Fitness>
46.4893

> <Gold.PLP.PLP>
-44.2008

> <Gold.PLP.part.hbond>
-7.0661

> <Gold.PLP.part.metal>
0.0000

> <Gold.PLP.part.buried>
0.9698

> <Gold.PLP.part.nonpolar>
-38.8970

> <Gold.PLP.part.repulsive>
0.4147

> <Gold.PLP.ligand.clash>
0.0000

> <Gold.PLP.ligand.torsion>
1.9935

> <Gold.PLP.Chemscore.Hbond>
1.9890

> <Gold.PLP.Chemscore.CHOScore>
0.0000

> <Gold.PLP.Chemscore.Metal>
0.0000

> <Gold.Chemscore.Hbonds>
donor molecule, donor type, donor heavy atom, donor atom, acceptor molecule, acceptor atom, score
      L1  H     8    36       P1  8028  1.00
      P1  H  6934  6946       L1    10  0.04
      P1  H  7989  7998       L1    20  0.85

> <Gold.PLP.Chemscore.Internal.Correction>
0.3085

> <Gold.Rescore>
     Score         DG    S(hbond)    S(metal)    S(lipo)     H(rot)  DE(clash)    DE(int)     intcor
     11.05     -13.80       0.45        0.00     106.33       2.19       0.72       2.03       ----

> <Gold.Chemscore.Fitness>
11.0478

> <Gold.Chemscore.DG>
-13.7991

> <Gold.Chemscore.ZeroCoef>
-5.4800

> <Gold.Chemscore.Hbond>
0.4473

> <Gold.Chemscore.Metal>
0.0000

> <Gold.Chemscore.Lipo>
106.3262

> <Gold.Chemscore.Internal_Hbond>
0.0000

> <Gold.Chemscore.DEClash>
0.7191

> <Gold.Chemscore.DEInternal>
2.0322

> <Gold.Chemscore.Rot>
2.1933

> <Gold.Chemscore.Internal.Correction>
   9.000000E+99

> <Gold.Chemscore.Hbonds>
donor molecule, donor type, donor heavy atom, donor atom, acceptor molecule, acceptor atom, score
      L1  H     8    36       P1  8028  0.49
      P1  H  6934  6946       L1    10  0.05
      P1  H  7989  7998       L1    20  0.10

> <Gold.Chemscore.Hbond.Weighted>
-1.4938

> <Gold.Chemscore.Metal.Weighted>
-0.0000

> <Gold.Chemscore.Lipo.Weighted>
-12.4402

> <Gold.Chemscore.Internal_Hbond.Weighted>
0.0000

> <Gold.Chemscore.DEClash.Weighted>
0.7191

> <Gold.Chemscore.DEInternal.Weighted>
2.0322

> <Gold.Chemscore.Rot.Weighted>
5.6149

> <Gold.Chemscore.Internal.Correction.Weighted>
   9.000000E+99

> <Gold.Protein.RotatedTorsions>
[ 6907 6896 6895 6894 ] final -104.83 input  -60.11 | X-H torsion
[ 7974 7965 7964 7962 ] final   75.33 input  175.53 | X-H torsion
[ 8008 7997 7996 7995 ] final  -41.83 input   59.86 | X-H torsion
[ 10167 10162 10161 10158 ] final   14.45 input  -65.29 | X-H torsion
[ 10718 10713 10712 10709 ] final  100.95 input   66.30 | X-H torsion
[ 10763 10752 10751 10750 ] final   29.68 input  -60.55 | X-H torsion
[ 11005 11000 10999 10996 ] final   38.31 input  -57.11 | X-H torsion

> <Gold.Protein.ActiveResidues>
 VAL166  LYS551  ARG553  GLY616  TRP617  ASP618  TYR619  PRO620  LYS621  CYS622 
 ASP623  PHE694  ASN695  SER759  ASP760  ASP761  ALA762  ILE779  LEU786  VAL792 
 PHE793  MET794  SER795  GLU796  ALA797  LYS798  CYS799  TRP800  GLU811  SER814 

> <Gold.Protein.RotatedAtoms>
  150.7306  134.0219  159.3703 H   0  0  0  0  0  0  0  0  0  0  0  0  # atno 6907 bound_to 6896
  151.8184  135.0657  160.0431 H   0  0  0  0  0  0  0  0  0  0  0  0  # atno 6908 bound_to 6896
  152.3021  133.5630  159.5662 H   0  0  0  0  0  0  0  0  0  0  0  0  # atno 6909 bound_to 6896
  145.7170  139.2635  143.1618 H   0  0  0  0  0  0  0  0  0  0  0  0  # atno 7974 bound_to 7965
  154.4002  140.1489  156.3255 H   0  0  0  0  0  0  0  0  0  0  0  0  # atno 8008 bound_to 7997
  155.8491  140.3458  155.5660 H   0  0  0  0  0  0  0  0  0  0  0  0  # atno 8009 bound_to 7997
  155.8004  140.0869  157.1951 H   0  0  0  0  0  0  0  0  0  0  0  0  # atno 8010 bound_to 7997
  140.5934  143.8749  150.6895 H   0  0  0  0  0  0  0  0  0  0  0  0  # atno 10167 bound_to 10162
  157.6841  131.0713  150.5179 H   0  0  0  0  0  0  0  0  0  0  0  0  # atno 10718 bound_to 10713
  153.0416  135.6483  154.0928 H   0  0  0  0  0  0  0  0  0  0  0  0  # atno 10763 bound_to 10752
  154.0634  135.2886  155.3322 H   0  0  0  0  0  0  0  0  0  0  0  0  # atno 10764 bound_to 10752
  154.6642  135.5380  153.8121 H   0  0  0  0  0  0  0  0  0  0  0  0  # atno 10765 bound_to 10752
  140.2138  134.3722  155.8036 H   0  0  0  0  0  0  0  0  0  0  0  0  # atno 11005 bound_to 11000
  146.0660  140.7920  142.9711 LP  0  0  0  0  0  0  0  0  0  0  0  0  # atno 17320 bound_to 7965
  144.6926  140.3270  143.7222 LP  0  0  0  0  0  0  0  0  0  0  0  0  # atno 17321 bound_to 7965
  140.2277  143.3759  152.1591 LP  0  0  0  0  0  0  0  0  0  0  0  0  # atno 17342 bound_to 10162
  139.5242  144.7081  151.5291 LP  0  0  0  0  0  0  0  0  0  0  0  0  # atno 17343 bound_to 10162
  156.5493  130.4227  149.6115 LP  0  0  0  0  0  0  0  0  0  0  0  0  # atno 17370 bound_to 10713
  156.2916  130.7127  151.1978 LP  0  0  0  0  0  0  0  0  0  0  0  0  # atno 17371 bound_to 10713
  141.2225  133.7157  156.8463 LP  0  0  0  0  0  0  0  0  0  0  0  0  # atno 17394 bound_to 11000
  140.1922  134.8957  157.3073 LP  0  0  0  0  0  0  0  0  0  0  0  0  # atno 17395 bound_to 11000

$$$$
