AV-unprocessed.smi:1087|AV-procd|sdf|4725|dock1
  -GOLD-   22720 3253D 1   1.00000     0.00000
 Structure written by MMmdl.
 47 48  0  0  0  0  0  0  0  0  2 V2000
  145.7897  131.9817  150.2194 C   0  0  0  0  0  0  0  0  0  0  0  0
  145.2251  132.8803  151.1583 O   0  0  0  0  0  0  0  0  0  0  0  0
  145.9146  134.1181  151.2077 C   0  0  0  0  0  0  0  0  0  0  0  0
  145.8714  134.6559  152.6466 C   0  0  0  0  0  0  0  0  0  0  0  0
  146.3419  136.0614  152.7461 N   0  3  2  0  0  0  0  0  0  0  0  0
  146.0119  136.6701  154.0606 C   0  0  0  0  0  0  0  0  0  0  0  0
  146.6259  138.0735  154.1959 C   0  0  0  0  0  0  0  0  0  0  0  0
  146.1677  138.9974  153.0556 C   0  0  1  0  0  0  0  0  0  0  0  0
  146.7838  140.4073  153.1920 C   0  0  0  0  0  0  0  0  0  0  0  0
  148.2354  140.3686  153.3316 N   0  0  0  0  0  0  0  0  0  0  0  0
  148.8988  140.4008  154.4968 C   0  0  0  0  0  0  0  0  0  0  0  0
  148.3384  140.4031  155.5935 O   0  0  0  0  0  0  0  0  0  0  0  0
  150.4299  140.4325  154.4035 C   0  0  0  0  0  0  0  0  0  0  0  0
  151.0719  140.6535  155.7094 N   0  0  0  0  0  0  0  0  0  0  0  0
  150.7107  141.8066  156.4262 C   0  0  0  0  0  0  0  0  0  0  0  0
  151.2601  142.0754  157.6194 C   0  0  0  0  0  0  0  0  0  0  0  0
  152.2443  141.1065  158.1183 C   0  0  0  0  0  0  0  0  0  0  0  0
  152.5782  140.0559  157.4662 N   0  0  0  0  0  0  0  0  0  0  0  0
  152.0012  139.7767  156.2130 C   0  0  0  0  0  0  0  0  0  0  0  0
  152.3215  138.7709  155.5782 O   0  0  0  0  0  0  0  0  0  0  0  0
  146.4955  138.3260  151.7073 C   0  0  0  0  0  0  0  0  0  0  0  0
  145.8838  136.9180  151.6201 C   0  0  0  0  0  0  0  0  0  0  0  0
  145.2258  131.0489  150.2197 H   0  0  0  0  0  0  0  0  0  0  0  0
  146.8254  131.7484  150.4702 H   0  0  0  0  0  0  0  0  0  0  0  0
  145.7582  132.3936  149.2099 H   0  0  0  0  0  0  0  0  0  0  0  0
  146.9383  134.0045  150.8511 H   0  0  0  0  0  0  0  0  0  0  0  0
  145.4251  134.8316  150.5433 H   0  0  0  0  0  0  0  0  0  0  0  0
  144.8613  134.5794  153.0516 H   0  0  0  0  0  0  0  0  0  0  0  0
  146.4985  134.0119  153.2647 H   0  0  0  0  0  0  0  0  0  0  0  0
  144.9280  136.7195  154.1788 H   0  0  0  0  0  0  0  0  0  0  0  0
  146.3905  136.0383  154.8650 H   0  0  0  0  0  0  0  0  0  0  0  0
  146.3457  138.5025  155.1588 H   0  0  0  0  0  0  0  0  0  0  0  0
  147.7142  137.9969  154.1971 H   0  0  0  0  0  0  0  0  0  0  0  0
  145.0831  139.0935  153.1273 H   0  0  0  0  0  0  0  0  0  0  0  0
  146.5177  141.0239  152.3319 H   0  0  0  0  0  0  0  0  0  0  0  0
  146.3752  140.9103  154.0691 H   0  0  0  0  0  0  0  0  0  0  0  0
  148.7760  140.3525  152.4789 H   0  0  0  0  0  0  0  0  0  0  0  0
  150.7622  139.4924  153.9616 H   0  0  0  0  0  0  0  0  0  0  0  0
  150.7454  141.2082  153.7030 H   0  0  0  0  0  0  0  0  0  0  0  0
  149.9805  142.4443  155.9499 H   0  0  0  0  0  0  0  0  0  0  0  0
  151.0300  142.9432  158.2194 H   0  0  0  0  0  0  0  0  0  0  0  0
  152.6795  141.3420  159.0929 H   0  0  0  0  0  0  0  0  0  0  0  0
  146.1186  138.9275  150.8796 H   0  0  0  0  0  0  0  0  0  0  0  0
  147.5768  138.2644  151.5768 H   0  0  0  0  0  0  0  0  0  0  0  0
  146.1634  136.4747  150.6652 H   0  0  0  0  0  0  0  0  0  0  0  0
  144.7944  136.9839  151.6299 H   0  0  0  0  0  0  0  0  0  0  0  0
  147.3504  136.0259  152.6992 H   0  0  0  0  0  0  0  0  0  0  0  0
  1  2  1  0  0  0  0
  1 23  1  0  0  0  0
  1 24  1  0  0  0  0
  1 25  1  0  0  0  0
  2  3  1  0  0  0  0
  3  4  1  0  0  0  0
  3 26  1  0  0  0  0
  3 27  1  0  0  0  0
  4  5  1  0  0  0  0
  4 28  1  0  0  0  0
  4 29  1  0  0  0  0
  5 22  1  0  0  0  0
  5  6  1  0  0  0  0
  5 47  1  0  0  0  0
  6  7  1  0  0  0  0
  6 30  1  0  0  0  0
  6 31  1  0  0  0  0
  7  8  1  0  0  0  0
  7 32  1  0  0  0  0
  7 33  1  0  0  0  0
  8  9  1  0  0  0  0
  8 21  1  0  0  0  0
  8 34  1  0  0  0  0
  9 10  1  0  0  0  0
  9 35  1  0  0  0  0
  9 36  1  0  0  0  0
 10 11  1  0  0  0  0
 10 37  1  0  0  0  0
 11 12  2  0  0  0  0
 11 13  1  0  0  0  0
 13 14  1  0  0  0  0
 13 38  1  0  0  0  0
 13 39  1  0  0  0  0
 14 19  1  0  0  0  0
 14 15  1  0  0  0  0
 15 16  2  0  0  0  0
 15 40  1  0  0  0  0
 16 17  1  0  0  0  0
 16 41  1  0  0  0  0
 17 18  2  0  0  0  0
 17 42  1  0  0  0  0
 18 19  1  0  0  0  0
 19 20  2  0  0  0  0
 21 22  1  0  0  0  0
 21 43  1  0  0  0  0
 21 44  1  0  0  0  0
 22 45  1  0  0  0  0
 22 46  1  0  0  0  0
M  CHG  1   5   1
M  END
> <s_m_source_file>
AV-unprocessed.smi

> <i_m_source_file_index>
1087

> <i_lp_mmshare_version>
43012

> <i_f3d_flags>
0

> <s_epik_input>
W0NIM11PW0NIMl1bQ0gyXU4xW0NIMl1bQ0gyXVtDSF0oW0NIMl1bQ0gyXTEpW0NIMl1bTkhdQyg9TylbQ0gyXW4yW2NIXVtjSF1bY0hdbmMyPU8=

> <s_epik_cmdline>
J2VwaWtfcHl0aG9uJywgJy1waCcsICc3LjAnLCAnLXRuJywgJzgnLCAnLW1hJywgJzIwMCcsICctbWV0YWxfYmluZGluZycsICctaW1hZScsICc8aW5maWxlLm1hZT4nLCAnLW9tYWUnLCAnPG91dGZpbGUubWFlPic=

> <r_lp_tautomer_probability>
1

> <r_epik_Ionization_Penalty>
0.00982698

> <r_epik_Ionization_Penalty_Charging>
0.00982062

> <r_epik_Ionization_Penalty_Neutral>
6.35787e-06

> <r_epik_State_Penalty>
0.00747828

> <r_epik_Charging_Adjusted_Penalty>
0.0172989

> <i_epik_Tot_Q>
1

> <i_epik_Tot_abs_Q>
1

> <r_epik_Metal_State_Penalty>
0.00747829

> <b_epik_Metal_Only>
0

> <s_lp_Force_Field>
OPLS_2005

> <r_lp_Energy>
21.8948

> <b_lp_Chiralities_Consistent>
1

> <s_lp_Variant>
AV-unprocessed.smi:1087-1

> <Gold.Version>
5.8.1

> <Gold.Id.Protein>
6NUR|6NUR_protein|mol2

> <Gold.PLP.Fitness>
46.0964

> <Gold.PLP.PLP>
-32.3074

> <Gold.PLP.part.hbond>
-3.0000

> <Gold.PLP.part.metal>
0.0000

> <Gold.PLP.part.buried>
5.5295

> <Gold.PLP.part.nonpolar>
-35.7022

> <Gold.PLP.part.repulsive>
0.3129

> <Gold.PLP.ligand.clash>
0.0000

> <Gold.PLP.ligand.torsion>
0.6744

> <Gold.PLP.Chemscore.Hbond>
3.9342

> <Gold.PLP.Chemscore.CHOScore>
0.9847

> <Gold.PLP.Chemscore.Metal>
0.0000

> <Gold.Chemscore.Hbonds>
donor molecule, donor type, donor heavy atom, donor atom, acceptor molecule, acceptor atom, score
      L1  H     5    47       P1  7948  2.00
      L1  H    10    37       P1  7957  1.00
      P1  H  7997  8009       L1    18  0.93
      L1  C    15    40       P1  8028  0.97

> <Gold.PLP.Chemscore.Internal.Correction>
0.3814

> <Gold.Rescore>
     Score         DG    S(hbond)    S(metal)    S(lipo)     H(rot)  DE(clash)    DE(int)     intcor
     11.73     -16.73       2.23        0.00      86.15       2.45       2.88       2.13       ----

> <Gold.Chemscore.Fitness>
11.7317

> <Gold.Chemscore.DG>
-16.7344

> <Gold.Chemscore.ZeroCoef>
-5.4800

> <Gold.Chemscore.Hbond>
2.2260

> <Gold.Chemscore.Metal>
0.0000

> <Gold.Chemscore.Lipo>
86.1520

> <Gold.Chemscore.Internal_Hbond>
0.0000

> <Gold.Chemscore.DEClash>
2.8772

> <Gold.Chemscore.DEInternal>
2.1255

> <Gold.Chemscore.Rot>
2.4454

> <Gold.Chemscore.Internal.Correction>
   9.000000E+99

> <Gold.Chemscore.Hbonds>
donor molecule, donor type, donor heavy atom, donor atom, acceptor molecule, acceptor atom, score
      L1  H     5    47       P1  7948  0.97
      L1  H    10    37       P1  7957  0.98
      P1  H  7997  8009       L1    18  0.16

> <Gold.Chemscore.Hbond.Weighted>
-7.4349

> <Gold.Chemscore.Metal.Weighted>
-0.0000

> <Gold.Chemscore.Lipo.Weighted>
-10.0798

> <Gold.Chemscore.Internal_Hbond.Weighted>
0.0000

> <Gold.Chemscore.DEClash.Weighted>
2.8772

> <Gold.Chemscore.DEInternal.Weighted>
2.1255

> <Gold.Chemscore.Rot.Weighted>
6.2603

> <Gold.Chemscore.Internal.Correction.Weighted>
   9.000000E+99

> <Gold.Protein.RotatedTorsions>
[ 6907 6896 6895 6894 ] final   91.26 input  -60.11 | X-H torsion
[ 7974 7965 7964 7962 ] final   75.04 input  175.53 | X-H torsion
[ 8008 7997 7996 7995 ] final  161.09 input   59.86 | X-H torsion
[ 10167 10162 10161 10158 ] final  110.74 input  -65.29 | X-H torsion
[ 10718 10713 10712 10709 ] final   71.96 input   66.30 | X-H torsion
[ 10763 10752 10751 10750 ] final  168.93 input  -60.55 | X-H torsion
[ 11005 11000 10999 10996 ] final  -29.73 input  -57.11 | X-H torsion

> <Gold.Protein.ActiveResidues>
 VAL166  LYS551  ARG553  GLY616  TRP617  ASP618  TYR619  PRO620  LYS621  CYS622 
 ASP623  PHE694  ASN695  SER759  ASP760  ASP761  ALA762  ILE779  LEU786  VAL792 
 PHE793  MET794  SER795  GLU796  ALA797  LYS798  CYS799  TRP800  GLU811  SER814 

> <Gold.Protein.RotatedAtoms>
  152.5449  134.1684  159.8586 H   0  0  0  0  0  0  0  0  0  0  0  0  # atno 6907 bound_to 6896
  151.1697  133.4785  159.2601 H   0  0  0  0  0  0  0  0  0  0  0  0  # atno 6908 bound_to 6896
  151.1288  135.0130  159.8628 H   0  0  0  0  0  0  0  0  0  0  0  0  # atno 6909 bound_to 6896
  145.7207  139.2647  143.1598 H   0  0  0  0  0  0  0  0  0  0  0  0  # atno 7974 bound_to 7965
  156.2127  140.1786  156.7658 H   0  0  0  0  0  0  0  0  0  0  0  0  # atno 8008 bound_to 7997
  154.5746  140.0676  156.9044 H   0  0  0  0  0  0  0  0  0  0  0  0  # atno 8009 bound_to 7997
  155.2611  140.3336  155.4275 H   0  0  0  0  0  0  0  0  0  0  0  0  # atno 8010 bound_to 7997
  139.6665  144.7127  151.1767 H   0  0  0  0  0  0  0  0  0  0  0  0  # atno 10167 bound_to 10162
  157.6477  130.9554  150.0862 H   0  0  0  0  0  0  0  0  0  0  0  0  # atno 10718 bound_to 10713
  154.3757  135.2753  155.2240 H   0  0  0  0  0  0  0  0  0  0  0  0  # atno 10763 bound_to 10752
  154.4368  135.5964  153.6107 H   0  0  0  0  0  0  0  0  0  0  0  0  # atno 10764 bound_to 10752
  152.9836  135.6009  154.3994 H   0  0  0  0  0  0  0  0  0  0  0  0  # atno 10765 bound_to 10752
  140.9322  133.7331  156.0953 H   0  0  0  0  0  0  0  0  0  0  0  0  # atno 11005 bound_to 11000
  146.0629  140.7952  142.9726 LP  0  0  0  0  0  0  0  0  0  0  0  0  # atno 17320 bound_to 7965
  144.6917  140.3224  143.7230 LP  0  0  0  0  0  0  0  0  0  0  0  0  # atno 17321 bound_to 7965
  140.7601  143.5911  150.8795 LP  0  0  0  0  0  0  0  0  0  0  0  0  # atno 17342 bound_to 10162
  139.9573  143.6203  152.3012 LP  0  0  0  0  0  0  0  0  0  0  0  0  # atno 17343 bound_to 10162
  156.1824  130.3650  149.9018 LP  0  0  0  0  0  0  0  0  0  0  0  0  # atno 17370 bound_to 10713
  156.6967  130.8917  151.3594 LP  0  0  0  0  0  0  0  0  0  0  0  0  # atno 17371 bound_to 10713
  140.7847  134.3685  157.5479 LP  0  0  0  0  0  0  0  0  0  0  0  0  # atno 17394 bound_to 11000
  139.8799  134.9103  156.3012 LP  0  0  0  0  0  0  0  0  0  0  0  0  # atno 17395 bound_to 11000

$$$$
