AV-unprocessed.smi:1047|AV-procd|sdf|4573|dock9
  -GOLD-   22720 3 33D 1   1.00000     0.00000
 Structure written by MMmdl.
 56 58  0  0  0  0  0  0  0  0  2 V2000
  143.4393  132.4289  151.1370 C   0  0  0  0  0  0  0  0  0  0  0  0
  144.7534  132.1307  151.8725 C   0  0  0  0  0  0  0  0  0  0  0  0
  144.8396  132.8174  153.1888 N   0  3  2  0  0  0  0  0  0  0  0  0
  144.5807  134.2757  153.1119 C   0  0  0  0  0  0  0  0  0  0  0  0
  145.8096  135.0305  152.5742 C   0  0  0  0  0  0  0  0  0  0  0  0
  146.9370  134.7454  153.3937 O   0  0  0  0  0  0  0  0  0  0  0  0
  147.2814  133.3638  153.3916 C   0  0  1  0  0  0  0  0  0  0  0  0
  148.5480  133.2006  154.2457 C   0  0  0  0  0  0  0  0  0  0  0  0
  149.4457  134.3412  154.0904 N   0  0  0  0  0  0  0  0  0  0  0  0
  149.4321  135.2508  155.2318 C   0  0  0  0  0  0  0  0  0  0  0  0
  150.1620  136.5681  154.9083 C   0  0  2  0  0  0  0  0  0  0  0  0
  151.3848  136.2562  154.2708 O   0  0  0  0  0  0  0  0  0  0  0  0
  150.4568  137.4257  156.1583 C   0  0  0  0  0  0  0  0  0  0  0  0
  150.4833  138.8563  155.8947 N   0  0  0  0  0  0  0  0  0  0  0  0
  150.0405  139.4860  154.7889 C   0  0  0  0  0  0  0  0  0  0  0  0
  150.1605  140.8097  154.7512 N   0  0  0  0  0  0  0  0  0  0  0  0
  150.7597  141.0699  155.9714 C   0  0  0  0  0  0  0  0  0  0  0  0
  151.1620  142.2925  156.5522 C   0  0  0  0  0  0  0  0  0  0  0  0
  151.7666  142.3240  157.8289 C   0  0  0  0  0  0  0  0  0  0  0  0
  152.1844  143.6610  158.4154 C   0  0  0  0  0  0  0  0  0  0  0  0
  151.9765  141.1184  158.5453 C   0  0  0  0  0  0  0  0  0  0  0  0
  152.6246  141.1272  159.9184 C   0  0  0  0  0  0  0  0  0  0  0  0
  151.5800  139.8885  157.9799 C   0  0  0  0  0  0  0  0  0  0  0  0
  150.9784  139.8698  156.7092 C   0  0  0  0  0  0  0  0  0  0  0  0
  146.0876  132.5548  153.9504 C   0  0  0  0  0  0  0  0  0  0  0  0
  143.4557  131.9967  150.1364 H   0  0  0  0  0  0  0  0  0  0  0  0
  143.2821  133.5023  151.0289 H   0  0  0  0  0  0  0  0  0  0  0  0
  142.5752  132.0108  151.6525 H   0  0  0  0  0  0  0  0  0  0  0  0
  144.8911  131.0554  151.9818 H   0  0  0  0  0  0  0  0  0  0  0  0
  145.5702  132.4792  151.2394 H   0  0  0  0  0  0  0  0  0  0  0  0
  143.7004  134.4810  152.5016 H   0  0  0  0  0  0  0  0  0  0  0  0
  144.3479  134.6364  154.1145 H   0  0  0  0  0  0  0  0  0  0  0  0
  146.0177  134.7640  151.5371 H   0  0  0  0  0  0  0  0  0  0  0  0
  145.6253  136.1047  152.5933 H   0  0  0  0  0  0  0  0  0  0  0  0
  147.5090  133.0621  152.3679 H   0  0  0  0  0  0  0  0  0  0  0  0
  148.2597  133.1110  155.2937 H   0  0  0  0  0  0  0  0  0  0  0  0
  149.0591  132.2731  153.9844 H   0  0  0  0  0  0  0  0  0  0  0  0
  149.2150  134.8516  153.2437 H   0  0  0  0  0  0  0  0  0  0  0  0
  148.3954  135.4775  155.4842 H   0  0  0  0  0  0  0  0  0  0  0  0
  149.8670  134.7752  156.1121 H   0  0  0  0  0  0  0  0  0  0  0  0
  149.5618  137.1665  154.2213 H   0  0  0  0  0  0  0  0  0  0  0  0
  151.2457  136.2630  153.3359 H   0  0  0  0  0  0  0  0  0  0  0  0
  149.7168  137.2296  156.9353 H   0  0  0  0  0  0  0  0  0  0  0  0
  151.4218  137.1410  156.5800 H   0  0  0  0  0  0  0  0  0  0  0  0
  149.6007  138.9414  153.9661 H   0  0  0  0  0  0  0  0  0  0  0  0
  151.0025  143.2104  156.0057 H   0  0  0  0  0  0  0  0  0  0  0  0
  153.2542  143.6697  158.6246 H   0  0  0  0  0  0  0  0  0  0  0  0
  151.6473  143.8549  159.3441 H   0  0  0  0  0  0  0  0  0  0  0  0
  151.9721  144.4810  157.7288 H   0  0  0  0  0  0  0  0  0  0  0  0
  152.6913  140.1211  160.3330 H   0  0  0  0  0  0  0  0  0  0  0  0
  152.0442  141.7362  160.6116 H   0  0  0  0  0  0  0  0  0  0  0  0
  153.6346  141.5335  159.8610 H   0  0  0  0  0  0  0  0  0  0  0  0
  151.7338  138.9630  158.5151 H   0  0  0  0  0  0  0  0  0  0  0  0
  145.9130  132.8425  154.9881 H   0  0  0  0  0  0  0  0  0  0  0  0
  146.3145  131.4898  153.9707 H   0  0  0  0  0  0  0  0  0  0  0  0
  144.0831  132.4316  153.7358 H   0  0  0  0  0  0  0  0  0  0  0  0
  1  2  1  0  0  0  0
  1 26  1  0  0  0  0
  1 27  1  0  0  0  0
  1 28  1  0  0  0  0
  2  3  1  0  0  0  0
  2 29  1  0  0  0  0
  2 30  1  0  0  0  0
  3 25  1  0  0  0  0
  3  4  1  0  0  0  0
  3 56  1  0  0  0  0
  4  5  1  0  0  0  0
  4 31  1  0  0  0  0
  4 32  1  0  0  0  0
  5  6  1  0  0  0  0
  5 33  1  0  0  0  0
  5 34  1  0  0  0  0
  6  7  1  0  0  0  0
  7  8  1  0  0  0  0
  7 25  1  0  0  0  0
  7 35  1  0  0  0  0
  8  9  1  0  0  0  0
  8 36  1  0  0  0  0
  8 37  1  0  0  0  0
  9 10  1  0  0  0  0
  9 38  1  0  0  0  0
 10 11  1  0  0  0  0
 10 39  1  0  0  0  0
 10 40  1  0  0  0  0
 11 12  1  0  0  0  0
 11 13  1  0  0  0  0
 11 41  1  0  0  0  0
 12 42  1  0  0  0  0
 13 14  1  0  0  0  0
 13 43  1  0  0  0  0
 13 44  1  0  0  0  0
 14 24  1  0  0  0  0
 14 15  1  0  0  0  0
 15 16  2  0  0  0  0
 15 45  1  0  0  0  0
 16 17  1  0  0  0  0
 17 24  2  0  0  0  0
 17 18  1  0  0  0  0
 18 19  2  0  0  0  0
 18 46  1  0  0  0  0
 19 20  1  0  0  0  0
 19 21  1  0  0  0  0
 20 47  1  0  0  0  0
 20 48  1  0  0  0  0
 20 49  1  0  0  0  0
 21 22  1  0  0  0  0
 21 23  2  0  0  0  0
 22 50  1  0  0  0  0
 22 51  1  0  0  0  0
 22 52  1  0  0  0  0
 23 24  1  0  0  0  0
 23 53  1  0  0  0  0
 25 54  1  0  0  0  0
 25 55  1  0  0  0  0
M  CHG  1   3   1
M  END
> <s_m_source_file>
AV-unprocessed.smi

> <i_m_source_file_index>
1047

> <i_lp_mmshare_version>
43012

> <i_f3d_flags>
0

> <s_epik_input>
W0NIM11bQ0gyXU4xW0NIMl1bQ0gyXU9bQ0BIXShbQ0gyXTEpW0NIMl1bTkhdW0NIMl1bQ0BIXShbT0hdKVtDSDJdbihbY0hdbjIpYyhjMjMpW2NIXWMoW0NIM10pYyhbY0hdMylbQ0gzXQ==

> <s_epik_cmdline>
J2VwaWtfcHl0aG9uJywgJy1waCcsICc3LjAnLCAnLXRuJywgJzgnLCAnLW1hJywgJzIwMCcsICctbWV0YWxfYmluZGluZycsICctaW1hZScsICc8aW5maWxlLm1hZT4nLCAnLW9tYWUnLCAnPG91dGZpbGUubWFlPic=

> <r_epik_Ionization_Penalty>
1.19246

> <r_epik_Ionization_Penalty_Charging>
0.210041

> <r_epik_Ionization_Penalty_Neutral>
0.982415

> <r_epik_State_Penalty>
1.57595

> <r_epik_Charging_Adjusted_Penalty>
1.78599

> <i_epik_Tot_Q>
1

> <i_epik_Tot_abs_Q>
1

> <r_epik_Metal_State_Penalty>
1.46172

> <b_epik_Metal_Only>
0

> <s_lp_Force_Field>
OPLS_2005

> <r_lp_Energy>
32.195

> <b_lp_Chiralities_Consistent>
1

> <s_lp_Variant>
AV-unprocessed.smi:1047-14

> <Gold.Version>
5.8.1

> <Gold.Id.Protein>
6NUR|6NUR_protein|mol2

> <Gold.PLP.Fitness>
55.1151

> <Gold.PLP.PLP>
-41.4982

> <Gold.PLP.part.hbond>
-5.0000

> <Gold.PLP.part.metal>
0.0000

> <Gold.PLP.part.buried>
-5.5600

> <Gold.PLP.part.nonpolar>
-32.4799

> <Gold.PLP.part.repulsive>
2.1954

> <Gold.PLP.ligand.clash>
0.0000

> <Gold.PLP.ligand.torsion>
1.2569

> <Gold.PLP.Chemscore.Hbond>
5.2120

> <Gold.PLP.Chemscore.CHOScore>
0.1140

> <Gold.PLP.Chemscore.Metal>
0.0000

> <Gold.Chemscore.Hbonds>
donor molecule, donor type, donor heavy atom, donor atom, acceptor molecule, acceptor atom, score
      L1  H     3    56       P1 10957  2.00
      L1  H     9    38       P1  7948  0.60
      L1  H    12    42       P1  7949  1.00
      P1  H  7989  7998       L1    16  0.71
      P1  H 10752 10765       L1    12  1.00

> <Gold.PLP.Chemscore.Internal.Correction>
0.1528

> <Gold.Rescore>
     Score         DG    S(hbond)    S(metal)    S(lipo)     H(rot)  DE(clash)    DE(int)     intcor
     17.07     -19.51       2.45        0.00     107.37       2.62       0.08       2.37       ----

> <Gold.Chemscore.Fitness>
17.0653

> <Gold.Chemscore.DG>
-19.5134

> <Gold.Chemscore.ZeroCoef>
-5.4800

> <Gold.Chemscore.Hbond>
2.4492

> <Gold.Chemscore.Metal>
0.0000

> <Gold.Chemscore.Lipo>
107.3725

> <Gold.Chemscore.Internal_Hbond>
0.0000

> <Gold.Chemscore.DEClash>
0.0805

> <Gold.Chemscore.DEInternal>
2.3677

> <Gold.Chemscore.Rot>
2.6209

> <Gold.Chemscore.Internal.Correction>
   9.000000E+99

> <Gold.Chemscore.Hbonds>
donor molecule, donor type, donor heavy atom, donor atom, acceptor molecule, acceptor atom, score
      L1  H     3    56       P1 10957  0.35
      L1  H     9    38       P1  7948  0.04
      L1  H    12    42       P1  7949  0.55
      P1  H  7989  7998       L1    16  0.06
      P1  H 10752 10765       L1    12  0.60

> <Gold.Chemscore.Hbond.Weighted>
-8.1804

> <Gold.Chemscore.Metal.Weighted>
-0.0000

> <Gold.Chemscore.Lipo.Weighted>
-12.5626

> <Gold.Chemscore.Internal_Hbond.Weighted>
0.0000

> <Gold.Chemscore.DEClash.Weighted>
0.0805

> <Gold.Chemscore.DEInternal.Weighted>
2.3677

> <Gold.Chemscore.Rot.Weighted>
6.7096

> <Gold.Chemscore.Internal.Correction.Weighted>
   9.000000E+99

> <Gold.Protein.RotatedTorsions>
[ 6907 6896 6895 6894 ] final  -28.62 input  -60.11 | X-H torsion
[ 7974 7965 7964 7962 ] final -170.69 input  175.53 | X-H torsion
[ 8008 7997 7996 7995 ] final  122.63 input   59.86 | X-H torsion
[ 10167 10162 10161 10158 ] final    7.95 input  -65.29 | X-H torsion
[ 10718 10713 10712 10709 ] final   46.01 input   66.30 | X-H torsion
[ 10763 10752 10751 10750 ] final  178.69 input  -60.55 | X-H torsion
[ 11005 11000 10999 10996 ] final   95.42 input  -57.11 | X-H torsion

> <Gold.Protein.ActiveResidues>
 VAL166  LYS551  ARG553  GLY616  TRP617  ASP618  TYR619  PRO620  LYS621  CYS622 
 ASP623  PHE694  ASN695  SER759  ASP760  ASP761  ALA762  ILE779  LEU786  VAL792 
 PHE793  MET794  SER795  GLU796  ALA797  LYS798  CYS799  TRP800  GLU811  SER814 

> <Gold.Protein.RotatedAtoms>
  151.1305  135.0127  159.8579 H   0  0  0  0  0  0  0  0  0  0  0  0  # atno 6907 bound_to 6896
  152.5451  134.1616  159.8570 H   0  0  0  0  0  0  0  0  0  0  0  0  # atno 6908 bound_to 6896
  151.1682  133.4756  159.2627 H   0  0  0  0  0  0  0  0  0  0  0  0  # atno 6909 bound_to 6896
  144.7166  140.2033  143.6336 H   0  0  0  0  0  0  0  0  0  0  0  0  # atno 7974 bound_to 7965
  156.2735  140.2781  156.1497 H   0  0  0  0  0  0  0  0  0  0  0  0  # atno 8008 bound_to 7997
  155.0866  140.0388  157.2673 H   0  0  0  0  0  0  0  0  0  0  0  0  # atno 8009 bound_to 7997
  154.6922  140.2631  155.6807 H   0  0  0  0  0  0  0  0  0  0  0  0  # atno 8010 bound_to 7997
  140.6342  143.7924  150.7337 H   0  0  0  0  0  0  0  0  0  0  0  0  # atno 10167 bound_to 10162
  157.4436  130.8096  149.7718 H   0  0  0  0  0  0  0  0  0  0  0  0  # atno 10718 bound_to 10713
  154.5110  135.2788  155.1343 H   0  0  0  0  0  0  0  0  0  0  0  0  # atno 10763 bound_to 10752
  154.2938  135.6261  153.5400 H   0  0  0  0  0  0  0  0  0  0  0  0  # atno 10764 bound_to 10752
  152.9918  135.5680  154.5575 H   0  0  0  0  0  0  0  0  0  0  0  0  # atno 10765 bound_to 10752
  139.8789  134.8898  156.4008 H   0  0  0  0  0  0  0  0  0  0  0  0  # atno 11005 bound_to 11000
  145.8659  139.2247  143.1689 LP  0  0  0  0  0  0  0  0  0  0  0  0  # atno 17320 bound_to 7965
  146.0130  140.8418  142.9961 LP  0  0  0  0  0  0  0  0  0  0  0  0  # atno 17321 bound_to 7965
  140.1541  143.4332  152.2111 LP  0  0  0  0  0  0  0  0  0  0  0  0  # atno 17342 bound_to 10162
  139.5554  144.7369  151.4310 LP  0  0  0  0  0  0  0  0  0  0  0  0  # atno 17343 bound_to 10162
  155.9958  130.3909  150.2803 LP  0  0  0  0  0  0  0  0  0  0  0  0  # atno 17370 bound_to 10713
  157.0969  131.0185  151.3100 LP  0  0  0  0  0  0  0  0  0  0  0  0  # atno 17371 bound_to 10713
  140.9268  133.7607  155.9974 LP  0  0  0  0  0  0  0  0  0  0  0  0  # atno 17394 bound_to 11000
  140.8377  134.3104  157.5325 LP  0  0  0  0  0  0  0  0  0  0  0  0  # atno 17395 bound_to 11000

$$$$
