AV-unprocessed.smi:2698|AV-procd|sdf|10422|dock4
  -GOLD-   2272014463D 1   1.00000     0.00000
 Structure written by MMmdl.
 33 33  0  0  0  0  0  0  0  0  2 V2000
  152.8891  143.9254  159.1567 C   0  0  0  0  0  0  0  0  0  0  0  0
  152.2397  143.0522  160.2409 C   0  0  0  0  0  0  0  0  0  0  0  0
  152.4343  143.6905  161.6288 C   0  0  0  0  0  0  0  0  0  0  0  0
  152.7651  141.6001  160.1551 C   0  0  0  0  0  0  0  0  0  0  0  0
  152.1604  140.8028  158.9964 C   0  0  0  0  0  0  0  0  0  0  0  0
  151.1837  141.2410  158.3884 O   0  0  0  0  0  0  0  0  0  0  0  0
  152.7520  139.6326  158.7071 N   0  0  0  0  0  0  0  0  0  0  0  0
  152.3918  138.7266  157.6162 C   0  0  1  0  0  0  0  0  0  0  0  0
  152.5405  139.4139  156.2410 C   0  0  0  0  0  0  0  0  0  0  0  0
  151.5224  139.0042  155.2053 C   0  0  0  0  0  0  0  0  0  0  0  0
  151.2653  137.7455  154.7017 C   0  0  0  0  0  0  0  0  0  0  0  0
  150.2236  137.8925  153.8033 N   0  0  0  0  0  0  0  0  0  0  0  0
  149.8980  139.1853  153.7910 C   0  0  0  0  0  0  0  0  0  0  0  0
  150.6415  139.9159  154.6108 N   0  0  0  0  0  0  0  0  0  0  0  0
  153.1929  137.4257  157.7291 C   0  0  0  0  0  0  0  0  0  0  0  0
  153.9984  137.3283  158.6819 O   0  0  0  0  0  0  0  0  0  0  0  0
  152.9915  136.5503  156.8590 O   0  5  0  0  0  0  0  0  0  0  0  0
  149.7871  137.1587  153.2644 H   0  0  0  0  0  0  0  0  0  0  0  0
  153.9674  143.9985  159.3007 H   0  0  0  0  0  0  0  0  0  0  0  0
  152.4816  144.9367  159.1699 H   0  0  0  0  0  0  0  0  0  0  0  0
  152.7124  143.5152  158.1621 H   0  0  0  0  0  0  0  0  0  0  0  0
  151.1679  143.0346  160.0363 H   0  0  0  0  0  0  0  0  0  0  0  0
  153.4860  143.6977  161.9166 H   0  0  0  0  0  0  0  0  0  0  0  0
  151.8801  143.1592  162.4020 H   0  0  0  0  0  0  0  0  0  0  0  0
  152.0810  144.7217  161.6374 H   0  0  0  0  0  0  0  0  0  0  0  0
  153.8505  141.6055  160.0433 H   0  0  0  0  0  0  0  0  0  0  0  0
  152.5619  141.0726  161.0880 H   0  0  0  0  0  0  0  0  0  0  0  0
  153.5348  139.3460  159.2770 H   0  0  0  0  0  0  0  0  0  0  0  0
  151.3417  138.4493  157.7290 H   0  0  0  0  0  0  0  0  0  0  0  0
  152.5022  140.4986  156.3536 H   0  0  0  0  0  0  0  0  0  0  0  0
  153.5272  139.1888  155.8344 H   0  0  0  0  0  0  0  0  0  0  0  0
  151.7176  136.7881  154.9132 H   0  0  0  0  0  0  0  0  0  0  0  0
  149.1079  139.5956  153.1795 H   0  0  0  0  0  0  0  0  0  0  0  0
  1  2  1  0  0  0  0
  1 19  1  0  0  0  0
  1 20  1  0  0  0  0
  1 21  1  0  0  0  0
  2  3  1  0  0  0  0
  2  4  1  0  0  0  0
  2 22  1  0  0  0  0
  3 23  1  0  0  0  0
  3 24  1  0  0  0  0
  3 25  1  0  0  0  0
  4  5  1  0  0  0  0
  4 26  1  0  0  0  0
  4 27  1  0  0  0  0
  5  6  2  0  0  0  0
  5  7  1  0  0  0  0
  7  8  1  0  0  0  0
  7 28  1  0  0  0  0
  8  9  1  0  0  0  0
  8 15  1  0  0  0  0
  8 29  1  0  0  0  0
  9 10  1  0  0  0  0
  9 30  1  0  0  0  0
  9 31  1  0  0  0  0
 10 14  1  0  0  0  0
 10 11  2  0  0  0  0
 11 12  1  0  0  0  0
 11 32  1  0  0  0  0
 12 18  1  0  0  0  0
 12 13  1  0  0  0  0
 13 14  2  0  0  0  0
 13 33  1  0  0  0  0
 15 16  2  0  0  0  0
 15 17  1  0  0  0  0
M  CHG  1  17  -1
M  END
> <s_m_source_file>
AV-unprocessed.smi

> <i_m_source_file_index>
2698

> <i_lp_mmshare_version>
43012

> <i_f3d_flags>
0

> <s_epik_input>
W0NIM11bQ0hdKFtDSDNdKVtDSDJdQyg9TylbTkhdW0NAQEhdKEMoPU8pW09IXSlbQ0gyXWMxW2NIXVtuSF1bY0hdbjE=

> <s_epik_cmdline>
J2VwaWtfcHl0aG9uJywgJy1waCcsICc3LjAnLCAnLXRuJywgJzgnLCAnLW1hJywgJzIwMCcsICctbWV0YWxfYmluZGluZycsICctaW1hZScsICc8aW5maWxlLm1hZT4nLCAnLW9tYWUnLCAnPG91dGZpbGUubWFlPic=

> <r_lp_tautomer_probability>
0.5

> <r_epik_Ionization_Penalty>
0.818672

> <r_epik_Ionization_Penalty_Charging>
0.818672

> <r_epik_Ionization_Penalty_Neutral>
7.99661e-08

> <r_epik_State_Penalty>
0.927032

> <r_epik_Charging_Adjusted_Penalty>
1.7457

> <i_epik_Tot_Q>
-1

> <i_epik_Tot_abs_Q>
1

> <r_epik_Metal_State_Penalty>
0.525537

> <b_epik_Metal_Only>
0

> <s_lp_Force_Field>
OPLS_2005

> <r_lp_Energy>
1.97611

> <b_lp_Chiralities_Consistent>
1

> <s_lp_Variant>
AV-unprocessed.smi:2698-6

> <Gold.Version>
5.8.1

> <Gold.Id.Protein>
6NUR|6NUR_protein|mol2

> <Gold.PLP.Fitness>
44.5011

> <Gold.PLP.PLP>
-31.8713

> <Gold.PLP.part.hbond>
-3.8946

> <Gold.PLP.part.metal>
0.0000

> <Gold.PLP.part.buried>
-0.3673

> <Gold.PLP.part.nonpolar>
-28.0972

> <Gold.PLP.part.repulsive>
0.2491

> <Gold.PLP.ligand.clash>
0.0000

> <Gold.PLP.ligand.torsion>
0.7698

> <Gold.PLP.Chemscore.Hbond>
4.0000

> <Gold.PLP.Chemscore.CHOScore>
0.6815

> <Gold.PLP.Chemscore.Metal>
0.0000

> <Gold.Chemscore.Hbonds>
donor molecule, donor type, donor heavy atom, donor atom, acceptor molecule, acceptor atom, score
      L1  H    12    18       P1  7948  1.00
      P1  H  7989  7998       L1    14  1.00
      P1  H 10752 10764       L1    17  2.00
      L1  C    13    33       P1  7957  0.73

> <Gold.PLP.Chemscore.Internal.Correction>
0.1250

> <Gold.Rescore>
     Score         DG    S(hbond)    S(metal)    S(lipo)     H(rot)  DE(clash)    DE(int)     intcor
     12.46     -14.05       2.36        0.00      71.72       3.01       0.61       0.98       ----

> <Gold.Chemscore.Fitness>
12.4605

> <Gold.Chemscore.DG>
-14.0458

> <Gold.Chemscore.ZeroCoef>
-5.4800

> <Gold.Chemscore.Hbond>
2.3627

> <Gold.Chemscore.Metal>
0.0000

> <Gold.Chemscore.Lipo>
71.7209

> <Gold.Chemscore.Internal_Hbond>
0.0000

> <Gold.Chemscore.DEClash>
0.6063

> <Gold.Chemscore.DEInternal>
0.9791

> <Gold.Chemscore.Rot>
3.0145

> <Gold.Chemscore.Internal.Correction>
   9.000000E+99

> <Gold.Chemscore.Hbonds>
donor molecule, donor type, donor heavy atom, donor atom, acceptor molecule, acceptor atom, score
      L1  H    12    18       P1  7948  0.50
      P1  H  7989  7998       L1    14  0.22
      P1  H 10752 10764       L1    17  0.95

> <Gold.Chemscore.Hbond.Weighted>
-7.8916

> <Gold.Chemscore.Metal.Weighted>
-0.0000

> <Gold.Chemscore.Lipo.Weighted>
-8.3913

> <Gold.Chemscore.Internal_Hbond.Weighted>
0.0000

> <Gold.Chemscore.DEClash.Weighted>
0.6063

> <Gold.Chemscore.DEInternal.Weighted>
0.9791

> <Gold.Chemscore.Rot.Weighted>
7.7171

> <Gold.Chemscore.Internal.Correction.Weighted>
   9.000000E+99

> <Gold.Protein.RotatedTorsions>
[ 6907 6896 6895 6894 ] final  -58.80 input  -60.11 | X-H torsion
[ 7974 7965 7964 7962 ] final   13.37 input  175.53 | X-H torsion
[ 8008 7997 7996 7995 ] final   60.14 input   59.86 | X-H torsion
[ 10167 10162 10161 10158 ] final    0.25 input  -65.29 | X-H torsion
[ 10718 10713 10712 10709 ] final  156.25 input   66.30 | X-H torsion
[ 10763 10752 10751 10750 ] final   -3.64 input  -60.55 | X-H torsion
[ 11005 11000 10999 10996 ] final   60.17 input  -57.11 | X-H torsion

> <Gold.Protein.ActiveResidues>
 VAL166  LYS551  ARG553  GLY616  TRP617  ASP618  TYR619  PRO620  LYS621  CYS622 
 ASP623  PHE694  ASN695  SER759  ASP760  ASP761  ALA762  ILE779  LEU786  VAL792 
 PHE793  MET794  SER795  GLU796  ALA797  LYS798  CYS799  TRP800  GLU811  SER814 

> <Gold.Protein.RotatedAtoms>
  150.7979  134.7052  159.6572 H   0  0  0  0  0  0  0  0  0  0  0  0  # atno 6907 bound_to 6896
  152.4093  134.6148  160.0045 H   0  0  0  0  0  0  0  0  0  0  0  0  # atno 6908 bound_to 6896
  151.6396  133.3290  159.3163 H   0  0  0  0  0  0  0  0  0  0  0  0  # atno 6909 bound_to 6896
  146.2330  139.9198  142.8512 H   0  0  0  0  0  0  0  0  0  0  0  0  # atno 7974 bound_to 7965
  155.5776  140.3491  155.4531 H   0  0  0  0  0  0  0  0  0  0  0  0  # atno 8008 bound_to 7997
  156.0397  140.1293  157.0194 H   0  0  0  0  0  0  0  0  0  0  0  0  # atno 8009 bound_to 7997
  154.4387  140.1026  156.6205 H   0  0  0  0  0  0  0  0  0  0  0  0  # atno 8010 bound_to 7997
  140.6737  143.6976  150.7977 H   0  0  0  0  0  0  0  0  0  0  0  0  # atno 10167 bound_to 10162
  157.2075  131.0690  151.1989 H   0  0  0  0  0  0  0  0  0  0  0  0  # atno 10718 bound_to 10713
  153.3740  135.6995  153.6616 H   0  0  0  0  0  0  0  0  0  0  0  0  # atno 10763 bound_to 10752
  153.5254  135.3603  155.2652 H   0  0  0  0  0  0  0  0  0  0  0  0  # atno 10764 bound_to 10752
  154.8685  135.4168  154.3024 H   0  0  0  0  0  0  0  0  0  0  0  0  # atno 10765 bound_to 10752
  140.0251  134.6095  155.9584 H   0  0  0  0  0  0  0  0  0  0  0  0  # atno 11005 bound_to 11000
  145.2148  140.9910  143.4080 LP  0  0  0  0  0  0  0  0  0  0  0  0  # atno 17320 bound_to 7965
  144.9660  139.3929  143.6332 LP  0  0  0  0  0  0  0  0  0  0  0  0  # atno 17321 bound_to 7965
  140.0666  143.5102  152.2601 LP  0  0  0  0  0  0  0  0  0  0  0  0  # atno 17342 bound_to 10162
  139.6018  144.7585  151.3154 LP  0  0  0  0  0  0  0  0  0  0  0  0  # atno 17343 bound_to 10162
  157.3705  130.7179  149.6562 LP  0  0  0  0  0  0  0  0  0  0  0  0  # atno 17370 bound_to 10713
  155.9694  130.4200  150.4402 LP  0  0  0  0  0  0  0  0  0  0  0  0  # atno 17371 bound_to 10713
  141.1798  133.6545  156.4973 LP  0  0  0  0  0  0  0  0  0  0  0  0  # atno 17394 bound_to 11000
  140.4320  134.7093  157.4947 LP  0  0  0  0  0  0  0  0  0  0  0  0  # atno 17395 bound_to 11000

$$$$
