#       Name:                AV-unprocessed.smi:2732
#       Creating user name   scv26
#       Creation time:       Fri Mar 27 14:58:06 2020


#       File generated by GOLD software.
#

@<TRIPOS>MOLECULE
AV-unprocessed.smi:2732
    39    40     1
SMALL
NO_CHARGES


@<TRIPOS>ATOM
      1 ****        -0.2200  -2.7319  -2.6439 C.3            1 S1                 0.0000
      2 ****         0.0525  -2.0895  -1.2752 C.3            1 S1                 0.0000
      3 ****         1.4614  -2.1159  -1.0622 O.3            1 S1                 0.0000
      4 ****         1.8837  -1.8474   0.2690 C.3            1 S1                 0.0000
      5 ****         3.3888  -1.9861   0.3387 C.3            1 S1                 0.0000
      6 ****         4.1617  -1.3633   1.4791 C.3            1 S1                 0.0000
      7 ****         4.2846  -0.7940   0.0888 C.3            1 S1                 0.0000
      8 ****        -0.4692  -0.6441  -1.2172 C.2            1 S1                 0.0000
      9 ****        -0.2005   0.1394  -2.1277 O.2            1 S1                 0.0000
     10 ****        -1.1792  -0.3220  -0.1198 N.am           1 S1                 0.0000
     11 ****        -1.7724   0.9247   0.2154 C.ar           1 S1                 0.0000
     12 ****        -2.0694   1.1691   1.5741 C.ar           1 S1                 0.0000
     13 ****        -2.6697   2.3883   1.9512 C.ar           1 S1                 0.0000
     14 ****        -2.9733   3.3410   0.9573 C.ar           1 S1                 0.0000
     15 ****        -3.5658   4.5652   1.2606 N.pl3          1 S1                 0.0000
     16 ****        -2.6906   3.0698  -0.3349 N.pl3          1 S1                 1.0000
     17 ****        -2.1142   1.9160  -0.7378 C.ar           1 S1                 0.0000
     18 ****        -1.2833  -2.7168  -2.8858 H              1 S1                 0.0000
     19 ****         0.1039  -3.7729  -2.6523 H              1 S1                 0.0000
     20 ****         0.3139  -2.2164  -3.4433 H              1 S1                 0.0000
     21 ****        -0.4418  -2.6933  -0.5115 H              1 S1                 0.0000
     22 ****         1.5975  -0.8448   0.5889 H              1 S1                 0.0000
     23 ****         1.4317  -2.5609   0.9592 H              1 S1                 0.0000
     24 ****         3.7584  -2.9485  -0.0101 H              1 S1                 0.0000
     25 ****         3.6068  -0.7807   2.2118 H              1 S1                 0.0000
     26 ****         5.0113  -1.9185   1.8714 H              1 S1                 0.0000
     27 ****         5.2146  -0.9704  -0.4477 H              1 S1                 0.0000
     28 ****         3.8097   0.1657  -0.1051 H              1 S1                 0.0000
     29 ****        -1.2480  -1.0415   0.5854 H              1 S1                 0.0000
     30 ****        -1.8336   0.4312   2.3272 H              1 S1                 0.0000
     31 ****        -2.8929   2.5841   2.9900 H              1 S1                 0.0000
     32 ****        -3.8016   4.8179   2.2098 H              1 S1                 0.0000
     33 ****        -3.7689   5.2471   0.5438 H              1 S1                 0.0000
     34 ****        -1.9631   1.8325  -1.8036 H              1 S1                 0.0000
     35 ****        -2.9238   3.7662  -1.0432 H              1 S1                 0.0000
     36 ****         1.8766  -1.4313  -1.6613 LP             1 S1                 0.0000
     37 ****         1.7942  -3.0247  -1.3138 LP             1 S1                 0.0000
     38 ****         0.3552  -0.1648  -2.9014 LP             1 S1                 0.0000
     39 ****        -0.5379   1.0802  -2.0937 LP             1 S1                 0.0000
@<TRIPOS>BOND
    1    1    2 1     
    2    1   18 1     
    3    1   19 1     
    4    1   20 1     
    5    2    3 1     
    6    2    8 1     
    7    2   21 1     
    8    3    4 1     
    9    4    5 1     
   10    4   22 1     
   11    4   23 1     
   12    5    7 1     
   13    5    6 1     
   14    5   24 1     
   15    6    7 1     
   16    6   25 1     
   17    6   26 1     
   18    7   27 1     
   19    7   28 1     
   20    8    9 2     
   21    8   10 am    
   22   10   11 1     
   23   10   29 1     
   24   11   17 ar    
   25   11   12 ar    
   26   12   13 ar    
   27   12   30 1     
   28   13   14 ar    
   29   13   31 1     
   30   14   15 1     
   31   14   16 ar    
   32   15   32 1     
   33   15   33 1     
   34   16   17 ar    
   35   16   35 1     
   36   17   34 1     
   37    3   36 1     
   38    3   37 1     
   39    9   38 1     
   40    9   39 1     
@<TRIPOS>SUBSTRUCTURE
      1 S1             1
@<TRIPOS>SET
LONE_PAIRS      STATIC     ATOMS    <user>   **** ""
4 36 37 38 39
DONOR_HYDROGENS      STATIC     ATOMS    <user>   **** ""
4 29 32 33 35
ATOM$BLUE        STATIC     ATOMS    COLORGROUP SYSTEM
4 36 37 38 39
ATOM$RED        STATIC     ATOMS    COLORGROUP SYSTEM
4 29 32 33 35
