AV-unprocessed.smi:963|AV-procd|sdf|4276|dock6
  -GOLD-   22720 2183D 1   1.00000     0.00000
 Structure written by MMmdl.
 36 37  0  0  0  0  0  0  0  0  1 V2000
  151.5029  143.7242  157.7577 C   0  0  0  0  0  0  0  0  0  0  0  0
  152.4756  144.3384  158.7703 C   0  0  0  0  0  0  0  0  0  0  0  0
  152.8928  143.3575  159.8264 C   0  0  0  0  0  0  0  0  0  0  0  0
  153.4065  142.1148  159.4428 N   0  0  0  0  0  0  0  0  0  0  0  0
  153.7244  141.3440  160.4847 C   0  0  0  0  0  0  0  0  0  0  0  0
  154.3317  139.9877  160.3519 C   0  0  0  0  0  0  0  0  0  0  0  0
  153.2826  138.9040  160.0704 C   0  0  0  0  0  0  0  0  0  0  0  0
  152.3010  139.3789  159.1020 N   0  0  0  0  0  0  0  0  0  0  0  0
  152.3785  139.2272  157.7705 C   0  0  0  0  0  0  0  0  0  0  0  0
  153.3187  138.6827  157.1924 O   0  0  0  0  0  0  0  0  0  0  0  0
  151.3582  139.8079  157.1189 N   0  0  0  0  0  0  0  0  0  0  0  0
  151.2057  140.1638  155.7111 C   0  0  0  0  0  0  0  0  0  0  0  0
  149.9498  140.9211  156.1363 C   0  0  0  0  0  0  0  0  0  0  0  0
  150.4376  140.8393  157.5810 C   0  0  0  0  0  0  0  0  0  0  0  0
  153.4248  142.1187  162.0338 S   0  0  0  0  0  0  0  0  0  0  0  0
  152.8253  143.5239  161.1905 C   0  0  0  0  0  0  0  0  0  0  0  0
  152.3262  144.7111  161.9454 C   0  0  0  0  0  0  0  0  0  0  0  0
  151.2170  144.4553  157.0015 H   0  0  0  0  0  0  0  0  0  0  0  0
  150.5926  143.3783  158.2482 H   0  0  0  0  0  0  0  0  0  0  0  0
  151.9524  142.8731  157.2451 H   0  0  0  0  0  0  0  0  0  0  0  0
  153.3535  144.7116  158.2416 H   0  0  0  0  0  0  0  0  0  0  0  0
  152.0131  145.2133  159.2273 H   0  0  0  0  0  0  0  0  0  0  0  0
  155.0684  140.0152  159.5482 H   0  0  0  0  0  0  0  0  0  0  0  0
  154.8768  139.7571  161.2683 H   0  0  0  0  0  0  0  0  0  0  0  0
  153.7630  138.0148  159.6613 H   0  0  0  0  0  0  0  0  0  0  0  0
  152.8088  138.6019  161.0060 H   0  0  0  0  0  0  0  0  0  0  0  0
  151.5002  139.8700  159.4718 H   0  0  0  0  0  0  0  0  0  0  0  0
  151.9995  140.8095  155.3319 H   0  0  0  0  0  0  0  0  0  0  0  0
  151.0073  139.3240  155.0443 H   0  0  0  0  0  0  0  0  0  0  0  0
  149.8772  141.9348  155.7407 H   0  0  0  0  0  0  0  0  0  0  0  0
  149.0339  140.3529  155.9656 H   0  0  0  0  0  0  0  0  0  0  0  0
  149.6787  140.4924  158.2833 H   0  0  0  0  0  0  0  0  0  0  0  0
  150.9326  141.7471  157.9293 H   0  0  0  0  0  0  0  0  0  0  0  0
  151.3662  145.0458  161.5518 H   0  0  0  0  0  0  0  0  0  0  0  0
  153.0307  145.5397  161.8709 H   0  0  0  0  0  0  0  0  0  0  0  0
  152.1912  144.4785  163.0019 H   0  0  0  0  0  0  0  0  0  0  0  0
  1  2  1  0  0  0  0
  1 18  1  0  0  0  0
  1 19  1  0  0  0  0
  1 20  1  0  0  0  0
  2  3  1  0  0  0  0
  2 21  1  0  0  0  0
  2 22  1  0  0  0  0
  3 16  2  0  0  0  0
  3  4  1  0  0  0  0
  4  5  2  0  0  0  0
  5  6  1  0  0  0  0
  5 15  1  0  0  0  0
  6  7  1  0  0  0  0
  6 23  1  0  0  0  0
  6 24  1  0  0  0  0
  7  8  1  0  0  0  0
  7 25  1  0  0  0  0
  7 26  1  0  0  0  0
  8  9  1  0  0  0  0
  8 27  1  0  0  0  0
  9 10  2  0  0  0  0
  9 11  1  0  0  0  0
 11 14  1  0  0  0  0
 11 12  1  0  0  0  0
 12 13  1  0  0  0  0
 12 28  1  0  0  0  0
 12 29  1  0  0  0  0
 13 14  1  0  0  0  0
 13 30  1  0  0  0  0
 13 31  1  0  0  0  0
 14 32  1  0  0  0  0
 14 33  1  0  0  0  0
 15 16  1  0  0  0  0
 16 17  1  0  0  0  0
 17 34  1  0  0  0  0
 17 35  1  0  0  0  0
 17 36  1  0  0  0  0
M  END
> <s_m_source_file>
AV-unprocessed.smi

> <i_m_source_file_index>
963

> <i_lp_mmshare_version>
43012

> <i_f3d_flags>
0

> <s_epik_input>
W0NIM11bQ0gyXWMxbmMoc2MxW0NIM10pW0NIMl1bQ0gyXVtOSF1DKD1PKU4yW0NIMl1bQ0gyXVtDSDJdMg==

> <s_epik_cmdline>
J2VwaWtfcHl0aG9uJywgJy1waCcsICc3LjAnLCAnLXRuJywgJzgnLCAnLW1hJywgJzIwMCcsICctbWV0YWxfYmluZGluZycsICctaW1hZScsICc8aW5maWxlLm1hZT4nLCAnLW9tYWUnLCAnPG91dGZpbGUubWFlPic=

> <r_epik_Ionization_Penalty>
0.00446738

> <r_epik_Ionization_Penalty_Charging>
0

> <r_epik_Ionization_Penalty_Neutral>
0.00446738

> <r_epik_State_Penalty>
0.00317617

> <r_epik_Charging_Adjusted_Penalty>
0.00317617

> <i_epik_Tot_Q>
0

> <i_epik_Tot_abs_Q>
0

> <r_epik_Metal_State_Penalty>
-0

> <b_epik_Metal_Only>
0

> <s_lp_Force_Field>
OPLS_2005

> <r_lp_Energy>
11.733

> <b_lp_Chiralities_Consistent>
1

> <s_lp_Variant>
AV-unprocessed.smi:963-1

> <Gold.Version>
5.8.1

> <Gold.Id.Protein>
6NUR|6NUR_protein|mol2

> <Gold.PLP.Fitness>
39.9865

> <Gold.PLP.PLP>
-38.1842

> <Gold.PLP.part.hbond>
-1.0000

> <Gold.PLP.part.metal>
0.0000

> <Gold.PLP.part.buried>
-0.4240

> <Gold.PLP.part.nonpolar>
-35.3217

> <Gold.PLP.part.repulsive>
0.1046

> <Gold.PLP.ligand.clash>
0.0000

> <Gold.PLP.ligand.torsion>
0.7433

> <Gold.PLP.Chemscore.Hbond>
1.0000

> <Gold.PLP.Chemscore.CHOScore>
0.0000

> <Gold.PLP.Chemscore.Metal>
0.0000

> <Gold.Chemscore.Hbonds>
donor molecule, donor type, donor heavy atom, donor atom, acceptor molecule, acceptor atom, score
      P1  H  7997  8009       L1    10  1.00

> <Gold.PLP.Chemscore.Internal.Correction>
0.2890

> <Gold.Rescore>
     Score         DG    S(hbond)    S(metal)    S(lipo)     H(rot)  DE(clash)    DE(int)     intcor
     16.83     -18.03       0.97        0.00     111.78       1.48       0.22       0.98       ----

> <Gold.Chemscore.Fitness>
16.8253

> <Gold.Chemscore.DG>
-18.0333

> <Gold.Chemscore.ZeroCoef>
-5.4800

> <Gold.Chemscore.Hbond>
0.9740

> <Gold.Chemscore.Metal>
0.0000

> <Gold.Chemscore.Lipo>
111.7786

> <Gold.Chemscore.Internal_Hbond>
0.0000

> <Gold.Chemscore.DEClash>
0.2250

> <Gold.Chemscore.DEInternal>
0.9830

> <Gold.Chemscore.Rot>
1.4758

> <Gold.Chemscore.Internal.Correction>
   9.000000E+99

> <Gold.Chemscore.Hbonds>
donor molecule, donor type, donor heavy atom, donor atom, acceptor molecule, acceptor atom, score
      P1  H  7997  8009       L1    10  0.49

> <Gold.Chemscore.Hbond.Weighted>
-3.2532

> <Gold.Chemscore.Metal.Weighted>
-0.0000

> <Gold.Chemscore.Lipo.Weighted>
-13.0781

> <Gold.Chemscore.Internal_Hbond.Weighted>
0.0000

> <Gold.Chemscore.DEClash.Weighted>
0.2250

> <Gold.Chemscore.DEInternal.Weighted>
0.9830

> <Gold.Chemscore.Rot.Weighted>
3.7780

> <Gold.Chemscore.Internal.Correction.Weighted>
   9.000000E+99

> <Gold.Protein.RotatedTorsions>
[ 6907 6896 6895 6894 ] final   -3.02 input  -60.11 | X-H torsion
[ 7974 7965 7964 7962 ] final  121.52 input  175.53 | X-H torsion
[ 8008 7997 7996 7995 ] final  175.53 input   59.86 | X-H torsion
[ 10167 10162 10161 10158 ] final  139.95 input  -65.29 | X-H torsion
[ 10718 10713 10712 10709 ] final  166.09 input   66.30 | X-H torsion
[ 10763 10752 10751 10750 ] final -146.32 input  -60.55 | X-H torsion
[ 11005 11000 10999 10996 ] final  -42.98 input  -57.11 | X-H torsion

> <Gold.Protein.ActiveResidues>
 VAL166  LYS551  ARG553  GLY616  TRP617  ASP618  TYR619  PRO620  LYS621  CYS622 
 ASP623  PHE694  ASN695  SER759  ASP760  ASP761  ALA762  ILE779  LEU786  VAL792 
 PHE793  MET794  SER795  GLU796  ALA797  LYS798  CYS799  TRP800  GLU811  SER814 

> <Gold.Protein.RotatedAtoms>
  151.5205  135.1067  159.9876 H   0  0  0  0  0  0  0  0  0  0  0  0  # atno 6907 bound_to 6896
  152.4622  133.7843  159.6878 H   0  0  0  0  0  0  0  0  0  0  0  0  # atno 6908 bound_to 6896
  150.8590  133.7608  159.3024 H   0  0  0  0  0  0  0  0  0  0  0  0  # atno 6909 bound_to 6896
  145.1183  139.3406  143.4727 H   0  0  0  0  0  0  0  0  0  0  0  0  # atno 7974 bound_to 7965
  156.0861  140.1406  156.9652 H   0  0  0  0  0  0  0  0  0  0  0  0  # atno 8008 bound_to 7997
  154.4613  140.0942  156.6949 H   0  0  0  0  0  0  0  0  0  0  0  0  # atno 8009 bound_to 7997
  155.4997  140.3450  155.4371 H   0  0  0  0  0  0  0  0  0  0  0  0  # atno 8010 bound_to 7997
  139.5063  144.6263  151.5928 H   0  0  0  0  0  0  0  0  0  0  0  0  # atno 10167 bound_to 10162
  157.0708  131.0366  151.2612 H   0  0  0  0  0  0  0  0  0  0  0  0  # atno 10718 bound_to 10713
  154.8341  135.3389  154.6643 H   0  0  0  0  0  0  0  0  0  0  0  0  # atno 10763 bound_to 10752
  153.7260  135.6955  153.5005 H   0  0  0  0  0  0  0  0  0  0  0  0  # atno 10764 bound_to 10752
  153.2347  135.4404  155.0586 H   0  0  0  0  0  0  0  0  0  0  0  0  # atno 10765 bound_to 10752
  141.0353  133.6802  156.2670 H   0  0  0  0  0  0  0  0  0  0  0  0  # atno 11005 bound_to 11000
  146.3522  140.1131  142.8603 LP  0  0  0  0  0  0  0  0  0  0  0  0  # atno 17320 bound_to 7965
  145.0769  140.9194  143.4848 LP  0  0  0  0  0  0  0  0  0  0  0  0  # atno 17321 bound_to 7965
  140.5982  143.9658  150.6368 LP  0  0  0  0  0  0  0  0  0  0  0  0  # atno 17342 bound_to 10162
  140.2861  143.3356  152.1106 LP  0  0  0  0  0  0  0  0  0  0  0  0  # atno 17343 bound_to 10162
  157.4879  130.7804  149.7478 LP  0  0  0  0  0  0  0  0  0  0  0  0  # atno 17370 bound_to 10713
  155.9951  130.3914  150.2833 LP  0  0  0  0  0  0  0  0  0  0  0  0  # atno 17371 bound_to 10713
  140.6334  134.5241  157.5562 LP  0  0  0  0  0  0  0  0  0  0  0  0  # atno 17394 bound_to 11000
  139.9236  134.8100  156.1136 LP  0  0  0  0  0  0  0  0  0  0  0  0  # atno 17395 bound_to 11000

$$$$
