AV-unprocessed.smi:2991|AV-procd|sdf|11398|dock4
  -GOLD-   2272016323D 1   1.00000     0.00000
 Structure written by MMmdl.
 37 38  0  0  0  0  0  0  0  0  1 V2000
  151.5894  140.3473  155.8716 C   0  0  0  0  0  0  0  0  0  0  0  0
  150.2310  140.3920  155.1976 C   0  0  0  0  0  0  0  0  0  0  0  0
  149.5936  141.5821  155.2450 N   0  0  0  0  0  0  0  0  0  0  0  0
  148.3848  141.6783  154.6551 C   0  0  0  0  0  0  0  0  0  0  0  0
  147.7539  140.6031  154.0006 C   0  0  0  0  0  0  0  0  0  0  0  0
  148.4120  139.3503  153.9614 C   0  0  0  0  0  0  0  0  0  0  0  0
  147.8790  138.2035  153.3088 N   0  0  0  0  0  0  0  0  0  0  0  0
  146.6091  137.7657  153.2721 C   0  0  0  0  0  0  0  0  0  0  0  0
  145.6522  138.2994  153.8333 O   0  0  0  0  0  0  0  0  0  0  0  0
  146.5093  136.6425  152.5467 N   0  0  0  0  0  0  0  0  0  0  0  0
  145.2843  135.8746  152.3188 C   0  0  1  0  0  0  0  0  0  0  0  0
  145.5583  134.7192  151.3299 C   0  0  0  0  0  0  0  0  0  0  0  0
  144.3033  134.2028  150.6088 C   0  0  0  0  0  0  0  0  0  0  0  0
  143.2407  133.5823  151.5279 C   0  0  0  0  0  0  0  0  0  0  0  0
  142.6035  134.5872  152.5031 C   0  0  0  0  0  0  0  0  0  0  0  0
  143.4495  134.8607  153.6580 N   0  0  0  0  0  0  0  0  0  0  0  0
  144.6658  135.4273  153.6570 C   0  0  0  0  0  0  0  0  0  0  0  0
  145.2831  135.5809  154.7108 O   0  0  0  0  0  0  0  0  0  0  0  0
  149.6876  139.2489  154.5652 C   0  0  0  0  0  0  0  0  0  0  0  0
  150.5651  137.7556  154.5366 Cl  0  0  0  0  0  0  0  0  0  0  0  0
  151.5902  139.6084  156.6732 H   0  0  0  0  0  0  0  0  0  0  0  0
  151.8555  141.3129  156.3039 H   0  0  0  0  0  0  0  0  0  0  0  0
  152.3618  140.0773  155.1511 H   0  0  0  0  0  0  0  0  0  0  0  0
  147.9071  142.6459  154.6999 H   0  0  0  0  0  0  0  0  0  0  0  0
  146.7941  140.7651  153.5354 H   0  0  0  0  0  0  0  0  0  0  0  0
  148.5632  137.6078  152.8655 H   0  0  0  0  0  0  0  0  0  0  0  0
  147.3511  136.2694  152.1321 H   0  0  0  0  0  0  0  0  0  0  0  0
  144.5637  136.5566  151.8631 H   0  0  0  0  0  0  0  0  0  0  0  0
  146.2567  135.0539  150.5615 H   0  0  0  0  0  0  0  0  0  0  0  0
  146.0598  133.8975  151.8432 H   0  0  0  0  0  0  0  0  0  0  0  0
  143.8573  135.0130  150.0306 H   0  0  0  0  0  0  0  0  0  0  0  0
  144.6098  133.4527  149.8793 H   0  0  0  0  0  0  0  0  0  0  0  0
  142.4515  133.1708  150.8977 H   0  0  0  0  0  0  0  0  0  0  0  0
  143.6580  132.7352  152.0739 H   0  0  0  0  0  0  0  0  0  0  0  0
  142.3380  135.5161  151.9965 H   0  0  0  0  0  0  0  0  0  0  0  0
  141.6710  134.1706  152.8844 H   0  0  0  0  0  0  0  0  0  0  0  0
  143.0784  134.5809  154.5545 H   0  0  0  0  0  0  0  0  0  0  0  0
  1  2  1  0  0  0  0
  1 21  1  0  0  0  0
  1 22  1  0  0  0  0
  1 23  1  0  0  0  0
  2 19  1  0  0  0  0
  2  3  2  0  0  0  0
  3  4  1  0  0  0  0
  4  5  2  0  0  0  0
  4 24  1  0  0  0  0
  5  6  1  0  0  0  0
  5 25  1  0  0  0  0
  6  7  1  0  0  0  0
  6 19  2  0  0  0  0
  7  8  1  0  0  0  0
  7 26  1  0  0  0  0
  8  9  2  0  0  0  0
  8 10  1  0  0  0  0
 10 11  1  0  0  0  0
 10 27  1  0  0  0  0
 11 17  1  0  0  0  0
 11 12  1  0  0  0  0
 11 28  1  0  0  0  0
 12 13  1  0  0  0  0
 12 29  1  0  0  0  0
 12 30  1  0  0  0  0
 13 14  1  0  0  0  0
 13 31  1  0  0  0  0
 13 32  1  0  0  0  0
 14 15  1  0  0  0  0
 14 33  1  0  0  0  0
 14 34  1  0  0  0  0
 15 16  1  0  0  0  0
 15 35  1  0  0  0  0
 15 36  1  0  0  0  0
 16 17  1  0  0  0  0
 16 37  1  0  0  0  0
 17 18  2  0  0  0  0
 19 20  1  0  0  0  0
M  END
> <s_m_source_file>
AV-unprocessed.smi

> <i_m_source_file_index>
2991

> <i_lp_mmshare_version>
43012

> <i_f3d_flags>
0

> <s_epik_input>
W0NIM11jMW5bY0hdW2NIXWMoYzFDbClbTkhdQyg9TylbTkhdW0NAQEhdMltDSDJdW0NIMl1bQ0gyXVtDSDJdW05IXUMyPU8=

> <s_epik_cmdline>
J2VwaWtfcHl0aG9uJywgJy1waCcsICc3LjAnLCAnLXRuJywgJzgnLCAnLW1hJywgJzIwMCcsICctbWV0YWxfYmluZGluZycsICctaW1hZScsICc8aW5maWxlLm1hZT4nLCAnLW9tYWUnLCAnPG91dGZpbGUubWFlPic=

> <r_epik_Ionization_Penalty>
0.00809016

> <r_epik_Ionization_Penalty_Charging>
0

> <r_epik_Ionization_Penalty_Neutral>
0.00809016

> <r_epik_State_Penalty>
0.00605324

> <r_epik_Charging_Adjusted_Penalty>
0.00605324

> <i_epik_Tot_Q>
0

> <i_epik_Tot_abs_Q>
0

> <r_epik_Metal_State_Penalty>
0.00597181

> <b_epik_Metal_Only>
0

> <s_lp_Force_Field>
OPLS_2005

> <r_lp_Energy>
16.2223

> <b_lp_Chiralities_Consistent>
1

> <s_lp_Variant>
AV-unprocessed.smi:2991-2

> <Gold.Version>
5.8.1

> <Gold.Id.Protein>
6NUR|6NUR_protein|mol2

> <Gold.PLP.Fitness>
38.8427

> <Gold.PLP.PLP>
-30.7184

> <Gold.PLP.part.hbond>
-2.1581

> <Gold.PLP.part.metal>
0.0000

> <Gold.PLP.part.buried>
-1.3064

> <Gold.PLP.part.nonpolar>
-26.8355

> <Gold.PLP.part.repulsive>
0.3852

> <Gold.PLP.ligand.clash>
0.0000

> <Gold.PLP.ligand.torsion>
0.3089

> <Gold.PLP.Chemscore.Hbond>
2.0000

> <Gold.PLP.Chemscore.CHOScore>
0.9050

> <Gold.PLP.Chemscore.Metal>
0.0000

> <Gold.Chemscore.Hbonds>
donor molecule, donor type, donor heavy atom, donor atom, acceptor molecule, acceptor atom, score
      L1  H     7    26       P1  7948  1.00
      L1  H    10    27       P1  7948  1.00
      L1  C     4    24       P1  8028  0.95

> <Gold.PLP.Chemscore.Internal.Correction>
0.0270

> <Gold.Rescore>
     Score         DG    S(hbond)    S(metal)    S(lipo)     H(rot)  DE(clash)    DE(int)     intcor
     18.34     -19.20       2.25        0.00      74.86       1.00       0.40       0.46       ----

> <Gold.Chemscore.Fitness>
18.3356

> <Gold.Chemscore.DG>
-19.1969

> <Gold.Chemscore.ZeroCoef>
-5.4800

> <Gold.Chemscore.Hbond>
2.2509

> <Gold.Chemscore.Metal>
0.0000

> <Gold.Chemscore.Lipo>
74.8613

> <Gold.Chemscore.Internal_Hbond>
0.0000

> <Gold.Chemscore.DEClash>
0.4003

> <Gold.Chemscore.DEInternal>
0.4609

> <Gold.Chemscore.Rot>
1.0000

> <Gold.Chemscore.Internal.Correction>
   9.000000E+99

> <Gold.Chemscore.Hbonds>
donor molecule, donor type, donor heavy atom, donor atom, acceptor molecule, acceptor atom, score
      L1  H     7    26       P1  7948  0.95
      L1  H    10    27       P1  7948  0.97

> <Gold.Chemscore.Hbond.Weighted>
-7.5181

> <Gold.Chemscore.Metal.Weighted>
-0.0000

> <Gold.Chemscore.Lipo.Weighted>
-8.7588

> <Gold.Chemscore.Internal_Hbond.Weighted>
0.0000

> <Gold.Chemscore.DEClash.Weighted>
0.4003

> <Gold.Chemscore.DEInternal.Weighted>
0.4609

> <Gold.Chemscore.Rot.Weighted>
2.5600

> <Gold.Chemscore.Internal.Correction.Weighted>
   9.000000E+99

> <Gold.Protein.RotatedTorsions>
[ 6907 6896 6895 6894 ] final  -57.99 input  -60.11 | X-H torsion
[ 7974 7965 7964 7962 ] final   -6.96 input  175.53 | X-H torsion
[ 8008 7997 7996 7995 ] final  -40.12 input   59.86 | X-H torsion
[ 10167 10162 10161 10158 ] final   30.74 input  -65.29 | X-H torsion
[ 10718 10713 10712 10709 ] final  -99.51 input   66.30 | X-H torsion
[ 10763 10752 10751 10750 ] final   21.55 input  -60.55 | X-H torsion
[ 11005 11000 10999 10996 ] final   40.84 input  -57.11 | X-H torsion

> <Gold.Protein.ActiveResidues>
 VAL166  LYS551  ARG553  GLY616  TRP617  ASP618  TYR619  PRO620  LYS621  CYS622 
 ASP623  PHE694  ASN695  SER759  ASP760  ASP761  ALA762  ILE779  LEU786  VAL792 
 PHE793  MET794  SER795  GLU796  ALA797  LYS798  CYS799  TRP800  GLU811  SER814 

> <Gold.Protein.RotatedAtoms>
  150.8042  134.7156  159.6628 H   0  0  0  0  0  0  0  0  0  0  0  0  # atno 6907 bound_to 6896
  152.4160  134.6037  160.0016 H   0  0  0  0  0  0  0  0  0  0  0  0  # atno 6908 bound_to 6896
  151.6266  133.3298  159.3135 H   0  0  0  0  0  0  0  0  0  0  0  0  # atno 6909 bound_to 6896
  146.2318  140.2249  142.8338 H   0  0  0  0  0  0  0  0  0  0  0  0  # atno 7974 bound_to 7965
  154.4015  140.1533  156.2975 H   0  0  0  0  0  0  0  0  0  0  0  0  # atno 8008 bound_to 7997
  155.8730  140.3448  155.5812 H   0  0  0  0  0  0  0  0  0  0  0  0  # atno 8009 bound_to 7997
  155.7753  140.0836  157.2077 H   0  0  0  0  0  0  0  0  0  0  0  0  # atno 8010 bound_to 7997
  140.4651  144.0847  150.6222 H   0  0  0  0  0  0  0  0  0  0  0  0  # atno 10167 bound_to 10162
  156.0136  130.5285  150.6680 H   0  0  0  0  0  0  0  0  0  0  0  0  # atno 10718 bound_to 10713
  153.0986  135.6666  153.9715 H   0  0  0  0  0  0  0  0  0  0  0  0  # atno 10763 bound_to 10752
  153.9292  135.3006  155.3447 H   0  0  0  0  0  0  0  0  0  0  0  0  # atno 10764 bound_to 10752
  154.7406  135.5081  153.9191 H   0  0  0  0  0  0  0  0  0  0  0  0  # atno 10765 bound_to 10752
  140.1891  134.4008  155.8156 H   0  0  0  0  0  0  0  0  0  0  0  0  # atno 11005 bound_to 11000
  144.9603  140.8268  143.5517 LP  0  0  0  0  0  0  0  0  0  0  0  0  # atno 17320 bound_to 7965
  145.2219  139.2155  143.5088 LP  0  0  0  0  0  0  0  0  0  0  0  0  # atno 17321 bound_to 7965
  140.4046  143.2687  151.9907 LP  0  0  0  0  0  0  0  0  0  0  0  0  # atno 17342 bound_to 10162
  139.4811  144.5968  151.7675 LP  0  0  0  0  0  0  0  0  0  0  0  0  # atno 17343 bound_to 10162
  157.4409  131.0861  151.0945 LP  0  0  0  0  0  0  0  0  0  0  0  0  # atno 17370 bound_to 10713
  157.1489  130.6175  149.5576 LP  0  0  0  0  0  0  0  0  0  0  0  0  # atno 17371 bound_to 10713
  141.2226  133.7038  156.8065 LP  0  0  0  0  0  0  0  0  0  0  0  0  # atno 17394 bound_to 11000
  140.2179  134.8779  157.3346 LP  0  0  0  0  0  0  0  0  0  0  0  0  # atno 17395 bound_to 11000

$$$$
