#       Name:                AV-unprocessed.smi:101
#       Creating user name   scv26
#       Creation time:       Thu Mar 26 17:45:22 2020


#       File generated by GOLD software.
#

@<TRIPOS>MOLECULE
AV-unprocessed.smi:101
    56    58     1
SMALL
NO_CHARGES


@<TRIPOS>ATOM
      1 ****        -2.5819   1.8785   2.1073 C.3            1 S1                 0.0000
      2 ****        -2.9655   1.5842   0.6674 C.2            1 S1                 0.0000
      3 ****        -2.1651   0.8776  -0.1609 C.2            1 S1                 0.0000
      4 ****        -2.5164   0.6125  -1.4746 N.am           1 S1                 0.0000
      5 ****        -1.6038  -0.1702  -2.4036 C.3            1 S1                 0.0000
      6 ****        -0.3110  -0.1999  -1.8718 O.3            1 S1                 0.0000
      7 ****        -0.0454  -1.4865  -1.3252 C.3            1 S1                 0.0000
      8 ****         1.4620  -1.7182  -1.1591 C.3            1 S1                 0.0000
      9 ****         1.9046  -0.9678  -0.0401 O.3            1 S1                 0.0000
     10 ****         3.2178  -0.8664   0.2353 C.2            1 S1                 0.0000
     11 ****         4.1001  -1.4051  -0.4361 O.2            1 S1                 0.0000
     12 ****         3.4917  -0.0310   1.4405 C.ar           1 S1                 0.0000
     13 ****         4.8300   0.1922   1.8403 C.ar           1 S1                 0.0000
     14 ****         5.1187   0.9754   2.9749 C.ar           1 S1                 0.0000
     15 ****         4.0725   1.5444   3.7243 C.ar           1 S1                 0.0000
     16 ****         2.7369   1.3310   3.3364 C.ar           1 S1                 0.0000
     17 ****         2.4461   0.5490   2.2014 C.ar           1 S1                 0.0000
     18 ****        -0.7710  -2.4203  -2.2955 C.3            1 S1                 0.0000
     19 ****        -0.0029  -2.6199  -3.4679 O.3            1 S1                 0.0000
     20 ****        -2.0451  -1.6437  -2.6096 C.3            1 S1                 0.0000
     21 ****        -3.0799  -2.0631  -1.7362 O.3            1 S1                 0.0000
     22 ****        -3.7477   1.1050  -1.9818 C.2            1 S1                 0.0000
     23 ****        -4.0268   0.8607  -3.1560 O.2            1 S1                 0.0000
     24 ****        -4.5626   1.8171  -1.1524 N.pl3          1 S1                -1.0000
     25 ****        -4.2438   2.0830   0.1468 C.2            1 S1                 0.0000
     26 ****        -4.9901   2.7243   0.8857 O.2            1 S1                 0.0000
     27 ****        -1.6065   1.4572   2.3528 H              1 S1                 0.0000
     28 ****        -3.3160   1.4516   2.7912 H              1 S1                 0.0000
     29 ****        -2.5370   2.9548   2.2769 H              1 S1                 0.0000
     30 ****        -1.2243   0.5214   0.2281 H              1 S1                 0.0000
     31 ****        -1.5684   0.4057  -3.3298 H              1 S1                 0.0000
     32 ****        -0.5318  -1.5694  -0.3517 H              1 S1                 0.0000
     33 ****         1.6624  -2.7748  -0.9771 H              1 S1                 0.0000
     34 ****         1.9992  -1.4266  -2.0629 H              1 S1                 0.0000
     35 ****         5.6503  -0.2345   1.2811 H              1 S1                 0.0000
     36 ****         6.1446   1.1393   3.2702 H              1 S1                 0.0000
     37 ****         4.2942   2.1442   4.5947 H              1 S1                 0.0000
     38 ****         1.9329   1.7678   3.9102 H              1 S1                 0.0000
     39 ****         1.4096   0.4059   1.9321 H              1 S1                 0.0000
     40 ****        -0.9688  -3.3970  -1.8512 H              1 S1                 0.0000
     41 ****         0.1619  -1.7769  -3.8625 H              1 S1                 0.0000
     42 ****        -2.3797  -1.7919  -3.6373 H              1 S1                 0.0000
     43 ****        -2.8436  -1.8198  -0.8543 H              1 S1                 0.0000
     44 ****        -0.2320   0.4896  -1.1519 LP             1 S1                 0.0000
     45 ****         0.3505  -0.0034  -2.5955 LP             1 S1                 0.0000
     46 ****         3.8553  -1.9539  -1.2354 LP             1 S1                 0.0000
     47 ****         5.0607  -1.2933  -0.1815 LP             1 S1                 0.0000
     48 ****        -0.5072  -3.1998  -4.1077 LP             1 S1                 0.0000
     49 ****         0.8645  -3.0586  -3.2331 LP             1 S1                 0.0000
     50 ****        -3.1896  -3.0553  -1.7947 LP             1 S1                 0.0000
     51 ****        -3.9380  -1.6173  -1.9909 LP             1 S1                 0.0000
     52 ****        -3.3942   0.3304  -3.7204 LP             1 S1                 0.0000
     53 ****        -4.8861   1.1926  -3.5452 LP             1 S1                 0.0000
     54 ****        -5.4309   2.1589  -1.5119 LP             1 S1                 0.0000
     55 ****        -4.7238   2.9020   1.8331 LP             1 S1                 0.0000
     56 ****        -5.8629   3.0677   0.5388 LP             1 S1                 0.0000
@<TRIPOS>BOND
    1    1    2 1     
    2    1   27 1     
    3    1   28 1     
    4    1   29 1     
    5    2   25 1     
    6    2    3 2     
    7    3    4 1     
    8    3   30 1     
    9    4    5 1     
   10    4   22 am    
   11    5   20 1     
   12    5    6 1     
   13    5   31 1     
   14    6    7 1     
   15    7    8 1     
   16    7   18 1     
   17    7   32 1     
   18    8    9 1     
   19    8   33 1     
   20    8   34 1     
   21    9   10 1     
   22   10   11 2     
   23   10   12 1     
   24   12   17 ar    
   25   12   13 ar    
   26   13   14 ar    
   27   13   35 1     
   28   14   15 ar    
   29   14   36 1     
   30   15   16 ar    
   31   15   37 1     
   32   16   17 ar    
   33   16   38 1     
   34   17   39 1     
   35   18   19 1     
   36   18   20 1     
   37   18   40 1     
   38   19   41 1     
   39   20   21 1     
   40   20   42 1     
   41   21   43 1     
   42   22   23 2     
   43   22   24 1     
   44   24   25 1     
   45   25   26 2     
   46    6   44 1     
   47    6   45 1     
   48   11   46 1     
   49   11   47 1     
   50   19   48 1     
   51   19   49 1     
   52   21   50 1     
   53   21   51 1     
   54   23   52 1     
   55   23   53 1     
   56   24   54 1     
   57   26   55 1     
   58   26   56 1     
@<TRIPOS>SUBSTRUCTURE
      1 S1             1
@<TRIPOS>SET
LONE_PAIRS      STATIC     ATOMS    <user>   **** ""
13 44 45 46 47 48 49 50 51 52 53 54 55 56
DONOR_HYDROGENS      STATIC     ATOMS    <user>   **** ""
2 41 43
ATOM$BLUE        STATIC     ATOMS    COLORGROUP SYSTEM
13 44 45 46 47 48 49 50 51 52 53 54 55 56
ATOM$RED        STATIC     ATOMS    COLORGROUP SYSTEM
2 41 43
