AV-unprocessed.smi:3071|AV-procd|sdf|11715|dock1
  -GOLD-   2272017113D 1   1.00000     0.00000
 Structure written by MMmdl.
 29 30  0  0  0  0  0  0  0  0  3 V2000
  151.4357  139.1570  155.3296 C   0  0  0  0  0  0  0  0  0  0  0  0
  150.2966  140.0971  155.0985 C   0  0  0  0  0  0  0  0  0  0  0  0
  149.5385  140.1426  153.9968 N   0  3  0  0  0  0  0  0  0  0  0  0
  148.5914  141.1235  154.1095 C   0  0  0  0  0  0  0  0  0  0  0  0
  148.7791  141.7032  155.3367 C   0  0  0  0  0  0  0  0  0  0  0  0
  149.8326  141.0499  155.9256 N   0  0  0  0  0  0  0  0  0  0  0  0
  150.3979  141.3272  157.2541 C   0  0  0  0  0  0  0  0  0  0  0  0
  151.0621  142.7143  157.3458 C   0  0  2  0  0  0  0  0  0  0  0  0
  152.1690  142.8364  158.3977 C   0  0  0  0  0  0  0  0  0  0  0  0
  152.2106  144.3352  158.6697 C   0  0  0  0  0  0  0  0  0  0  0  0
  150.7426  144.7560  158.5651 C   0  0  0  0  0  0  0  0  0  0  0  0
  150.0874  143.7737  157.6771 N   0  3  0  0  0  0  0  0  0  0  0  0
  151.5137  138.4777  154.4799 H   0  0  0  0  0  0  0  0  0  0  0  0
  151.2472  138.5892  156.2401 H   0  0  0  0  0  0  0  0  0  0  0  0
  152.3541  139.7362  155.4268 H   0  0  0  0  0  0  0  0  0  0  0  0
  147.8745  141.3303  153.3280 H   0  0  0  0  0  0  0  0  0  0  0  0
  148.2513  142.5117  155.8222 H   0  0  0  0  0  0  0  0  0  0  0  0
  149.6063  141.2245  157.9972 H   0  0  0  0  0  0  0  0  0  0  0  0
  151.1272  140.5443  157.4678 H   0  0  0  0  0  0  0  0  0  0  0  0
  151.4884  142.9773  156.3768 H   0  0  0  0  0  0  0  0  0  0  0  0
  151.8905  142.3052  159.3092 H   0  0  0  0  0  0  0  0  0  0  0  0
  153.1265  142.4420  158.0557 H   0  0  0  0  0  0  0  0  0  0  0  0
  152.6540  144.5805  159.6354 H   0  0  0  0  0  0  0  0  0  0  0  0
  152.7959  144.8338  157.8956 H   0  0  0  0  0  0  0  0  0  0  0  0
  150.2631  144.7079  159.5435 H   0  0  0  0  0  0  0  0  0  0  0  0
  150.6310  145.7720  158.1854 H   0  0  0  0  0  0  0  0  0  0  0  0
  149.7610  144.2207  156.8319 H   0  0  0  0  0  0  0  0  0  0  0  0
  149.3032  143.3708  158.1706 H   0  0  0  0  0  0  0  0  0  0  0  0
  149.6535  139.5374  153.1933 H   0  0  0  0  0  0  0  0  0  0  0  0
  1  2  1  0  0  0  0
  1 13  1  0  0  0  0
  1 14  1  0  0  0  0
  1 15  1  0  0  0  0
  2  6  1  0  0  0  0
  2  3  2  0  0  0  0
  3  4  1  0  0  0  0
  3 29  1  0  0  0  0
  4  5  2  0  0  0  0
  4 16  1  0  0  0  0
  5  6  1  0  0  0  0
  5 17  1  0  0  0  0
  6  7  1  0  0  0  0
  7  8  1  0  0  0  0
  7 18  1  0  0  0  0
  7 19  1  0  0  0  0
  8 12  1  0  0  0  0
  8  9  1  0  0  0  0
  8 20  1  0  0  0  0
  9 10  1  0  0  0  0
  9 21  1  0  0  0  0
  9 22  1  0  0  0  0
 10 11  1  0  0  0  0
 10 23  1  0  0  0  0
 10 24  1  0  0  0  0
 11 12  1  0  0  0  0
 11 25  1  0  0  0  0
 11 26  1  0  0  0  0
 12 27  1  0  0  0  0
 12 28  1  0  0  0  0
M  CHG  1   3   1
M  CHG  1  12   1
M  END
> <s_m_source_file>
AV-unprocessed.smi

> <i_m_source_file_index>
3071

> <i_lp_mmshare_version>
43012

> <i_f3d_flags>
0

> <s_epik_input>
W0NIM11jMW5bY0hdW2NIXW4xW0NIMl1bQ0BASF0yW0NIMl1bQ0gyXVtDSDJdW05IXTI=

> <s_epik_cmdline>
J2VwaWtfcHl0aG9uJywgJy1waCcsICc3LjAnLCAnLXRuJywgJzgnLCAnLW1hJywgJzIwMCcsICctbWV0YWxfYmluZGluZycsICctaW1hZScsICc8aW5maWxlLm1hZT4nLCAnLW9tYWUnLCAnPG91dGZpbGUubWFlPic=

> <r_lp_tautomer_probability>
1

> <r_epik_Ionization_Penalty>
0.770167

> <r_epik_Ionization_Penalty_Charging>
0.000985251

> <r_epik_Ionization_Penalty_Neutral>
0.769181

> <r_epik_State_Penalty>
0.493256

> <r_epik_Charging_Adjusted_Penalty>
0.494241

> <i_epik_Tot_Q>
2

> <i_epik_Tot_abs_Q>
2

> <r_epik_Metal_State_Penalty>
4.24699

> <b_epik_Metal_Only>
0

> <s_lp_Force_Field>
OPLS_2005

> <r_lp_Energy>
34.2939

> <b_lp_Chiralities_Consistent>
1

> <s_lp_Variant>
AV-unprocessed.smi:3071-3

> <Gold.Version>
5.8.1

> <Gold.Id.Protein>
6NUR|6NUR_protein|mol2

> <Gold.PLP.Fitness>
38.4826

> <Gold.PLP.PLP>
-28.6220

> <Gold.PLP.part.hbond>
-2.6230

> <Gold.PLP.part.metal>
0.0000

> <Gold.PLP.part.buried>
-0.5825

> <Gold.PLP.part.nonpolar>
-25.8352

> <Gold.PLP.part.repulsive>
0.7646

> <Gold.PLP.ligand.clash>
0.0000

> <Gold.PLP.ligand.torsion>
0.3315

> <Gold.PLP.Chemscore.Hbond>
2.7040

> <Gold.PLP.Chemscore.CHOScore>
0.8036

> <Gold.PLP.Chemscore.Metal>
0.0000

> <Gold.Chemscore.Hbonds>
donor molecule, donor type, donor heavy atom, donor atom, acceptor molecule, acceptor atom, score
      L1  H     3    29       P1  7957  0.49
      L1  H    12    27       P1  8028  1.95
      L1  C     5    17       P1  8028  0.88

> <Gold.PLP.Chemscore.Internal.Correction>
0.0009

> <Gold.Rescore>
     Score         DG    S(hbond)    S(metal)    S(lipo)     H(rot)  DE(clash)    DE(int)     intcor
     16.14     -16.68       1.78        0.00      72.10       1.25       0.30       0.24       ----

> <Gold.Chemscore.Fitness>
16.1419

> <Gold.Chemscore.DG>
-16.6755

> <Gold.Chemscore.ZeroCoef>
-5.4800

> <Gold.Chemscore.Hbond>
1.7827

> <Gold.Chemscore.Metal>
0.0000

> <Gold.Chemscore.Lipo>
72.0961

> <Gold.Chemscore.Internal_Hbond>
0.0000

> <Gold.Chemscore.DEClash>
0.2977

> <Gold.Chemscore.DEInternal>
0.2359

> <Gold.Chemscore.Rot>
1.2477

> <Gold.Chemscore.Internal.Correction>
   9.000000E+99

> <Gold.Chemscore.Hbonds>
donor molecule, donor type, donor heavy atom, donor atom, acceptor molecule, acceptor atom, score
      L1  H     3    29       P1  7957  0.48
      L1  H    12    27       P1  8028  0.76

> <Gold.Chemscore.Hbond.Weighted>
-5.9543

> <Gold.Chemscore.Metal.Weighted>
-0.0000

> <Gold.Chemscore.Lipo.Weighted>
-8.4352

> <Gold.Chemscore.Internal_Hbond.Weighted>
0.0000

> <Gold.Chemscore.DEClash.Weighted>
0.2977

> <Gold.Chemscore.DEInternal.Weighted>
0.2359

> <Gold.Chemscore.Rot.Weighted>
3.1941

> <Gold.Chemscore.Internal.Correction.Weighted>
   9.000000E+99

> <Gold.Protein.RotatedTorsions>
[ 6907 6896 6895 6894 ] final   75.89 input  -60.11 | X-H torsion
[ 7974 7965 7964 7962 ] final -101.41 input  175.53 | X-H torsion
[ 8008 7997 7996 7995 ] final  -59.37 input   59.86 | X-H torsion
[ 10167 10162 10161 10158 ] final  102.42 input  -65.29 | X-H torsion
[ 10718 10713 10712 10709 ] final -142.71 input   66.30 | X-H torsion
[ 10763 10752 10751 10750 ] final -120.29 input  -60.55 | X-H torsion
[ 11005 11000 10999 10996 ] final  -44.07 input  -57.11 | X-H torsion

> <Gold.Protein.ActiveResidues>
 VAL166  LYS551  ARG553  GLY616  TRP617  ASP618  TYR619  PRO620  LYS621  CYS622 
 ASP623  PHE694  ASN695  SER759  ASP760  ASP761  ALA762  ILE779  LEU786  VAL792 
 PHE793  MET794  SER795  GLU796  ALA797  LYS798  CYS799  TRP800  GLU811  SER814 

> <Gold.Protein.RotatedAtoms>
  152.5047  134.4051  159.9429 H   0  0  0  0  0  0  0  0  0  0  0  0  # atno 6907 bound_to 6896
  151.4017  133.3749  159.2741 H   0  0  0  0  0  0  0  0  0  0  0  0  # atno 6908 bound_to 6896
  150.9357  134.8790  159.7639 H   0  0  0  0  0  0  0  0  0  0  0  0  # atno 6909 bound_to 6896
  145.2819  140.9329  143.2927 H   0  0  0  0  0  0  0  0  0  0  0  0  # atno 7974 bound_to 7965
  154.4349  140.1063  156.6105 H   0  0  0  0  0  0  0  0  0  0  0  0  # atno 8008 bound_to 7997
  155.5815  140.3491  155.4523 H   0  0  0  0  0  0  0  0  0  0  0  0  # atno 8009 bound_to 7997
  156.0315  140.1261  157.0242 H   0  0  0  0  0  0  0  0  0  0  0  0  # atno 8010 bound_to 7997
  139.7351  144.7026  151.0661 H   0  0  0  0  0  0  0  0  0  0  0  0  # atno 10167 bound_to 10162
  156.3492  130.7679  151.1828 H   0  0  0  0  0  0  0  0  0  0  0  0  # atno 10718 bound_to 10713
  154.8640  135.4208  154.2436 H   0  0  0  0  0  0  0  0  0  0  0  0  # atno 10763 bound_to 10752
  153.3396  135.6993  153.6884 H   0  0  0  0  0  0  0  0  0  0  0  0  # atno 10764 bound_to 10752
  153.5867  135.3562  155.2868 H   0  0  0  0  0  0  0  0  0  0  0  0  # atno 10765 bound_to 10752
  141.0426  133.6774  156.2821 H   0  0  0  0  0  0  0  0  0  0  0  0  # atno 11005 bound_to 11000
  144.9245  139.4371  143.6525 LP  0  0  0  0  0  0  0  0  0  0  0  0  # atno 17320 bound_to 7965
  146.3213  139.8124  142.8943 LP  0  0  0  0  0  0  0  0  0  0  0  0  # atno 17321 bound_to 7965
  140.7777  143.4994  150.9791 LP  0  0  0  0  0  0  0  0  0  0  0  0  # atno 17342 bound_to 10162
  139.8682  143.7226  152.3168 LP  0  0  0  0  0  0  0  0  0  0  0  0  # atno 17343 bound_to 10162
  157.7458  131.0432  150.4734 LP  0  0  0  0  0  0  0  0  0  0  0  0  # atno 17370 bound_to 10713
  156.4926  130.4099  149.6398 LP  0  0  0  0  0  0  0  0  0  0  0  0  # atno 17371 bound_to 10713
  140.6206  134.5365  157.5547 LP  0  0  0  0  0  0  0  0  0  0  0  0  # atno 17394 bound_to 11000
  139.9287  134.8005  156.0992 LP  0  0  0  0  0  0  0  0  0  0  0  0  # atno 17395 bound_to 11000

$$$$
