AV-unprocessed.smi:2007|AV-procd|sdf|8133|dock7
  -GOLD-   2272010363D 1   1.00000     0.00000
 Structure written by MMmdl.
 36 37  0  0  0  0  0  0  0  0  1 V2000
  147.1477  142.1141  154.1194 C   0  0  0  0  0  0  0  0  0  0  0  0
  147.4760  140.6154  154.1481 C   0  0  2  0  0  0  0  0  0  0  0  0
  148.8415  140.3333  153.4831 C   0  0  0  0  0  0  0  0  0  0  0  0
  149.9946  140.3186  154.3843 N   0  0  0  0  0  0  0  0  0  0  0  0
  149.8205  141.2610  155.4834 C   0  0  0  0  0  0  0  0  0  0  0  0
  151.0356  141.2690  156.4272 C   0  0  0  0  0  0  0  0  0  0  0  0
  151.2631  139.9538  156.9229 O   0  0  0  0  0  0  0  0  0  0  0  0
  151.4766  139.0044  155.8830 C   0  0  0  0  0  0  0  0  0  0  0  0
  150.2635  138.9924  154.9371 C   0  0  0  0  0  0  0  0  0  0  0  0
  146.4146  139.8841  153.4579 N   0  0  0  0  0  0  0  0  0  0  0  0
  146.4047  138.5660  153.2078 C   0  0  0  0  0  0  0  0  0  0  0  0
  147.2927  137.7953  153.5730 O   0  0  0  0  0  0  0  0  0  0  0  0
  145.3097  138.2125  152.5123 N   0  0  0  0  0  0  0  0  0  0  0  0
  144.9690  136.9312  152.0052 C   0  0  0  0  0  0  0  0  0  0  0  0
  145.7373  136.2203  151.1713 N   0  0  0  0  0  0  0  0  0  0  0  0
  145.1496  135.0006  150.8271 C   0  0  0  0  0  0  0  0  0  0  0  0
  143.9250  134.7968  151.4132 C   0  0  0  0  0  0  0  0  0  0  0  0
  143.4583  136.1373  152.4257 S   0  0  0  0  0  0  0  0  0  0  0  0
  147.9067  142.6907  154.6489 H   0  0  0  0  0  0  0  0  0  0  0  0
  146.1891  142.3157  154.5987 H   0  0  0  0  0  0  0  0  0  0  0  0
  147.0961  142.4919  153.0976 H   0  0  0  0  0  0  0  0  0  0  0  0
  147.5092  140.3240  155.1983 H   0  0  0  0  0  0  0  0  0  0  0  0
  148.7718  139.3659  152.9833 H   0  0  0  0  0  0  0  0  0  0  0  0
  149.0151  141.0619  152.6896 H   0  0  0  0  0  0  0  0  0  0  0  0
  149.6669  142.2660  155.0886 H   0  0  0  0  0  0  0  0  0  0  0  0
  148.9237  141.0076  156.0505 H   0  0  0  0  0  0  0  0  0  0  0  0
  151.9255  141.6284  155.9080 H   0  0  0  0  0  0  0  0  0  0  0  0
  150.8603  141.9417  157.2669 H   0  0  0  0  0  0  0  0  0  0  0  0
  152.3886  139.2506  155.3363 H   0  0  0  0  0  0  0  0  0  0  0  0
  151.6237  138.0188  156.3243 H   0  0  0  0  0  0  0  0  0  0  0  0
  149.3872  138.6320  155.4779 H   0  0  0  0  0  0  0  0  0  0  0  0
  150.4532  138.2760  154.1394 H   0  0  0  0  0  0  0  0  0  0  0  0
  145.6386  140.4334  153.1189 H   0  0  0  0  0  0  0  0  0  0  0  0
  144.6553  138.9506  152.2995 H   0  0  0  0  0  0  0  0  0  0  0  0
  145.6739  134.3360  150.1565 H   0  0  0  0  0  0  0  0  0  0  0  0
  143.2718  133.9432  151.3097 H   0  0  0  0  0  0  0  0  0  0  0  0
  1  2  1  0  0  0  0
  1 19  1  0  0  0  0
  1 20  1  0  0  0  0
  1 21  1  0  0  0  0
  2  3  1  0  0  0  0
  2 10  1  0  0  0  0
  2 22  1  0  0  0  0
  3  4  1  0  0  0  0
  3 23  1  0  0  0  0
  3 24  1  0  0  0  0
  4  9  1  0  0  0  0
  4  5  1  0  0  0  0
  5  6  1  0  0  0  0
  5 25  1  0  0  0  0
  5 26  1  0  0  0  0
  6  7  1  0  0  0  0
  6 27  1  0  0  0  0
  6 28  1  0  0  0  0
  7  8  1  0  0  0  0
  8  9  1  0  0  0  0
  8 29  1  0  0  0  0
  8 30  1  0  0  0  0
  9 31  1  0  0  0  0
  9 32  1  0  0  0  0
 10 11  1  0  0  0  0
 10 33  1  0  0  0  0
 11 12  2  0  0  0  0
 11 13  1  0  0  0  0
 13 14  1  0  0  0  0
 13 34  1  0  0  0  0
 14 18  1  0  0  0  0
 14 15  2  0  0  0  0
 15 16  1  0  0  0  0
 16 17  2  0  0  0  0
 16 35  1  0  0  0  0
 17 18  1  0  0  0  0
 17 36  1  0  0  0  0
M  END
> <s_m_source_file>
AV-unprocessed.smi

> <i_m_source_file_index>
2007

> <i_lp_mmshare_version>
43012

> <i_f3d_flags>
0

> <s_epik_input>
W0NIMl0xW0NIMl1PW0NIMl1bQ0gyXU4xW0NIMl1bQ0BASF0oW0NIM10pW05IXUMoPU8pW05IXWMybltjSF1bY0hdczI=

> <s_epik_cmdline>
J2VwaWtfcHl0aG9uJywgJy1waCcsICc3LjAnLCAnLXRuJywgJzgnLCAnLW1hJywgJzIwMCcsICctbWV0YWxfYmluZGluZycsICctaW1hZScsICc8aW5maWxlLm1hZT4nLCAnLW9tYWUnLCAnPG91dGZpbGUubWFlPic=

> <r_lp_tautomer_probability>
0.999

> <r_epik_Ionization_Penalty>
0.219197

> <r_epik_Ionization_Penalty_Charging>
0

> <r_epik_Ionization_Penalty_Neutral>
0.219197

> <r_epik_State_Penalty>
0.209349

> <r_epik_Charging_Adjusted_Penalty>
0.209349

> <i_epik_Tot_Q>
0

> <i_epik_Tot_abs_Q>
0

> <r_epik_Metal_State_Penalty>
0.254604

> <b_epik_Metal_Only>
0

> <s_lp_Force_Field>
OPLS_2005

> <r_lp_Energy>
23.8142

> <b_lp_Chiralities_Consistent>
1

> <s_lp_Variant>
AV-unprocessed.smi:2007-1

> <Gold.Version>
5.8.1

> <Gold.Id.Protein>
6NUR|6NUR_protein|mol2

> <Gold.PLP.Fitness>
37.2662

> <Gold.PLP.PLP>
-28.7303

> <Gold.PLP.part.hbond>
-3.8778

> <Gold.PLP.part.metal>
0.0000

> <Gold.PLP.part.buried>
-0.3533

> <Gold.PLP.part.nonpolar>
-27.8536

> <Gold.PLP.part.repulsive>
2.3328

> <Gold.PLP.ligand.clash>
0.0000

> <Gold.PLP.ligand.torsion>
1.3319

> <Gold.PLP.Chemscore.Hbond>
2.7920

> <Gold.PLP.Chemscore.CHOScore>
0.9311

> <Gold.PLP.Chemscore.Metal>
0.0000

> <Gold.Chemscore.Hbonds>
donor molecule, donor type, donor heavy atom, donor atom, acceptor molecule, acceptor atom, score
      L1  H    10    33       P1 10175  0.92
      L1  H    13    34       P1 10175  1.00
      P1  H  7989  7998       L1     4  0.91
      L1  C    16    35       P1  7921  0.74
      L1  C    17    36       P1 10186  0.05

> <Gold.PLP.Chemscore.Internal.Correction>
0.0305

> <Gold.Rescore>
     Score         DG    S(hbond)    S(metal)    S(lipo)     H(rot)  DE(clash)    DE(int)     intcor
     12.42     -15.52       1.97        0.00      64.28       1.58       1.88       1.22       ----

> <Gold.Chemscore.Fitness>
12.4201

> <Gold.Chemscore.DG>
-15.5203

> <Gold.Chemscore.ZeroCoef>
-5.4800

> <Gold.Chemscore.Hbond>
1.9675

> <Gold.Chemscore.Metal>
0.0000

> <Gold.Chemscore.Lipo>
64.2752

> <Gold.Chemscore.Internal_Hbond>
0.0000

> <Gold.Chemscore.DEClash>
1.8824

> <Gold.Chemscore.DEInternal>
1.2178

> <Gold.Chemscore.Rot>
1.5825

> <Gold.Chemscore.Internal.Correction>
   9.000000E+99

> <Gold.Chemscore.Hbonds>
donor molecule, donor type, donor heavy atom, donor atom, acceptor molecule, acceptor atom, score
      L1  H    10    33       P1 10175  0.77
      L1  H    13    34       P1 10175  1.00
      P1  H  7989  7998       L1     4  0.21

> <Gold.Chemscore.Hbond.Weighted>
-6.5714

> <Gold.Chemscore.Metal.Weighted>
-0.0000

> <Gold.Chemscore.Lipo.Weighted>
-7.5202

> <Gold.Chemscore.Internal_Hbond.Weighted>
0.0000

> <Gold.Chemscore.DEClash.Weighted>
1.8824

> <Gold.Chemscore.DEInternal.Weighted>
1.2178

> <Gold.Chemscore.Rot.Weighted>
4.0512

> <Gold.Chemscore.Internal.Correction.Weighted>
   9.000000E+99

> <Gold.Protein.RotatedTorsions>
[ 6907 6896 6895 6894 ] final  -58.11 input  -60.11 | X-H torsion
[ 7974 7965 7964 7962 ] final  -73.06 input  175.53 | X-H torsion
[ 8008 7997 7996 7995 ] final -156.45 input   59.86 | X-H torsion
[ 10167 10162 10161 10158 ] final -151.92 input  -65.29 | X-H torsion
[ 10718 10713 10712 10709 ] final   41.21 input   66.30 | X-H torsion
[ 10763 10752 10751 10750 ] final   98.50 input  -60.55 | X-H torsion
[ 11005 11000 10999 10996 ] final  -11.72 input  -57.11 | X-H torsion

> <Gold.Protein.ActiveResidues>
 VAL166  LYS551  ARG553  GLY616  TRP617  ASP618  TYR619  PRO620  LYS621  CYS622 
 ASP623  PHE694  ASN695  SER759  ASP760  ASP761  ALA762  ILE779  LEU786  VAL792 
 PHE793  MET794  SER795  GLU796  ALA797  LYS798  CYS799  TRP800  GLU811  SER814 

> <Gold.Protein.RotatedAtoms>
  150.8033  134.7141  159.6620 H   0  0  0  0  0  0  0  0  0  0  0  0  # atno 6907 bound_to 6896
  152.4151  134.6053  160.0021 H   0  0  0  0  0  0  0  0  0  0  0  0  # atno 6908 bound_to 6896
  151.6284  133.3297  159.3139 H   0  0  0  0  0  0  0  0  0  0  0  0  # atno 6909 bound_to 6896
  145.6570  140.9265  143.0954 H   0  0  0  0  0  0  0  0  0  0  0  0  # atno 7974 bound_to 7965
  155.7174  140.0786  157.2345 H   0  0  0  0  0  0  0  0  0  0  0  0  # atno 8008 bound_to 7997
  154.4050  140.1619  156.2417 H   0  0  0  0  0  0  0  0  0  0  0  0  # atno 8009 bound_to 7997
  155.9228  140.3396  155.6189 H   0  0  0  0  0  0  0  0  0  0  0  0  # atno 8010 bound_to 7997
  139.7226  143.8933  152.2508 H   0  0  0  0  0  0  0  0  0  0  0  0  # atno 10167 bound_to 10162
  157.3910  130.7806  149.7270 H   0  0  0  0  0  0  0  0  0  0  0  0  # atno 10718 bound_to 10713
  153.2899  135.4146  155.1157 H   0  0  0  0  0  0  0  0  0  0  0  0  # atno 10763 bound_to 10752
  154.8517  135.3516  154.5996 H   0  0  0  0  0  0  0  0  0  0  0  0  # atno 10764 bound_to 10752
  153.6418  135.7056  153.5297 H   0  0  0  0  0  0  0  0  0  0  0  0  # atno 10765 bound_to 10752
  140.7582  133.8536  155.9102 H   0  0  0  0  0  0  0  0  0  0  0  0  # atno 11005 bound_to 11000
  144.7102  139.8400  143.7417 LP  0  0  0  0  0  0  0  0  0  0  0  0  # atno 17320 bound_to 7965
  146.1156  139.4167  143.0260 LP  0  0  0  0  0  0  0  0  0  0  0  0  # atno 17321 bound_to 7965
  139.8833  144.7005  150.8852 LP  0  0  0  0  0  0  0  0  0  0  0  0  # atno 17342 bound_to 10162
  140.7756  143.3643  151.1768 LP  0  0  0  0  0  0  0  0  0  0  0  0  # atno 17343 bound_to 10162
  155.9798  130.4036  150.3564 LP  0  0  0  0  0  0  0  0  0  0  0  0  # atno 17370 bound_to 10713
  157.1680  131.0361  151.2809 LP  0  0  0  0  0  0  0  0  0  0  0  0  # atno 17371 bound_to 10713
  140.9688  134.1559  157.4594 LP  0  0  0  0  0  0  0  0  0  0  0  0  # atno 17394 bound_to 11000
  139.8775  134.9971  156.5829 LP  0  0  0  0  0  0  0  0  0  0  0  0  # atno 17395 bound_to 11000

$$$$
