AV-unprocessed.smi:1644|AV-procd|sdf|6586|dock5
  -GOLD-   22720 7283D 1   1.00000     0.00000
 Structure written by MMmdl.
 49 51  0  0  0  0  0  0  0  0  1 V2000
  147.6284  141.8680  155.1539 C   0  0  0  0  0  0  0  0  0  0  0  0
  148.8073  141.2911  154.3631 C   0  0  0  0  0  0  0  0  0  0  0  0
  148.7710  139.7508  154.2955 C   0  0  0  0  0  0  0  0  0  0  0  0
  150.1042  139.0625  153.9246 C   0  0  2  0  0  0  0  0  0  0  0  0
  150.0687  137.6230  154.0776 N   0  0  0  0  0  0  0  0  0  0  0  0
  151.0211  137.1712  154.9036 C   0  0  0  0  0  0  0  0  0  0  0  0
  151.1977  135.9895  155.1952 O   0  0  0  0  0  0  0  0  0  0  0  0
  151.7407  138.2217  155.3426 N   0  0  0  0  0  0  0  0  0  0  0  0
  152.8811  138.1195  156.2649 C   0  0  0  0  0  0  0  0  0  0  0  0
  152.6302  138.7410  157.6636 C   0  0  1  0  0  0  0  0  0  0  0  0
  151.7089  137.9126  158.3412 O   0  0  0  0  0  0  0  0  0  0  0  0
  153.8672  138.8998  158.5783 C   0  0  0  0  0  0  0  0  0  0  0  0
  153.7555  139.9662  159.5585 N   0  0  0  0  0  0  0  0  0  0  0  0
  154.2136  139.9439  160.8254 C   0  0  0  0  0  0  0  0  0  0  0  0
  154.0233  141.0342  161.5622 N   0  0  0  0  0  0  0  0  0  0  0  0
  153.3427  141.8522  160.6780 C   0  0  0  0  0  0  0  0  0  0  0  0
  152.8601  143.1691  160.8379 C   0  0  0  0  0  0  0  0  0  0  0  0
  152.1849  143.8261  159.7853 C   0  0  0  0  0  0  0  0  0  0  0  0
  151.6939  145.2475  159.9960 C   0  0  0  0  0  0  0  0  0  0  0  0
  151.9732  143.1595  158.5524 C   0  0  0  0  0  0  0  0  0  0  0  0
  151.2512  143.8447  157.4059 C   0  0  0  0  0  0  0  0  0  0  0  0
  152.4450  141.8422  158.3774 C   0  0  0  0  0  0  0  0  0  0  0  0
  153.1350  141.2053  159.4243 C   0  0  0  0  0  0  0  0  0  0  0  0
  151.2552  139.3756  154.8621 C   0  0  0  0  0  0  0  0  0  0  0  0
  151.6482  140.5149  155.1120 O   0  0  0  0  0  0  0  0  0  0  0  0
  147.6783  142.9566  155.1872 H   0  0  0  0  0  0  0  0  0  0  0  0
  147.6267  141.5031  156.1814 H   0  0  0  0  0  0  0  0  0  0  0  0
  146.6769  141.5926  154.6982 H   0  0  0  0  0  0  0  0  0  0  0  0
  148.7959  141.7132  153.3578 H   0  0  0  0  0  0  0  0  0  0  0  0
  149.7375  141.6214  154.8262 H   0  0  0  0  0  0  0  0  0  0  0  0
  148.4444  139.3664  155.2625 H   0  0  0  0  0  0  0  0  0  0  0  0
  148.0048  139.4409  153.5834 H   0  0  0  0  0  0  0  0  0  0  0  0
  150.3945  139.3113  152.9031 H   0  0  0  0  0  0  0  0  0  0  0  0
  149.3958  137.0363  153.6058 H   0  0  0  0  0  0  0  0  0  0  0  0
  153.0962  137.0551  156.3764 H   0  0  0  0  0  0  0  0  0  0  0  0
  153.7846  138.5510  155.8312 H   0  0  0  0  0  0  0  0  0  0  0  0
  152.1325  139.7031  157.5582 H   0  0  0  0  0  0  0  0  0  0  0  0
  151.2177  137.4227  157.6993 H   0  0  0  0  0  0  0  0  0  0  0  0
  154.0504  137.9711  159.1202 H   0  0  0  0  0  0  0  0  0  0  0  0
  154.7549  139.0830  157.9705 H   0  0  0  0  0  0  0  0  0  0  0  0
  154.7375  139.0868  161.2227 H   0  0  0  0  0  0  0  0  0  0  0  0
  153.0173  143.6743  161.7795 H   0  0  0  0  0  0  0  0  0  0  0  0
  150.6103  145.2973  159.8872 H   0  0  0  0  0  0  0  0  0  0  0  0
  152.1471  145.9197  159.2671 H   0  0  0  0  0  0  0  0  0  0  0  0
  151.9471  145.6137  160.9913 H   0  0  0  0  0  0  0  0  0  0  0  0
  151.1567  143.1837  156.5439 H   0  0  0  0  0  0  0  0  0  0  0  0
  151.7979  144.7327  157.0881 H   0  0  0  0  0  0  0  0  0  0  0  0
  150.2478  144.1439  157.7092 H   0  0  0  0  0  0  0  0  0  0  0  0
  152.2921  141.3290  157.4401 H   0  0  0  0  0  0  0  0  0  0  0  0
  1  2  1  0  0  0  0
  1 26  1  0  0  0  0
  1 27  1  0  0  0  0
  1 28  1  0  0  0  0
  2  3  1  0  0  0  0
  2 29  1  0  0  0  0
  2 30  1  0  0  0  0
  3  4  1  0  0  0  0
  3 31  1  0  0  0  0
  3 32  1  0  0  0  0
  4 24  1  0  0  0  0
  4  5  1  0  0  0  0
  4 33  1  0  0  0  0
  5  6  1  0  0  0  0
  5 34  1  0  0  0  0
  6  7  2  0  0  0  0
  6  8  1  0  0  0  0
  8  9  1  0  0  0  0
  8 24  1  0  0  0  0
  9 10  1  0  0  0  0
  9 35  1  0  0  0  0
  9 36  1  0  0  0  0
 10 11  1  0  0  0  0
 10 12  1  0  0  0  0
 10 37  1  0  0  0  0
 11 38  1  0  0  0  0
 12 13  1  0  0  0  0
 12 39  1  0  0  0  0
 12 40  1  0  0  0  0
 13 23  1  0  0  0  0
 13 14  1  0  0  0  0
 14 15  2  0  0  0  0
 14 41  1  0  0  0  0
 15 16  1  0  0  0  0
 16 23  2  0  0  0  0
 16 17  1  0  0  0  0
 17 18  2  0  0  0  0
 17 42  1  0  0  0  0
 18 19  1  0  0  0  0
 18 20  1  0  0  0  0
 19 43  1  0  0  0  0
 19 44  1  0  0  0  0
 19 45  1  0  0  0  0
 20 21  1  0  0  0  0
 20 22  2  0  0  0  0
 21 46  1  0  0  0  0
 21 47  1  0  0  0  0
 21 48  1  0  0  0  0
 22 23  1  0  0  0  0
 22 49  1  0  0  0  0
 24 25  2  0  0  0  0
M  END
> <s_m_source_file>
AV-unprocessed.smi

> <i_m_source_file_index>
1644

> <i_lp_mmshare_version>
43012

> <i_f3d_flags>
0

> <s_epik_input>
W0NIM11bQ0gyXVtDSDJdW0NAQEhdMVtOSF1DKD1PKU4oQzE9TylbQ0gyXVtDQEhdKFtPSF0pW0NIMl1uKFtjSF1uMiljKGMyMylbY0hdYyhbQ0gzXSljKFtjSF0zKVtDSDNd

> <s_epik_cmdline>
J2VwaWtfcHl0aG9uJywgJy1waCcsICc3LjAnLCAnLXRuJywgJzgnLCAnLW1hJywgJzIwMCcsICctbWV0YWxfYmluZGluZycsICctaW1hZScsICc8aW5maWxlLm1hZT4nLCAnLW9tYWUnLCAnPG91dGZpbGUubWFlPic=

> <r_lp_tautomer_probability>
1

> <r_epik_Ionization_Penalty>
0.10693

> <r_epik_Ionization_Penalty_Charging>
0

> <r_epik_Ionization_Penalty_Neutral>
0.10693

> <r_epik_State_Penalty>
0.096713

> <r_epik_Charging_Adjusted_Penalty>
0.096713

> <i_epik_Tot_Q>
0

> <i_epik_Tot_abs_Q>
0

> <r_epik_Metal_State_Penalty>
0.102757

> <b_epik_Metal_Only>
0

> <s_lp_Force_Field>
OPLS_2005

> <r_lp_Energy>
20.4665

> <b_lp_Chiralities_Consistent>
1

> <s_lp_Variant>
AV-unprocessed.smi:1644-3

> <Gold.Version>
5.8.1

> <Gold.Id.Protein>
6NUR|6NUR_protein|mol2

> <Gold.PLP.Fitness>
58.8095

> <Gold.PLP.PLP>
-53.7207

> <Gold.PLP.part.hbond>
-3.2235

> <Gold.PLP.part.metal>
0.0000

> <Gold.PLP.part.buried>
-4.0573

> <Gold.PLP.part.nonpolar>
-46.2845

> <Gold.PLP.part.repulsive>
0.1590

> <Gold.PLP.ligand.clash>
0.0000

> <Gold.PLP.ligand.torsion>
0.8323

> <Gold.PLP.Chemscore.Hbond>
2.1965

> <Gold.PLP.Chemscore.CHOScore>
0.0000

> <Gold.PLP.Chemscore.Metal>
0.0000

> <Gold.Chemscore.Hbonds>
donor molecule, donor type, donor heavy atom, donor atom, acceptor molecule, acceptor atom, score
      L1  H     5    34       P1  7948  0.83
      P1  H  7989  7998       L1    25  0.44
      P1  H 10752 10764       L1     7  1.00

> <Gold.PLP.Chemscore.Internal.Correction>
0.1639

> <Gold.Rescore>
     Score         DG    S(hbond)    S(metal)    S(lipo)     H(rot)  DE(clash)    DE(int)     intcor
     16.53     -19.11       1.80        0.00     124.64       2.72       0.01       2.57       ----

> <Gold.Chemscore.Fitness>
16.5273

> <Gold.Chemscore.DG>
-19.1085

> <Gold.Chemscore.ZeroCoef>
-5.4800

> <Gold.Chemscore.Hbond>
1.8000

> <Gold.Chemscore.Metal>
0.0000

> <Gold.Chemscore.Lipo>
124.6378

> <Gold.Chemscore.Internal_Hbond>
0.0000

> <Gold.Chemscore.DEClash>
0.0077

> <Gold.Chemscore.DEInternal>
2.5735

> <Gold.Chemscore.Rot>
2.7212

> <Gold.Chemscore.Internal.Correction>
   9.000000E+99

> <Gold.Chemscore.Hbonds>
donor molecule, donor type, donor heavy atom, donor atom, acceptor molecule, acceptor atom, score
      L1  H     5    34       P1  7948  0.78
      P1  H  7989  7998       L1    25  0.02
      P1  H 10752 10764       L1     7  0.65

> <Gold.Chemscore.Hbond.Weighted>
-6.0122

> <Gold.Chemscore.Metal.Weighted>
-0.0000

> <Gold.Chemscore.Lipo.Weighted>
-14.5826

> <Gold.Chemscore.Internal_Hbond.Weighted>
0.0000

> <Gold.Chemscore.DEClash.Weighted>
0.0077

> <Gold.Chemscore.DEInternal.Weighted>
2.5735

> <Gold.Chemscore.Rot.Weighted>
6.9663

> <Gold.Chemscore.Internal.Correction.Weighted>
   9.000000E+99

> <Gold.Protein.RotatedTorsions>
[ 6907 6896 6895 6894 ] final  -24.76 input  -60.11 | X-H torsion
[ 7974 7965 7964 7962 ] final  -35.47 input  175.53 | X-H torsion
[ 8008 7997 7996 7995 ] final  -85.49 input   59.86 | X-H torsion
[ 10167 10162 10161 10158 ] final -119.32 input  -65.29 | X-H torsion
[ 10718 10713 10712 10709 ] final  -59.59 input   66.30 | X-H torsion
[ 10763 10752 10751 10750 ] final  -47.91 input  -60.55 | X-H torsion
[ 11005 11000 10999 10996 ] final -128.87 input  -57.11 | X-H torsion

> <Gold.Protein.ActiveResidues>
 VAL166  LYS551  ARG553  GLY616  TRP617  ASP618  TYR619  PRO620  LYS621  CYS622 
 ASP623  PHE694  ASN695  SER759  ASP760  ASP761  ALA762  ILE779  LEU786  VAL792 
 PHE793  MET794  SER795  GLU796  ALA797  LYS798  CYS799  TRP800  GLU811  SER814 

> <Gold.Protein.RotatedAtoms>
  151.1849  135.0377  159.8807 H   0  0  0  0  0  0  0  0  0  0  0  0  # atno 6907 bound_to 6896
  152.5443  134.1021  159.8332 H   0  0  0  0  0  0  0  0  0  0  0  0  # atno 6908 bound_to 6896
  151.1143  133.5103  159.2636 H   0  0  0  0  0  0  0  0  0  0  0  0  # atno 6909 bound_to 6896
  146.0744  140.6163  142.8937 H   0  0  0  0  0  0  0  0  0  0  0  0  # atno 7974 bound_to 7965
  154.6413  140.0591  156.9849 H   0  0  0  0  0  0  0  0  0  0  0  0  # atno 8008 bound_to 7997
  155.1513  140.3274  155.4412 H   0  0  0  0  0  0  0  0  0  0  0  0  # atno 8009 bound_to 7997
  156.2532  140.1947  156.6624 H   0  0  0  0  0  0  0  0  0  0  0  0  # atno 8010 bound_to 7997
  140.0479  143.5089  152.2097 H   0  0  0  0  0  0  0  0  0  0  0  0  # atno 10167 bound_to 10162
  156.1050  130.4181  150.0737 H   0  0  0  0  0  0  0  0  0  0  0  0  # atno 10718 bound_to 10713
  154.0692  135.6607  153.4822 H   0  0  0  0  0  0  0  0  0  0  0  0  # atno 10763 bound_to 10752
  153.0397  135.5153  154.7584 H   0  0  0  0  0  0  0  0  0  0  0  0  # atno 10764 bound_to 10752
  154.6644  135.3020  154.9792 H   0  0  0  0  0  0  0  0  0  0  0  0  # atno 10765 bound_to 10752
  140.9480  134.1104  157.4089 H   0  0  0  0  0  0  0  0  0  0  0  0  # atno 11005 bound_to 11000
  144.7252  140.4501  143.6978 LP  0  0  0  0  0  0  0  0  0  0  0  0  # atno 17320 bound_to 7965
  145.6334  139.1539  143.2956 LP  0  0  0  0  0  0  0  0  0  0  0  0  # atno 17321 bound_to 7965
  139.5972  144.7571  151.3259 LP  0  0  0  0  0  0  0  0  0  0  0  0  # atno 17342 bound_to 10162
  140.7230  143.7082  150.7790 LP  0  0  0  0  0  0  0  0  0  0  0  0  # atno 17343 bound_to 10162
  156.8714  130.9525  151.3609 LP  0  0  0  0  0  0  0  0  0  0  0  0  # atno 17370 bound_to 10713
  157.6226  130.8667  149.9134 LP  0  0  0  0  0  0  0  0  0  0  0  0  # atno 17371 bound_to 10713
  139.8839  135.0057  156.6332 LP  0  0  0  0  0  0  0  0  0  0  0  0  # atno 17394 bound_to 11000
  140.7642  133.8792  155.8442 LP  0  0  0  0  0  0  0  0  0  0  0  0  # atno 17395 bound_to 11000

$$$$
