AV-unprocessed.smi:767|AV-procd|sdf|3658|dock7
  -GOLD-   22720 1 63D 1   1.00000     0.00000
 Structure written by MMmdl.
 47 49  0  0  0  0  0  0  0  0  1 V2000
  145.8799  130.0591  151.7652 C   0  0  0  0  0  0  0  0  0  0  0  0
  145.6403  131.5194  151.4441 C   0  0  0  0  0  0  0  0  0  0  0  0
  144.5028  131.9231  150.7133 C   0  0  0  0  0  0  0  0  0  0  0  0
  144.3323  133.2939  150.4406 C   0  0  0  0  0  0  0  0  0  0  0  0
  145.3017  134.2050  150.9074 C   0  0  0  0  0  0  0  0  0  0  0  0
  145.1704  135.6891  150.6294 C   0  0  0  0  0  0  0  0  0  0  0  0
  144.9713  136.4982  151.9208 C   0  0  0  0  0  0  0  0  0  0  0  0
  146.2429  136.9382  152.4813 N   0  0  0  0  0  0  0  0  0  0  0  0
  146.3739  137.6893  153.5832 C   0  0  0  0  0  0  0  0  0  0  0  0
  145.4285  138.0875  154.2640 O   0  0  0  0  0  0  0  0  0  0  0  0
  147.6574  137.9641  153.8499 N   0  0  0  0  0  0  0  0  0  0  0  0
  148.1109  138.7821  154.9795 C   0  0  1  0  0  0  0  0  0  0  0  0
  149.6005  138.6004  155.2823 C   0  0  1  0  0  0  0  0  0  0  0  0
  150.6403  137.5924  154.9499 C   0  0  0  0  0  0  0  0  0  0  0  0
  151.7903  138.5923  154.6508 C   0  0  0  0  0  0  0  0  0  0  0  0
  151.1770  139.9069  154.6132 O   0  0  0  0  0  0  0  0  0  0  0  0
  149.8444  139.6493  154.2175 C   0  0  2  0  0  0  0  0  0  0  0  0
  148.4928  140.2753  154.6285 C   0  0  0  0  0  0  0  0  0  0  0  0
  147.7111  140.9511  153.4961 C   0  0  0  0  0  0  0  0  0  0  0  0
  148.5081  141.2875  155.7879 C   0  0  0  0  0  0  0  0  0  0  0  0
  146.4021  133.6983  151.6302 C   0  0  0  0  0  0  0  0  0  0  0  0
  146.5739  132.3856  151.8962 N   0  0  0  0  0  0  0  0  0  0  0  0
  145.0729  129.4326  151.3841 H   0  0  0  0  0  0  0  0  0  0  0  0
  145.9430  129.9132  152.8440 H   0  0  0  0  0  0  0  0  0  0  0  0
  146.8142  129.7209  151.3163 H   0  0  0  0  0  0  0  0  0  0  0  0
  143.7772  131.2020  150.3668 H   0  0  0  0  0  0  0  0  0  0  0  0
  143.4745  133.6370  149.8809 H   0  0  0  0  0  0  0  0  0  0  0  0
  146.0624  136.0297  150.1014 H   0  0  0  0  0  0  0  0  0  0  0  0
  144.3310  135.8506  149.9516 H   0  0  0  0  0  0  0  0  0  0  0  0
  144.3682  137.3833  151.7165 H   0  0  0  0  0  0  0  0  0  0  0  0
  144.4207  135.9115  152.6584 H   0  0  0  0  0  0  0  0  0  0  0  0
  147.0794  136.6601  151.9894 H   0  0  0  0  0  0  0  0  0  0  0  0
  148.3673  137.5942  153.2351 H   0  0  0  0  0  0  0  0  0  0  0  0
  147.4860  138.6927  155.8699 H   0  0  0  0  0  0  0  0  0  0  0  0
  149.7902  138.9717  156.2924 H   0  0  0  0  0  0  0  0  0  0  0  0
  150.8684  136.9264  155.7824 H   0  0  0  0  0  0  0  0  0  0  0  0
  150.3760  136.9977  154.0745 H   0  0  0  0  0  0  0  0  0  0  0  0
  152.5598  138.5711  155.4229 H   0  0  0  0  0  0  0  0  0  0  0  0
  152.2637  138.3655  153.6946 H   0  0  0  0  0  0  0  0  0  0  0  0
  149.8213  139.2602  153.1944 H   0  0  0  0  0  0  0  0  0  0  0  0
  148.1099  141.9397  153.2667 H   0  0  0  0  0  0  0  0  0  0  0  0
  146.6590  141.0714  153.7558 H   0  0  0  0  0  0  0  0  0  0  0  0
  147.7511  140.3760  152.5711 H   0  0  0  0  0  0  0  0  0  0  0  0
  149.0514  142.1926  155.5147 H   0  0  0  0  0  0  0  0  0  0  0  0
  148.9743  140.9047  156.6941 H   0  0  0  0  0  0  0  0  0  0  0  0
  147.4961  141.5865  156.0631 H   0  0  0  0  0  0  0  0  0  0  0  0
  147.1681  134.3629  152.0015 H   0  0  0  0  0  0  0  0  0  0  0  0
  1  2  1  0  0  0  0
  1 23  1  0  0  0  0
  1 24  1  0  0  0  0
  1 25  1  0  0  0  0
  2 22  1  0  0  0  0
  2  3  2  0  0  0  0
  3  4  1  0  0  0  0
  3 26  1  0  0  0  0
  4  5  2  0  0  0  0
  4 27  1  0  0  0  0
  5  6  1  0  0  0  0
  5 21  1  0  0  0  0
  6  7  1  0  0  0  0
  6 28  1  0  0  0  0
  6 29  1  0  0  0  0
  7  8  1  0  0  0  0
  7 30  1  0  0  0  0
  7 31  1  0  0  0  0
  8  9  1  0  0  0  0
  8 32  1  0  0  0  0
  9 10  2  0  0  0  0
  9 11  1  0  0  0  0
 11 12  1  0  0  0  0
 11 33  1  0  0  0  0
 12 18  1  0  0  0  0
 12 13  1  0  0  0  0
 12 34  1  0  0  0  0
 13 17  1  0  0  0  0
 13 14  1  0  0  0  0
 13 35  1  0  0  0  0
 14 15  1  0  0  0  0
 14 36  1  0  0  0  0
 14 37  1  0  0  0  0
 15 16  1  0  0  0  0
 15 38  1  0  0  0  0
 15 39  1  0  0  0  0
 16 17  1  0  0  0  0
 17 18  1  0  0  0  0
 17 40  1  0  0  0  0
 18 19  1  0  0  0  0
 18 20  1  0  0  0  0
 19 41  1  0  0  0  0
 19 42  1  0  0  0  0
 19 43  1  0  0  0  0
 20 44  1  0  0  0  0
 20 45  1  0  0  0  0
 20 46  1  0  0  0  0
 21 22  2  0  0  0  0
 21 47  1  0  0  0  0
M  END
> <s_m_source_file>
AV-unprocessed.smi

> <i_m_source_file_index>
767

> <i_lp_mmshare_version>
43012

> <i_f3d_flags>
0

> <s_epik_input>
W0NIM11jMVtjSF1bY0hdYyhbY0hdbjEpW0NIMl1bQ0gyXVtOSF1DKD1PKVtOSF1bQ0BIXTJDKFtDSDNdKShbQ0gzXSlbQ0BIXShbQ0BASF0yMylPW0NIMl1bQ0gyXTM=

> <s_epik_cmdline>
J2VwaWtfcHl0aG9uJywgJy1waCcsICc3LjAnLCAnLXRuJywgJzgnLCAnLW1hJywgJzIwMCcsICctbWV0YWxfYmluZGluZycsICctaW1hZScsICc8aW5maWxlLm1hZT4nLCAnLW9tYWUnLCAnPG91dGZpbGUubWFlPic=

> <r_epik_Ionization_Penalty>
0.0567523

> <r_epik_Ionization_Penalty_Charging>
0

> <r_epik_Ionization_Penalty_Neutral>
0.0567523

> <r_epik_State_Penalty>
0.0489186

> <r_epik_Charging_Adjusted_Penalty>
0.0489186

> <i_epik_Tot_Q>
0

> <i_epik_Tot_abs_Q>
0

> <r_epik_Metal_State_Penalty>
0.044622

> <b_epik_Metal_Only>
0

> <s_lp_Force_Field>
OPLS_2005

> <r_lp_Energy>
57.787

> <b_lp_Chiralities_Consistent>
1

> <s_lp_Variant>
AV-unprocessed.smi:767-2

> <Gold.Version>
5.8.1

> <Gold.Id.Protein>
6NUR|6NUR_protein|mol2

> <Gold.PLP.Fitness>
50.7755

> <Gold.PLP.PLP>
-39.4456

> <Gold.PLP.part.hbond>
-3.0000

> <Gold.PLP.part.metal>
0.0000

> <Gold.PLP.part.buried>
-4.1249

> <Gold.PLP.part.nonpolar>
-32.7134

> <Gold.PLP.part.repulsive>
0.3519

> <Gold.PLP.ligand.clash>
0.0000

> <Gold.PLP.ligand.torsion>
0.4686

> <Gold.PLP.Chemscore.Hbond>
3.0000

> <Gold.PLP.Chemscore.CHOScore>
1.0000

> <Gold.PLP.Chemscore.Metal>
0.0000

> <Gold.Chemscore.Hbonds>
donor molecule, donor type, donor heavy atom, donor atom, acceptor molecule, acceptor atom, score
      L1  H     8    32       P1  7948  1.00
      L1  H    11    33       P1  7948  1.00
      P1  H  7989  7998       L1    16  1.00
      L1  C    21    47       P1  7948  0.97

> <Gold.PLP.Chemscore.Internal.Correction>
0.2670

> <Gold.Rescore>
     Score         DG    S(hbond)    S(metal)    S(lipo)     H(rot)  DE(clash)    DE(int)     intcor
     21.72     -22.45       2.44        0.00     107.14       1.45       0.29       0.44       ----

> <Gold.Chemscore.Fitness>
21.7155

> <Gold.Chemscore.DG>
-22.4486

> <Gold.Chemscore.ZeroCoef>
-5.4800

> <Gold.Chemscore.Hbond>
2.4384

> <Gold.Chemscore.Metal>
0.0000

> <Gold.Chemscore.Lipo>
107.1411

> <Gold.Chemscore.Internal_Hbond>
0.0000

> <Gold.Chemscore.DEClash>
0.2896

> <Gold.Chemscore.DEInternal>
0.4435

> <Gold.Chemscore.Rot>
1.4497

> <Gold.Chemscore.Internal.Correction>
   9.000000E+99

> <Gold.Chemscore.Hbonds>
donor molecule, donor type, donor heavy atom, donor atom, acceptor molecule, acceptor atom, score
      L1  H     8    32       P1  7948  0.98
      L1  H    11    33       P1  7948  0.91
      P1  H  7989  7998       L1    16  0.27

> <Gold.Chemscore.Hbond.Weighted>
-8.1443

> <Gold.Chemscore.Metal.Weighted>
-0.0000

> <Gold.Chemscore.Lipo.Weighted>
-12.5355

> <Gold.Chemscore.Internal_Hbond.Weighted>
0.0000

> <Gold.Chemscore.DEClash.Weighted>
0.2896

> <Gold.Chemscore.DEInternal.Weighted>
0.4435

> <Gold.Chemscore.Rot.Weighted>
3.7112

> <Gold.Chemscore.Internal.Correction.Weighted>
   9.000000E+99

> <Gold.Protein.RotatedTorsions>
[ 6907 6896 6895 6894 ] final   29.55 input  -60.11 | X-H torsion
[ 7974 7965 7964 7962 ] final   40.92 input  175.53 | X-H torsion
[ 8008 7997 7996 7995 ] final  168.11 input   59.86 | X-H torsion
[ 10167 10162 10161 10158 ] final   97.90 input  -65.29 | X-H torsion
[ 10718 10713 10712 10709 ] final  112.34 input   66.30 | X-H torsion
[ 10763 10752 10751 10750 ] final -136.19 input  -60.55 | X-H torsion
[ 11005 11000 10999 10996 ] final   33.14 input  -57.11 | X-H torsion

> <Gold.Protein.ActiveResidues>
 VAL166  LYS551  ARG553  GLY616  TRP617  ASP618  TYR619  PRO620  LYS621  CYS622 
 ASP623  PHE694  ASN695  SER759  ASP760  ASP761  ALA762  ILE779  LEU786  VAL792 
 PHE793  MET794  SER795  GLU796  ALA797  LYS798  CYS799  TRP800  GLU811  SER814 

> <Gold.Protein.RotatedAtoms>
  152.0331  134.9756  160.0572 H   0  0  0  0  0  0  0  0  0  0  0  0  # atno 6907 bound_to 6896
  152.1224  133.4356  159.4690 H   0  0  0  0  0  0  0  0  0  0  0  0  # atno 6908 bound_to 6896
  150.6850  134.2437  159.4526 H   0  0  0  0  0  0  0  0  0  0  0  0  # atno 6909 bound_to 6896
  146.0866  139.5476  142.9503 H   0  0  0  0  0  0  0  0  0  0  0  0  # atno 7974 bound_to 7965
  156.1575  140.1599  156.8668 H   0  0  0  0  0  0  0  0  0  0  0  0  # atno 8008 bound_to 7997
  154.5129  140.0796  156.8061 H   0  0  0  0  0  0  0  0  0  0  0  0  # atno 8009 bound_to 7997
  155.3774  140.3403  155.4247 H   0  0  0  0  0  0  0  0  0  0  0  0  # atno 8010 bound_to 7997
  139.7758  144.6906  151.0092 H   0  0  0  0  0  0  0  0  0  0  0  0  # atno 10167 bound_to 10162
  157.6398  131.0966  150.6880 H   0  0  0  0  0  0  0  0  0  0  0  0  # atno 10718 bound_to 10713
  154.8688  135.3680  154.5021 H   0  0  0  0  0  0  0  0  0  0  0  0  # atno 10763 bound_to 10752
  153.5661  135.7022  153.5530 H   0  0  0  0  0  0  0  0  0  0  0  0  # atno 10764 bound_to 10752
  153.3584  135.4053  155.1663 H   0  0  0  0  0  0  0  0  0  0  0  0  # atno 10765 bound_to 10752
  140.2661  134.3135  155.7842 H   0  0  0  0  0  0  0  0  0  0  0  0  # atno 11005 bound_to 11000
  145.6119  141.0338  143.1962 LP  0  0  0  0  0  0  0  0  0  0  0  0  # atno 17320 bound_to 7965
  144.7330  139.7669  143.7340 LP  0  0  0  0  0  0  0  0  0  0  0  0  # atno 17321 bound_to 7965
  140.7816  143.4538  151.0375 LP  0  0  0  0  0  0  0  0  0  0  0  0  # atno 17342 bound_to 10162
  139.8220  143.7807  152.3177 LP  0  0  0  0  0  0  0  0  0  0  0  0  # atno 17343 bound_to 10162
  156.7206  130.4679  149.5524 LP  0  0  0  0  0  0  0  0  0  0  0  0  # atno 17370 bound_to 10713
  156.1668  130.6410  151.0788 LP  0  0  0  0  0  0  0  0  0  0  0  0  # atno 17371 bound_to 10713
  141.2184  133.7439  156.9263 LP  0  0  0  0  0  0  0  0  0  0  0  0  # atno 17394 bound_to 11000
  140.1417  134.9289  157.2476 LP  0  0  0  0  0  0  0  0  0  0  0  0  # atno 17395 bound_to 11000

$$$$
