AV-unprocessed.smi:82|AV-procd|sdf|797|dock8
  -GOLD-   2262017173D 1   1.00000     0.00000
 Structure written by MMmdl.
 59 62  0  0  0  0  0  0  0  0  2 V2000
  141.5084  135.7081  153.4993 C   0  0  0  0  0  0  0  0  0  0  0  0
  142.5591  136.1815  154.3240 O   0  0  0  0  0  0  0  0  0  0  0  0
  143.3139  137.2112  153.7070 C   0  0  0  0  0  0  0  0  0  0  0  0
  144.4723  137.6037  154.6384 C   0  0  0  0  0  0  0  0  0  0  0  0
  145.2915  138.7251  154.0946 N   0  3  1  0  0  0  0  0  0  0  0  0
  145.7173  139.6597  155.1758 C   0  0  0  0  0  0  0  0  0  0  0  0
  146.5066  140.8617  154.6327 C   0  0  0  0  0  0  0  0  0  0  0  0
  147.6100  140.4387  153.7853 N   0  0  0  0  0  0  0  0  0  0  0  0
  148.7899  140.2162  154.4046 C   0  0  0  0  0  0  0  0  0  0  0  0
  149.6212  139.2397  153.9584 N   0  0  0  0  0  0  0  0  0  0  0  0
  150.7861  139.0232  154.5764 C   0  0  0  0  0  0  0  0  0  0  0  0
  151.2999  139.6567  155.6329 N   0  0  0  0  0  0  0  0  0  0  0  0
  150.4665  140.6401  156.0816 C   0  0  0  0  0  0  0  0  0  0  0  0
  149.2017  140.9816  155.5261 C   0  0  0  0  0  0  0  0  0  0  0  0
  148.6331  142.0298  156.2363 N   0  0  0  0  0  0  0  0  0  0  0  0
  149.5132  142.2954  157.1631 C   0  0  0  0  0  0  0  0  0  0  0  0
  150.6452  141.5098  157.1461 N   0  0  0  0  0  0  0  0  0  0  0  0
  151.7556  141.5966  158.0535 C   0  0  0  0  0  0  0  0  0  0  0  0
  151.5844  141.3471  159.5532 C   0  0  0  0  0  0  0  0  0  0  0  0
  152.6974  142.3808  159.8438 C   0  0  0  0  0  0  0  0  0  0  0  0
  152.4043  143.3085  161.0362 C   0  0  0  0  0  0  0  0  0  0  0  0
  151.8992  142.5995  162.1489 O   0  0  0  0  0  0  0  0  0  0  0  0
  154.0970  141.7540  160.0168 C   0  0  0  0  0  0  0  0  0  0  0  0
  154.1583  140.8714  161.1184 O   0  0  0  0  0  0  0  0  0  0  0  0
  152.3629  142.9446  158.4426 C   0  0  0  0  0  0  0  0  0  0  0  0
  147.2522  139.5056  152.7271 C   0  0  0  0  0  0  0  0  0  0  0  0
  146.4420  138.2893  153.2376 C   0  0  2  0  0  0  0  0  0  0  0  0
  146.0045  137.4613  152.0118 C   0  0  0  0  0  0  0  0  0  0  0  0
  140.9575  134.9255  154.0213 H   0  0  0  0  0  0  0  0  0  0  0  0
  141.8948  135.2851  152.5710 H   0  0  0  0  0  0  0  0  0  0  0  0
  140.8075  136.5076  153.2553 H   0  0  0  0  0  0  0  0  0  0  0  0
  143.6674  136.8969  152.7252 H   0  0  0  0  0  0  0  0  0  0  0  0
  142.6740  138.0800  153.5460 H   0  0  0  0  0  0  0  0  0  0  0  0
  144.0915  137.8742  155.6241 H   0  0  0  0  0  0  0  0  0  0  0  0
  145.0650  136.7050  154.7866 H   0  0  0  0  0  0  0  0  0  0  0  0
  144.8539  140.0409  155.7179 H   0  0  0  0  0  0  0  0  0  0  0  0
  146.3203  139.1160  155.9037 H   0  0  0  0  0  0  0  0  0  0  0  0
  145.8487  141.4991  154.0408 H   0  0  0  0  0  0  0  0  0  0  0  0
  146.8753  141.4760  155.4555 H   0  0  0  0  0  0  0  0  0  0  0  0
  151.3936  138.2297  154.1668 H   0  0  0  0  0  0  0  0  0  0  0  0
  149.3565  143.0789  157.8906 H   0  0  0  0  0  0  0  0  0  0  0  0
  152.5336  140.9431  157.6544 H   0  0  0  0  0  0  0  0  0  0  0  0
  150.6059  141.6532  159.9255 H   0  0  0  0  0  0  0  0  0  0  0  0
  151.8121  140.3277  159.8664 H   0  0  0  0  0  0  0  0  0  0  0  0
  153.3122  143.8167  161.3623 H   0  0  0  0  0  0  0  0  0  0  0  0
  151.6965  144.0921  160.7643 H   0  0  0  0  0  0  0  0  0  0  0  0
  152.0214  143.1271  162.9232 H   0  0  0  0  0  0  0  0  0  0  0  0
  154.3985  141.2133  159.1191 H   0  0  0  0  0  0  0  0  0  0  0  0
  154.8543  142.5224  160.1730 H   0  0  0  0  0  0  0  0  0  0  0  0
  153.2992  140.5043  161.2590 H   0  0  0  0  0  0  0  0  0  0  0  0
  153.2259  143.2368  157.8439 H   0  0  0  0  0  0  0  0  0  0  0  0
  151.6276  143.7501  158.4777 H   0  0  0  0  0  0  0  0  0  0  0  0
  146.6661  140.0553  151.9897 H   0  0  0  0  0  0  0  0  0  0  0  0
  148.1539  139.1706  152.2116 H   0  0  0  0  0  0  0  0  0  0  0  0
  147.0965  137.6675  153.8496 H   0  0  0  0  0  0  0  0  0  0  0  0
  146.8377  137.3232  151.3219 H   0  0  0  0  0  0  0  0  0  0  0  0
  145.2040  137.9573  151.4618 H   0  0  0  0  0  0  0  0  0  0  0  0
  145.6684  136.4600  152.2762 H   0  0  0  0  0  0  0  0  0  0  0  0
  144.6814  139.2490  153.4833 H   0  0  0  0  0  0  0  0  0  0  0  0
  1  2  1  0  0  0  0
  1 29  1  0  0  0  0
  1 30  1  0  0  0  0
  1 31  1  0  0  0  0
  2  3  1  0  0  0  0
  3  4  1  0  0  0  0
  3 32  1  0  0  0  0
  3 33  1  0  0  0  0
  4  5  1  0  0  0  0
  4 34  1  0  0  0  0
  4 35  1  0  0  0  0
  5 27  1  0  0  0  0
  5  6  1  0  0  0  0
  5 59  1  0  0  0  0
  6  7  1  0  0  0  0
  6 36  1  0  0  0  0
  6 37  1  0  0  0  0
  7  8  1  0  0  0  0
  7 38  1  0  0  0  0
  7 39  1  0  0  0  0
  8  9  1  0  0  0  0
  8 26  1  0  0  0  0
  9 14  1  0  0  0  0
  9 10  2  0  0  0  0
 10 11  1  0  0  0  0
 11 12  2  0  0  0  0
 11 40  1  0  0  0  0
 12 13  1  0  0  0  0
 13 17  1  0  0  0  0
 13 14  2  0  0  0  0
 14 15  1  0  0  0  0
 15 16  2  0  0  0  0
 16 17  1  0  0  0  0
 16 41  1  0  0  0  0
 17 18  1  0  0  0  0
 18 25  1  0  0  0  0
 18 19  1  0  0  0  0
 18 42  1  0  0  0  0
 19 20  1  0  0  0  0
 19 43  1  0  0  0  0
 19 44  1  0  0  0  0
 20 21  1  0  0  0  0
 20 23  1  0  0  0  0
 20 25  1  0  0  0  0
 21 22  1  0  0  0  0
 21 45  1  0  0  0  0
 21 46  1  0  0  0  0
 22 47  1  0  0  0  0
 23 24  1  0  0  0  0
 23 48  1  0  0  0  0
 23 49  1  0  0  0  0
 24 50  1  0  0  0  0
 25 51  1  0  0  0  0
 25 52  1  0  0  0  0
 26 27  1  0  0  0  0
 26 53  1  0  0  0  0
 26 54  1  0  0  0  0
 27 28  1  0  0  0  0
 27 55  1  0  0  0  0
 28 56  1  0  0  0  0
 28 57  1  0  0  0  0
 28 58  1  0  0  0  0
M  CHG  1   5   1
M  END
> <s_m_source_file>
AV-unprocessed.smi

> <i_m_source_file_index>
82

> <i_lp_mmshare_version>
43012

> <i_f3d_flags>
0

> <s_epik_input>
W0NIM11PW0NIMl1bQ0gyXU4xW0NIMl1bQ0gyXU4oW0NIMl1bQ0BIXTFbQ0gzXSljKG5bY0hdbjIpYyhjMjMpbltjSF1uM1tDSF0oW0NIMl00KVtDSDJdQzQoW0NIMl1bT0hdKVtDSDJdW09IXQ==

> <s_epik_cmdline>
J2VwaWtfcHl0aG9uJywgJy1waCcsICc3LjAnLCAnLXRuJywgJzgnLCAnLW1hJywgJzIwMCcsICctbWV0YWxfYmluZGluZycsICctaW1hZScsICc8aW5maWxlLm1hZT4nLCAnLW9tYWUnLCAnPG91dGZpbGUubWFlPic=

> <r_lp_tautomer_probability>
1

> <r_epik_Ionization_Penalty>
0.304275

> <r_epik_Ionization_Penalty_Charging>
0.304214

> <r_epik_Ionization_Penalty_Neutral>
6.13137e-05

> <r_epik_State_Penalty>
0.300354

> <r_epik_Charging_Adjusted_Penalty>
0.604567

> <i_epik_Tot_Q>
1

> <i_epik_Tot_abs_Q>
1

> <r_epik_Metal_State_Penalty>
0.301147

> <b_epik_Metal_Only>
0

> <s_lp_Force_Field>
OPLS_2005

> <r_lp_Energy>
60.5055

> <b_lp_Chiralities_Consistent>
1

> <s_lp_Variant>
AV-unprocessed.smi:82-4

> <Gold.Version>
5.8.1

> <Gold.Id.Protein>
6NUR|6NUR_protein|mol2

> <Gold.PLP.Fitness>
48.0933

> <Gold.PLP.PLP>
-41.4592

> <Gold.PLP.part.hbond>
-3.0000

> <Gold.PLP.part.metal>
0.0000

> <Gold.PLP.part.buried>
-3.8620

> <Gold.PLP.part.nonpolar>
-39.4330

> <Gold.PLP.part.repulsive>
4.2456

> <Gold.PLP.ligand.clash>
0.0000

> <Gold.PLP.ligand.torsion>
1.6105

> <Gold.PLP.Chemscore.Hbond>
2.9675

> <Gold.PLP.Chemscore.CHOScore>
0.0327

> <Gold.PLP.Chemscore.Metal>
0.0000

> <Gold.Chemscore.Hbonds>
donor molecule, donor type, donor heavy atom, donor atom, acceptor molecule, acceptor atom, score
      L1  H     5    59       P1 10175  2.00
      P1  H  6933  6945       L1    22  0.95
      L1  C    16    41       P1  8028  0.04

> <Gold.PLP.Chemscore.Internal.Correction>
0.8548

> <Gold.Rescore>
     Score         DG    S(hbond)    S(metal)    S(lipo)     H(rot)  DE(clash)    DE(int)     intcor
      6.82     -12.43       1.66        0.00      97.64       3.91       2.54       3.08       ----

> <Gold.Chemscore.Fitness>
6.8152

> <Gold.Chemscore.DG>
-12.4341

> <Gold.Chemscore.ZeroCoef>
-5.4800

> <Gold.Chemscore.Hbond>
1.6552

> <Gold.Chemscore.Metal>
0.0000

> <Gold.Chemscore.Lipo>
97.6402

> <Gold.Chemscore.Internal_Hbond>
0.0000

> <Gold.Chemscore.DEClash>
2.5407

> <Gold.Chemscore.DEInternal>
3.0781

> <Gold.Chemscore.Rot>
3.9055

> <Gold.Chemscore.Internal.Correction>
   9.000000E+99

> <Gold.Chemscore.Hbonds>
donor molecule, donor type, donor heavy atom, donor atom, acceptor molecule, acceptor atom, score
      L1  H     5    59       P1 10175  1.00
      P1  H  6933  6945       L1    22  0.55

> <Gold.Chemscore.Hbond.Weighted>
-5.5282

> <Gold.Chemscore.Metal.Weighted>
-0.0000

> <Gold.Chemscore.Lipo.Weighted>
-11.4239

> <Gold.Chemscore.Internal_Hbond.Weighted>
0.0000

> <Gold.Chemscore.DEClash.Weighted>
2.5407

> <Gold.Chemscore.DEInternal.Weighted>
3.0781

> <Gold.Chemscore.Rot.Weighted>
9.9980

> <Gold.Chemscore.Internal.Correction.Weighted>
   9.000000E+99

> <Gold.Protein.RotatedTorsions>
[ 6907 6896 6895 6894 ] final  -70.44 input  -60.11 | X-H torsion
[ 7974 7965 7964 7962 ] final  -78.07 input  175.53 | X-H torsion
[ 8008 7997 7996 7995 ] final -136.70 input   59.86 | X-H torsion
[ 10167 10162 10161 10158 ] final -146.81 input  -65.29 | X-H torsion
[ 10718 10713 10712 10709 ] final  -67.45 input   66.30 | X-H torsion
[ 10763 10752 10751 10750 ] final   83.39 input  -60.55 | X-H torsion
[ 11005 11000 10999 10996 ] final  -21.56 input  -57.11 | X-H torsion

> <Gold.Protein.ActiveResidues>
 VAL166  LYS551  ARG553  GLY616  TRP617  ASP618  TYR619  PRO620  LYS621  CYS622 
 ASP623  PHE694  ASN695  SER759  ASP760  ASP761  ALA762  ILE779  LEU786  VAL792 
 PHE793  MET794  SER795  GLU796  ALA797  LYS798  CYS799  TRP800  GLU811  SER814 

> <Gold.Protein.RotatedAtoms>
  150.7257  134.5453  159.5767 H   0  0  0  0  0  0  0  0  0  0  0  0  # atno 6907 bound_to 6896
  152.2953  134.7671  160.0378 H   0  0  0  0  0  0  0  0  0  0  0  0  # atno 6908 bound_to 6896
  151.8270  133.3367  159.3638 H   0  0  0  0  0  0  0  0  0  0  0  0  # atno 6909 bound_to 6896
  145.5913  140.9428  143.1290 H   0  0  0  0  0  0  0  0  0  0  0  0  # atno 7974 bound_to 7965
  155.3996  140.0505  157.3037 H   0  0  0  0  0  0  0  0  0  0  0  0  # atno 8008 bound_to 7997
  154.4997  140.2152  155.9333 H   0  0  0  0  0  0  0  0  0  0  0  0  # atno 8009 bound_to 7997
  156.1452  140.3147  155.8563 H   0  0  0  0  0  0  0  0  0  0  0  0  # atno 8010 bound_to 7997
  139.7679  143.8280  152.2619 H   0  0  0  0  0  0  0  0  0  0  0  0  # atno 10167 bound_to 10162
  156.0557  130.4278  150.1857 H   0  0  0  0  0  0  0  0  0  0  0  0  # atno 10718 bound_to 10713
  153.1287  135.4693  154.9313 H   0  0  0  0  0  0  0  0  0  0  0  0  # atno 10763 bound_to 10752
  154.7644  135.3140  154.8318 H   0  0  0  0  0  0  0  0  0  0  0  0  # atno 10764 bound_to 10752
  153.8865  135.6889  153.4817 H   0  0  0  0  0  0  0  0  0  0  0  0  # atno 10765 bound_to 10752
  140.8573  133.7813  156.0034 H   0  0  0  0  0  0  0  0  0  0  0  0  # atno 11005 bound_to 11000
  144.7350  139.7613  143.7333 LP  0  0  0  0  0  0  0  0  0  0  0  0  # atno 17320 bound_to 7965
  146.1644  139.4770  142.9967 LP  0  0  0  0  0  0  0  0  0  0  0  0  # atno 17321 bound_to 7965
  139.8306  144.7255  150.9456 LP  0  0  0  0  0  0  0  0  0  0  0  0  # atno 17342 bound_to 10162
  140.7812  143.4074  151.1049 LP  0  0  0  0  0  0  0  0  0  0  0  0  # atno 17343 bound_to 10162
  156.9933  130.9900  151.3409 LP  0  0  0  0  0  0  0  0  0  0  0  0  # atno 17370 bound_to 10713
  157.5524  130.8191  149.8162 LP  0  0  0  0  0  0  0  0  0  0  0  0  # atno 17371 bound_to 10713
  140.8723  134.2712  157.5185 LP  0  0  0  0  0  0  0  0  0  0  0  0  # atno 17394 bound_to 11000
  139.8705  134.9573  156.4265 LP  0  0  0  0  0  0  0  0  0  0  0  0  # atno 17395 bound_to 11000

$$$$
