AV-unprocessed.smi:54|AV-procd|sdf|544|dock5
  -GOLD-   2262016433D 1   1.00000     0.00000
 Structure written by MMmdl.
 44 46  0  0  0  0  0  0  0  0  1 V2000
  145.3488  133.0630  150.1700 C   0  0  0  0  0  0  0  0  0  0  0  0
  146.0313  132.0078  151.0545 C   0  0  0  0  0  0  0  0  0  0  0  0
  145.0438  130.9059  151.4724 C   0  0  0  0  0  0  0  0  0  0  0  0
  146.6647  132.6659  152.2856 C   0  0  0  0  0  0  0  0  0  0  0  0
  146.0467  133.4642  152.9915 O   0  0  0  0  0  0  0  0  0  0  0  0
  148.0418  132.2913  152.5521 N   0  0  0  0  0  0  0  0  0  0  0  0
  148.8231  132.7240  153.5684 C   0  0  0  0  0  0  0  0  0  0  0  0
  148.9285  134.0020  153.9043 N   0  0  0  0  0  0  0  0  0  0  0  0
  149.7569  134.2429  154.9651 C   0  0  0  0  0  0  0  0  0  0  0  0
  150.4603  133.3044  155.6905 C   0  0  0  0  0  0  0  0  0  0  0  0
  151.1979  133.9277  156.6910 N   0  0  0  0  0  0  0  0  0  0  0  0
  150.9257  135.1947  156.5434 C   0  0  0  0  0  0  0  0  0  0  0  0
  150.0567  135.4709  155.5134 N   0  0  0  0  0  0  0  0  0  0  0  0
  149.5192  136.7853  155.0470 C   0  0  1  0  0  0  0  0  0  0  0  0
  149.0690  137.4911  156.1688 O   0  0  0  0  0  0  0  0  0  0  0  0
  149.8160  138.6938  156.3263 C   0  0  1  0  0  0  0  0  0  0  0  0
  149.9267  139.0961  157.8086 C   0  0  0  0  0  0  0  0  0  0  0  0
  148.7305  138.8603  158.5219 O   0  0  0  0  0  0  0  0  0  0  0  0
  151.1218  138.4638  155.5629 C   0  0  2  0  0  0  0  0  0  0  0  0
  151.7433  139.6623  155.1403 O   0  0  0  0  0  0  0  0  0  0  0  0
  150.6518  137.5996  154.4003 C   0  0  2  0  0  0  0  0  0  0  0  0
  150.1673  138.3514  153.3020 O   0  0  0  0  0  0  0  0  0  0  0  0
  150.3481  131.9164  155.3455 C   0  0  0  0  0  0  0  0  0  0  0  0
  150.8934  130.9518  155.8774 O   0  0  0  0  0  0  0  0  0  0  0  0
  149.4924  131.7110  154.2551 N   0  0  0  0  0  0  0  0  0  0  0  0
  148.7030  136.5226  154.3725 H   0  0  0  0  0  0  0  0  0  0  0  0
  149.2400  139.4624  155.8079 H   0  0  0  0  0  0  0  0  0  0  0  0
  151.8254  137.8892  156.1662 H   0  0  0  0  0  0  0  0  0  0  0  0
  151.4465  136.9483  154.0332 H   0  0  0  0  0  0  0  0  0  0  0  0
  146.0512  133.8408  149.8674 H   0  0  0  0  0  0  0  0  0  0  0  0
  144.5194  133.5459  150.6886 H   0  0  0  0  0  0  0  0  0  0  0  0
  144.9518  132.6112  149.2606 H   0  0  0  0  0  0  0  0  0  0  0  0
  146.8268  131.5407  150.4720 H   0  0  0  0  0  0  0  0  0  0  0  0
  145.5218  130.1671  152.1168 H   0  0  0  0  0  0  0  0  0  0  0  0
  144.6590  130.3773  150.5998 H   0  0  0  0  0  0  0  0  0  0  0  0
  144.1891  131.3161  152.0121 H   0  0  0  0  0  0  0  0  0  0  0  0
  148.4698  131.6703  151.8814 H   0  0  0  0  0  0  0  0  0  0  0  0
  151.3509  135.9538  157.1829 H   0  0  0  0  0  0  0  0  0  0  0  0
  150.7146  138.5133  158.2860 H   0  0  0  0  0  0  0  0  0  0  0  0
  150.2069  140.1455  157.9013 H   0  0  0  0  0  0  0  0  0  0  0  0
  148.3948  139.6889  158.8282 H   0  0  0  0  0  0  0  0  0  0  0  0
  152.3653  139.9226  155.8028 H   0  0  0  0  0  0  0  0  0  0  0  0
  149.7488  137.7581  152.6964 H   0  0  0  0  0  0  0  0  0  0  0  0
  149.3673  130.7557  153.9547 H   0  0  0  0  0  0  0  0  0  0  0  0
  1  2  1  0  0  0  0
  1 30  1  0  0  0  0
  1 31  1  0  0  0  0
  1 32  1  0  0  0  0
  2  3  1  0  0  0  0
  2  4  1  0  0  0  0
  2 33  1  0  0  0  0
  3 34  1  0  0  0  0
  3 35  1  0  0  0  0
  3 36  1  0  0  0  0
  4  5  2  0  0  0  0
  4  6  1  0  0  0  0
  6 37  1  0  0  0  0
  6  7  1  0  0  0  0
  7 25  1  0  0  0  0
  7  8  2  0  0  0  0
  8  9  1  0  0  0  0
  9 13  1  0  0  0  0
  9 10  2  0  0  0  0
 10 11  1  0  0  0  0
 10 23  1  0  0  0  0
 11 12  2  0  0  0  0
 12 13  1  0  0  0  0
 12 38  1  0  0  0  0
 13 14  1  0  0  0  0
 14 26  1  0  0  0  0
 14 21  1  0  0  0  0
 14 15  1  0  0  0  0
 15 16  1  0  0  0  0
 16 27  1  0  0  0  0
 16 17  1  0  0  0  0
 16 19  1  0  0  0  0
 17 18  1  0  0  0  0
 17 39  1  0  0  0  0
 17 40  1  0  0  0  0
 18 41  1  0  0  0  0
 19 28  1  0  0  0  0
 19 20  1  0  0  0  0
 19 21  1  0  0  0  0
 20 42  1  0  0  0  0
 21 29  1  0  0  0  0
 21 22  1  0  0  0  0
 22 43  1  0  0  0  0
 23 24  2  0  0  0  0
 23 25  1  0  0  0  0
 25 44  1  0  0  0  0
M  END
> <s_m_source_file>
AV-unprocessed.smi

> <i_m_source_file_index>
54

> <i_lp_mmshare_version>
43012

> <i_f3d_flags>
0

> <s_epik_input>
W0NIM11bQ0hdKFtDSDNdKUMoPU8pW05IXWMobjEpW25IXWMoPU8pYyhjMTIpbltjSF1uMltDQEBIXTNPW0NASF0oW0NIMl1bT0hdKVtDQEBIXShbT0hdKVtDQEhdM1tPSF0=

> <s_epik_cmdline>
J2VwaWtfcHl0aG9uJywgJy1waCcsICc3LjAnLCAnLXRuJywgJzgnLCAnLW1hJywgJzIwMCcsICctbWV0YWxfYmluZGluZycsICctaW1hZScsICc8aW5maWxlLm1hZT4nLCAnLW9tYWUnLCAnPG91dGZpbGUubWFlPic=

> <r_lp_tautomer_probability>
0.85571

> <r_epik_Ionization_Penalty>
0.0316551

> <r_epik_Ionization_Penalty_Charging>
0.0316043

> <r_epik_Ionization_Penalty_Neutral>
5.07097e-05

> <r_epik_State_Penalty>
3.15494e-07

> <r_epik_Charging_Adjusted_Penalty>
0.0316047

> <i_epik_Tot_Q>
0

> <i_epik_Tot_abs_Q>
0

> <r_epik_Metal_State_Penalty>
0.421206

> <b_epik_Metal_Only>
0

> <s_epik_Chemistry_Notes>
This compound contains an acetal/aminal-like group ( X-CH(R)-Y where X, Y are N, S, or O) that may be acid/base labile, releasing an aldehyde.

> <s_lp_Force_Field>
OPLS_2005

> <r_lp_Energy>
44.5551

> <b_lp_Chiralities_Consistent>
1

> <s_lp_Variant>
AV-unprocessed.smi:54-16

> <Gold.Version>
5.8.1

> <Gold.Id.Protein>
6NUR|6NUR_protein|mol2

> <Gold.PLP.Fitness>
41.9250

> <Gold.PLP.PLP>
-35.1097

> <Gold.PLP.part.hbond>
-5.6403

> <Gold.PLP.part.metal>
0.0000

> <Gold.PLP.part.buried>
-6.7612

> <Gold.PLP.part.nonpolar>
-24.2071

> <Gold.PLP.part.repulsive>
1.1400

> <Gold.PLP.ligand.clash>
0.0000

> <Gold.PLP.ligand.torsion>
1.1108

> <Gold.PLP.Chemscore.Hbond>
3.0000

> <Gold.PLP.Chemscore.CHOScore>
0.0000

> <Gold.PLP.Chemscore.Metal>
0.0000

> <Gold.Chemscore.Hbonds>
donor molecule, donor type, donor heavy atom, donor atom, acceptor molecule, acceptor atom, score
      L1  H     6    37       P1 10747  1.00
      L1  H    22    43       P1  7948  1.00
      P1  H  7989  7998       L1    20  0.99

> <Gold.PLP.Chemscore.Internal.Correction>
0.0369

> <Gold.Rescore>
     Score         DG    S(hbond)    S(metal)    S(lipo)     H(rot)  DE(clash)    DE(int)     intcor
      8.20      -9.72       2.67        0.00      48.67       4.05       0.36       1.17       ----

> <Gold.Chemscore.Fitness>
8.1958

> <Gold.Chemscore.DG>
-9.7226

> <Gold.Chemscore.ZeroCoef>
-5.4800

> <Gold.Chemscore.Hbond>
2.6689

> <Gold.Chemscore.Metal>
0.0000

> <Gold.Chemscore.Lipo>
48.6735

> <Gold.Chemscore.Internal_Hbond>
0.0000

> <Gold.Chemscore.DEClash>
0.3559

> <Gold.Chemscore.DEInternal>
1.1708

> <Gold.Chemscore.Rot>
4.0493

> <Gold.Chemscore.Internal.Correction>
   9.000000E+99

> <Gold.Chemscore.Hbonds>
donor molecule, donor type, donor heavy atom, donor atom, acceptor molecule, acceptor atom, score
      L1  H     6    37       P1 10747  1.00
      L1  H    22    43       P1  7948  0.40
      P1  H  7989  7998       L1    20  0.81

> <Gold.Chemscore.Hbond.Weighted>
-8.9140

> <Gold.Chemscore.Metal.Weighted>
-0.0000

> <Gold.Chemscore.Lipo.Weighted>
-5.6948

> <Gold.Chemscore.Internal_Hbond.Weighted>
0.0000

> <Gold.Chemscore.DEClash.Weighted>
0.3559

> <Gold.Chemscore.DEInternal.Weighted>
1.1708

> <Gold.Chemscore.Rot.Weighted>
10.3662

> <Gold.Chemscore.Internal.Correction.Weighted>
   9.000000E+99

> <Gold.Protein.RotatedTorsions>
[ 6907 6896 6895 6894 ] final -164.60 input  -60.11 | X-H torsion
[ 7974 7965 7964 7962 ] final   66.13 input  175.53 | X-H torsion
[ 8008 7997 7996 7995 ] final -138.79 input   59.86 | X-H torsion
[ 10167 10162 10161 10158 ] final   45.85 input  -65.29 | X-H torsion
[ 10718 10713 10712 10709 ] final -108.78 input   66.30 | X-H torsion
[ 10763 10752 10751 10750 ] final   -4.76 input  -60.55 | X-H torsion
[ 11005 11000 10999 10996 ] final   -0.88 input  -57.11 | X-H torsion

> <Gold.Protein.ActiveResidues>
 VAL166  LYS551  ARG553  GLY616  TRP617  ASP618  TYR619  PRO620  LYS621  CYS622 
 ASP623  PHE694  ASN695  SER759  ASP760  ASP761  ALA762  ILE779  LEU786  VAL792 
 PHE793  MET794  SER795  GLU796  ALA797  LYS798  CYS799  TRP800  GLU811  SER814 

> <Gold.Protein.RotatedAtoms>
  151.4143  133.3717  159.2747 H   0  0  0  0  0  0  0  0  0  0  0  0  # atno 6907 bound_to 6896
  150.9340  134.8754  159.7580 H   0  0  0  0  0  0  0  0  0  0  0  0  # atno 6908 bound_to 6896
  152.5041  134.4090  159.9494 H   0  0  0  0  0  0  0  0  0  0  0  0  # atno 6909 bound_to 6896
  145.8303  139.3135  143.0991 H   0  0  0  0  0  0  0  0  0  0  0  0  # atno 7974 bound_to 7965
  155.4342  140.0527  157.3016 H   0  0  0  0  0  0  0  0  0  0  0  0  # atno 8008 bound_to 7997
  154.4846  140.2095  155.9642 H   0  0  0  0  0  0  0  0  0  0  0  0  # atno 8009 bound_to 7997
  156.1256  140.3181  155.8277 H   0  0  0  0  0  0  0  0  0  0  0  0  # atno 8010 bound_to 7997
  140.3199  144.2718  150.6184 H   0  0  0  0  0  0  0  0  0  0  0  0  # atno 10167 bound_to 10162
  156.0503  130.5730  150.8009 H   0  0  0  0  0  0  0  0  0  0  0  0  # atno 10718 bound_to 10713
  153.3892  135.7001  153.6507 H   0  0  0  0  0  0  0  0  0  0  0  0  # atno 10763 bound_to 10752
  153.5086  135.3636  155.2576 H   0  0  0  0  0  0  0  0  0  0  0  0  # atno 10764 bound_to 10752
  154.8700  135.4129  154.3206 H   0  0  0  0  0  0  0  0  0  0  0  0  # atno 10765 bound_to 10752
  140.6411  133.9488  155.8327 H   0  0  0  0  0  0  0  0  0  0  0  0  # atno 11005 bound_to 11000
  145.9578  140.8859  143.0226 LP  0  0  0  0  0  0  0  0  0  0  0  0  # atno 17320 bound_to 7965
  144.6740  140.1770  143.7409 LP  0  0  0  0  0  0  0  0  0  0  0  0  # atno 17321 bound_to 7965
  140.5493  143.2209  151.7954 LP  0  0  0  0  0  0  0  0  0  0  0  0  # atno 17342 bound_to 10162
  139.4876  144.4498  151.9667 LP  0  0  0  0  0  0  0  0  0  0  0  0  # atno 17343 bound_to 10162
  157.5422  131.0941  150.9812 LP  0  0  0  0  0  0  0  0  0  0  0  0  # atno 17370 bound_to 10713
  157.0092  130.5630  149.5319 LP  0  0  0  0  0  0  0  0  0  0  0  0  # atno 17371 bound_to 10713
  141.0606  134.0352  157.3664 LP  0  0  0  0  0  0  0  0  0  0  0  0  # atno 17394 bound_to 11000
  139.9080  135.0184  156.7569 LP  0  0  0  0  0  0  0  0  0  0  0  0  # atno 17395 bound_to 11000

$$$$
