AV-unprocessed.smi:276|AV-procd|sdf|2079|dock6
  -GOLD-   2262021343D 1   1.00000     0.00000
 Structure written by MMmdl.
 57 61  0  0  0  0  0  0  0  0  1 V2000
  146.6110  131.8037  152.7562 C   0  0  0  0  0  0  0  0  0  0  0  0
  147.6286  132.3454  153.5808 O   0  0  0  0  0  0  0  0  0  0  0  0
  147.8889  133.7142  153.3107 C   0  0  1  0  0  0  0  0  0  0  0  0
  146.6331  134.5767  153.4642 C   0  0  0  0  0  0  0  0  0  0  0  0
  147.5480  135.6702  154.0297 C   0  0  1  0  0  0  0  0  0  0  0  0
  146.9175  136.4508  155.0970 N   0  0  0  0  0  0  0  0  0  0  0  0
  145.7055  137.1724  154.7303 C   0  0  0  0  0  0  0  0  0  0  0  0
  147.7368  137.2533  155.8135 C   0  0  0  0  0  0  0  0  0  0  0  0
  147.9101  136.9410  157.1223 N   0  0  0  0  0  0  0  0  0  0  0  0
  148.7111  137.6864  157.8891 C   0  0  0  0  0  0  0  0  0  0  0  0
  149.4132  138.7711  157.5560 N   0  0  0  0  0  0  0  0  0  0  0  0
  149.2226  139.1010  156.2466 C   0  0  0  0  0  0  0  0  0  0  0  0
  148.4043  138.4075  155.3109 C   0  0  0  0  0  0  0  0  0  0  0  0
  148.4480  139.0520  154.0797 N   0  0  0  0  0  0  0  0  0  0  0  0
  149.2556  140.0585  154.2731 C   0  0  0  0  0  0  0  0  0  0  0  0
  149.7653  140.1629  155.5468 N   0  0  0  0  0  0  0  0  0  0  0  0
  150.6748  141.1794  156.0440 C   0  0  0  0  0  0  0  0  0  0  0  0
  150.2089  141.7767  157.3863 C   0  0  2  0  0  0  0  0  0  0  0  0
  149.1044  142.6313  157.1568 O   0  0  0  0  0  0  0  0  0  0  0  0
  151.3223  142.5770  158.0869 C   0  0  1  0  0  0  0  0  0  0  0  0
  151.6097  143.9432  157.4641 C   0  0  0  0  0  0  0  0  0  0  0  0
  152.2364  144.7253  158.6065 C   0  0  0  0  0  0  0  0  0  0  0  0
  151.8114  143.9548  159.8599 C   0  0  0  0  0  0  0  0  0  0  0  0
  150.9268  142.9411  159.4006 O   0  0  0  0  0  0  0  0  0  0  0  0
  148.5032  134.5286  154.4704 C   0  0  0  0  0  0  0  0  0  0  0  0
  150.0203  134.7429  154.5617 C   0  0  0  0  0  0  0  0  0  0  0  0
  149.9337  134.5576  156.0803 C   0  0  0  0  0  0  0  0  0  0  0  0
  148.5323  133.9628  155.9050 C   0  0  0  0  0  0  0  0  0  0  0  0
  146.4444  130.7596  153.0206 H   0  0  0  0  0  0  0  0  0  0  0  0
  146.8874  131.8406  151.7026 H   0  0  0  0  0  0  0  0  0  0  0  0
  145.6698  132.3385  152.8897 H   0  0  0  0  0  0  0  0  0  0  0  0
  148.3813  133.8904  152.3516 H   0  0  0  0  0  0  0  0  0  0  0  0
  146.1378  134.8341  152.5279 H   0  0  0  0  0  0  0  0  0  0  0  0
  145.9302  134.1756  154.1971 H   0  0  0  0  0  0  0  0  0  0  0  0
  147.9693  136.2717  153.2230 H   0  0  0  0  0  0  0  0  0  0  0  0
  145.9198  137.9251  153.9704 H   0  0  0  0  0  0  0  0  0  0  0  0
  145.2656  137.6716  155.5951 H   0  0  0  0  0  0  0  0  0  0  0  0
  144.9565  136.4891  154.3300 H   0  0  0  0  0  0  0  0  0  0  0  0
  148.8035  137.3672  158.9168 H   0  0  0  0  0  0  0  0  0  0  0  0
  149.4981  140.7606  153.4887 H   0  0  0  0  0  0  0  0  0  0  0  0
  151.6600  140.7247  156.1535 H   0  0  0  0  0  0  0  0  0  0  0  0
  150.7745  141.9610  155.2896 H   0  0  0  0  0  0  0  0  0  0  0  0
  149.8787  140.9708  158.0433 H   0  0  0  0  0  0  0  0  0  0  0  0
  149.3754  143.3211  156.5705 H   0  0  0  0  0  0  0  0  0  0  0  0
  152.2417  141.9906  158.1437 H   0  0  0  0  0  0  0  0  0  0  0  0
  152.2558  143.8819  156.5878 H   0  0  0  0  0  0  0  0  0  0  0  0
  150.6776  144.4230  157.1622 H   0  0  0  0  0  0  0  0  0  0  0  0
  153.3235  144.7422  158.5213 H   0  0  0  0  0  0  0  0  0  0  0  0
  151.8835  145.7570  158.6202 H   0  0  0  0  0  0  0  0  0  0  0  0
  152.6758  143.4911  160.3371 H   0  0  0  0  0  0  0  0  0  0  0  0
  151.3194  144.5927  160.5945 H   0  0  0  0  0  0  0  0  0  0  0  0
  150.5909  133.9522  154.0738 H   0  0  0  0  0  0  0  0  0  0  0  0
  150.3610  135.7294  154.2484 H   0  0  0  0  0  0  0  0  0  0  0  0
  150.6671  133.8628  156.4902 H   0  0  0  0  0  0  0  0  0  0  0  0
  149.9327  135.5029  156.6231 H   0  0  0  0  0  0  0  0  0  0  0  0
  147.7819  134.3632  156.5858 H   0  0  0  0  0  0  0  0  0  0  0  0
  148.5455  132.8734  155.9415 H   0  0  0  0  0  0  0  0  0  0  0  0
  1  2  1  0  0  0  0
  1 29  1  0  0  0  0
  1 30  1  0  0  0  0
  1 31  1  0  0  0  0
  2  3  1  0  0  0  0
  3 25  1  0  0  0  0
  3  4  1  0  0  0  0
  3 32  1  0  0  0  0
  4  5  1  0  0  0  0
  4 33  1  0  0  0  0
  4 34  1  0  0  0  0
  5  6  1  0  0  0  0
  5 25  1  0  0  0  0
  5 35  1  0  0  0  0
  6  7  1  0  0  0  0
  6  8  1  0  0  0  0
  7 36  1  0  0  0  0
  7 37  1  0  0  0  0
  7 38  1  0  0  0  0
  8 13  1  0  0  0  0
  8  9  2  0  0  0  0
  9 10  1  0  0  0  0
 10 11  2  0  0  0  0
 10 39  1  0  0  0  0
 11 12  1  0  0  0  0
 12 16  1  0  0  0  0
 12 13  2  0  0  0  0
 13 14  1  0  0  0  0
 14 15  2  0  0  0  0
 15 16  1  0  0  0  0
 15 40  1  0  0  0  0
 16 17  1  0  0  0  0
 17 18  1  0  0  0  0
 17 41  1  0  0  0  0
 17 42  1  0  0  0  0
 18 19  1  0  0  0  0
 18 20  1  0  0  0  0
 18 43  1  0  0  0  0
 19 44  1  0  0  0  0
 20 24  1  0  0  0  0
 20 21  1  0  0  0  0
 20 45  1  0  0  0  0
 21 22  1  0  0  0  0
 21 46  1  0  0  0  0
 21 47  1  0  0  0  0
 22 23  1  0  0  0  0
 22 48  1  0  0  0  0
 22 49  1  0  0  0  0
 23 24  1  0  0  0  0
 23 50  1  0  0  0  0
 23 51  1  0  0  0  0
 25 28  1  0  0  0  0
 25 26  1  0  0  0  0
 26 27  1  0  0  0  0
 26 52  1  0  0  0  0
 26 53  1  0  0  0  0
 27 28  1  0  0  0  0
 27 54  1  0  0  0  0
 27 55  1  0  0  0  0
 28 56  1  0  0  0  0
 28 57  1  0  0  0  0
M  END
> <s_m_source_file>
AV-unprocessed.smi

> <i_m_source_file_index>
276

> <i_lp_mmshare_version>
43012

> <i_f3d_flags>
0

> <s_epik_input>
W0NIMl0xW0NIMl1bQ0gyXUMxMltDQEhdKE9bQ0gzXSlbQ0gyXVtDQEhdMk4oW0NIM10pYyhuW2NIXW4zKWMoYzM0KW5bY0hdbjRbQ0gyXVtDQEhdKFtPSF0pW0NAQEhdNVtDSDJdW0NIMl1bQ0gyXU81

> <s_epik_cmdline>
J2VwaWtfcHl0aG9uJywgJy1waCcsICc3LjAnLCAnLXRuJywgJzgnLCAnLW1hJywgJzIwMCcsICctbWV0YWxfYmluZGluZycsICctaW1hZScsICc8aW5maWxlLm1hZT4nLCAnLW9tYWUnLCAnPG91dGZpbGUubWFlPic=

> <r_lp_tautomer_probability>
1

> <r_epik_Ionization_Penalty>
0.00204117

> <r_epik_Ionization_Penalty_Charging>
0

> <r_epik_Ionization_Penalty_Neutral>
0.00204117

> <r_epik_State_Penalty>
0.00127401

> <r_epik_Charging_Adjusted_Penalty>
0.00127401

> <i_epik_Tot_Q>
0

> <i_epik_Tot_abs_Q>
0

> <r_epik_Metal_State_Penalty>
-0

> <b_epik_Metal_Only>
0

> <s_lp_Force_Field>
OPLS_2005

> <r_lp_Energy>
54.7762

> <b_lp_Chiralities_Consistent>
1

> <s_lp_Variant>
AV-unprocessed.smi:276-10

> <Gold.Version>
5.8.1

> <Gold.Id.Protein>
6NUR|6NUR_protein|mol2

> <Gold.PLP.Fitness>
40.7907

> <Gold.PLP.PLP>
-35.6187

> <Gold.PLP.part.hbond>
-1.1574

> <Gold.PLP.part.metal>
0.0000

> <Gold.PLP.part.buried>
-4.4979

> <Gold.PLP.part.nonpolar>
-31.0247

> <Gold.PLP.part.repulsive>
0.2930

> <Gold.PLP.ligand.clash>
0.0000

> <Gold.PLP.ligand.torsion>
0.7591

> <Gold.PLP.Chemscore.Hbond>
0.9920

> <Gold.PLP.Chemscore.CHOScore>
1.0000

> <Gold.PLP.Chemscore.Metal>
0.0000

> <Gold.Chemscore.Hbonds>
donor molecule, donor type, donor heavy atom, donor atom, acceptor molecule, acceptor atom, score
      L1  H    19    44       P1  8028  0.91
      L1  C    15    40       P1  7957  0.83

> <Gold.PLP.Chemscore.Internal.Correction>
0.7142

> <Gold.Rescore>
     Score         DG    S(hbond)    S(metal)    S(lipo)     H(rot)  DE(clash)    DE(int)     intcor
     12.40     -13.24       0.98        0.00      97.67       2.72       0.06       0.77       ----

> <Gold.Chemscore.Fitness>
12.4035

> <Gold.Chemscore.DG>
-13.2379

> <Gold.Chemscore.ZeroCoef>
-5.4800

> <Gold.Chemscore.Hbond>
0.9842

> <Gold.Chemscore.Metal>
0.0000

> <Gold.Chemscore.Lipo>
97.6656

> <Gold.Chemscore.Internal_Hbond>
0.0000

> <Gold.Chemscore.DEClash>
0.0617

> <Gold.Chemscore.DEInternal>
0.7728

> <Gold.Chemscore.Rot>
2.7172

> <Gold.Chemscore.Internal.Correction>
   9.000000E+99

> <Gold.Chemscore.Hbonds>
donor molecule, donor type, donor heavy atom, donor atom, acceptor molecule, acceptor atom, score
      L1  H    19    44       P1  8028  0.89

> <Gold.Chemscore.Hbond.Weighted>
-3.2871

> <Gold.Chemscore.Metal.Weighted>
-0.0000

> <Gold.Chemscore.Lipo.Weighted>
-11.4269

> <Gold.Chemscore.Internal_Hbond.Weighted>
0.0000

> <Gold.Chemscore.DEClash.Weighted>
0.0617

> <Gold.Chemscore.DEInternal.Weighted>
0.7728

> <Gold.Chemscore.Rot.Weighted>
6.9560

> <Gold.Chemscore.Internal.Correction.Weighted>
   9.000000E+99

> <Gold.Protein.RotatedTorsions>
[ 6907 6896 6895 6894 ] final   13.00 input  -60.11 | X-H torsion
[ 7974 7965 7964 7962 ] final   18.23 input  175.53 | X-H torsion
[ 8008 7997 7996 7995 ] final  -32.27 input   59.86 | X-H torsion
[ 10167 10162 10161 10158 ] final -126.88 input  -65.29 | X-H torsion
[ 10718 10713 10712 10709 ] final   11.32 input   66.30 | X-H torsion
[ 10763 10752 10751 10750 ] final -130.11 input  -60.55 | X-H torsion
[ 11005 11000 10999 10996 ] final  127.97 input  -57.11 | X-H torsion

> <Gold.Protein.ActiveResidues>
 VAL166  LYS551  ARG553  GLY616  TRP617  ASP618  TYR619  PRO620  LYS621  CYS622 
 ASP623  PHE694  ASN695  SER759  ASP760  ASP761  ALA762  ILE779  LEU786  VAL792 
 PHE793  MET794  SER795  GLU796  ALA797  LYS798  CYS799  TRP800  GLU811  SER814 

> <Gold.Protein.RotatedAtoms>
  151.7793  135.0766  160.0371 H   0  0  0  0  0  0  0  0  0  0  0  0  # atno 6907 bound_to 6896
  152.3234  133.5874  159.5768 H   0  0  0  0  0  0  0  0  0  0  0  0  # atno 6908 bound_to 6896
  150.7382  133.9892  159.3643 H   0  0  0  0  0  0  0  0  0  0  0  0  # atno 6909 bound_to 6896
  146.2192  139.8488  142.8626 H   0  0  0  0  0  0  0  0  0  0  0  0  # atno 7974 bound_to 7965
  154.4185  140.1742  156.1701 H   0  0  0  0  0  0  0  0  0  0  0  0  # atno 8008 bound_to 7997
  155.9767  140.3381  155.6601 H   0  0  0  0  0  0  0  0  0  0  0  0  # atno 8009 bound_to 7997
  155.6554  140.0695  157.2563 H   0  0  0  0  0  0  0  0  0  0  0  0  # atno 8010 bound_to 7997
  139.9668  143.5889  152.2426 H   0  0  0  0  0  0  0  0  0  0  0  0  # atno 10167 bound_to 10162
  156.9939  130.6053  149.5689 H   0  0  0  0  0  0  0  0  0  0  0  0  # atno 10718 bound_to 10713
  154.8756  135.3873  154.4030 H   0  0  0  0  0  0  0  0  0  0  0  0  # atno 10763 bound_to 10752
  153.4752  135.7030  153.5975 H   0  0  0  0  0  0  0  0  0  0  0  0  # atno 10764 bound_to 10752
  153.4414  135.3855  155.2198 H   0  0  0  0  0  0  0  0  0  0  0  0  # atno 10765 bound_to 10752
  139.9536  134.9617  156.8934 H   0  0  0  0  0  0  0  0  0  0  0  0  # atno 11005 bound_to 11000
  145.2823  141.0142  143.3710 LP  0  0  0  0  0  0  0  0  0  0  0  0  # atno 17320 bound_to 7965
  144.9140  139.4493  143.6573 LP  0  0  0  0  0  0  0  0  0  0  0  0  # atno 17321 bound_to 7965
  139.6512  144.7660  151.2145 LP  0  0  0  0  0  0  0  0  0  0  0  0  # atno 17342 bound_to 10162
  140.7535  143.6158  150.8561 LP  0  0  0  0  0  0  0  0  0  0  0  0  # atno 17343 bound_to 10162
  156.0196  130.5291  150.8238 LP  0  0  0  0  0  0  0  0  0  0  0  0  # atno 17370 bound_to 10713
  157.5439  131.0941  150.9790 LP  0  0  0  0  0  0  0  0  0  0  0  0  # atno 17371 bound_to 10713
  140.5662  134.0487  155.7415 LP  0  0  0  0  0  0  0  0  0  0  0  0  # atno 17394 bound_to 11000
  141.1203  133.9472  157.2742 LP  0  0  0  0  0  0  0  0  0  0  0  0  # atno 17395 bound_to 11000

$$$$
