#       Name:                AV-unprocessed.smi:2174
#       Creating user name   scv26
#       Creation time:       Fri Mar 27 12:03:34 2020


#       File generated by GOLD software.
#

@<TRIPOS>MOLECULE
AV-unprocessed.smi:2174
    51    52     1
SMALL
NO_CHARGES


@<TRIPOS>ATOM
      1 ****        -2.0760   1.6226   4.9995 C.3            1 S1                 0.0000
      2 ****        -2.5592   1.8815   3.6012 C.2            1 S1                 0.0000
      3 ****        -3.0633   3.0640   3.2908 N.2            1 S1                 0.0000
      4 ****        -3.4086   2.9910   1.9378 O.3            1 S1                 0.0000
      5 ****        -3.0913   1.7535   1.4802 C.2            1 S1                 0.0000
      6 ****        -3.3766   1.4750   0.0431 C.3            1 S1                 0.0000
      7 ****        -2.5466   0.9992   2.4829 C.2            1 S1                 0.0000
      8 ****        -2.0450  -0.4234   2.4245 C.3            1 S1                 0.0000
      9 ****        -0.5158  -0.4742   2.3322 C.2            1 S1                 0.0000
     10 ****         0.1068  -1.3174   2.9761 O.2            1 S1                 0.0000
     11 ****         0.0809   0.4072   1.5131 N.am           1 S1                 0.0000
     12 ****         1.5184   0.5023   1.2788 C.3            1 S1                 0.0000
     13 ****         2.0527  -0.6265   0.3714 C.3            1 S1                 0.0000
     14 ****         1.2342  -0.8466  -0.8529 N.4            1 S1                 1.0000
     15 ****         1.5265  -2.1528  -1.5065 C.3            1 S1                 0.0000
     16 ****         2.6756  -2.1162  -2.5320 C.3            1 S1                 0.0000
     17 ****         2.1867  -1.8070  -3.9563 C.3            1 S1                 0.0000
     18 ****         1.7114  -0.3621  -4.1593 C.3            1 S1                 0.0000
     19 ****         0.6392   0.0991  -3.1579 C.3            1 S1                 0.0000
     20 ****         1.2067   0.3463  -1.7470 C.3            1 S1                 0.0000
     21 ****        -2.4355   0.6609   5.3660 H              1 S1                 0.0000
     22 ****        -2.4198   2.3894   5.6948 H              1 S1                 0.0000
     23 ****        -0.9865   1.6050   5.0360 H              1 S1                 0.0000
     24 ****        -2.5480   0.9374  -0.4189 H              1 S1                 0.0000
     25 ****        -3.5300   2.3999  -0.5137 H              1 S1                 0.0000
     26 ****        -4.2745   0.8653  -0.0595 H              1 S1                 0.0000
     27 ****        -2.3649  -0.9841   3.3038 H              1 S1                 0.0000
     28 ****        -2.4552  -0.9536   1.5646 H              1 S1                 0.0000
     29 ****        -0.5061   1.0753   1.0344 H              1 S1                 0.0000
     30 ****         1.7170   1.4726   0.8234 H              1 S1                 0.0000
     31 ****         2.0520   0.5042   2.2307 H              1 S1                 0.0000
     32 ****         3.0894  -0.4290   0.0956 H              1 S1                 0.0000
     33 ****         2.0665  -1.5442   0.9608 H              1 S1                 0.0000
     34 ****         1.7493  -2.8986  -0.7427 H              1 S1                 0.0000
     35 ****         0.6152  -2.5160  -1.9826 H              1 S1                 0.0000
     36 ****         3.4663  -1.4306  -2.2251 H              1 S1                 0.0000
     37 ****         3.1358  -3.1047  -2.5544 H              1 S1                 0.0000
     38 ****         2.9961  -2.0064  -4.6594 H              1 S1                 0.0000
     39 ****         1.3858  -2.4964  -4.2260 H              1 S1                 0.0000
     40 ****         2.5664   0.3141  -4.1189 H              1 S1                 0.0000
     41 ****         1.3124  -0.2717  -5.1703 H              1 S1                 0.0000
     42 ****         0.2435   1.0469  -3.5248 H              1 S1                 0.0000
     43 ****        -0.2120  -0.5825  -3.1368 H              1 S1                 0.0000
     44 ****         0.5876   1.1015  -1.2625 H              1 S1                 0.0000
     45 ****         2.2042   0.7819  -1.8221 H              1 S1                 0.0000
     46 ****         0.2887  -0.9510  -0.5132 H              1 S1                 0.0000
     47 ****        -3.1748   3.8497   3.8993 LP             1 S1                 0.0000
     48 ****        -2.9017   3.6818   1.4223 LP             1 S1                 0.0000
     49 ****        -4.3902   3.1490   1.8309 LP             1 S1                 0.0000
     50 ****        -0.3848  -1.9663   3.5569 LP             1 S1                 0.0000
     51 ****         1.1045  -1.3540   2.9188 LP             1 S1                 0.0000
@<TRIPOS>BOND
    1    1    2 1     
    2    1   21 1     
    3    1   22 1     
    4    1   23 1     
    5    2    7 1     
    6    2    3 2     
    7    3    4 1     
    8    4    5 1     
    9    5    6 1     
   10    5    7 2     
   11    6   24 1     
   12    6   25 1     
   13    6   26 1     
   14    7    8 1     
   15    8    9 1     
   16    8   27 1     
   17    8   28 1     
   18    9   10 2     
   19    9   11 am    
   20   11   12 1     
   21   11   29 1     
   22   12   13 1     
   23   12   30 1     
   24   12   31 1     
   25   13   14 1     
   26   13   32 1     
   27   13   33 1     
   28   14   20 1     
   29   14   15 1     
   30   14   46 1     
   31   15   16 1     
   32   15   34 1     
   33   15   35 1     
   34   16   17 1     
   35   16   36 1     
   36   16   37 1     
   37   17   18 1     
   38   17   38 1     
   39   17   39 1     
   40   18   19 1     
   41   18   40 1     
   42   18   41 1     
   43   19   20 1     
   44   19   42 1     
   45   19   43 1     
   46   20   44 1     
   47   20   45 1     
   48    3   47 1     
   49    4   48 1     
   50    4   49 1     
   51   10   50 1     
   52   10   51 1     
@<TRIPOS>SUBSTRUCTURE
      1 S1             1
@<TRIPOS>SET
LONE_PAIRS      STATIC     ATOMS    <user>   **** ""
5 47 48 49 50 51
DONOR_HYDROGENS      STATIC     ATOMS    <user>   **** ""
2 29 46
ATOM$BLUE        STATIC     ATOMS    COLORGROUP SYSTEM
5 47 48 49 50 51
ATOM$RED        STATIC     ATOMS    COLORGROUP SYSTEM
2 29 46
