AV-unprocessed.smi:523|AV-procd|sdf|2803|dock3
  -GOLD-   2262023283D 1   1.00000     0.00000
 Structure written by MMmdl.
 41 43  0  0  0  0  0  0  0  0  1 V2000
  153.1004  142.8035  162.7594 C   0  0  0  0  0  0  0  0  0  0  0  0
  151.8938  142.6360  162.0375 O   0  0  0  0  0  0  0  0  0  0  0  0
  151.9674  143.1635  160.7228 C   0  0  0  0  0  0  0  0  0  0  0  0
  153.2079  142.6100  160.0083 C   0  0  0  0  0  0  0  0  0  0  0  0
  152.8623  141.5435  159.0697 N   0  0  0  0  0  0  0  0  0  0  0  0
  153.3640  140.2796  159.0020 C   0  0  0  0  0  0  0  0  0  0  0  0
  154.3083  139.8030  159.9115 N   0  0  0  0  0  0  0  0  0  0  0  0
  155.3618  140.5733  160.5666 C   0  0  0  0  0  0  0  0  0  0  0  0
  156.7104  139.8363  160.4825 C   0  0  0  0  0  0  0  0  0  0  0  0
  156.5862  138.5643  161.1087 O   0  0  0  0  0  0  0  0  0  0  0  0
  155.5740  137.7698  160.5002 C   0  0  0  0  0  0  0  0  0  0  0  0
  154.2247  138.5076  160.5771 C   0  0  0  0  0  0  0  0  0  0  0  0
  152.9192  139.5587  157.9693 N   0  0  0  0  0  0  0  0  0  0  0  0
  152.0387  140.4230  157.3382 C   0  0  0  0  0  0  0  0  0  0  0  0
  151.9949  141.6203  157.9768 C   0  0  0  0  0  0  0  0  0  0  0  0
  151.1745  142.7396  157.4900 C   0  0  0  0  0  0  0  0  0  0  0  0
  151.1263  143.8385  158.0378 O   0  0  0  0  0  0  0  0  0  0  0  0
  150.4781  142.4403  156.3668 N   0  0  0  0  0  0  0  0  0  0  0  0
  150.4741  141.2574  155.6807 C   0  0  0  0  0  0  0  0  0  0  0  0
  149.7893  141.1377  154.6649 O   0  0  0  0  0  0  0  0  0  0  0  0
  151.2524  140.2377  156.1652 N   0  0  0  0  0  0  0  0  0  0  0  0
  151.2913  138.9515  155.4668 C   0  0  0  0  0  0  0  0  0  0  0  0
  149.8992  143.1768  155.9902 H   0  0  0  0  0  0  0  0  0  0  0  0
  152.9903  142.3817  163.7583 H   0  0  0  0  0  0  0  0  0  0  0  0
  153.3527  143.8594  162.8656 H   0  0  0  0  0  0  0  0  0  0  0  0
  153.9285  142.2925  162.2669 H   0  0  0  0  0  0  0  0  0  0  0  0
  151.0688  142.8958  160.1648 H   0  0  0  0  0  0  0  0  0  0  0  0
  152.0161  144.2526  160.7581 H   0  0  0  0  0  0  0  0  0  0  0  0
  153.7248  143.4127  159.4910 H   0  0  0  0  0  0  0  0  0  0  0  0
  153.9291  142.2414  160.7342 H   0  0  0  0  0  0  0  0  0  0  0  0
  155.4341  141.5714  160.1370 H   0  0  0  0  0  0  0  0  0  0  0  0
  155.0896  140.7226  161.6123 H   0  0  0  0  0  0  0  0  0  0  0  0
  157.0308  139.7163  159.4466 H   0  0  0  0  0  0  0  0  0  0  0  0
  157.4854  140.4074  160.9937 H   0  0  0  0  0  0  0  0  0  0  0  0
  155.8402  137.5526  159.4645 H   0  0  0  0  0  0  0  0  0  0  0  0
  155.5117  136.8146  161.0214 H   0  0  0  0  0  0  0  0  0  0  0  0
  153.9254  138.6497  161.6164 H   0  0  0  0  0  0  0  0  0  0  0  0
  153.4493  137.9027  160.1059 H   0  0  0  0  0  0  0  0  0  0  0  0
  150.2843  138.5550  155.3278 H   0  0  0  0  0  0  0  0  0  0  0  0
  151.8614  138.1973  156.0086 H   0  0  0  0  0  0  0  0  0  0  0  0
  151.7498  139.0687  154.4839 H   0  0  0  0  0  0  0  0  0  0  0  0
  1  2  1  0  0  0  0
  1 24  1  0  0  0  0
  1 25  1  0  0  0  0
  1 26  1  0  0  0  0
  2  3  1  0  0  0  0
  3  4  1  0  0  0  0
  3 27  1  0  0  0  0
  3 28  1  0  0  0  0
  4  5  1  0  0  0  0
  4 29  1  0  0  0  0
  4 30  1  0  0  0  0
  5 15  1  0  0  0  0
  5  6  1  0  0  0  0
  6  7  1  0  0  0  0
  6 13  2  0  0  0  0
  7 12  1  0  0  0  0
  7  8  1  0  0  0  0
  8  9  1  0  0  0  0
  8 31  1  0  0  0  0
  8 32  1  0  0  0  0
  9 10  1  0  0  0  0
  9 33  1  0  0  0  0
  9 34  1  0  0  0  0
 10 11  1  0  0  0  0
 11 12  1  0  0  0  0
 11 35  1  0  0  0  0
 11 36  1  0  0  0  0
 12 37  1  0  0  0  0
 12 38  1  0  0  0  0
 13 14  1  0  0  0  0
 14 21  1  0  0  0  0
 14 15  2  0  0  0  0
 15 16  1  0  0  0  0
 16 17  2  0  0  0  0
 16 18  1  0  0  0  0
 18 23  1  0  0  0  0
 18 19  1  0  0  0  0
 19 20  2  0  0  0  0
 19 21  1  0  0  0  0
 21 22  1  0  0  0  0
 22 39  1  0  0  0  0
 22 40  1  0  0  0  0
 22 41  1  0  0  0  0
M  END
> <s_m_source_file>
AV-unprocessed.smi

> <i_m_source_file_index>
523

> <i_lp_mmshare_version>
43012

> <i_f3d_flags>
0

> <s_epik_input>
W0NIM11uMWMoPU8pW25IXWMoPU8pYyhjMTIpbihbQ0gyXVtDSDJdT1tDSDNdKWMobjIpTjNbQ0gyXVtDSDJdT1tDSDJdW0NIMl0z

> <s_epik_cmdline>
J2VwaWtfcHl0aG9uJywgJy1waCcsICc3LjAnLCAnLXRuJywgJzgnLCAnLW1hJywgJzIwMCcsICctbWV0YWxfYmluZGluZycsICctaW1hZScsICc8aW5maWxlLm1hZT4nLCAnLW9tYWUnLCAnPG91dGZpbGUubWFlPic=

> <r_lp_tautomer_probability>
1

> <r_epik_Ionization_Penalty>
0.000208431

> <r_epik_Ionization_Penalty_Charging>
0.000208146

> <r_epik_Ionization_Penalty_Neutral>
2.85359e-07

> <r_epik_State_Penalty>
-0

> <r_epik_Charging_Adjusted_Penalty>
0.000208146

> <i_epik_Tot_Q>
0

> <i_epik_Tot_abs_Q>
0

> <r_epik_Metal_State_Penalty>
0.136977

> <b_epik_Metal_Only>
0

> <s_lp_Force_Field>
OPLS_2005

> <r_lp_Energy>
38.6509

> <b_lp_Chiralities_Consistent>
1

> <s_lp_Variant>
AV-unprocessed.smi:523-1

> <Gold.Version>
5.8.1

> <Gold.Id.Protein>
6NUR|6NUR_protein|mol2

> <Gold.PLP.Fitness>
44.6644

> <Gold.PLP.PLP>
-38.6035

> <Gold.PLP.part.hbond>
-4.0000

> <Gold.PLP.part.metal>
0.0000

> <Gold.PLP.part.buried>
-4.4592

> <Gold.PLP.part.nonpolar>
-31.4406

> <Gold.PLP.part.repulsive>
1.0810

> <Gold.PLP.ligand.clash>
0.0000

> <Gold.PLP.ligand.torsion>
0.9873

> <Gold.PLP.Chemscore.Hbond>
2.5157

> <Gold.PLP.Chemscore.CHOScore>
0.0000

> <Gold.PLP.Chemscore.Metal>
0.0000

> <Gold.Chemscore.Hbonds>
donor molecule, donor type, donor heavy atom, donor atom, acceptor molecule, acceptor atom, score
      L1  H    18    23       P1  8028  1.00
      P1  H  6933  6945       L1     2  0.84
      P1  H  7989  7998       L1    20  0.18
      P1  H  7997  8010       L1    13  0.35

> <Gold.PLP.Chemscore.Internal.Correction>
0.4885

> <Gold.Rescore>
     Score         DG    S(hbond)    S(metal)    S(lipo)     H(rot)  DE(clash)    DE(int)     intcor
     12.42     -15.91       1.79        0.00      71.63       1.53       0.23       3.26       ----

> <Gold.Chemscore.Fitness>
12.4207

> <Gold.Chemscore.DG>
-15.9117

> <Gold.Chemscore.ZeroCoef>
-5.4800

> <Gold.Chemscore.Hbond>
1.7905

> <Gold.Chemscore.Metal>
0.0000

> <Gold.Chemscore.Lipo>
71.6281

> <Gold.Chemscore.Internal_Hbond>
0.0000

> <Gold.Chemscore.DEClash>
0.2348

> <Gold.Chemscore.DEInternal>
3.2562

> <Gold.Chemscore.Rot>
1.5348

> <Gold.Chemscore.Internal.Correction>
   9.000000E+99

> <Gold.Chemscore.Hbonds>
donor molecule, donor type, donor heavy atom, donor atom, acceptor molecule, acceptor atom, score
      L1  H    18    23       P1  8028  1.00
      P1  H  6933  6945       L1     2  0.48
      P1  H  7989  7998       L1    20  0.01

> <Gold.Chemscore.Hbond.Weighted>
-5.9802

> <Gold.Chemscore.Metal.Weighted>
-0.0000

> <Gold.Chemscore.Lipo.Weighted>
-8.3805

> <Gold.Chemscore.Internal_Hbond.Weighted>
0.0000

> <Gold.Chemscore.DEClash.Weighted>
0.2348

> <Gold.Chemscore.DEInternal.Weighted>
3.2562

> <Gold.Chemscore.Rot.Weighted>
3.9290

> <Gold.Chemscore.Internal.Correction.Weighted>
   9.000000E+99

> <Gold.Protein.RotatedTorsions>
[ 6907 6896 6895 6894 ] final   -4.24 input  -60.11 | X-H torsion
[ 7974 7965 7964 7962 ] final  145.48 input  175.53 | X-H torsion
[ 8008 7997 7996 7995 ] final   32.02 input   59.86 | X-H torsion
[ 10167 10162 10161 10158 ] final   -0.46 input  -65.29 | X-H torsion
[ 10718 10713 10712 10709 ] final  -99.06 input   66.30 | X-H torsion
[ 10763 10752 10751 10750 ] final   78.39 input  -60.55 | X-H torsion
[ 11005 11000 10999 10996 ] final  179.40 input  -57.11 | X-H torsion

> <Gold.Protein.ActiveResidues>
 VAL166  LYS551  ARG553  GLY616  TRP617  ASP618  TYR619  PRO620  LYS621  CYS622 
 ASP623  PHE694  ASN695  SER759  ASP760  ASP761  ALA762  ILE779  LEU786  VAL792 
 PHE793  MET794  SER795  GLU796  ALA797  LYS798  CYS799  TRP800  GLU811  SER814 

> <Gold.Protein.RotatedAtoms>
  151.5008  135.1061  159.9828 H   0  0  0  0  0  0  0  0  0  0  0  0  # atno 6907 bound_to 6896
  152.4702  133.8009  159.6963 H   0  0  0  0  0  0  0  0  0  0  0  0  # atno 6908 bound_to 6896
  150.8707  133.7446  159.2988 H   0  0  0  0  0  0  0  0  0  0  0  0  # atno 6909 bound_to 6896
  144.8749  139.5789  143.5870 H   0  0  0  0  0  0  0  0  0  0  0  0  # atno 7974 bound_to 7965
  155.1158  140.3243  155.4510 H   0  0  0  0  0  0  0  0  0  0  0  0  # atno 8008 bound_to 7997
  156.2677  140.2036  156.6229 H   0  0  0  0  0  0  0  0  0  0  0  0  # atno 8009 bound_to 7997
  154.6721  140.0535  157.0163 H   0  0  0  0  0  0  0  0  0  0  0  0  # atno 8010 bound_to 7997
  140.6768  143.6891  150.8042 H   0  0  0  0  0  0  0  0  0  0  0  0  # atno 10167 bound_to 10162
  156.0124  130.5265  150.6614 H   0  0  0  0  0  0  0  0  0  0  0  0  # atno 10718 bound_to 10713
  153.0871  135.4879  154.8617 H   0  0  0  0  0  0  0  0  0  0  0  0  # atno 10763 bound_to 10752
  154.7223  135.3042  154.9029 H   0  0  0  0  0  0  0  0  0  0  0  0  # atno 10764 bound_to 10752
  153.9689  135.6803  153.4800 H   0  0  0  0  0  0  0  0  0  0  0  0  # atno 10765 bound_to 10752
  140.4057  134.6737  157.4587 H   0  0  0  0  0  0  0  0  0  0  0  0  # atno 11005 bound_to 11000
  146.2955  139.7266  142.9129 LP  0  0  0  0  0  0  0  0  0  0  0  0  # atno 17320 bound_to 7965
  145.4062  141.0391  143.3043 LP  0  0  0  0  0  0  0  0  0  0  0  0  # atno 17321 bound_to 7965
  140.0586  143.5178  152.2639 LP  0  0  0  0  0  0  0  0  0  0  0  0  # atno 17342 bound_to 10162
  139.6066  144.7598  151.3048 LP  0  0  0  0  0  0  0  0  0  0  0  0  # atno 17343 bound_to 10162
  157.4355  131.0855  151.0996 LP  0  0  0  0  0  0  0  0  0  0  0  0  # atno 17370 bound_to 10713
  157.1555  130.6203  149.5595 LP  0  0  0  0  0  0  0  0  0  0  0  0  # atno 17371 bound_to 10713
  140.0303  134.6415  155.9115 LP  0  0  0  0  0  0  0  0  0  0  0  0  # atno 17394 bound_to 11000
  141.1840  133.6552  156.5139 LP  0  0  0  0  0  0  0  0  0  0  0  0  # atno 17395 bound_to 11000

$$$$
