#       Name:                AV-unprocessed.smi:1889
#       Creating user name   scv26
#       Creation time:       Fri Mar 27 09:39:32 2020


#       File generated by GOLD software.
#

@<TRIPOS>MOLECULE
AV-unprocessed.smi:1889
    42    43     1
SMALL
NO_CHARGES


@<TRIPOS>ATOM
      1 ****        -6.8859   0.4152   2.2489 C.3            1 S1                 0.0000
      2 ****        -5.3828   0.7092   2.1947 C.3            1 S1                 0.0000
      3 ****        -4.5347  -0.5682   2.1205 C.3            1 S1                 0.0000
      4 ****        -3.0710  -0.2818   2.0668 C.2            1 S1                 0.0000
      5 ****        -2.3171  -0.1552   3.1665 N.2            1 S1                 0.0000
      6 ****        -0.9929   0.1379   2.8691 N.2            1 S1                 0.0000
      7 ****        -0.7884   0.2427   1.5530 C.2            1 S1                 0.0000
      8 ****         0.5214   0.5433   1.1030 N.am           1 S1                 0.0000
      9 ****         0.9399   0.7189  -0.1608 C.2            1 S1                 0.0000
     10 ****         0.2271   0.6594  -1.1624 O.2            1 S1                 0.0000
     11 ****         2.2554   0.9733  -0.2046 N.am           1 S1                 0.0000
     12 ****         3.0243   1.2089  -1.4222 C.3            1 S1                 0.0000
     13 ****         3.3357  -0.0984  -2.1763 C.3            1 S1                 0.0000
     14 ****         4.1515  -1.1076  -1.3923 C.3            1 S1                 0.0000
     15 ****         4.6932  -2.0037  -2.5018 C.3            1 S1                 0.0000
     16 ****         4.8387  -1.1652  -3.6446 O.3            1 S1                 0.0000
     17 ****         4.2132   0.0937  -3.4124 C.3            1 S1                 0.0000
     18 ****        -2.2168  -0.0171   0.5518 S.3            1 S1                 0.0000
     19 ****        -7.4613   1.3399   2.2981 H              1 S1                 0.0000
     20 ****        -7.1387  -0.1809   3.1259 H              1 S1                 0.0000
     21 ****        -7.2120  -0.1328   1.3646 H              1 S1                 0.0000
     22 ****        -5.1712   1.3387   1.3296 H              1 S1                 0.0000
     23 ****        -5.0981   1.2873   3.0747 H              1 S1                 0.0000
     24 ****        -4.7364  -1.2031   2.9844 H              1 S1                 0.0000
     25 ****        -4.8067  -1.1479   1.2377 H              1 S1                 0.0000
     26 ****         1.2186   0.6330   1.8274 H              1 S1                 0.0000
     27 ****         2.7641   1.0056   0.6669 H              1 S1                 0.0000
     28 ****         2.4865   1.9009  -2.0723 H              1 S1                 0.0000
     29 ****         3.9513   1.7094  -1.1411 H              1 S1                 0.0000
     30 ****         2.4040  -0.5730  -2.4890 H              1 S1                 0.0000
     31 ****         4.9749  -0.6132  -0.8748 H              1 S1                 0.0000
     32 ****         3.5638  -1.6562  -0.6554 H              1 S1                 0.0000
     33 ****         5.6377  -2.4763  -2.2309 H              1 S1                 0.0000
     34 ****         3.9768  -2.7913  -2.7388 H              1 S1                 0.0000
     35 ****         3.6427   0.4211  -4.2818 H              1 S1                 0.0000
     36 ****         4.9931   0.8324  -3.2230 H              1 S1                 0.0000
     37 ****        -2.6683  -0.2599   4.0969 LP             1 S1                 0.0000
     38 ****        -0.2776   0.2564   3.5578 LP             1 S1                 0.0000
     39 ****        -0.7498   0.4666  -1.0701 LP             1 S1                 0.0000
     40 ****         0.6248   0.8039  -2.0684 LP             1 S1                 0.0000
     41 ****         4.4118  -1.6057  -4.4343 LP             1 S1                 0.0000
     42 ****         5.8113  -1.0222  -3.8280 LP             1 S1                 0.0000
@<TRIPOS>BOND
    1    1    2 1     
    2    1   19 1     
    3    1   20 1     
    4    1   21 1     
    5    2    3 1     
    6    2   22 1     
    7    2   23 1     
    8    3    4 1     
    9    3   24 1     
   10    3   25 1     
   11    4   18 1     
   12    4    5 2     
   13    5    6 1     
   14    6    7 2     
   15    7    8 1     
   16    7   18 1     
   17    8    9 am    
   18    8   26 1     
   19    9   10 2     
   20    9   11 am    
   21   11   12 1     
   22   11   27 1     
   23   12   13 1     
   24   12   28 1     
   25   12   29 1     
   26   13   17 1     
   27   13   14 1     
   28   13   30 1     
   29   14   15 1     
   30   14   31 1     
   31   14   32 1     
   32   15   16 1     
   33   15   33 1     
   34   15   34 1     
   35   16   17 1     
   36   17   35 1     
   37   17   36 1     
   38    5   37 1     
   39    6   38 1     
   40   10   39 1     
   41   10   40 1     
   42   16   41 1     
   43   16   42 1     
@<TRIPOS>SUBSTRUCTURE
      1 S1             1
@<TRIPOS>SET
LONE_PAIRS      STATIC     ATOMS    <user>   **** ""
6 37 38 39 40 41 42
DONOR_HYDROGENS      STATIC     ATOMS    <user>   **** ""
2 26 27
ATOM$BLUE        STATIC     ATOMS    COLORGROUP SYSTEM
6 37 38 39 40 41 42
ATOM$RED        STATIC     ATOMS    COLORGROUP SYSTEM
2 26 27
