AV-unprocessed.smi:1703|AV-procd|sdf|6860|dock5
  -GOLD-   22720 8 43D 1   1.00000     0.00000
 Structure written by MMmdl.
 49 51  0  0  0  0  0  0  0  0  2 V2000
  150.8490  133.2829  156.6286 C   0  0  0  0  0  0  0  0  0  0  0  0
  149.7484  134.2921  156.2844 C   0  0  1  0  0  0  0  0  0  0  0  0
  150.0536  135.0600  154.9813 C   0  0  0  0  0  0  0  0  0  0  0  0
  148.9408  135.9704  154.6180 N   0  3  2  0  0  0  0  0  0  0  0  0
  148.9096  137.2211  155.4218 C   0  0  0  0  0  0  0  0  0  0  0  0
  148.6562  138.4738  154.5521 C   0  0  2  0  0  0  0  0  0  0  0  0
  147.8129  138.1211  153.4749 O   0  0  0  0  0  0  0  0  0  0  0  0
  149.9405  139.1049  153.9773 C   0  0  0  0  0  0  0  0  0  0  0  0
  150.8110  139.6335  155.0208 N   0  0  0  0  0  0  0  0  0  0  0  0
  152.0902  139.2847  155.3147 C   0  0  0  0  0  0  0  0  0  0  0  0
  152.8378  138.2417  154.5413 C   0  0  0  0  0  0  0  0  0  0  0  0
  154.1720  138.0919  154.9764 O   0  0  0  0  0  0  0  0  0  0  0  0
  152.6402  139.9185  156.3504 N   0  0  0  0  0  0  0  0  0  0  0  0
  151.6305  140.7658  156.7613 C   0  0  0  0  0  0  0  0  0  0  0  0
  151.5895  141.6987  157.8219 C   0  0  0  0  0  0  0  0  0  0  0  0
  150.4276  142.4629  158.0559 C   0  0  0  0  0  0  0  0  0  0  0  0
  149.2933  142.3070  157.2334 C   0  0  0  0  0  0  0  0  0  0  0  0
  149.3127  141.3820  156.1720 C   0  0  0  0  0  0  0  0  0  0  0  0
  150.4736  140.6182  155.9449 C   0  0  0  0  0  0  0  0  0  0  0  0
  147.6548  135.2248  154.5825 C   0  0  0  0  0  0  0  0  0  0  0  0
  147.4142  134.4337  155.8869 C   0  0  1  0  0  0  0  0  0  0  0  0
  146.1507  133.5702  155.8088 C   0  0  0  0  0  0  0  0  0  0  0  0
  148.5268  133.5780  156.1252 O   0  0  0  0  0  0  0  0  0  0  0  0
  151.8079  133.7816  156.7716 H   0  0  0  0  0  0  0  0  0  0  0  0
  150.9706  132.5444  155.8355 H   0  0  0  0  0  0  0  0  0  0  0  0
  150.6132  132.7476  157.5486 H   0  0  0  0  0  0  0  0  0  0  0  0
  149.6514  134.9903  157.1176 H   0  0  0  0  0  0  0  0  0  0  0  0
  150.9889  135.6153  155.0642 H   0  0  0  0  0  0  0  0  0  0  0  0
  150.1925  134.3501  154.1647 H   0  0  0  0  0  0  0  0  0  0  0  0
  148.1530  137.1174  156.1969 H   0  0  0  0  0  0  0  0  0  0  0  0
  149.8529  137.3529  155.9540 H   0  0  0  0  0  0  0  0  0  0  0  0
  148.1365  139.2371  155.1279 H   0  0  0  0  0  0  0  0  0  0  0  0
  148.2332  137.4425  152.9684 H   0  0  0  0  0  0  0  0  0  0  0  0
  150.4830  138.3766  153.3757 H   0  0  0  0  0  0  0  0  0  0  0  0
  149.6860  139.9245  153.3038 H   0  0  0  0  0  0  0  0  0  0  0  0
  152.3298  137.2821  154.6442 H   0  0  0  0  0  0  0  0  0  0  0  0
  152.8237  138.4909  153.4801 H   0  0  0  0  0  0  0  0  0  0  0  0
  154.7471  138.4284  154.3063 H   0  0  0  0  0  0  0  0  0  0  0  0
  152.4540  141.8273  158.4564 H   0  0  0  0  0  0  0  0  0  0  0  0
  150.4078  143.1744  158.8685 H   0  0  0  0  0  0  0  0  0  0  0  0
  148.4087  142.8994  157.4170 H   0  0  0  0  0  0  0  0  0  0  0  0
  148.4451  141.2641  155.5403 H   0  0  0  0  0  0  0  0  0  0  0  0
  146.8148  135.8889  154.3831 H   0  0  0  0  0  0  0  0  0  0  0  0
  147.6954  134.5300  153.7424 H   0  0  0  0  0  0  0  0  0  0  0  0
  147.3000  135.1150  156.7309 H   0  0  0  0  0  0  0  0  0  0  0  0
  145.2662  134.1851  155.6402 H   0  0  0  0  0  0  0  0  0  0  0  0
  145.9981  133.0183  156.7365 H   0  0  0  0  0  0  0  0  0  0  0  0
  146.2151  132.8456  154.9966 H   0  0  0  0  0  0  0  0  0  0  0  0
  149.1284  136.2735  153.6725 H   0  0  0  0  0  0  0  0  0  0  0  0
  1  2  1  0  0  0  0
  1 24  1  0  0  0  0
  1 25  1  0  0  0  0
  1 26  1  0  0  0  0
  2 23  1  0  0  0  0
  2  3  1  0  0  0  0
  2 27  1  0  0  0  0
  3  4  1  0  0  0  0
  3 28  1  0  0  0  0
  3 29  1  0  0  0  0
  4  5  1  0  0  0  0
  4 20  1  0  0  0  0
  4 49  1  0  0  0  0
  5  6  1  0  0  0  0
  5 30  1  0  0  0  0
  5 31  1  0  0  0  0
  6  7  1  0  0  0  0
  6  8  1  0  0  0  0
  6 32  1  0  0  0  0
  7 33  1  0  0  0  0
  8  9  1  0  0  0  0
  8 34  1  0  0  0  0
  8 35  1  0  0  0  0
  9 19  1  0  0  0  0
  9 10  1  0  0  0  0
 10 11  1  0  0  0  0
 10 13  2  0  0  0  0
 11 12  1  0  0  0  0
 11 36  1  0  0  0  0
 11 37  1  0  0  0  0
 12 38  1  0  0  0  0
 13 14  1  0  0  0  0
 14 19  2  0  0  0  0
 14 15  1  0  0  0  0
 15 16  2  0  0  0  0
 15 39  1  0  0  0  0
 16 17  1  0  0  0  0
 16 40  1  0  0  0  0
 17 18  2  0  0  0  0
 17 41  1  0  0  0  0
 18 19  1  0  0  0  0
 18 42  1  0  0  0  0
 20 21  1  0  0  0  0
 20 43  1  0  0  0  0
 20 44  1  0  0  0  0
 21 22  1  0  0  0  0
 21 23  1  0  0  0  0
 21 45  1  0  0  0  0
 22 46  1  0  0  0  0
 22 47  1  0  0  0  0
 22 48  1  0  0  0  0
M  CHG  1   4   1
M  END
> <s_m_source_file>
AV-unprocessed.smi

> <i_m_source_file_index>
1703

> <i_lp_mmshare_version>
43012

> <i_f3d_flags>
0

> <s_epik_input>
W0NIM11bQ0BASF0xW0NIMl1OKFtDSDJdW0NASF0oTzEpW0NIM10pW0NIMl1bQ0BIXShbT0hdKVtDSDJdbihjKG4yKVtDSDJdW09IXSljKGMyMylbY0hdW2NIXVtjSF1bY0hdMw==

> <s_epik_cmdline>
J2VwaWtfcHl0aG9uJywgJy1waCcsICc3LjAnLCAnLXRuJywgJzgnLCAnLW1hJywgJzIwMCcsICctbWV0YWxfYmluZGluZycsICctaW1hZScsICc8aW5maWxlLm1hZT4nLCAnLW9tYWUnLCAnPG91dGZpbGUubWFlPic=

> <r_epik_Ionization_Penalty>
0.655661

> <r_epik_Ionization_Penalty_Charging>
0.608065

> <r_epik_Ionization_Penalty_Neutral>
0.0475963

> <r_epik_State_Penalty>
0.695267

> <r_epik_Charging_Adjusted_Penalty>
1.30333

> <i_epik_Tot_Q>
1

> <i_epik_Tot_abs_Q>
1

> <r_epik_Metal_State_Penalty>
0.653591

> <b_epik_Metal_Only>
0

> <s_lp_Force_Field>
OPLS_2005

> <r_lp_Energy>
23.3655

> <b_lp_Chiralities_Consistent>
1

> <s_lp_Variant>
AV-unprocessed.smi:1703-8

> <Gold.Version>
5.8.1

> <Gold.Id.Protein>
6NUR|6NUR_protein|mol2

> <Gold.PLP.Fitness>
44.5930

> <Gold.PLP.PLP>
-34.3393

> <Gold.PLP.part.hbond>
-4.7490

> <Gold.PLP.part.metal>
0.0000

> <Gold.PLP.part.buried>
-3.8693

> <Gold.PLP.part.nonpolar>
-25.3216

> <Gold.PLP.part.repulsive>
0.0051

> <Gold.PLP.ligand.clash>
0.0000

> <Gold.PLP.ligand.torsion>
0.9169

> <Gold.PLP.Chemscore.Hbond>
4.0000

> <Gold.PLP.Chemscore.CHOScore>
0.0000

> <Gold.PLP.Chemscore.Metal>
0.0000

> <Gold.Chemscore.Hbonds>
donor molecule, donor type, donor heavy atom, donor atom, acceptor molecule, acceptor atom, score
      L1  H     4    49       P1  7948  2.00
      L1  H     7    33       P1  7948  1.00
      P1  H  7997  8009       L1    13  1.00

> <Gold.PLP.Chemscore.Internal.Correction>
0.0875

> <Gold.Rescore>
     Score         DG    S(hbond)    S(metal)    S(lipo)     H(rot)  DE(clash)    DE(int)     intcor
     15.53     -17.11       2.94        0.00      80.17       2.96       0.70       0.89       ----

> <Gold.Chemscore.Fitness>
15.5252

> <Gold.Chemscore.DG>
-17.1147

> <Gold.Chemscore.ZeroCoef>
-5.4800

> <Gold.Chemscore.Hbond>
2.9447

> <Gold.Chemscore.Metal>
0.0000

> <Gold.Chemscore.Lipo>
80.1681

> <Gold.Chemscore.Internal_Hbond>
0.0000

> <Gold.Chemscore.DEClash>
0.6952

> <Gold.Chemscore.DEInternal>
0.8942

> <Gold.Chemscore.Rot>
2.9611

> <Gold.Chemscore.Internal.Correction>
   9.000000E+99

> <Gold.Chemscore.Hbonds>
donor molecule, donor type, donor heavy atom, donor atom, acceptor molecule, acceptor atom, score
      L1  H     4    49       P1  7948  0.94
      L1  H     7    33       P1  7948  1.00
      P1  H  7997  8009       L1    13  0.80

> <Gold.Chemscore.Hbond.Weighted>
-9.8353

> <Gold.Chemscore.Metal.Weighted>
-0.0000

> <Gold.Chemscore.Lipo.Weighted>
-9.3797

> <Gold.Chemscore.Internal_Hbond.Weighted>
0.0000

> <Gold.Chemscore.DEClash.Weighted>
0.6952

> <Gold.Chemscore.DEInternal.Weighted>
0.8942

> <Gold.Chemscore.Rot.Weighted>
7.5803

> <Gold.Chemscore.Internal.Correction.Weighted>
   9.000000E+99

> <Gold.Protein.RotatedTorsions>
[ 6907 6896 6895 6894 ] final   74.34 input  -60.11 | X-H torsion
[ 7974 7965 7964 7962 ] final  116.44 input  175.53 | X-H torsion
[ 8008 7997 7996 7995 ] final -149.61 input   59.86 | X-H torsion
[ 10167 10162 10161 10158 ] final   82.55 input  -65.29 | X-H torsion
[ 10718 10713 10712 10709 ] final  -88.60 input   66.30 | X-H torsion
[ 10763 10752 10751 10750 ] final   94.14 input  -60.55 | X-H torsion
[ 11005 11000 10999 10996 ] final   -6.89 input  -57.11 | X-H torsion

> <Gold.Protein.ActiveResidues>
 VAL166  LYS551  ARG553  GLY616  TRP617  ASP618  TYR619  PRO620  LYS621  CYS622 
 ASP623  PHE694  ASN695  SER759  ASP760  ASP761  ALA762  ILE779  LEU786  VAL792 
 PHE793  MET794  SER795  GLU796  ALA797  LYS798  CYS799  TRP800  GLU811  SER814 

> <Gold.Protein.RotatedAtoms>
  152.4971  134.4286  159.9504 H   0  0  0  0  0  0  0  0  0  0  0  0  # atno 6907 bound_to 6896
  151.4262  133.3677  159.2770 H   0  0  0  0  0  0  0  0  0  0  0  0  # atno 6908 bound_to 6896
  150.9187  134.8627  159.7534 H   0  0  0  0  0  0  0  0  0  0  0  0  # atno 6909 bound_to 6896
  145.1796  139.3057  143.4425 H   0  0  0  0  0  0  0  0  0  0  0  0  # atno 7974 bound_to 7965
  155.6104  140.0671  157.2708 H   0  0  0  0  0  0  0  0  0  0  0  0  # atno 8008 bound_to 7997
  154.4255  140.1802  156.1314 H   0  0  0  0  0  0  0  0  0  0  0  0  # atno 8009 bound_to 7997
  156.0089  140.3328  155.6924 H   0  0  0  0  0  0  0  0  0  0  0  0  # atno 8010 bound_to 7997
  139.9276  144.6172  150.8377 H   0  0  0  0  0  0  0  0  0  0  0  0  # atno 10167 bound_to 10162
  155.9983  130.4842  150.5045 H   0  0  0  0  0  0  0  0  0  0  0  0  # atno 10718 bound_to 10713
  153.2382  135.4300  155.0669 H   0  0  0  0  0  0  0  0  0  0  0  0  # atno 10763 bound_to 10752
  154.8328  135.3396  154.6687 H   0  0  0  0  0  0  0  0  0  0  0  0  # atno 10764 bound_to 10752
  153.7112  135.7022  153.5093 H   0  0  0  0  0  0  0  0  0  0  0  0  # atno 10765 bound_to 10752
  140.7069  133.8942  155.8723 H   0  0  0  0  0  0  0  0  0  0  0  0  # atno 11005 bound_to 11000
  146.3455  140.1971  142.8589 LP  0  0  0  0  0  0  0  0  0  0  0  0  # atno 17320 bound_to 7965
  145.0149  140.8746  143.5201 LP  0  0  0  0  0  0  0  0  0  0  0  0  # atno 17321 bound_to 7965
  140.7646  143.3253  151.2531 LP  0  0  0  0  0  0  0  0  0  0  0  0  # atno 17342 bound_to 10162
  139.6809  143.9856  152.2808 LP  0  0  0  0  0  0  0  0  0  0  0  0  # atno 17343 bound_to 10162
  157.3025  131.0648  151.2058 LP  0  0  0  0  0  0  0  0  0  0  0  0  # atno 17370 bound_to 10713
  157.3032  130.6853  149.6175 LP  0  0  0  0  0  0  0  0  0  0  0  0  # atno 17371 bound_to 10713
  141.0117  134.1011  157.4214 LP  0  0  0  0  0  0  0  0  0  0  0  0  # atno 17394 bound_to 11000
  139.8882  135.0095  156.6605 LP  0  0  0  0  0  0  0  0  0  0  0  0  # atno 17395 bound_to 11000

$$$$
