AV-unprocessed.smi:174|AV-procd|sdf|1425|dock3
  -GOLD-   2262019193D 1   1.00000     0.00000
 Structure written by MMmdl.
 51 54  0  0  0  0  0  0  0  0  1 V2000
  147.4403  132.9404  151.8448 N   0  0  0  0  0  0  0  0  0  0  0  0
  146.3325  133.1922  151.1391 C   0  0  0  0  0  0  0  0  0  0  0  0
  146.1668  132.7213  150.0164 O   0  0  0  0  0  0  0  0  0  0  0  0
  145.2424  134.0895  151.7511 C   0  0  0  0  0  0  0  0  0  0  0  0
  145.7254  135.3523  152.3376 N   0  0  0  0  0  0  0  0  0  0  0  0
  145.4997  136.5704  151.5519 C   0  0  0  0  0  0  0  0  0  0  0  0
  146.6067  137.6077  151.7641 C   0  0  0  0  0  0  0  0  0  0  0  0
  146.7864  137.8698  153.1866 N   0  0  0  0  0  0  0  0  0  0  0  0
  147.3819  139.0244  153.5981 C   0  0  0  0  0  0  0  0  0  0  0  0
  146.7769  140.1968  153.2675 N   0  0  0  0  0  0  0  0  0  0  0  0
  147.3069  141.3678  153.6294 C   0  0  0  0  0  0  0  0  0  0  0  0
  148.4231  141.5987  154.3202 N   0  0  0  0  0  0  0  0  0  0  0  0
  149.0366  140.4319  154.6663 C   0  0  0  0  0  0  0  0  0  0  0  0
  148.5930  139.1132  154.3531 C   0  0  0  0  0  0  0  0  0  0  0  0
  149.4826  138.1897  154.8957 N   0  0  0  0  0  0  0  0  0  0  0  0
  150.3983  138.9156  155.4756 C   0  0  0  0  0  0  0  0  0  0  0  0
  150.2073  140.2737  155.3850 N   0  0  0  0  0  0  0  0  0  0  0  0
  151.0614  141.3123  155.9329 C   0  0  0  0  0  0  0  0  0  0  0  0
  150.4168  142.0245  157.1375 C   0  0  2  0  0  0  0  0  0  0  0  0
  149.1519  142.5529  156.7853 O   0  0  0  0  0  0  0  0  0  0  0  0
  151.3204  143.1216  157.7360 C   0  0  2  0  0  0  0  0  0  0  0  0
  152.4499  142.6498  158.6554 C   0  0  0  0  0  0  0  0  0  0  0  0
  152.7143  143.9021  159.4612 C   0  0  0  0  0  0  0  0  0  0  0  0
  151.3035  144.4545  159.6504 C   0  0  0  0  0  0  0  0  0  0  0  0
  150.5768  144.0823  158.4820 O   0  0  0  0  0  0  0  0  0  0  0  0
  146.8023  136.7360  154.1253 C   0  0  0  0  0  0  0  0  0  0  0  0
  146.2957  135.3928  153.5668 C   0  0  0  0  0  0  0  0  0  0  0  0
  146.4361  134.3887  154.2652 O   0  0  0  0  0  0  0  0  0  0  0  0
  148.1645  132.3588  151.4488 H   0  0  0  0  0  0  0  0  0  0  0  0
  147.5528  133.3373  152.7663 H   0  0  0  0  0  0  0  0  0  0  0  0
  144.4932  134.2920  150.9835 H   0  0  0  0  0  0  0  0  0  0  0  0
  144.7154  133.5064  152.5068 H   0  0  0  0  0  0  0  0  0  0  0  0
  145.4241  136.3433  150.4881 H   0  0  0  0  0  0  0  0  0  0  0  0
  144.5377  136.9925  151.8460 H   0  0  0  0  0  0  0  0  0  0  0  0
  147.5464  137.2514  151.3389 H   0  0  0  0  0  0  0  0  0  0  0  0
  146.3259  138.5195  151.2359 H   0  0  0  0  0  0  0  0  0  0  0  0
  146.7574  142.2447  153.3207 H   0  0  0  0  0  0  0  0  0  0  0  0
  151.2440  138.4782  155.9862 H   0  0  0  0  0  0  0  0  0  0  0  0
  152.0079  140.8563  156.2256 H   0  0  0  0  0  0  0  0  0  0  0  0
  151.2905  142.0272  155.1415 H   0  0  0  0  0  0  0  0  0  0  0  0
  150.2349  141.2848  157.9183 H   0  0  0  0  0  0  0  0  0  0  0  0
  149.2752  143.4291  156.4538 H   0  0  0  0  0  0  0  0  0  0  0  0
  151.7749  143.6747  156.9123 H   0  0  0  0  0  0  0  0  0  0  0  0
  152.1219  141.8513  159.3215 H   0  0  0  0  0  0  0  0  0  0  0  0
  153.3250  142.2996  158.1076 H   0  0  0  0  0  0  0  0  0  0  0  0
  153.2262  143.7079  160.4041 H   0  0  0  0  0  0  0  0  0  0  0  0
  153.3178  144.6017  158.8811 H   0  0  0  0  0  0  0  0  0  0  0  0
  150.8279  143.9893  160.5150 H   0  0  0  0  0  0  0  0  0  0  0  0
  151.2949  145.5346  159.7994 H   0  0  0  0  0  0  0  0  0  0  0  0
  147.8193  136.5905  154.4935 H   0  0  0  0  0  0  0  0  0  0  0  0
  146.1805  136.9742  154.9894 H   0  0  0  0  0  0  0  0  0  0  0  0
  1  2  1  0  0  0  0
  1 29  1  0  0  0  0
  1 30  1  0  0  0  0
  2  3  2  0  0  0  0
  2  4  1  0  0  0  0
  4  5  1  0  0  0  0
  4 31  1  0  0  0  0
  4 32  1  0  0  0  0
  5 27  1  0  0  0  0
  5  6  1  0  0  0  0
  6  7  1  0  0  0  0
  6 33  1  0  0  0  0
  6 34  1  0  0  0  0
  7  8  1  0  0  0  0
  7 35  1  0  0  0  0
  7 36  1  0  0  0  0
  8  9  1  0  0  0  0
  8 26  1  0  0  0  0
  9 14  1  0  0  0  0
  9 10  2  0  0  0  0
 10 11  1  0  0  0  0
 11 12  2  0  0  0  0
 11 37  1  0  0  0  0
 12 13  1  0  0  0  0
 13 17  1  0  0  0  0
 13 14  2  0  0  0  0
 14 15  1  0  0  0  0
 15 16  2  0  0  0  0
 16 17  1  0  0  0  0
 16 38  1  0  0  0  0
 17 18  1  0  0  0  0
 18 19  1  0  0  0  0
 18 39  1  0  0  0  0
 18 40  1  0  0  0  0
 19 20  1  0  0  0  0
 19 21  1  0  0  0  0
 19 41  1  0  0  0  0
 20 42  1  0  0  0  0
 21 25  1  0  0  0  0
 21 22  1  0  0  0  0
 21 43  1  0  0  0  0
 22 23  1  0  0  0  0
 22 44  1  0  0  0  0
 22 45  1  0  0  0  0
 23 24  1  0  0  0  0
 23 46  1  0  0  0  0
 23 47  1  0  0  0  0
 24 25  1  0  0  0  0
 24 48  1  0  0  0  0
 24 49  1  0  0  0  0
 26 27  1  0  0  0  0
 26 50  1  0  0  0  0
 26 51  1  0  0  0  0
 27 28  2  0  0  0  0
M  END
> <s_m_source_file>
AV-unprocessed.smi

> <i_m_source_file_index>
174

> <i_lp_mmshare_version>
43012

> <i_f3d_flags>
0

> <s_epik_input>
W05IMl1DKD1PKVtDSDJdTjFbQ0gyXVtDSDJdTihbQ0gyXUMxPU8pYyhuW2NIXW4yKWMoYzIzKW5bY0hdbjNbQ0gyXVtDQEhdKFtPSF0pW0NAQEhdNFtDSDJdW0NIMl1bQ0gyXU80

> <s_epik_cmdline>
J2VwaWtfcHl0aG9uJywgJy1waCcsICc3LjAnLCAnLXRuJywgJzgnLCAnLW1hJywgJzIwMCcsICctbWV0YWxfYmluZGluZycsICctaW1hZScsICc8aW5maWxlLm1hZT4nLCAnLW9tYWUnLCAnPG91dGZpbGUubWFlPic=

> <r_lp_tautomer_probability>
1

> <r_epik_Ionization_Penalty>
0.000250477

> <r_epik_Ionization_Penalty_Charging>
0

> <r_epik_Ionization_Penalty_Neutral>
0.000250477

> <r_epik_State_Penalty>
-0

> <r_epik_Charging_Adjusted_Penalty>
0

> <i_epik_Tot_Q>
0

> <i_epik_Tot_abs_Q>
0

> <r_epik_Metal_State_Penalty>
-0

> <b_epik_Metal_Only>
0

> <s_lp_Force_Field>
OPLS_2005

> <r_lp_Energy>
38.8972

> <b_lp_Chiralities_Consistent>
1

> <s_lp_Variant>
AV-unprocessed.smi:174-1

> <Gold.Version>
5.8.1

> <Gold.Id.Protein>
6NUR|6NUR_protein|mol2

> <Gold.PLP.Fitness>
43.8515

> <Gold.PLP.PLP>
-41.2854

> <Gold.PLP.part.hbond>
-1.9011

> <Gold.PLP.part.metal>
0.0000

> <Gold.PLP.part.buried>
-0.5876

> <Gold.PLP.part.nonpolar>
-39.2379

> <Gold.PLP.part.repulsive>
1.5580

> <Gold.PLP.ligand.clash>
0.0000

> <Gold.PLP.ligand.torsion>
1.8430

> <Gold.PLP.Chemscore.Hbond>
1.9913

> <Gold.PLP.Chemscore.CHOScore>
0.0000

> <Gold.PLP.Chemscore.Metal>
0.0000

> <Gold.Chemscore.Hbonds>
donor molecule, donor type, donor heavy atom, donor atom, acceptor molecule, acceptor atom, score
      L1  H     1    29       P1 10747  0.93
      L1  H    20    42       P1  8028  1.00

> <Gold.PLP.Chemscore.Internal.Correction>
0.2784

> <Gold.Rescore>
     Score         DG    S(hbond)    S(metal)    S(lipo)     H(rot)  DE(clash)    DE(int)     intcor
      8.52     -13.08       1.93        0.00      85.44       3.46       1.86       2.70       ----

> <Gold.Chemscore.Fitness>
8.5237

> <Gold.Chemscore.DG>
-13.0829

> <Gold.Chemscore.ZeroCoef>
-5.4800

> <Gold.Chemscore.Hbond>
1.9347

> <Gold.Chemscore.Metal>
0.0000

> <Gold.Chemscore.Lipo>
85.4379

> <Gold.Chemscore.Internal_Hbond>
0.0000

> <Gold.Chemscore.DEClash>
1.8585

> <Gold.Chemscore.DEInternal>
2.7007

> <Gold.Chemscore.Rot>
3.4591

> <Gold.Chemscore.Internal.Correction>
   9.000000E+99

> <Gold.Chemscore.Hbonds>
donor molecule, donor type, donor heavy atom, donor atom, acceptor molecule, acceptor atom, score
      L1  H     1    29       P1 10747  0.88
      L1  H    20    42       P1  8028  0.94

> <Gold.Chemscore.Hbond.Weighted>
-6.4620

> <Gold.Chemscore.Metal.Weighted>
-0.0000

> <Gold.Chemscore.Lipo.Weighted>
-9.9962

> <Gold.Chemscore.Internal_Hbond.Weighted>
0.0000

> <Gold.Chemscore.DEClash.Weighted>
1.8585

> <Gold.Chemscore.DEInternal.Weighted>
2.7007

> <Gold.Chemscore.Rot.Weighted>
8.8553

> <Gold.Chemscore.Internal.Correction.Weighted>
   9.000000E+99

> <Gold.Protein.RotatedTorsions>
[ 6907 6896 6895 6894 ] final -123.56 input  -60.11 | X-H torsion
[ 7974 7965 7964 7962 ] final  144.52 input  175.53 | X-H torsion
[ 8008 7997 7996 7995 ] final -155.76 input   59.86 | X-H torsion
[ 10167 10162 10161 10158 ] final -161.94 input  -65.29 | X-H torsion
[ 10718 10713 10712 10709 ] final  -51.44 input   66.30 | X-H torsion
[ 10763 10752 10751 10750 ] final -112.36 input  -60.55 | X-H torsion
[ 11005 11000 10999 10996 ] final  -99.27 input  -57.11 | X-H torsion

> <Gold.Protein.ActiveResidues>
 VAL166  LYS551  ARG553  GLY616  TRP617  ASP618  TYR619  PRO620  LYS621  CYS622 
 ASP623  PHE694  ASN695  SER759  ASP760  ASP761  ALA762  ILE779  LEU786  VAL792 
 PHE793  MET794  SER795  GLU796  ALA797  LYS798  CYS799  TRP800  GLU811  SER814 

> <Gold.Protein.RotatedAtoms>
  150.8683  133.7542  159.2969 H   0  0  0  0  0  0  0  0  0  0  0  0  # atno 6907 bound_to 6896
  151.5162  135.1064  159.9876 H   0  0  0  0  0  0  0  0  0  0  0  0  # atno 6908 bound_to 6896
  152.4677  133.7914  159.6960 H   0  0  0  0  0  0  0  0  0  0  0  0  # atno 6909 bound_to 6896
  144.8829  139.5672  143.5834 H   0  0  0  0  0  0  0  0  0  0  0  0  # atno 7974 bound_to 7965
  155.7068  140.0773  157.2388 H   0  0  0  0  0  0  0  0  0  0  0  0  # atno 8008 bound_to 7997
  154.4064  140.1637  156.2305 H   0  0  0  0  0  0  0  0  0  0  0  0  # atno 8009 bound_to 7997
  155.9319  140.3390  155.6259 H   0  0  0  0  0  0  0  0  0  0  0  0  # atno 8010 bound_to 7997
  139.6428  144.0228  152.2105 H   0  0  0  0  0  0  0  0  0  0  0  0  # atno 10167 bound_to 10162
  156.1710  130.4149  149.9647 H   0  0  0  0  0  0  0  0  0  0  0  0  # atno 10718 bound_to 10713
  154.8346  135.4493  154.1182 H   0  0  0  0  0  0  0  0  0  0  0  0  # atno 10763 bound_to 10752
  153.2425  135.6918  153.7773 H   0  0  0  0  0  0  0  0  0  0  0  0  # atno 10764 bound_to 10752
  153.7115  135.3356  155.3223 H   0  0  0  0  0  0  0  0  0  0  0  0  # atno 10765 bound_to 10752
  141.1315  133.8308  157.0949 H   0  0  0  0  0  0  0  0  0  0  0  0  # atno 11005 bound_to 11000
  146.3006  139.7414  142.9094 LP  0  0  0  0  0  0  0  0  0  0  0  0  # atno 17320 bound_to 7965
  145.3921  141.0374  143.3118 LP  0  0  0  0  0  0  0  0  0  0  0  0  # atno 17321 bound_to 7965
  139.9922  144.6353  150.7804 LP  0  0  0  0  0  0  0  0  0  0  0  0  # atno 17342 bound_to 10162
  140.7499  143.2947  151.3237 LP  0  0  0  0  0  0  0  0  0  0  0  0  # atno 17343 bound_to 10162
  156.7447  130.9093  151.3634 LP  0  0  0  0  0  0  0  0  0  0  0  0  # atno 17370 bound_to 10713
  157.6802  130.9133  150.0249 LP  0  0  0  0  0  0  0  0  0  0  0  0  # atno 17371 bound_to 10713
  140.0369  134.9873  157.0888 LP  0  0  0  0  0  0  0  0  0  0  0  0  # atno 17394 bound_to 11000
  140.4196  134.1895  155.7164 LP  0  0  0  0  0  0  0  0  0  0  0  0  # atno 17395 bound_to 11000

$$$$
