AV-unprocessed.smi:1254|AV-procd|sdf|5280|dock9
  -GOLD-   22720 4403D 1   1.00000     0.00000
 Structure written by MMmdl.
 44 45  0  0  0  0  0  0  0  0  2 V2000
  148.7989  130.8206  157.3059 C   0  0  0  0  0  0  0  0  0  0  0  0
  149.2599  132.1375  156.7826 C   0  0  0  0  0  0  0  0  0  0  0  0
  149.1904  132.7248  155.5513 C   0  0  0  0  0  0  0  0  0  0  0  0
  149.8189  133.9836  155.7561 C   0  0  0  0  0  0  0  0  0  0  0  0
  150.0092  134.9297  154.8237 N   0  5  0  0  0  0  0  0  0  0  0  0
  150.8229  135.9811  155.0762 C   0  0  0  0  0  0  0  0  0  0  0  0
  151.6539  136.0601  155.9838 O   0  0  0  0  0  0  0  0  0  0  0  0
  150.6601  137.0037  154.2248 N   0  0  0  0  0  0  0  0  0  0  0  0
  151.3992  138.2622  154.2395 C   0  0  0  0  0  0  0  0  0  0  0  0
  150.7500  139.2894  155.1819 C   0  0  1  0  0  0  0  0  0  0  0  0
  151.7602  139.8446  156.2052 C   0  0  0  0  0  0  0  0  0  0  0  0
  151.1687  140.8580  157.0731 N   0  0  0  0  0  0  0  0  0  0  0  0
  152.1515  141.3541  158.0380 C   0  0  0  0  0  0  0  0  0  0  0  0
  151.6102  142.3152  159.1181 C   0  0  0  0  0  0  0  0  0  0  0  0
  151.4192  143.7228  158.5345 C   0  0  0  0  0  0  0  0  0  0  0  0
  152.5291  142.3636  160.3497 C   0  0  0  0  0  0  0  0  0  0  0  0
  150.6044  141.9203  156.2433 C   0  0  0  0  0  0  0  0  0  0  0  0
  149.6092  141.3721  155.2069 C   0  0  0  0  0  0  0  0  0  0  0  0
  150.2496  140.3805  154.4129 O   0  0  0  0  0  0  0  0  0  0  0  0
  150.2481  134.1384  156.9977 N   0  0  0  0  0  0  0  0  0  0  0  0
  149.8875  132.9612  157.6642 O   0  0  0  0  0  0  0  0  0  0  0  0
  149.6448  130.1525  157.4667 H   0  0  0  0  0  0  0  0  0  0  0  0
  148.1168  130.3407  156.6039 H   0  0  0  0  0  0  0  0  0  0  0  0
  148.2763  130.9418  158.2549 H   0  0  0  0  0  0  0  0  0  0  0  0
  148.7564  132.3222  154.6483 H   0  0  0  0  0  0  0  0  0  0  0  0
  149.9696  136.8909  153.4973 H   0  0  0  0  0  0  0  0  0  0  0  0
  152.4087  138.0380  154.5847 H   0  0  0  0  0  0  0  0  0  0  0  0
  151.5045  138.6717  153.2334 H   0  0  0  0  0  0  0  0  0  0  0  0
  149.9228  138.8137  155.7124 H   0  0  0  0  0  0  0  0  0  0  0  0
  152.1442  139.0228  156.8108 H   0  0  0  0  0  0  0  0  0  0  0  0
  152.6160  140.2668  155.6757 H   0  0  0  0  0  0  0  0  0  0  0  0
  152.6047  140.5037  158.5498 H   0  0  0  0  0  0  0  0  0  0  0  0
  152.9659  141.8407  157.4991 H   0  0  0  0  0  0  0  0  0  0  0  0
  150.6267  141.9769  159.4426 H   0  0  0  0  0  0  0  0  0  0  0  0
  152.3662  144.1432  158.1942 H   0  0  0  0  0  0  0  0  0  0  0  0
  151.0004  144.4031  159.2765 H   0  0  0  0  0  0  0  0  0  0  0  0
  150.7378  143.7065  157.6835 H   0  0  0  0  0  0  0  0  0  0  0  0
  153.5316  142.7001  160.0835 H   0  0  0  0  0  0  0  0  0  0  0  0
  152.6205  141.3821  160.8156 H   0  0  0  0  0  0  0  0  0  0  0  0
  152.1384  143.0466  161.1045 H   0  0  0  0  0  0  0  0  0  0  0  0
  150.0891  142.6539  156.8617 H   0  0  0  0  0  0  0  0  0  0  0  0
  151.4052  142.4516  155.7265 H   0  0  0  0  0  0  0  0  0  0  0  0
  148.7330  140.9459  155.6980 H   0  0  0  0  0  0  0  0  0  0  0  0
  149.2554  142.1735  154.5584 H   0  0  0  0  0  0  0  0  0  0  0  0
  1  2  1  0  0  0  0
  1 22  1  0  0  0  0
  1 23  1  0  0  0  0
  1 24  1  0  0  0  0
  2 21  1  0  0  0  0
  2  3  2  0  0  0  0
  3  4  1  0  0  0  0
  3 25  1  0  0  0  0
  4  5  1  0  0  0  0
  4 20  2  0  0  0  0
  5  6  1  0  0  0  0
  6  7  2  0  0  0  0
  6  8  1  0  0  0  0
  8  9  1  0  0  0  0
  8 26  1  0  0  0  0
  9 10  1  0  0  0  0
  9 27  1  0  0  0  0
  9 28  1  0  0  0  0
 10 19  1  0  0  0  0
 10 11  1  0  0  0  0
 10 29  1  0  0  0  0
 11 12  1  0  0  0  0
 11 30  1  0  0  0  0
 11 31  1  0  0  0  0
 12 13  1  0  0  0  0
 12 17  1  0  0  0  0
 13 14  1  0  0  0  0
 13 32  1  0  0  0  0
 13 33  1  0  0  0  0
 14 15  1  0  0  0  0
 14 16  1  0  0  0  0
 14 34  1  0  0  0  0
 15 35  1  0  0  0  0
 15 36  1  0  0  0  0
 15 37  1  0  0  0  0
 16 38  1  0  0  0  0
 16 39  1  0  0  0  0
 16 40  1  0  0  0  0
 17 18  1  0  0  0  0
 17 41  1  0  0  0  0
 17 42  1  0  0  0  0
 18 19  1  0  0  0  0
 18 43  1  0  0  0  0
 18 44  1  0  0  0  0
 20 21  1  0  0  0  0
M  CHG  1   5  -1
M  END
> <s_m_source_file>
AV-unprocessed.smi

> <i_m_source_file_index>
1254

> <i_lp_mmshare_version>
43012

> <i_f3d_flags>
0

> <s_epik_input>
W0NIM11jMVtjSF1jKG5vMSlbTkhdQyg9TylbTkhdW0NIMl1bQ0BASF0yW0NIMl1OKFtDSDJdW0NIMl1PMilbQ0gyXVtDSF0oW0NIM10pW0NIM10=

> <s_epik_cmdline>
J2VwaWtfcHl0aG9uJywgJy1waCcsICc3LjAnLCAnLXRuJywgJzgnLCAnLW1hJywgJzIwMCcsICctbWV0YWxfYmluZGluZycsICctaW1hZScsICc8aW5maWxlLm1hZT4nLCAnLW9tYWUnLCAnPG91dGZpbGUubWFlPic=

> <r_epik_Ionization_Penalty>
7.56718

> <r_epik_Ionization_Penalty_Charging>
6.43435

> <r_epik_Ionization_Penalty_Neutral>
1.13283

> <r_epik_State_Penalty>
7.60314

> <r_epik_Charging_Adjusted_Penalty>
14.0375

> <i_epik_Tot_Q>
-1

> <i_epik_Tot_abs_Q>
1

> <r_epik_Metal_State_Penalty>
3.53636

> <b_epik_Metal_Only>
1

> <s_lp_Force_Field>
OPLS_2005

> <r_lp_Energy>
16.636

> <b_lp_Chiralities_Consistent>
1

> <s_lp_Variant>
AV-unprocessed.smi:1254-12

> <Gold.Version>
5.8.1

> <Gold.Id.Protein>
6NUR|6NUR_protein|mol2

> <Gold.PLP.Fitness>
43.8213

> <Gold.PLP.PLP>
-35.1299

> <Gold.PLP.part.hbond>
-5.9975

> <Gold.PLP.part.metal>
0.0000

> <Gold.PLP.part.buried>
-5.3808

> <Gold.PLP.part.nonpolar>
-25.0133

> <Gold.PLP.part.repulsive>
0.3760

> <Gold.PLP.ligand.clash>
0.0000

> <Gold.PLP.ligand.torsion>
1.1945

> <Gold.PLP.Chemscore.Hbond>
3.6260

> <Gold.PLP.Chemscore.CHOScore>
0.0000

> <Gold.PLP.Chemscore.Metal>
0.0000

> <Gold.Chemscore.Hbonds>
donor molecule, donor type, donor heavy atom, donor atom, acceptor molecule, acceptor atom, score
      L1  H     8    26       P1  7948  1.00
      P1  H  6896  6907       L1    21  0.45
      P1  H  7989  7998       L1    19  0.98
      P1  H 10752 10765       L1     7  1.00

> <Gold.PLP.Chemscore.Internal.Correction>
0.2025

> <Gold.Rescore>
     Score         DG    S(hbond)    S(metal)    S(lipo)     H(rot)  DE(clash)    DE(int)     intcor
     14.48     -17.64       2.01        0.00      82.64       1.65       0.24       2.93       ----

> <Gold.Chemscore.Fitness>
14.4822

> <Gold.Chemscore.DG>
-17.6431

> <Gold.Chemscore.ZeroCoef>
-5.4800

> <Gold.Chemscore.Hbond>
2.0136

> <Gold.Chemscore.Metal>
0.0000

> <Gold.Chemscore.Lipo>
82.6351

> <Gold.Chemscore.Internal_Hbond>
0.0000

> <Gold.Chemscore.DEClash>
0.2355

> <Gold.Chemscore.DEInternal>
2.9255

> <Gold.Chemscore.Rot>
1.6526

> <Gold.Chemscore.Internal.Correction>
   9.000000E+99

> <Gold.Chemscore.Hbonds>
donor molecule, donor type, donor heavy atom, donor atom, acceptor molecule, acceptor atom, score
      L1  H     8    26       P1  7948  0.25
      P1  H  6896  6907       L1    21  0.02
      P1  H  7989  7998       L1    19  0.39
      P1  H 10752 10765       L1     7  0.39

> <Gold.Chemscore.Hbond.Weighted>
-6.7255

> <Gold.Chemscore.Metal.Weighted>
-0.0000

> <Gold.Chemscore.Lipo.Weighted>
-9.6683

> <Gold.Chemscore.Internal_Hbond.Weighted>
0.0000

> <Gold.Chemscore.DEClash.Weighted>
0.2355

> <Gold.Chemscore.DEInternal.Weighted>
2.9255

> <Gold.Chemscore.Rot.Weighted>
4.2308

> <Gold.Chemscore.Internal.Correction.Weighted>
   9.000000E+99

> <Gold.Protein.RotatedTorsions>
[ 6907 6896 6895 6894 ] final -137.62 input  -60.11 | X-H torsion
[ 7974 7965 7964 7962 ] final  -84.94 input  175.53 | X-H torsion
[ 8008 7997 7996 7995 ] final  -77.21 input   59.86 | X-H torsion
[ 10167 10162 10161 10158 ] final   13.24 input  -65.29 | X-H torsion
[ 10718 10713 10712 10709 ] final   50.72 input   66.30 | X-H torsion
[ 10763 10752 10751 10750 ] final -139.66 input  -60.55 | X-H torsion
[ 11005 11000 10999 10996 ] final -136.02 input  -57.11 | X-H torsion

> <Gold.Protein.ActiveResidues>
 VAL166  LYS551  ARG553  GLY616  TRP617  ASP618  TYR619  PRO620  LYS621  CYS622 
 ASP623  PHE694  ASN695  SER759  ASP760  ASP761  ALA762  ILE779  LEU786  VAL792 
 PHE793  MET794  SER795  GLU796  ALA797  LYS798  CYS799  TRP800  GLU811  SER814 

> <Gold.Protein.RotatedAtoms>
  151.0247  133.5844  159.2667 H   0  0  0  0  0  0  0  0  0  0  0  0  # atno 6907 bound_to 6896
  151.2948  135.0751  159.9227 H   0  0  0  0  0  0  0  0  0  0  0  0  # atno 6908 bound_to 6896
  152.5331  133.9939  159.7918 H   0  0  0  0  0  0  0  0  0  0  0  0  # atno 6909 bound_to 6896
  145.4999  140.9548  143.1765 H   0  0  0  0  0  0  0  0  0  0  0  0  # atno 7974 bound_to 7965
  154.5575  140.0714  156.8767 H   0  0  0  0  0  0  0  0  0  0  0  0  # atno 8008 bound_to 7997
  155.2874  140.3376  155.4236 H   0  0  0  0  0  0  0  0  0  0  0  0  # atno 8009 bound_to 7997
  156.2014  140.1723  156.7876 H   0  0  0  0  0  0  0  0  0  0  0  0  # atno 8010 bound_to 7997
  140.6016  143.8594  150.6970 H   0  0  0  0  0  0  0  0  0  0  0  0  # atno 10167 bound_to 10162
  157.4912  130.8377  149.8205 H   0  0  0  0  0  0  0  0  0  0  0  0  # atno 10718 bound_to 10713
  154.8602  135.3576  154.5581 H   0  0  0  0  0  0  0  0  0  0  0  0  # atno 10763 bound_to 10752
  153.6197  135.7006  153.5320 H   0  0  0  0  0  0  0  0  0  0  0  0  # atno 10764 bound_to 10752
  153.3139  135.4170  155.1319 H   0  0  0  0  0  0  0  0  0  0  0  0  # atno 10765 bound_to 10752
  140.8844  134.1891  157.4570 H   0  0  0  0  0  0  0  0  0  0  0  0  # atno 11005 bound_to 11000
  144.7786  139.6576  143.7164 LP  0  0  0  0  0  0  0  0  0  0  0  0  # atno 17320 bound_to 7965
  146.2232  139.5674  142.9604 LP  0  0  0  0  0  0  0  0  0  0  0  0  # atno 17321 bound_to 7965
  140.2141  143.3860  152.1695 LP  0  0  0  0  0  0  0  0  0  0  0  0  # atno 17342 bound_to 10162
  139.5295  144.7142  151.5108 LP  0  0  0  0  0  0  0  0  0  0  0  0  # atno 17343 bound_to 10162
  156.0174  130.3808  150.2066 LP  0  0  0  0  0  0  0  0  0  0  0  0  # atno 17370 bound_to 10713
  157.0255  130.9992  151.3327 LP  0  0  0  0  0  0  0  0  0  0  0  0  # atno 17371 bound_to 10713
  139.8723  134.9831  156.5185 LP  0  0  0  0  0  0  0  0  0  0  0  0  # atno 17394 bound_to 11000
  140.8423  133.8196  155.9087 LP  0  0  0  0  0  0  0  0  0  0  0  0  # atno 17395 bound_to 11000

$$$$
