AV-unprocessed.smi:101|AV-procd|sdf|933|dock10
  -GOLD-   2262017453D 1   1.00000     0.00000
 Structure written by MMmdl.
 43 45  0  0  0  0  0  0  0  0  2 V2000
  145.2368  136.6732  159.1136 C   0  0  0  0  0  0  0  0  0  0  0  0
  146.7547  136.7247  159.1060 C   0  0  0  0  0  0  0  0  0  0  0  0
  147.4697  136.7716  157.9597 C   0  0  0  0  0  0  0  0  0  0  0  0
  148.8553  136.8134  157.9550 N   0  0  0  0  0  0  0  0  0  0  0  0
  149.6577  136.8898  156.6646 C   0  0  2  0  0  0  0  0  0  0  0  0
  150.4343  138.0503  156.6468 O   0  0  0  0  0  0  0  0  0  0  0  0
  149.7341  139.0824  155.9663 C   0  0  1  0  0  0  0  0  0  0  0  0
  150.7292  140.1493  155.4933 C   0  0  0  0  0  0  0  0  0  0  0  0
  150.7986  141.1888  156.4557 O   0  0  0  0  0  0  0  0  0  0  0  0
  151.7520  141.1704  157.4064 C   0  0  0  0  0  0  0  0  0  0  0  0
  152.5256  140.2263  157.5792 O   0  0  0  0  0  0  0  0  0  0  0  0
  151.7721  142.4141  158.2296 C   0  0  0  0  0  0  0  0  0  0  0  0
  151.1029  143.5681  157.7591 C   0  0  0  0  0  0  0  0  0  0  0  0
  151.1080  144.7576  158.5133 C   0  0  0  0  0  0  0  0  0  0  0  0
  151.7823  144.8080  159.7472 C   0  0  0  0  0  0  0  0  0  0  0  0
  152.4503  143.6664  160.2270 C   0  0  0  0  0  0  0  0  0  0  0  0
  152.4458  142.4754  159.4748 C   0  0  0  0  0  0  0  0  0  0  0  0
  149.0202  138.3397  154.8352 C   0  0  2  0  0  0  0  0  0  0  0  0
  147.8137  138.9979  154.5025 O   0  0  0  0  0  0  0  0  0  0  0  0
  148.7328  136.9600  155.4275 C   0  0  1  0  0  0  0  0  0  0  0  0
  149.0506  135.9556  154.4854 O   0  0  0  0  0  0  0  0  0  0  0  0
  149.5507  136.8699  159.1927 C   0  0  0  0  0  0  0  0  0  0  0  0
  150.7772  136.9710  159.1618 O   0  0  0  0  0  0  0  0  0  0  0  0
  148.8389  136.8134  160.3539 N   0  5  0  0  0  0  0  0  0  0  0  0
  147.4785  136.7310  160.3823 C   0  0  0  0  0  0  0  0  0  0  0  0
  146.8488  136.6668  161.4377 O   0  0  0  0  0  0  0  0  0  0  0  0
  144.8333  136.6910  158.1007 H   0  0  0  0  0  0  0  0  0  0  0  0
  144.8287  137.5274  159.6548 H   0  0  0  0  0  0  0  0  0  0  0  0
  144.8908  135.7602  159.5989 H   0  0  0  0  0  0  0  0  0  0  0  0
  146.9257  136.7838  157.0285 H   0  0  0  0  0  0  0  0  0  0  0  0
  150.3080  136.0135  156.6943 H   0  0  0  0  0  0  0  0  0  0  0  0
  149.0077  139.5217  156.6520 H   0  0  0  0  0  0  0  0  0  0  0  0
  151.7199  139.7089  155.3756 H   0  0  0  0  0  0  0  0  0  0  0  0
  150.4278  140.5420  154.5211 H   0  0  0  0  0  0  0  0  0  0  0  0
  150.5793  143.5539  156.8141 H   0  0  0  0  0  0  0  0  0  0  0  0
  150.5939  145.6326  158.1436 H   0  0  0  0  0  0  0  0  0  0  0  0
  151.7869  145.7208  160.3244 H   0  0  0  0  0  0  0  0  0  0  0  0
  152.9676  143.7033  161.1744 H   0  0  0  0  0  0  0  0  0  0  0  0
  152.9679  141.6174  159.8729 H   0  0  0  0  0  0  0  0  0  0  0  0
  149.6672  138.2676  153.9593 H   0  0  0  0  0  0  0  0  0  0  0  0
  148.0194  139.7286  153.9397 H   0  0  0  0  0  0  0  0  0  0  0  0
  147.6887  136.8614  155.7296 H   0  0  0  0  0  0  0  0  0  0  0  0
  149.1482  136.3610  153.6377 H   0  0  0  0  0  0  0  0  0  0  0  0
  1  2  1  0  0  0  0
  1 27  1  0  0  0  0
  1 28  1  0  0  0  0
  1 29  1  0  0  0  0
  2 25  1  0  0  0  0
  2  3  2  0  0  0  0
  3  4  1  0  0  0  0
  3 30  1  0  0  0  0
  4  5  1  0  0  0  0
  4 22  1  0  0  0  0
  5 20  1  0  0  0  0
  5  6  1  0  0  0  0
  5 31  1  0  0  0  0
  6  7  1  0  0  0  0
  7  8  1  0  0  0  0
  7 18  1  0  0  0  0
  7 32  1  0  0  0  0
  8  9  1  0  0  0  0
  8 33  1  0  0  0  0
  8 34  1  0  0  0  0
  9 10  1  0  0  0  0
 10 11  2  0  0  0  0
 10 12  1  0  0  0  0
 12 17  1  0  0  0  0
 12 13  2  0  0  0  0
 13 14  1  0  0  0  0
 13 35  1  0  0  0  0
 14 15  2  0  0  0  0
 14 36  1  0  0  0  0
 15 16  1  0  0  0  0
 15 37  1  0  0  0  0
 16 17  2  0  0  0  0
 16 38  1  0  0  0  0
 17 39  1  0  0  0  0
 18 19  1  0  0  0  0
 18 20  1  0  0  0  0
 18 40  1  0  0  0  0
 19 41  1  0  0  0  0
 20 21  1  0  0  0  0
 20 42  1  0  0  0  0
 21 43  1  0  0  0  0
 22 23  2  0  0  0  0
 22 24  1  0  0  0  0
 24 25  1  0  0  0  0
 25 26  2  0  0  0  0
M  CHG  1  24  -1
M  END
> <s_m_source_file>
AV-unprocessed.smi

> <i_m_source_file_index>
101

> <i_lp_mmshare_version>
43012

> <i_f3d_flags>
0

> <s_epik_input>
Tz1jMVtuSF1jKD1PKW4oW2NIXWMxW0NIM10pW0NAQEhdMk9bQ0BIXShbQ0BASF0oW09IXSlbQ0BIXTJbT0hdKVtDSDJdT0MoPU8pYzNbY0hdW2NIXVtjSF1bY0hdW2NIXTM=

> <s_epik_cmdline>
J2VwaWtfcHl0aG9uJywgJy1waCcsICc3LjAnLCAnLXRuJywgJzgnLCAnLW1hJywgJzIwMCcsICctbWV0YWxfYmluZGluZycsICctaW1hZScsICc8aW5maWxlLm1hZT4nLCAnLW9tYWUnLCAnPG91dGZpbGUubWFlPic=

> <r_lp_tautomer_probability>
0.999537

> <r_epik_Ionization_Penalty>
3.21006

> <r_epik_Ionization_Penalty_Charging>
5.75142e-08

> <r_epik_Ionization_Penalty_Neutral>
3.21006

> <r_epik_State_Penalty>
3.20925

> <r_epik_Charging_Adjusted_Penalty>
3.20925

> <i_epik_Tot_Q>
-1

> <i_epik_Tot_abs_Q>
1

> <r_epik_Metal_State_Penalty>
0.119957

> <b_epik_Metal_Only>
1

> <s_epik_Chemistry_Notes>
This compound has an ester and may undergo hydrolysis at high or low pH. This compound contains an acetal/aminal-like group ( X-CH(R)-Y where X, Y are N, S, or O) that may be acid/base labile, releasing an aldehyde.

> <s_lp_Force_Field>
OPLS_2005

> <r_lp_Energy>
40.7876

> <b_lp_Chiralities_Consistent>
1

> <s_lp_Variant>
AV-unprocessed.smi:101-21

> <Gold.Version>
5.8.1

> <Gold.Id.Protein>
6NUR|6NUR_protein|mol2

> <Gold.PLP.Fitness>
49.2615

> <Gold.PLP.PLP>
-36.9782

> <Gold.PLP.part.hbond>
-4.4937

> <Gold.PLP.part.metal>
0.0000

> <Gold.PLP.part.buried>
-5.8686

> <Gold.PLP.part.nonpolar>
-26.7875

> <Gold.PLP.part.repulsive>
0.0303

> <Gold.PLP.ligand.clash>
0.0000

> <Gold.PLP.ligand.torsion>
0.8434

> <Gold.PLP.Chemscore.Hbond>
4.6320

> <Gold.PLP.Chemscore.CHOScore>
0.0000

> <Gold.PLP.Chemscore.Metal>
0.0000

> <Gold.Chemscore.Hbonds>
donor molecule, donor type, donor heavy atom, donor atom, acceptor molecule, acceptor atom, score
      L1  H    21    43       P1  7948  0.96
      P1  H  6896  6909       L1    23  0.61
      P1  H  6931  6943       L1    24  1.10
      P1  H  7997  8008       L1    11  0.91

> <Gold.PLP.Chemscore.Internal.Correction>
0.0741

> <Gold.Rescore>
     Score         DG    S(hbond)    S(metal)    S(lipo)     H(rot)  DE(clash)    DE(int)     intcor
     15.38     -17.79       3.32        0.00      81.76       3.27       0.23       2.19       ----

> <Gold.Chemscore.Fitness>
15.3763

> <Gold.Chemscore.DG>
-17.7913

> <Gold.Chemscore.ZeroCoef>
-5.4800

> <Gold.Chemscore.Hbond>
3.3248

> <Gold.Chemscore.Metal>
0.0000

> <Gold.Chemscore.Lipo>
81.7634

> <Gold.Chemscore.Internal_Hbond>
0.0000

> <Gold.Chemscore.DEClash>
0.2272

> <Gold.Chemscore.DEInternal>
2.1878

> <Gold.Chemscore.Rot>
3.2656

> <Gold.Chemscore.Internal.Correction>
   9.000000E+99

> <Gold.Chemscore.Hbonds>
donor molecule, donor type, donor heavy atom, donor atom, acceptor molecule, acceptor atom, score
      L1  H    21    43       P1  7948  0.89
      P1  H  6896  6909       L1    23  0.05
      P1  H  6931  6943       L1    24  0.11
      P1  H  7997  8008       L1    11  0.83

> <Gold.Chemscore.Hbond.Weighted>
-11.1048

> <Gold.Chemscore.Metal.Weighted>
-0.0000

> <Gold.Chemscore.Lipo.Weighted>
-9.5663

> <Gold.Chemscore.Internal_Hbond.Weighted>
0.0000

> <Gold.Chemscore.DEClash.Weighted>
0.2272

> <Gold.Chemscore.DEInternal.Weighted>
2.1878

> <Gold.Chemscore.Rot.Weighted>
8.3598

> <Gold.Chemscore.Internal.Correction.Weighted>
   9.000000E+99

> <Gold.Protein.RotatedTorsions>
[ 6907 6896 6895 6894 ] final   86.38 input  -60.11 | X-H torsion
[ 7974 7965 7964 7962 ] final  -50.79 input  175.53 | X-H torsion
[ 8008 7997 7996 7995 ] final  -68.17 input   59.86 | X-H torsion
[ 10167 10162 10161 10158 ] final -144.89 input  -65.29 | X-H torsion
[ 10718 10713 10712 10709 ] final  -83.12 input   66.30 | X-H torsion
[ 10763 10752 10751 10750 ] final -154.73 input  -60.55 | X-H torsion
[ 11005 11000 10999 10996 ] final  -96.61 input  -57.11 | X-H torsion

> <Gold.Protein.ActiveResidues>
 VAL166  LYS551  ARG553  GLY616  TRP617  ASP618  TYR619  PRO620  LYS621  CYS622 
 ASP623  PHE694  ASN695  SER759  ASP760  ASP761  ALA762  ILE779  LEU786  VAL792 
 PHE793  MET794  SER795  GLU796  ALA797  LYS798  CYS799  TRP800  GLU811  SER814 

> <Gold.Protein.RotatedAtoms>
  152.5393  134.2440  159.8872 H   0  0  0  0  0  0  0  0  0  0  0  0  # atno 6907 bound_to 6896
  151.2406  133.4395  159.2615 H   0  0  0  0  0  0  0  0  0  0  0  0  # atno 6908 bound_to 6896
  151.0630  134.9763  159.8326 H   0  0  0  0  0  0  0  0  0  0  0  0  # atno 6909 bound_to 6896
  145.9260  140.7791  142.9623 H   0  0  0  0  0  0  0  0  0  0  0  0  # atno 7974 bound_to 7965
  154.4849  140.0878  156.7464 H   0  0  0  0  0  0  0  0  0  0  0  0  # atno 8008 bound_to 7997
  155.4375  140.3452  155.4268 H   0  0  0  0  0  0  0  0  0  0  0  0  # atno 8009 bound_to 7997
  156.1247  140.1484  156.9142 H   0  0  0  0  0  0  0  0  0  0  0  0  # atno 8010 bound_to 7997
  139.7856  143.8038  152.2644 H   0  0  0  0  0  0  0  0  0  0  0  0  # atno 10167 bound_to 10162
  156.0023  130.4656  150.4209 H   0  0  0  0  0  0  0  0  0  0  0  0  # atno 10718 bound_to 10713
  154.7838  135.3183  154.7931 H   0  0  0  0  0  0  0  0  0  0  0  0  # atno 10763 bound_to 10752
  153.8636  135.6851  153.4785 H   0  0  0  0  0  0  0  0  0  0  0  0  # atno 10764 bound_to 10752
  153.1483  135.4710  154.9537 H   0  0  0  0  0  0  0  0  0  0  0  0  # atno 10765 bound_to 10752
  141.1406  133.8110  157.0595 H   0  0  0  0  0  0  0  0  0  0  0  0  # atno 11005 bound_to 11000
  144.6758  140.2052  143.7383 LP  0  0  0  0  0  0  0  0  0  0  0  0  # atno 17320 bound_to 7965
  145.8488  139.2165  143.1784 LP  0  0  0  0  0  0  0  0  0  0  0  0  # atno 17321 bound_to 7965
  139.8114  144.7334  150.9692 LP  0  0  0  0  0  0  0  0  0  0  0  0  # atno 17342 bound_to 10162
  140.7819  143.4247  151.0786 LP  0  0  0  0  0  0  0  0  0  0  0  0  # atno 17343 bound_to 10162
  157.2265  131.0494  151.2516 LP  0  0  0  0  0  0  0  0  0  0  0  0  # atno 17370 bound_to 10713
  157.3751  130.7201  149.6591 LP  0  0  0  0  0  0  0  0  0  0  0  0  # atno 17371 bound_to 10713
  140.0580  134.9770  157.1255 LP  0  0  0  0  0  0  0  0  0  0  0  0  # atno 17394 bound_to 11000
  140.3890  134.2205  155.7167 LP  0  0  0  0  0  0  0  0  0  0  0  0  # atno 17395 bound_to 11000

$$$$
