AV-unprocessed.smi:56|AV-procd|sdf|577|dock1
  -GOLD-   2262016483D 1   1.00000     0.00000
 Structure written by MMmdl.
 23 24  0  0  0  0  0  0  0  0  2 V2000
  149.2306  141.5325  153.5114 O   0  0  0  0  0  0  0  0  0  0  0  0
  149.0128  140.5350  154.4966 C   0  0  1  0  0  0  0  0  0  0  0  0
  149.5720  140.9723  155.8338 C   0  0  0  0  0  0  0  0  0  0  0  0
  150.9107  141.3398  156.1741 C   0  0  0  0  0  0  0  0  0  0  0  0
  150.8506  141.6471  157.5033 C   0  0  0  0  0  0  0  0  0  0  0  0
  149.5451  141.4629  157.8885 N   0  0  0  0  0  0  0  0  0  0  0  0
  148.7560  141.0532  156.8787 N   0  0  0  0  0  0  0  0  0  0  0  0
  147.5193  140.1948  154.5386 C   0  0  0  0  0  0  0  0  0  0  0  0
  147.3041  139.2366  153.3573 C   0  0  0  0  0  0  0  0  0  0  0  0
  148.6345  138.7054  152.9951 N   0  3  0  0  0  0  0  0  0  0  0  0
  149.6102  139.2210  153.9726 C   0  0  0  0  0  0  0  0  0  0  0  0
  149.1831  141.6120  158.8199 H   0  0  0  0  0  0  0  0  0  0  0  0
  149.5995  141.1299  152.7410 H   0  0  0  0  0  0  0  0  0  0  0  0
  151.7854  141.3768  155.5421 H   0  0  0  0  0  0  0  0  0  0  0  0
  151.6133  141.9765  158.1936 H   0  0  0  0  0  0  0  0  0  0  0  0
  147.2958  139.6592  155.4629 H   0  0  0  0  0  0  0  0  0  0  0  0
  146.8719  141.0725  154.5100 H   0  0  0  0  0  0  0  0  0  0  0  0
  146.6188  138.4287  153.6158 H   0  0  0  0  0  0  0  0  0  0  0  0
  146.8920  139.7649  152.4970 H   0  0  0  0  0  0  0  0  0  0  0  0
  148.6359  137.6951  152.9861 H   0  0  0  0  0  0  0  0  0  0  0  0
  150.6089  139.3318  153.5479 H   0  0  0  0  0  0  0  0  0  0  0  0
  149.6682  138.4813  154.7722 H   0  0  0  0  0  0  0  0  0  0  0  0
  148.8777  139.0537  152.0788 H   0  0  0  0  0  0  0  0  0  0  0  0
  1  2  1  0  0  0  0
  1 13  1  0  0  0  0
  2 11  1  0  0  0  0
  2  8  1  0  0  0  0
  2  3  1  0  0  0  0
  3  7  2  0  0  0  0
  3  4  1  0  0  0  0
  4  5  2  0  0  0  0
  4 14  1  0  0  0  0
  5  6  1  0  0  0  0
  5 15  1  0  0  0  0
  6  7  1  0  0  0  0
  6 12  1  0  0  0  0
  8  9  1  0  0  0  0
  8 16  1  0  0  0  0
  8 17  1  0  0  0  0
  9 10  1  0  0  0  0
  9 18  1  0  0  0  0
  9 19  1  0  0  0  0
 10 11  1  0  0  0  0
 10 20  1  0  0  0  0
 10 23  1  0  0  0  0
 11 21  1  0  0  0  0
 11 22  1  0  0  0  0
M  CHG  1  10   1
M  END
> <s_m_source_file>
AV-unprocessed.smi

> <i_m_source_file_index>
56

> <i_lp_mmshare_version>
43012

> <i_f3d_flags>
0

> <s_epik_input>
W0NIMl0xW05IXVtDSDJdW0NIMl1bQ0BAXTEoW09IXSljMltjSF1bY0hdbltuSF0y

> <s_epik_cmdline>
J2VwaWtfcHl0aG9uJywgJy1waCcsICc3LjAnLCAnLXRuJywgJzgnLCAnLW1hJywgJzIwMCcsICctbWV0YWxfYmluZGluZycsICctaW1hZScsICc8aW5maWxlLm1hZT4nLCAnLW9tYWUnLCAnPG91dGZpbGUubWFlPic=

> <r_lp_tautomer_probability>
0.5

> <r_epik_Ionization_Penalty>
0.000592189

> <r_epik_Ionization_Penalty_Charging>
0.00059155

> <r_epik_Ionization_Penalty_Neutral>
6.39784e-07

> <r_epik_State_Penalty>
0.41068

> <r_epik_Charging_Adjusted_Penalty>
0.411271

> <i_epik_Tot_Q>
1

> <i_epik_Tot_abs_Q>
1

> <r_epik_Metal_State_Penalty>
0.410682

> <b_epik_Metal_Only>
0

> <s_lp_Force_Field>
OPLS_2005

> <r_lp_Energy>
24.7564

> <b_lp_Chiralities_Consistent>
1

> <s_lp_Variant>
AV-unprocessed.smi:56-1

> <Gold.Version>
5.8.1

> <Gold.Id.Protein>
6NUR|6NUR_protein|mol2

> <Gold.PLP.Fitness>
30.2809

> <Gold.PLP.PLP>
-19.3916

> <Gold.PLP.part.hbond>
-4.5364

> <Gold.PLP.part.metal>
0.0000

> <Gold.PLP.part.buried>
-0.1974

> <Gold.PLP.part.nonpolar>
-13.9630

> <Gold.PLP.part.repulsive>
0.2678

> <Gold.PLP.ligand.clash>
0.0000

> <Gold.PLP.ligand.torsion>
0.0143

> <Gold.PLP.Chemscore.Hbond>
3.6320

> <Gold.PLP.Chemscore.CHOScore>
0.0000

> <Gold.PLP.Chemscore.Metal>
0.0000

> <Gold.Chemscore.Hbonds>
donor molecule, donor type, donor heavy atom, donor atom, acceptor molecule, acceptor atom, score
      L1  H     1    13       P1  7957  1.00
      L1  H    10    20       P1  7948  1.63
      L1  H    10    23       P1  7957  0.96

> <Gold.PLP.Chemscore.Internal.Correction>
0.0218

> <Gold.Rescore>
     Score         DG    S(hbond)    S(metal)    S(lipo)     H(rot)  DE(clash)    DE(int)     intcor
     15.50     -15.53       2.72        0.00      41.00       1.50       0.00       0.02       ----

> <Gold.Chemscore.Fitness>
15.5032

> <Gold.Chemscore.DG>
-15.5272

> <Gold.Chemscore.ZeroCoef>
-5.4800

> <Gold.Chemscore.Hbond>
2.7204

> <Gold.Chemscore.Metal>
0.0000

> <Gold.Chemscore.Lipo>
41.0014

> <Gold.Chemscore.Internal_Hbond>
0.0000

> <Gold.Chemscore.DEClash>
0.0038

> <Gold.Chemscore.DEInternal>
0.0202

> <Gold.Chemscore.Rot>
1.4985

> <Gold.Chemscore.Internal.Correction>
   9.000000E+99

> <Gold.Chemscore.Hbonds>
donor molecule, donor type, donor heavy atom, donor atom, acceptor molecule, acceptor atom, score
      L1  H     1    13       P1  7957  0.99
      L1  H    10    20       P1  7948  0.81
      L1  H    10    23       P1  7957  0.85

> <Gold.Chemscore.Hbond.Weighted>
-9.0862

> <Gold.Chemscore.Metal.Weighted>
-0.0000

> <Gold.Chemscore.Lipo.Weighted>
-4.7972

> <Gold.Chemscore.Internal_Hbond.Weighted>
0.0000

> <Gold.Chemscore.DEClash.Weighted>
0.0038

> <Gold.Chemscore.DEInternal.Weighted>
0.0202

> <Gold.Chemscore.Rot.Weighted>
3.8362

> <Gold.Chemscore.Internal.Correction.Weighted>
   9.000000E+99

> <Gold.Protein.RotatedTorsions>
[ 6907 6896 6895 6894 ] final -170.32 input  -60.11 | X-H torsion
[ 7974 7965 7964 7962 ] final   30.07 input  175.53 | X-H torsion
[ 8008 7997 7996 7995 ] final   33.59 input   59.86 | X-H torsion
[ 10167 10162 10161 10158 ] final -101.38 input  -65.29 | X-H torsion
[ 10718 10713 10712 10709 ] final   50.35 input   66.30 | X-H torsion
[ 10763 10752 10751 10750 ] final  -28.10 input  -60.55 | X-H torsion
[ 11005 11000 10999 10996 ] final -167.51 input  -57.11 | X-H torsion

> <Gold.Protein.ActiveResidues>
 VAL166  LYS551  ARG553  GLY616  TRP617  ASP618  TYR619  PRO620  LYS621  CYS622 
 ASP623  PHE694  ASN695  SER759  ASP760  ASP761  ALA762  ILE779  LEU786  VAL792 
 PHE793  MET794  SER795  GLU796  ALA797  LYS798  CYS799  TRP800  GLU811  SER814 

> <Gold.Protein.RotatedAtoms>
  151.5058  133.3495  159.2876 H   0  0  0  0  0  0  0  0  0  0  0  0  # atno 6907 bound_to 6896
  150.8744  134.8126  159.7189 H   0  0  0  0  0  0  0  0  0  0  0  0  # atno 6908 bound_to 6896
  152.4720  134.4946  159.9758 H   0  0  0  0  0  0  0  0  0  0  0  0  # atno 6909 bound_to 6896
  146.1634  139.6837  142.9018 H   0  0  0  0  0  0  0  0  0  0  0  0  # atno 7974 bound_to 7965
  155.1411  140.3266  155.4452 H   0  0  0  0  0  0  0  0  0  0  0  0  # atno 8008 bound_to 7997
  156.2604  140.1993  156.6476 H   0  0  0  0  0  0  0  0  0  0  0  0  # atno 8009 bound_to 7997
  154.6542  140.0555  156.9976 H   0  0  0  0  0  0  0  0  0  0  0  0  # atno 8010 bound_to 7997
  140.2419  143.3533  152.0794 H   0  0  0  0  0  0  0  0  0  0  0  0  # atno 10167 bound_to 10162
  157.4876  130.8355  149.8165 H   0  0  0  0  0  0  0  0  0  0  0  0  # atno 10718 bound_to 10713
  153.7429  135.6931  153.4963 H   0  0  0  0  0  0  0  0  0  0  0  0  # atno 10763 bound_to 10752
  153.2057  135.4421  155.0318 H   0  0  0  0  0  0  0  0  0  0  0  0  # atno 10764 bound_to 10752
  154.8214  135.3424  154.6953 H   0  0  0  0  0  0  0  0  0  0  0  0  # atno 10765 bound_to 10752
  140.5524  134.5414  157.5125 H   0  0  0  0  0  0  0  0  0  0  0  0  # atno 11005 bound_to 11000
  145.4530  141.0429  143.2794 LP  0  0  0  0  0  0  0  0  0  0  0  0  # atno 17320 bound_to 7965
  144.8058  139.6054  143.7051 LP  0  0  0  0  0  0  0  0  0  0  0  0  # atno 17321 bound_to 7965
  139.5074  144.6832  151.5955 LP  0  0  0  0  0  0  0  0  0  0  0  0  # atno 17342 bound_to 10162
  140.6107  143.9441  150.6451 LP  0  0  0  0  0  0  0  0  0  0  0  0  # atno 17343 bound_to 10162
  156.0155  130.3815  150.2124 LP  0  0  0  0  0  0  0  0  0  0  0  0  # atno 17370 bound_to 10713
  157.0312  131.0008  151.3311 LP  0  0  0  0  0  0  0  0  0  0  0  0  # atno 17371 bound_to 10713
  139.9448  134.7721  156.0588 LP  0  0  0  0  0  0  0  0  0  0  0  0  # atno 17394 bound_to 11000
  141.1163  133.6626  156.3103 LP  0  0  0  0  0  0  0  0  0  0  0  0  # atno 17395 bound_to 11000

$$$$
