AV-unprocessed.smi:2252|AV-procd|sdf|9114|dock2
  -GOLD-   2272012323D 1   1.00000     0.00000
 Structure written by MMmdl.
 44 46  0  0  0  0  0  0  0  0  1 V2000
  151.4853  144.9800  160.3531 C   0  0  0  0  0  0  0  0  0  0  0  0
  152.2262  143.8603  160.9022 N   0  0  0  0  0  0  0  0  0  0  0  0
  152.5422  143.6673  162.2405 C   0  0  0  0  0  0  0  0  0  0  0  0
  153.2368  142.4840  162.3144 C   0  0  0  0  0  0  0  0  0  0  0  0
  153.3574  141.9389  161.0406 N   0  0  0  0  0  0  0  0  0  0  0  0
  152.7439  142.8066  160.2414 C   0  0  0  0  0  0  0  0  0  0  0  0
  152.6032  142.6200  158.7632 C   0  0  0  0  0  0  0  0  0  0  0  0
  152.0861  141.2194  158.3961 C   0  0  0  0  0  0  0  0  0  0  0  0
  151.6335  141.1656  157.0120 N   0  0  0  0  0  0  0  0  0  0  0  0
  150.8215  140.2241  156.5062 C   0  0  0  0  0  0  0  0  0  0  0  0
  150.3771  139.2891  157.1737 O   0  0  0  0  0  0  0  0  0  0  0  0
  150.4249  140.3787  155.0267 C   0  0  1  0  0  0  0  0  0  0  0  0
  150.9831  139.1948  154.2062 C   0  0  0  0  0  0  0  0  0  0  0  0
  151.1396  137.8234  154.8326 C   0  0  0  0  0  0  0  0  0  0  0  0
  152.3604  138.6332  154.4894 C   0  0  0  0  0  0  0  0  0  0  0  0
  148.9579  140.5042  154.8382 N   0  0  0  0  0  0  0  0  0  0  0  0
  148.3485  141.6926  155.4339 C   0  0  0  0  0  0  0  0  0  0  0  0
  146.9578  141.7509  154.8006 C   0  0  0  0  0  0  0  0  0  0  0  0
  147.0958  140.9894  153.4860 C   0  0  0  0  0  0  0  0  0  0  0  0
  148.5645  140.5696  153.4337 C   0  0  0  0  0  0  0  0  0  0  0  0
  151.0849  145.5977  161.1576 H   0  0  0  0  0  0  0  0  0  0  0  0
  150.6566  144.6163  159.7449 H   0  0  0  0  0  0  0  0  0  0  0  0
  152.1445  145.5893  159.7344 H   0  0  0  0  0  0  0  0  0  0  0  0
  152.2516  144.3673  163.0101 H   0  0  0  0  0  0  0  0  0  0  0  0
  153.6529  141.9865  163.1781 H   0  0  0  0  0  0  0  0  0  0  0  0
  151.9444  143.3914  158.3633 H   0  0  0  0  0  0  0  0  0  0  0  0
  153.5765  142.7865  158.3001 H   0  0  0  0  0  0  0  0  0  0  0  0
  152.8800  140.4834  158.5249 H   0  0  0  0  0  0  0  0  0  0  0  0
  151.2759  140.9217  159.0639 H   0  0  0  0  0  0  0  0  0  0  0  0
  151.9478  141.9030  156.3980 H   0  0  0  0  0  0  0  0  0  0  0  0
  150.8952  141.2963  154.6666 H   0  0  0  0  0  0  0  0  0  0  0  0
  150.6643  139.1907  153.1650 H   0  0  0  0  0  0  0  0  0  0  0  0
  150.8952  137.7119  155.8873 H   0  0  0  0  0  0  0  0  0  0  0  0
  150.9163  136.9603  154.2092 H   0  0  0  0  0  0  0  0  0  0  0  0
  152.9544  138.3128  153.6360 H   0  0  0  0  0  0  0  0  0  0  0  0
  152.9252  139.0659  155.3129 H   0  0  0  0  0  0  0  0  0  0  0  0
  148.2958  141.6387  156.5220 H   0  0  0  0  0  0  0  0  0  0  0  0
  148.9199  142.5823  155.1623 H   0  0  0  0  0  0  0  0  0  0  0  0
  146.2238  141.2607  155.4416 H   0  0  0  0  0  0  0  0  0  0  0  0
  146.6312  142.7802  154.6492 H   0  0  0  0  0  0  0  0  0  0  0  0
  146.4494  140.1108  153.4938 H   0  0  0  0  0  0  0  0  0  0  0  0
  146.8205  141.5974  152.6237 H   0  0  0  0  0  0  0  0  0  0  0  0
  149.1507  141.3275  152.9103 H   0  0  0  0  0  0  0  0  0  0  0  0
  148.6997  139.6178  152.9192 H   0  0  0  0  0  0  0  0  0  0  0  0
  1  2  1  0  0  0  0
  1 21  1  0  0  0  0
  1 22  1  0  0  0  0
  1 23  1  0  0  0  0
  2  6  1  0  0  0  0
  2  3  1  0  0  0  0
  3  4  2  0  0  0  0
  3 24  1  0  0  0  0
  4  5  1  0  0  0  0
  4 25  1  0  0  0  0
  5  6  2  0  0  0  0
  6  7  1  0  0  0  0
  7  8  1  0  0  0  0
  7 26  1  0  0  0  0
  7 27  1  0  0  0  0
  8  9  1  0  0  0  0
  8 28  1  0  0  0  0
  8 29  1  0  0  0  0
  9 10  1  0  0  0  0
  9 30  1  0  0  0  0
 10 11  2  0  0  0  0
 10 12  1  0  0  0  0
 12 13  1  0  0  0  0
 12 16  1  0  0  0  0
 12 31  1  0  0  0  0
 13 15  1  0  0  0  0
 13 14  1  0  0  0  0
 13 32  1  0  0  0  0
 14 15  1  0  0  0  0
 14 33  1  0  0  0  0
 14 34  1  0  0  0  0
 15 35  1  0  0  0  0
 15 36  1  0  0  0  0
 16 20  1  0  0  0  0
 16 17  1  0  0  0  0
 17 18  1  0  0  0  0
 17 37  1  0  0  0  0
 17 38  1  0  0  0  0
 18 19  1  0  0  0  0
 18 39  1  0  0  0  0
 18 40  1  0  0  0  0
 19 20  1  0  0  0  0
 19 41  1  0  0  0  0
 19 42  1  0  0  0  0
 20 43  1  0  0  0  0
 20 44  1  0  0  0  0
M  END
> <s_m_source_file>
AV-unprocessed.smi

> <i_m_source_file_index>
2252

> <i_lp_mmshare_version>
43012

> <i_f3d_flags>
0

> <s_epik_input>
W0NIM11uMVtjSF1bY0hdbmMxW0NIMl1bQ0gyXVtOSF1DKD1PKVtDQEhdKFtDSF0yW0NIMl1bQ0gyXTIpTjNbQ0gyXVtDSDJdW0NIMl1bQ0gyXTM=

> <s_epik_cmdline>
J2VwaWtfcHl0aG9uJywgJy1waCcsICc3LjAnLCAnLXRuJywgJzgnLCAnLW1hJywgJzIwMCcsICctbWV0YWxfYmluZGluZycsICctaW1hZScsICc8aW5maWxlLm1hZT4nLCAnLW9tYWUnLCAnPG91dGZpbGUubWFlPic=

> <r_epik_Ionization_Penalty>
3.7689

> <r_epik_Ionization_Penalty_Charging>
1.29411

> <r_epik_Ionization_Penalty_Neutral>
2.4748

> <r_epik_State_Penalty>
3.85943

> <r_epik_Charging_Adjusted_Penalty>
5.15353

> <i_epik_Tot_Q>
0

> <i_epik_Tot_abs_Q>
0

> <r_epik_Metal_State_Penalty>
2.88358

> <b_epik_Metal_Only>
1

> <s_lp_Force_Field>
OPLS_2005

> <r_lp_Energy>
29.995

> <b_lp_Chiralities_Consistent>
1

> <s_lp_Variant>
AV-unprocessed.smi:2252-12

> <Gold.Version>
5.8.1

> <Gold.Id.Protein>
6NUR|6NUR_protein|mol2

> <Gold.PLP.Fitness>
44.9450

> <Gold.PLP.PLP>
-45.5538

> <Gold.PLP.part.hbond>
0.0000

> <Gold.PLP.part.metal>
0.0000

> <Gold.PLP.part.buried>
0.1197

> <Gold.PLP.part.nonpolar>
-45.2596

> <Gold.PLP.part.repulsive>
0.2061

> <Gold.PLP.ligand.clash>
0.0000

> <Gold.PLP.ligand.torsion>
0.8956

> <Gold.PLP.Chemscore.Hbond>
0.0000

> <Gold.PLP.Chemscore.CHOScore>
0.0000

> <Gold.PLP.Chemscore.Metal>
0.0000

> <Gold.PLP.Chemscore.Internal.Correction>
1.1824

> <Gold.Rescore>
     Score         DG    S(hbond)    S(metal)    S(lipo)     H(rot)  DE(clash)    DE(int)     intcor
     10.06     -13.68       0.00        0.00     110.84       1.86       1.51       2.12       ----

> <Gold.Chemscore.Fitness>
10.0578

> <Gold.Chemscore.DG>
-13.6814

> <Gold.Chemscore.ZeroCoef>
-5.4800

> <Gold.Chemscore.Hbond>
0.0000

> <Gold.Chemscore.Metal>
0.0000

> <Gold.Chemscore.Lipo>
110.8369

> <Gold.Chemscore.Internal_Hbond>
0.0000

> <Gold.Chemscore.DEClash>
1.5079

> <Gold.Chemscore.DEInternal>
2.1157

> <Gold.Chemscore.Rot>
1.8619

> <Gold.Chemscore.Internal.Correction>
   9.000000E+99

> <Gold.Chemscore.Hbond.Weighted>
-0.0000

> <Gold.Chemscore.Metal.Weighted>
-0.0000

> <Gold.Chemscore.Lipo.Weighted>
-12.9679

> <Gold.Chemscore.Internal_Hbond.Weighted>
0.0000

> <Gold.Chemscore.DEClash.Weighted>
1.5079

> <Gold.Chemscore.DEInternal.Weighted>
2.1157

> <Gold.Chemscore.Rot.Weighted>
4.7665

> <Gold.Chemscore.Internal.Correction.Weighted>
   9.000000E+99

> <Gold.Protein.RotatedTorsions>
[ 6907 6896 6895 6894 ] final -139.24 input  -60.11 | X-H torsion
[ 7974 7965 7964 7962 ] final   85.31 input  175.53 | X-H torsion
[ 8008 7997 7996 7995 ] final   59.51 input   59.86 | X-H torsion
[ 10167 10162 10161 10158 ] final  -15.77 input  -65.29 | X-H torsion
[ 10718 10713 10712 10709 ] final  141.77 input   66.30 | X-H torsion
[ 10763 10752 10751 10750 ] final -164.34 input  -60.55 | X-H torsion
[ 11005 11000 10999 10996 ] final   18.36 input  -57.11 | X-H torsion

> <Gold.Protein.ActiveResidues>
 VAL166  LYS551  ARG553  GLY616  TRP617  ASP618  TYR619  PRO620  LYS621  CYS622 
 ASP623  PHE694  ASN695  SER759  ASP760  ASP761  ALA762  ILE779  LEU786  VAL792 
 PHE793  MET794  SER795  GLU796  ALA797  LYS798  CYS799  TRP800  GLU811  SER814 

> <Gold.Protein.RotatedAtoms>
  151.0453  133.5671  159.2647 H   0  0  0  0  0  0  0  0  0  0  0  0  # atno 6907 bound_to 6896
  151.2702  135.0681  159.9141 H   0  0  0  0  0  0  0  0  0  0  0  0  # atno 6908 bound_to 6896
  152.5372  134.0184  159.8024 H   0  0  0  0  0  0  0  0  0  0  0  0  # atno 6909 bound_to 6896
  145.5873  139.2333  143.2319 H   0  0  0  0  0  0  0  0  0  0  0  0  # atno 7974 bound_to 7965
  155.5674  140.3489  155.4506 H   0  0  0  0  0  0  0  0  0  0  0  0  # atno 8008 bound_to 7997
  156.0470  140.1309  157.0118 H   0  0  0  0  0  0  0  0  0  0  0  0  # atno 8009 bound_to 7997
  154.4417  140.1012  156.6305 H   0  0  0  0  0  0  0  0  0  0  0  0  # atno 8010 bound_to 7997
  140.7224  143.5184  150.9664 H   0  0  0  0  0  0  0  0  0  0  0  0  # atno 10167 bound_to 10162
  157.3882  131.1001  151.0672 H   0  0  0  0  0  0  0  0  0  0  0  0  # atno 10718 bound_to 10713
  154.7037  135.2993  154.9302 H   0  0  0  0  0  0  0  0  0  0  0  0  # atno 10763 bound_to 10752
  154.0226  135.6680  153.4778 H   0  0  0  0  0  0  0  0  0  0  0  0  # atno 10764 bound_to 10752
  153.0701  135.5066  154.8196 H   0  0  0  0  0  0  0  0  0  0  0  0  # atno 10765 bound_to 10752
  140.4257  134.1472  155.7676 H   0  0  0  0  0  0  0  0  0  0  0  0  # atno 11005 bound_to 11000
  146.1673  140.6699  142.9249 LP  0  0  0  0  0  0  0  0  0  0  0  0  # atno 17320 bound_to 7965
  144.7367  140.4828  143.6898 LP  0  0  0  0  0  0  0  0  0  0  0  0  # atno 17321 bound_to 7965
  139.8900  143.6965  152.3146 LP  0  0  0  0  0  0  0  0  0  0  0  0  # atno 17342 bound_to 10162
  139.7277  144.7589  151.0851 LP  0  0  0  0  0  0  0  0  0  0  0  0  # atno 17343 bound_to 10162
  157.1716  130.6270  149.5642 LP  0  0  0  0  0  0  0  0  0  0  0  0  # atno 17370 bound_to 10713
  155.9792  130.4783  150.6700 LP  0  0  0  0  0  0  0  0  0  0  0  0  # atno 17371 bound_to 10713
  141.1766  133.8501  157.1400 LP  0  0  0  0  0  0  0  0  0  0  0  0  # atno 17394 bound_to 11000
  140.0169  134.9963  157.0512 LP  0  0  0  0  0  0  0  0  0  0  0  0  # atno 17395 bound_to 11000

$$$$
