AV-unprocessed.smi:2491|AV-procd|sdf|9810|dock2
  -GOLD-   2272013443D 1   1.00000     0.00000
 Structure written by MMmdl.
 27 28  0  0  0  0  0  0  0  0  1 V2000
  151.2151  138.8389  159.0650 N   0  0  0  0  0  0  0  0  0  0  0  0
  151.9690  139.7689  158.4690 C   0  0  0  0  0  0  0  0  0  0  0  0
  152.9252  139.4641  157.7598 O   0  0  0  0  0  0  0  0  0  0  0  0
  151.6231  141.2566  158.6943 C   0  0  1  0  0  0  0  0  0  0  0  0
  152.7992  141.8823  159.4843 C   0  0  0  0  0  0  0  0  0  0  0  0
  152.5754  143.2634  159.7298 O   0  0  0  0  0  0  0  0  0  0  0  0
  152.4843  143.9909  158.5155 C   0  0  0  0  0  0  0  0  0  0  0  0
  151.2621  143.4936  157.7345 C   0  0  0  0  0  0  0  0  0  0  0  0
  151.3343  142.0534  157.4855 N   0  0  0  0  0  0  0  0  0  0  0  0
  150.3939  141.6100  156.5569 C   0  0  0  0  0  0  0  0  0  0  0  0
  150.8239  140.8667  155.5278 N   0  0  0  0  0  0  0  0  0  0  0  0
  149.8966  140.4332  154.6468 C   0  0  0  0  0  0  0  0  0  0  0  0
  148.5312  140.7425  154.8029 C   0  0  0  0  0  0  0  0  0  0  0  0
  147.3412  140.1907  153.6826 Cl  0  0  0  0  0  0  0  0  0  0  0  0
  148.1883  141.5251  155.9229 C   0  0  0  0  0  0  0  0  0  0  0  0
  149.1232  141.9548  156.7982 N   0  0  0  0  0  0  0  0  0  0  0  0
  151.4234  137.8606  158.9275 H   0  0  0  0  0  0  0  0  0  0  0  0
  150.4388  139.1186  159.6474 H   0  0  0  0  0  0  0  0  0  0  0  0
  150.7355  141.2945  159.3287 H   0  0  0  0  0  0  0  0  0  0  0  0
  152.9177  141.3843  160.4477 H   0  0  0  0  0  0  0  0  0  0  0  0
  153.7438  141.7581  158.9505 H   0  0  0  0  0  0  0  0  0  0  0  0
  152.3772  145.0512  158.7452 H   0  0  0  0  0  0  0  0  0  0  0  0
  153.3992  143.8807  157.9308 H   0  0  0  0  0  0  0  0  0  0  0  0
  150.3510  143.7103  158.2943 H   0  0  0  0  0  0  0  0  0  0  0  0
  151.1932  144.0469  156.7968 H   0  0  0  0  0  0  0  0  0  0  0  0
  150.2466  139.8368  153.8172 H   0  0  0  0  0  0  0  0  0  0  0  0
  147.1642  141.8067  156.1191 H   0  0  0  0  0  0  0  0  0  0  0  0
  1  2  1  0  0  0  0
  1 17  1  0  0  0  0
  1 18  1  0  0  0  0
  2  3  2  0  0  0  0
  2  4  1  0  0  0  0
  4  9  1  0  0  0  0
  4  5  1  0  0  0  0
  4 19  1  0  0  0  0
  5  6  1  0  0  0  0
  5 20  1  0  0  0  0
  5 21  1  0  0  0  0
  6  7  1  0  0  0  0
  7  8  1  0  0  0  0
  7 22  1  0  0  0  0
  7 23  1  0  0  0  0
  8  9  1  0  0  0  0
  8 24  1  0  0  0  0
  8 25  1  0  0  0  0
  9 10  1  0  0  0  0
 10 16  1  0  0  0  0
 10 11  2  0  0  0  0
 11 12  1  0  0  0  0
 12 13  2  0  0  0  0
 12 26  1  0  0  0  0
 13 14  1  0  0  0  0
 13 15  1  0  0  0  0
 15 16  2  0  0  0  0
 15 27  1  0  0  0  0
M  END
> <s_m_source_file>
AV-unprocessed.smi

> <i_m_source_file_index>
2491

> <i_lp_mmshare_version>
43012

> <i_f3d_flags>
0

> <s_epik_input>
W05IMl1DKD1PKVtDQEBIXTFbQ0gyXU9bQ0gyXVtDSDJdTjFjMm5bY0hdYyhDbClbY0hdbjI=

> <s_epik_cmdline>
J2VwaWtfcHl0aG9uJywgJy1waCcsICc3LjAnLCAnLXRuJywgJzgnLCAnLW1hJywgJzIwMCcsICctbWV0YWxfYmluZGluZycsICctaW1hZScsICc8aW5maWxlLm1hZT4nLCAnLW9tYWUnLCAnPG91dGZpbGUubWFlPic=

> <r_lp_tautomer_probability>
1

> <r_epik_Ionization_Penalty>
2.68452e-07

> <r_epik_Ionization_Penalty_Charging>
0

> <r_epik_Ionization_Penalty_Neutral>
2.68452e-07

> <r_epik_State_Penalty>
-0

> <r_epik_Charging_Adjusted_Penalty>
0

> <i_epik_Tot_Q>
0

> <i_epik_Tot_abs_Q>
0

> <r_epik_Metal_State_Penalty>
-0

> <b_epik_Metal_Only>
0

> <s_lp_Force_Field>
OPLS_2005

> <r_lp_Energy>
11.1739

> <b_lp_Chiralities_Consistent>
1

> <s_lp_Variant>
AV-unprocessed.smi:2491-2

> <Gold.Version>
5.8.1

> <Gold.Id.Protein>
6NUR|6NUR_protein|mol2

> <Gold.PLP.Fitness>
31.8975

> <Gold.PLP.PLP>
-26.4684

> <Gold.PLP.part.hbond>
-2.0000

> <Gold.PLP.part.metal>
0.0000

> <Gold.PLP.part.buried>
-2.0639

> <Gold.PLP.part.nonpolar>
-23.4650

> <Gold.PLP.part.repulsive>
1.5387

> <Gold.PLP.ligand.clash>
0.0000

> <Gold.PLP.ligand.torsion>
0.4678

> <Gold.PLP.Chemscore.Hbond>
1.0000

> <Gold.PLP.Chemscore.CHOScore>
1.0000

> <Gold.PLP.Chemscore.Metal>
0.0000

> <Gold.Chemscore.Hbonds>
donor molecule, donor type, donor heavy atom, donor atom, acceptor molecule, acceptor atom, score
      P1  H  7997  8009       L1     3  1.00
      L1  C    12    26       P1  7957  0.49

> <Gold.PLP.Chemscore.Internal.Correction>
0.3648

> <Gold.Rescore>
     Score         DG    S(hbond)    S(metal)    S(lipo)     H(rot)  DE(clash)    DE(int)     intcor
     12.12     -12.55       1.00        0.00      64.39       1.49       0.07       0.36       ----

> <Gold.Chemscore.Fitness>
12.1197

> <Gold.Chemscore.DG>
-12.5499

> <Gold.Chemscore.ZeroCoef>
-5.4800

> <Gold.Chemscore.Hbond>
1.0013

> <Gold.Chemscore.Metal>
0.0000

> <Gold.Chemscore.Lipo>
64.3858

> <Gold.Chemscore.Internal_Hbond>
0.0000

> <Gold.Chemscore.DEClash>
0.0671

> <Gold.Chemscore.DEInternal>
0.3631

> <Gold.Chemscore.Rot>
1.4874

> <Gold.Chemscore.Internal.Correction>
   9.000000E+99

> <Gold.Chemscore.Hbonds>
donor molecule, donor type, donor heavy atom, donor atom, acceptor molecule, acceptor atom, score
      P1  H  7997  8009       L1     3  1.00

> <Gold.Chemscore.Hbond.Weighted>
-3.3444

> <Gold.Chemscore.Metal.Weighted>
-0.0000

> <Gold.Chemscore.Lipo.Weighted>
-7.5331

> <Gold.Chemscore.Internal_Hbond.Weighted>
0.0000

> <Gold.Chemscore.DEClash.Weighted>
0.0671

> <Gold.Chemscore.DEInternal.Weighted>
0.3631

> <Gold.Chemscore.Rot.Weighted>
3.8077

> <Gold.Chemscore.Internal.Correction.Weighted>
   9.000000E+99

> <Gold.Protein.RotatedTorsions>
[ 6907 6896 6895 6894 ] final    7.21 input  -60.11 | X-H torsion
[ 7974 7965 7964 7962 ] final  152.26 input  175.53 | X-H torsion
[ 8008 7997 7996 7995 ] final  176.04 input   59.86 | X-H torsion
[ 10167 10162 10161 10158 ] final  109.78 input  -65.29 | X-H torsion
[ 10718 10713 10712 10709 ] final  178.13 input   66.30 | X-H torsion
[ 10763 10752 10751 10750 ] final  -70.13 input  -60.55 | X-H torsion
[ 11005 11000 10999 10996 ] final   97.97 input  -57.11 | X-H torsion

> <Gold.Protein.ActiveResidues>
 VAL166  LYS551  ARG553  GLY616  TRP617  ASP618  TYR619  PRO620  LYS621  CYS622 
 ASP623  PHE694  ASN695  SER759  ASP760  ASP761  ALA762  ILE779  LEU786  VAL792 
 PHE793  MET794  SER795  GLU796  ALA797  LYS798  CYS799  TRP800  GLU811  SER814 

> <Gold.Protein.RotatedAtoms>
  151.6863  135.0954  160.0225 H   0  0  0  0  0  0  0  0  0  0  0  0  # atno 6907 bound_to 6896
  152.3805  133.6536  159.6166 H   0  0  0  0  0  0  0  0  0  0  0  0  # atno 6908 bound_to 6896
  150.7743  133.9037  159.3390 H   0  0  0  0  0  0  0  0  0  0  0  0  # atno 6909 bound_to 6896
  144.8234  139.6646  143.6090 H   0  0  0  0  0  0  0  0  0  0  0  0  # atno 7974 bound_to 7965
  156.0807  140.1394  156.9715 H   0  0  0  0  0  0  0  0  0  0  0  0  # atno 8008 bound_to 7997
  154.4583  140.0952  156.6871 H   0  0  0  0  0  0  0  0  0  0  0  0  # atno 8009 bound_to 7997
  155.5079  140.3453  155.4385 H   0  0  0  0  0  0  0  0  0  0  0  0  # atno 8010 bound_to 7997
  139.6740  144.7123  151.1636 H   0  0  0  0  0  0  0  0  0  0  0  0  # atno 10167 bound_to 10162
  156.8950  130.9860  151.3044 H   0  0  0  0  0  0  0  0  0  0  0  0  # atno 10718 bound_to 10713
  154.4133  135.6004  153.5965 H   0  0  0  0  0  0  0  0  0  0  0  0  # atno 10763 bound_to 10752
  152.9791  135.5934  154.4044 H   0  0  0  0  0  0  0  0  0  0  0  0  # atno 10764 bound_to 10752
  154.3859  135.2841  155.2162 H   0  0  0  0  0  0  0  0  0  0  0  0  # atno 10765 bound_to 10752
  139.8774  134.9027  156.4387 H   0  0  0  0  0  0  0  0  0  0  0  0  # atno 11005 bound_to 11000
  146.2540  139.6261  142.9408 LP  0  0  0  0  0  0  0  0  0  0  0  0  # atno 17320 bound_to 7965
  145.5053  141.0437  143.2517 LP  0  0  0  0  0  0  0  0  0  0  0  0  # atno 17321 bound_to 7965
  140.7628  143.5800  150.8904 LP  0  0  0  0  0  0  0  0  0  0  0  0  # atno 17342 bound_to 10162
  139.9468  143.6318  152.3039 LP  0  0  0  0  0  0  0  0  0  0  0  0  # atno 17343 bound_to 10162
  157.6060  130.8548  149.8877 LP  0  0  0  0  0  0  0  0  0  0  0  0  # atno 17370 bound_to 10713
  156.0610  130.3700  150.0983 LP  0  0  0  0  0  0  0  0  0  0  0  0  # atno 17371 bound_to 10713
  140.9015  133.7776  155.9686 LP  0  0  0  0  0  0  0  0  0  0  0  0  # atno 17394 bound_to 11000
  140.8646  134.2800  157.5219 LP  0  0  0  0  0  0  0  0  0  0  0  0  # atno 17395 bound_to 11000

$$$$
