#       Name:                AV-unprocessed.smi:15
#       Creating user name   scv26
#       Creation time:       Thu Mar 26 15:21:28 2020


#       File generated by GOLD software.
#

@<TRIPOS>MOLECULE
AV-unprocessed.smi:15
    62    65     1
SMALL
NO_CHARGES


@<TRIPOS>ATOM
      1 ****        -3.8846  -3.0883   2.3324 C.3            1 S1                 0.0000
      2 ****        -2.6802  -2.5602   1.5422 C.3            1 S1                 0.0000
      3 ****        -2.1572  -1.3054   2.0818 N.pl3          1 S1                 0.0000
      4 ****        -2.9691  -0.0881   2.0274 C.3            1 S1                 0.0000
      5 ****        -3.0817   0.5066   0.6099 C.3            1 S1                 0.0000
      6 ****        -4.0949   1.6441   0.5043 C.3            1 S1                 0.0000
      7 ****        -3.6042   2.4519  -0.6879 C.3            1 S1                 0.0000
      8 ****        -2.1712   1.9596  -0.9072 C.3            1 S1                 0.0000
      9 ****        -1.8803   1.1603   0.2294 O.3            1 S1                 0.0000
     10 ****        -0.8264  -1.0865   1.9541 C.ar           1 S1                 0.0000
     11 ****        -0.1948  -0.4579   2.9781 N.ar           1 S1                 0.0000
     12 ****         1.1098  -0.1826   2.8951 C.ar           1 S1                 0.0000
     13 ****         1.9529  -0.4305   1.8913 N.ar           1 S1                 0.0000
     14 ****         1.3202  -1.0490   0.8534 C.ar           1 S1                 0.0000
     15 ****        -0.0532  -1.4208   0.8043 C.ar           1 S1                 0.0000
     16 ****        -0.3347  -2.0205  -0.4180 N.2            1 S1                 0.0000
     17 ****         0.8043  -2.0035  -1.0534 C.2            1 S1                 0.0000
     18 ****         1.8484  -1.4225  -0.3704 N.pl3          1 S1                 0.0000
     19 ****         3.2090  -1.2411  -0.8521 C.3            1 S1                 0.0000
     20 ****         3.3712  -0.0153  -1.7851 C.3            1 S1                 0.0000
     21 ****         2.6368  -0.2600  -2.9735 O.3            1 S1                 0.0000
     22 ****         4.8340   0.2279  -2.1713 C.3            1 S1                 0.0000
     23 ****         5.1878   1.5398  -1.4802 C.3            1 S1                 0.0000
     24 ****         3.9606   2.2468  -1.4948 O.3            1 S1                 0.0000
     25 ****         2.9480   1.3231  -1.1242 C.3            1 S1                 0.0000
     26 ****         1.5547   1.8712  -1.4753 C.3            1 S1                 0.0000
     27 ****        -4.1986  -4.0586   1.9474 H              1 S1                 0.0000
     28 ****        -4.7418  -2.4191   2.2620 H              1 S1                 0.0000
     29 ****        -3.6387  -3.2146   3.3871 H              1 S1                 0.0000
     30 ****        -1.8972  -3.3196   1.5649 H              1 S1                 0.0000
     31 ****        -2.9560  -2.4273   0.4962 H              1 S1                 0.0000
     32 ****        -3.9669  -0.3252   2.3942 H              1 S1                 0.0000
     33 ****        -2.5765   0.6605   2.7167 H              1 S1                 0.0000
     34 ****        -3.3246  -0.2635  -0.1238 H              1 S1                 0.0000
     35 ****        -5.1174   1.2854   0.3828 H              1 S1                 0.0000
     36 ****        -4.0602   2.2630   1.4019 H              1 S1                 0.0000
     37 ****        -4.2125   2.2681  -1.5740 H              1 S1                 0.0000
     38 ****        -3.6361   3.5205  -0.4734 H              1 S1                 0.0000
     39 ****        -2.1085   1.3422  -1.8047 H              1 S1                 0.0000
     40 ****        -1.4563   2.7768  -1.0053 H              1 S1                 0.0000
     41 ****         1.5379   0.3139   3.7534 H              1 S1                 0.0000
     42 ****         0.9112  -2.4013  -2.0520 H              1 S1                 0.0000
     43 ****         3.8678  -1.1430   0.0119 H              1 S1                 0.0000
     44 ****         3.5146  -2.1539  -1.3655 H              1 S1                 0.0000
     45 ****         2.7247   0.4930  -3.5380 H              1 S1                 0.0000
     46 ****         5.5020  -0.5821  -1.8762 H              1 S1                 0.0000
     47 ****         4.9410   0.3572  -3.2496 H              1 S1                 0.0000
     48 ****         5.5022   1.3674  -0.4495 H              1 S1                 0.0000
     49 ****         5.9767   2.0882  -1.9951 H              1 S1                 0.0000
     50 ****         3.0166   1.2258  -0.0402 H              1 S1                 0.0000
     51 ****         0.7736   1.1527  -1.2268 H              1 S1                 0.0000
     52 ****         1.4706   2.1082  -2.5360 H              1 S1                 0.0000
     53 ****         1.3484   2.7850  -0.9180 H              1 S1                 0.0000
     54 ****        -1.1808   0.4832   0.0007 LP             1 S1                 0.0000
     55 ****        -1.5536   1.7373   0.9780 LP             1 S1                 0.0000
     56 ****        -0.7076  -0.2001   3.7970 LP             1 S1                 0.0000
     57 ****         2.9243  -0.1932   1.8989 LP             1 S1                 0.0000
     58 ****        -1.2106  -2.3823  -0.7372 LP             1 S1                 0.0000
     59 ****         1.6726  -0.4049  -2.7512 LP             1 S1                 0.0000
     60 ****         2.9984  -1.0711  -3.4333 LP             1 S1                 0.0000
     61 ****         3.7808   2.6048  -2.4111 LP             1 S1                 0.0000
     62 ****         3.9917   3.0033  -0.8416 LP             1 S1                 0.0000
@<TRIPOS>BOND
    1    1    2 1     
    2    1   27 1     
    3    1   28 1     
    4    1   29 1     
    5    2    3 1     
    6    2   30 1     
    7    2   31 1     
    8    3    4 1     
    9    3   10 1     
   10    4    5 1     
   11    4   32 1     
   12    4   33 1     
   13    5    9 1     
   14    5    6 1     
   15    5   34 1     
   16    6    7 1     
   17    6   35 1     
   18    6   36 1     
   19    7    8 1     
   20    7   37 1     
   21    7   38 1     
   22    8    9 1     
   23    8   39 1     
   24    8   40 1     
   25   10   15 ar    
   26   10   11 ar    
   27   11   12 ar    
   28   12   13 ar    
   29   12   41 1     
   30   13   14 ar    
   31   14   18 1     
   32   14   15 ar    
   33   15   16 1     
   34   16   17 2     
   35   17   18 1     
   36   17   42 1     
   37   18   19 1     
   38   19   20 1     
   39   19   43 1     
   40   19   44 1     
   41   20   25 1     
   42   20   21 1     
   43   20   22 1     
   44   21   45 1     
   45   22   23 1     
   46   22   46 1     
   47   22   47 1     
   48   23   24 1     
   49   23   48 1     
   50   23   49 1     
   51   24   25 1     
   52   25   26 1     
   53   25   50 1     
   54   26   51 1     
   55   26   52 1     
   56   26   53 1     
   57    9   54 1     
   58    9   55 1     
   59   11   56 1     
   60   13   57 1     
   61   16   58 1     
   62   21   59 1     
   63   21   60 1     
   64   24   61 1     
   65   24   62 1     
@<TRIPOS>SUBSTRUCTURE
      1 S1             1
@<TRIPOS>SET
LONE_PAIRS      STATIC     ATOMS    <user>   **** ""
9 54 55 56 57 58 59 60 61 62
DONOR_HYDROGENS      STATIC     ATOMS    <user>   **** ""
1 45
ATOM$BLUE        STATIC     ATOMS    COLORGROUP SYSTEM
9 54 55 56 57 58 59 60 61 62
ATOM$RED        STATIC     ATOMS    COLORGROUP SYSTEM
1 45
