AV-unprocessed.smi:1982|AV-procd|sdf|8022|dock4
  -GOLD-   2272010213D 1   1.00000     0.00000
 Structure written by MMmdl.
 36 37  0  0  0  0  0  0  0  0  1 V2000
  153.0620  142.3215  161.2196 C   0  0  0  0  0  0  0  0  0  0  0  0
  152.8084  142.4724  159.7082 C   0  0  2  0  0  0  0  0  0  0  0  0
  151.8554  143.6597  159.4624 C   0  0  0  0  0  0  0  0  0  0  0  0
  151.5890  143.8792  157.9692 C   0  0  0  0  0  0  0  0  0  0  0  0
  151.0132  142.6108  157.3328 C   0  0  0  0  0  0  0  0  0  0  0  0
  151.9471  141.4052  157.5455 C   0  0  2  0  0  0  0  0  0  0  0  0
  151.3302  140.2123  156.9717 N   0  0  0  0  0  0  0  0  0  0  0  0
  151.7169  139.5907  155.8467 C   0  0  0  0  0  0  0  0  0  0  0  0
  152.6062  140.0111  155.1076 O   0  0  0  0  0  0  0  0  0  0  0  0
  150.9945  138.2856  155.5080 C   0  0  0  0  0  0  0  0  0  0  0  0
  151.1392  137.3153  156.5790 N   0  0  0  0  0  0  0  0  0  0  0  0
  150.7295  137.3420  157.8490 C   0  0  0  0  0  0  0  0  0  0  0  0
  151.0495  136.2279  158.4892 N   0  0  0  0  0  0  0  0  0  0  0  0
  151.7029  135.4847  157.5206 N   0  0  0  0  0  0  0  0  0  0  0  0
  151.7597  136.1248  156.3853 N   0  0  0  0  0  0  0  0  0  0  0  0
  152.2668  141.1729  159.0473 C   0  0  1  0  0  0  0  0  0  0  0  0
  153.2341  139.9815  159.2293 C   0  0  0  0  0  0  0  0  0  0  0  0
  152.1644  141.9884  161.7415 H   0  0  0  0  0  0  0  0  0  0  0  0
  153.3676  143.2702  161.6618 H   0  0  0  0  0  0  0  0  0  0  0  0
  153.8584  141.6090  161.4305 H   0  0  0  0  0  0  0  0  0  0  0  0
  153.7632  142.7161  159.2395 H   0  0  0  0  0  0  0  0  0  0  0  0
  150.9100  143.4875  159.9786 H   0  0  0  0  0  0  0  0  0  0  0  0
  152.2761  144.5710  159.8888 H   0  0  0  0  0  0  0  0  0  0  0  0
  150.8976  144.7110  157.8323 H   0  0  0  0  0  0  0  0  0  0  0  0
  152.5153  144.1580  157.4653 H   0  0  0  0  0  0  0  0  0  0  0  0
  150.0326  142.4018  157.7633 H   0  0  0  0  0  0  0  0  0  0  0  0
  150.8533  142.7787  156.2669 H   0  0  0  0  0  0  0  0  0  0  0  0
  152.8897  141.6061  157.0318 H   0  0  0  0  0  0  0  0  0  0  0  0
  150.5823  139.7930  157.5056 H   0  0  0  0  0  0  0  0  0  0  0  0
  149.9361  138.4840  155.3326 H   0  0  0  0  0  0  0  0  0  0  0  0
  151.4013  137.8563  154.5917 H   0  0  0  0  0  0  0  0  0  0  0  0
  150.1926  138.1653  158.2965 H   0  0  0  0  0  0  0  0  0  0  0  0
  151.3325  140.9130  159.5481 H   0  0  0  0  0  0  0  0  0  0  0  0
  154.2089  140.1946  158.7899 H   0  0  0  0  0  0  0  0  0  0  0  0
  152.8555  139.0720  158.7627 H   0  0  0  0  0  0  0  0  0  0  0  0
  153.3869  139.7391  160.2801 H   0  0  0  0  0  0  0  0  0  0  0  0
  1  2  1  0  0  0  0
  1 18  1  0  0  0  0
  1 19  1  0  0  0  0
  1 20  1  0  0  0  0
  2 16  1  0  0  0  0
  2  3  1  0  0  0  0
  2 21  1  0  0  0  0
  3  4  1  0  0  0  0
  3 22  1  0  0  0  0
  3 23  1  0  0  0  0
  4  5  1  0  0  0  0
  4 24  1  0  0  0  0
  4 25  1  0  0  0  0
  5  6  1  0  0  0  0
  5 26  1  0  0  0  0
  5 27  1  0  0  0  0
  6  7  1  0  0  0  0
  6 16  1  0  0  0  0
  6 28  1  0  0  0  0
  7  8  1  0  0  0  0
  7 29  1  0  0  0  0
  8  9  2  0  0  0  0
  8 10  1  0  0  0  0
 10 11  1  0  0  0  0
 10 30  1  0  0  0  0
 10 31  1  0  0  0  0
 11 15  1  0  0  0  0
 11 12  1  0  0  0  0
 12 13  2  0  0  0  0
 12 32  1  0  0  0  0
 13 14  1  0  0  0  0
 14 15  2  0  0  0  0
 16 17  1  0  0  0  0
 16 33  1  0  0  0  0
 17 34  1  0  0  0  0
 17 35  1  0  0  0  0
 17 36  1  0  0  0  0
M  END
> <s_m_source_file>
AV-unprocessed.smi

> <i_m_source_file_index>
1982

> <i_lp_mmshare_version>
43012

> <i_f3d_flags>
0

> <s_epik_input>
W0NIM11bQ0BASF0xW0NIMl1bQ0gyXVtDSDJdW0NASF0oW0NASF0xW0NIM10pW05IXUMoPU8pW0NIMl1uMltjSF1ubm4y

> <s_epik_cmdline>
J2VwaWtfcHl0aG9uJywgJy1waCcsICc3LjAnLCAnLXRuJywgJzgnLCAnLW1hJywgJzIwMCcsICctbWV0YWxfYmluZGluZycsICctaW1hZScsICc8aW5maWxlLm1hZT4nLCAnLW9tYWUnLCAnPG91dGZpbGUubWFlPic=

> <r_lp_tautomer_probability>
1

> <r_epik_Ionization_Penalty>
5.03816e-07

> <r_epik_Ionization_Penalty_Charging>
0

> <r_epik_Ionization_Penalty_Neutral>
5.03816e-07

> <r_epik_State_Penalty>
-0

> <r_epik_Charging_Adjusted_Penalty>
0

> <i_epik_Tot_Q>
0

> <i_epik_Tot_abs_Q>
0

> <r_epik_Metal_State_Penalty>
-0

> <b_epik_Metal_Only>
0

> <s_lp_Force_Field>
OPLS_2005

> <r_lp_Energy>
13.7929

> <b_lp_Chiralities_Consistent>
1

> <s_lp_Variant>
AV-unprocessed.smi:1982-3

> <Gold.Version>
5.8.1

> <Gold.Id.Protein>
6NUR|6NUR_protein|mol2

> <Gold.PLP.Fitness>
41.5870

> <Gold.PLP.PLP>
-32.2455

> <Gold.PLP.part.hbond>
-5.0000

> <Gold.PLP.part.metal>
0.0000

> <Gold.PLP.part.buried>
-3.6727

> <Gold.PLP.part.nonpolar>
-24.0815

> <Gold.PLP.part.repulsive>
0.1017

> <Gold.PLP.ligand.clash>
0.0000

> <Gold.PLP.ligand.torsion>
0.1202

> <Gold.PLP.Chemscore.Hbond>
3.1913

> <Gold.PLP.Chemscore.CHOScore>
0.0000

> <Gold.PLP.Chemscore.Metal>
0.0000

> <Gold.Chemscore.Hbonds>
donor molecule, donor type, donor heavy atom, donor atom, acceptor molecule, acceptor atom, score
      P1  H  6896  6907       L1    13  0.62
      P1  H  7989  7998       L1     9  0.51
      P1  H  7997  8008       L1     9  1.00
      P1  H 10752 10764       L1    15  1.00

> <Gold.PLP.Chemscore.Internal.Correction>
0.0082

> <Gold.Rescore>
     Score         DG    S(hbond)    S(metal)    S(lipo)     H(rot)  DE(clash)    DE(int)     intcor
     18.73     -18.89       2.66        0.00      80.37       1.91       0.03       0.14       ----

> <Gold.Chemscore.Fitness>
18.7272

> <Gold.Chemscore.DG>
-18.8904

> <Gold.Chemscore.ZeroCoef>
-5.4800

> <Gold.Chemscore.Hbond>
2.6603

> <Gold.Chemscore.Metal>
0.0000

> <Gold.Chemscore.Lipo>
80.3746

> <Gold.Chemscore.Internal_Hbond>
0.0000

> <Gold.Chemscore.DEClash>
0.0260

> <Gold.Chemscore.DEInternal>
0.1373

> <Gold.Chemscore.Rot>
1.9058

> <Gold.Chemscore.Internal.Correction>
   9.000000E+99

> <Gold.Chemscore.Hbonds>
donor molecule, donor type, donor heavy atom, donor atom, acceptor molecule, acceptor atom, score
      P1  H  6896  6907       L1    13  0.12
      P1  H  7989  7998       L1     9  0.30
      P1  H  7997  8008       L1     9  0.73
      P1  H 10752 10764       L1    15  0.85

> <Gold.Chemscore.Hbond.Weighted>
-8.8854

> <Gold.Chemscore.Metal.Weighted>
-0.0000

> <Gold.Chemscore.Lipo.Weighted>
-9.4038

> <Gold.Chemscore.Internal_Hbond.Weighted>
0.0000

> <Gold.Chemscore.DEClash.Weighted>
0.0260

> <Gold.Chemscore.DEInternal.Weighted>
0.1373

> <Gold.Chemscore.Rot.Weighted>
4.8788

> <Gold.Chemscore.Internal.Correction.Weighted>
   9.000000E+99

> <Gold.Protein.RotatedTorsions>
[ 6907 6896 6895 6894 ] final  -27.30 input  -60.11 | X-H torsion
[ 7974 7965 7964 7962 ] final  149.41 input  175.53 | X-H torsion
[ 8008 7997 7996 7995 ] final  -30.76 input   59.86 | X-H torsion
[ 10167 10162 10161 10158 ] final -171.29 input  -65.29 | X-H torsion
[ 10718 10713 10712 10709 ] final -156.11 input   66.30 | X-H torsion
[ 10763 10752 10751 10750 ] final  -26.87 input  -60.55 | X-H torsion
[ 11005 11000 10999 10996 ] final -139.68 input  -57.11 | X-H torsion

> <Gold.Protein.ActiveResidues>
 VAL166  LYS551  ARG553  GLY616  TRP617  ASP618  TYR619  PRO620  LYS621  CYS622 
 ASP623  PHE694  ASN695  SER759  ASP760  ASP761  ALA762  ILE779  LEU786  VAL792 
 PHE793  MET794  SER795  GLU796  ALA797  LYS798  CYS799  TRP800  GLU811  SER814 

> <Gold.Protein.RotatedAtoms>
  151.1489  135.0217  159.8658 H   0  0  0  0  0  0  0  0  0  0  0  0  # atno 6907 bound_to 6896
  152.5453  134.1412  159.8490 H   0  0  0  0  0  0  0  0  0  0  0  0  # atno 6908 bound_to 6896
  151.1495  133.4871  159.2628 H   0  0  0  0  0  0  0  0  0  0  0  0  # atno 6909 bound_to 6896
  144.8440  139.6277  143.6003 H   0  0  0  0  0  0  0  0  0  0  0  0  # atno 7974 bound_to 7965
  154.4238  140.1782  156.1459 H   0  0  0  0  0  0  0  0  0  0  0  0  # atno 8008 bound_to 7997
  155.9954  140.3365  155.6769 H   0  0  0  0  0  0  0  0  0  0  0  0  # atno 8009 bound_to 7997
  155.6315  140.0670  157.2638 H   0  0  0  0  0  0  0  0  0  0  0  0  # atno 8010 bound_to 7997
  139.5811  144.1422  152.1516 H   0  0  0  0  0  0  0  0  0  0  0  0  # atno 10167 bound_to 10162
  156.5221  130.8482  151.2685 H   0  0  0  0  0  0  0  0  0  0  0  0  # atno 10718 bound_to 10713
  153.7229  135.6943  153.5008 H   0  0  0  0  0  0  0  0  0  0  0  0  # atno 10763 bound_to 10752
  153.2190  135.4376  155.0467 H   0  0  0  0  0  0  0  0  0  0  0  0  # atno 10764 bound_to 10752
  154.8278  135.3456  154.6762 H   0  0  0  0  0  0  0  0  0  0  0  0  # atno 10765 bound_to 10752
  140.8496  134.2302  157.4767 H   0  0  0  0  0  0  0  0  0  0  0  0  # atno 11005 bound_to 11000
  146.2728  139.6677  142.9284 LP  0  0  0  0  0  0  0  0  0  0  0  0  # atno 17320 bound_to 7965
  145.4635  141.0434  143.2738 LP  0  0  0  0  0  0  0  0  0  0  0  0  # atno 17321 bound_to 7965
  140.0975  144.5568  150.7012 LP  0  0  0  0  0  0  0  0  0  0  0  0  # atno 17342 bound_to 10162
  140.7089  143.2489  151.4642 LP  0  0  0  0  0  0  0  0  0  0  0  0  # atno 17343 bound_to 10162
  157.7435  130.9914  150.2599 LP  0  0  0  0  0  0  0  0  0  0  0  0  # atno 17370 bound_to 10713
  156.3140  130.3776  149.7636 LP  0  0  0  0  0  0  0  0  0  0  0  0  # atno 17371 bound_to 10713
  139.8704  134.9676  156.4604 LP  0  0  0  0  0  0  0  0  0  0  0  0  # atno 17394 bound_to 11000
  140.8805  133.7921  155.9461 LP  0  0  0  0  0  0  0  0  0  0  0  0  # atno 17395 bound_to 11000

$$$$
