#       Name:                AV-unprocessed.smi:1273
#       Creating user name   scv26
#       Creation time:       Fri Mar 27 04:46:58 2020


#       File generated by GOLD software.
#

@<TRIPOS>MOLECULE
AV-unprocessed.smi:1273
    46    47     1
SMALL
NO_CHARGES


@<TRIPOS>ATOM
      1 ****        -4.9497  -2.0392  -1.6116 C.3            1 S1                 0.0000
      2 ****        -4.3229  -1.1679  -0.5111 C.3            1 S1                 0.0000
      3 ****        -2.7900  -1.2462  -0.5259 C.2            1 S1                 0.0000
      4 ****        -2.2334  -2.3376  -0.6413 O.2            1 S1                 0.0000
      5 ****        -2.1451  -0.0720  -0.3906 N.am           1 S1                 0.0000
      6 ****        -0.7464   0.1749  -0.3577 C.ar           1 S1                 0.0000
      7 ****        -0.3029   1.3848   0.2100 C.ar           1 S1                 0.0000
      8 ****         1.0756   1.6681   0.2400 C.ar           1 S1                 0.0000
      9 ****         1.9844   0.7317  -0.3068 C.ar           1 S1                 0.0000
     10 ****         3.3725   0.9911  -0.2864 N.3            1 S1                 0.0000
     11 ****         4.2453   0.1160  -1.0676 C.3            1 S1                 0.0000
     12 ****         5.6586   0.7146  -1.1641 C.3            1 S1                 0.0000
     13 ****         6.1623   0.9681   0.1429 O.3            1 S1                 0.0000
     14 ****         5.3584   1.9098   0.8453 C.3            1 S1                 0.0000
     15 ****         3.9325   1.3567   1.0127 C.3            1 S1                 0.0000
     16 ****         1.5548  -0.4235  -0.8715 N.ar           1 S1                 0.0000
     17 ****         0.2325  -0.6926  -0.8971 C.ar           1 S1                 0.0000
     18 ****        -4.9707  -1.6839   1.1482 S.o2           1 S1                 0.0000
     19 ****        -4.2261  -0.4465   2.2926 C.3            1 S1                 0.0000
     20 ****        -6.4287  -1.4883   1.1471 O.2            1 S1                 0.0000
     21 ****        -4.4223  -3.0062   1.4872 O.2            1 S1                 0.0000
     22 ****        -4.5625  -1.7750  -2.5964 H              1 S1                 0.0000
     23 ****        -6.0316  -1.9087  -1.6394 H              1 S1                 0.0000
     24 ****        -4.7515  -3.0989  -1.4463 H              1 S1                 0.0000
     25 ****        -4.6333  -0.1342  -0.6687 H              1 S1                 0.0000
     26 ****        -2.7286   0.7364  -0.2316 H              1 S1                 0.0000
     27 ****        -1.0090   2.0924   0.6197 H              1 S1                 0.0000
     28 ****         1.4145   2.6011   0.6647 H              1 S1                 0.0000
     29 ****         4.2875  -0.8666  -0.5956 H              1 S1                 0.0000
     30 ****         3.8437  -0.0210  -2.0725 H              1 S1                 0.0000
     31 ****         6.3264   0.0201  -1.6739 H              1 S1                 0.0000
     32 ****         5.6514   1.6363  -1.7484 H              1 S1                 0.0000
     33 ****         5.8046   2.0977   1.8220 H              1 S1                 0.0000
     34 ****         5.3456   2.8622   0.3130 H              1 S1                 0.0000
     35 ****         3.3233   2.1015   1.5223 H              1 S1                 0.0000
     36 ****         3.9491   0.4714   1.6494 H              1 S1                 0.0000
     37 ****        -0.0272  -1.6188  -1.3850 H              1 S1                 0.0000
     38 ****        -4.6173  -0.6067   3.2972 H              1 S1                 0.0000
     39 ****        -4.4827   0.5598   1.9623 H              1 S1                 0.0000
     40 ****        -3.1426  -0.5620   2.3120 H              1 S1                 0.0000
     41 ****        -2.7796  -3.1710  -0.7252 LP             1 S1                 0.0000
     42 ****        -1.2348  -2.3910  -0.6512 LP             1 S1                 0.0000
     43 ****         3.3768   1.8335  -0.8253 LP             1 S1                 0.0000
     44 ****         7.0920   1.3287   0.0673 LP             1 S1                 0.0000
     45 ****         6.1784   0.1098   0.6558 LP             1 S1                 0.0000
     46 ****         2.2100  -1.0687  -1.2645 LP             1 S1                 0.0000
@<TRIPOS>BOND
    1    1    2 1     
    2    1   22 1     
    3    1   23 1     
    4    1   24 1     
    5    2    3 1     
    6    2   18 1     
    7    2   25 1     
    8    3    4 2     
    9    3    5 am    
   10    5    6 1     
   11    5   26 1     
   12    6   17 ar    
   13    6    7 ar    
   14    7    8 ar    
   15    7   27 1     
   16    8    9 ar    
   17    8   28 1     
   18    9   10 1     
   19    9   16 ar    
   20   10   15 1     
   21   10   11 1     
   22   11   12 1     
   23   11   29 1     
   24   11   30 1     
   25   12   13 1     
   26   12   31 1     
   27   12   32 1     
   28   13   14 1     
   29   14   15 1     
   30   14   33 1     
   31   14   34 1     
   32   15   35 1     
   33   15   36 1     
   34   16   17 ar    
   35   17   37 1     
   36   18   19 1     
   37   18   20 2     
   38   18   21 2     
   39   19   38 1     
   40   19   39 1     
   41   19   40 1     
   42    4   41 1     
   43    4   42 1     
   44   10   43 1     
   45   13   44 1     
   46   13   45 1     
   47   16   46 1     
@<TRIPOS>SUBSTRUCTURE
      1 S1             1
@<TRIPOS>SET
LONE_PAIRS      STATIC     ATOMS    <user>   **** ""
8 41 42 43 44 45 46 20 21
DONOR_HYDROGENS      STATIC     ATOMS    <user>   **** ""
1 26
ATOM$BLUE        STATIC     ATOMS    COLORGROUP SYSTEM
8 41 42 43 44 45 46 20 21
ATOM$RED        STATIC     ATOMS    COLORGROUP SYSTEM
1 26
