AV-unprocessed.smi:36|AV-procd|sdf|285|dock1
  -GOLD-   2262016 63D 1   1.00000     0.00000
 Structure written by MMmdl.
 64 67  0  0  0  0  0  0  0  0  1 V2000
  147.6923  133.5818  162.4325 C   0  0  0  0  0  0  0  0  0  0  0  0
  146.7168  134.3639  161.5376 C   0  0  0  0  0  0  0  0  0  0  0  0
  145.3691  134.5360  162.2582 C   0  0  0  0  0  0  0  0  0  0  0  0
  147.3063  135.7448  161.2048 C   0  0  0  0  0  0  0  0  0  0  0  0
  146.4347  133.4013  159.9113 Si  0  0  0  0  0  0  0  0  0  0  0  0
  146.6288  131.5300  160.1823 C   0  0  0  0  0  0  0  0  0  0  0  0
  144.7127  133.7636  159.1926 C   0  0  0  0  0  0  0  0  0  0  0  0
  147.5976  133.9194  158.7944 O   0  0  0  0  0  0  0  0  0  0  0  0
  147.6260  133.5311  157.4351 C   0  0  0  0  0  0  0  0  0  0  0  0
  149.0778  133.2508  157.0009 C   0  0  2  0  0  0  0  0  0  0  0  0
  149.8978  134.2828  157.5597 O   0  0  0  0  0  0  0  0  0  0  0  0
  150.6218  134.9085  156.5493 C   0  0  2  0  0  0  0  0  0  0  0  0
  150.8116  136.3465  156.9025 N   0  0  0  0  0  0  0  0  0  0  0  0
  150.5236  136.9640  158.0994 C   0  0  0  0  0  0  0  0  0  0  0  0
  150.7738  138.2452  158.1437 N   0  0  0  0  0  0  0  0  0  0  0  0
  151.2650  138.5359  156.8774 C   0  0  0  0  0  0  0  0  0  0  0  0
  151.7178  139.7253  156.2483 C   0  0  0  0  0  0  0  0  0  0  0  0
  151.7171  140.8969  156.9273 N   0  0  0  0  0  0  0  0  0  0  0  0
  152.0941  141.1345  158.3099 C   0  0  0  0  0  0  0  0  0  0  0  0
  152.5296  140.2393  159.0346 O   0  0  0  0  0  0  0  0  0  0  0  0
  152.0005  142.5561  158.7832 C   0  0  0  0  0  0  0  0  0  0  0  0
  151.6176  143.5768  157.8840 C   0  0  0  0  0  0  0  0  0  0  0  0
  151.5399  144.9152  158.3155 C   0  0  0  0  0  0  0  0  0  0  0  0
  151.8526  145.2461  159.6472 C   0  0  0  0  0  0  0  0  0  0  0  0
  152.2469  144.2377  160.5466 C   0  0  0  0  0  0  0  0  0  0  0  0
  152.3244  142.8985  160.1165 C   0  0  0  0  0  0  0  0  0  0  0  0
  152.1383  139.6293  154.9593 N   0  0  0  0  0  0  0  0  0  0  0  0
  152.1141  138.4506  154.3297 C   0  0  0  0  0  0  0  0  0  0  0  0
  151.7169  137.2647  154.7950 N   0  0  0  0  0  0  0  0  0  0  0  0
  151.2943  137.3515  156.0890 C   0  0  0  0  0  0  0  0  0  0  0  0
  149.8060  134.7392  155.2775 C   0  0  0  0  0  0  0  0  0  0  0  0
  149.3294  133.3171  155.4786 C   0  0  2  0  0  0  0  0  0  0  0  0
  148.2066  133.0235  154.6709 O   0  0  0  0  0  0  0  0  0  0  0  0
  147.8701  134.1030  163.3738 H   0  0  0  0  0  0  0  0  0  0  0  0
  148.6582  133.4480  161.9446 H   0  0  0  0  0  0  0  0  0  0  0  0
  147.3050  132.5915  162.6736 H   0  0  0  0  0  0  0  0  0  0  0  0
  144.9282  133.5721  162.5139 H   0  0  0  0  0  0  0  0  0  0  0  0
  144.6520  135.0705  161.6342 H   0  0  0  0  0  0  0  0  0  0  0  0
  145.4834  135.0997  163.1848 H   0  0  0  0  0  0  0  0  0  0  0  0
  147.4669  136.3353  162.1076 H   0  0  0  0  0  0  0  0  0  0  0  0
  146.6418  136.3131  160.5527 H   0  0  0  0  0  0  0  0  0  0  0  0
  148.2667  135.6558  160.6969 H   0  0  0  0  0  0  0  0  0  0  0  0
  145.9000  131.1517  160.8987 H   0  0  0  0  0  0  0  0  0  0  0  0
  147.6187  131.2802  160.5632 H   0  0  0  0  0  0  0  0  0  0  0  0
  146.4877  130.9755  159.2549 H   0  0  0  0  0  0  0  0  0  0  0  0
  143.9209  133.4584  159.8762 H   0  0  0  0  0  0  0  0  0  0  0  0
  144.5506  133.2339  158.2542 H   0  0  0  0  0  0  0  0  0  0  0  0
  144.5776  134.8259  158.9912 H   0  0  0  0  0  0  0  0  0  0  0  0
  147.0080  132.6413  157.3121 H   0  0  0  0  0  0  0  0  0  0  0  0
  147.1775  134.3151  156.8255 H   0  0  0  0  0  0  0  0  0  0  0  0
  149.3988  132.2813  157.3811 H   0  0  0  0  0  0  0  0  0  0  0  0
  151.6245  134.4841  156.4789 H   0  0  0  0  0  0  0  0  0  0  0  0
  150.1183  136.4297  158.9464 H   0  0  0  0  0  0  0  0  0  0  0  0
  151.4096  141.7069  156.4091 H   0  0  0  0  0  0  0  0  0  0  0  0
  151.3752  143.3396  156.8580 H   0  0  0  0  0  0  0  0  0  0  0  0
  151.2412  145.6885  157.6231 H   0  0  0  0  0  0  0  0  0  0  0  0
  151.7936  146.2727  159.9774 H   0  0  0  0  0  0  0  0  0  0  0  0
  152.4932  144.4915  161.5670 H   0  0  0  0  0  0  0  0  0  0  0  0
  152.6378  142.1415  160.8206 H   0  0  0  0  0  0  0  0  0  0  0  0
  152.4614  138.4593  153.3070 H   0  0  0  0  0  0  0  0  0  0  0  0
  148.9709  135.4412  155.2697 H   0  0  0  0  0  0  0  0  0  0  0  0
  150.4172  134.8846  154.3864 H   0  0  0  0  0  0  0  0  0  0  0  0
  150.1363  132.6309  155.2167 H   0  0  0  0  0  0  0  0  0  0  0  0
  147.4514  133.4595  155.0353 H   0  0  0  0  0  0  0  0  0  0  0  0
  1  2  1  0  0  0  0
  1 34  1  0  0  0  0
  1 35  1  0  0  0  0
  1 36  1  0  0  0  0
  2  3  1  0  0  0  0
  2  4  1  0  0  0  0
  2  5  1  0  0  0  0
  3 37  1  0  0  0  0
  3 38  1  0  0  0  0
  3 39  1  0  0  0  0
  4 40  1  0  0  0  0
  4 41  1  0  0  0  0
  4 42  1  0  0  0  0
  5  6  1  0  0  0  0
  5  7  1  0  0  0  0
  5  8  1  0  0  0  0
  6 43  1  0  0  0  0
  6 44  1  0  0  0  0
  6 45  1  0  0  0  0
  7 46  1  0  0  0  0
  7 47  1  0  0  0  0
  7 48  1  0  0  0  0
  8  9  1  0  0  0  0
  9 10  1  0  0  0  0
  9 49  1  0  0  0  0
  9 50  1  0  0  0  0
 10 32  1  0  0  0  0
 10 11  1  0  0  0  0
 10 51  1  0  0  0  0
 11 12  1  0  0  0  0
 12 13  1  0  0  0  0
 12 31  1  0  0  0  0
 12 52  1  0  0  0  0
 13 30  1  0  0  0  0
 13 14  1  0  0  0  0
 14 15  2  0  0  0  0
 14 53  1  0  0  0  0
 15 16  1  0  0  0  0
 16 30  2  0  0  0  0
 16 17  1  0  0  0  0
 17 18  1  0  0  0  0
 17 27  2  0  0  0  0
 18 19  1  0  0  0  0
 18 54  1  0  0  0  0
 19 20  2  0  0  0  0
 19 21  1  0  0  0  0
 21 26  1  0  0  0  0
 21 22  2  0  0  0  0
 22 23  1  0  0  0  0
 22 55  1  0  0  0  0
 23 24  2  0  0  0  0
 23 56  1  0  0  0  0
 24 25  1  0  0  0  0
 24 57  1  0  0  0  0
 25 26  2  0  0  0  0
 25 58  1  0  0  0  0
 26 59  1  0  0  0  0
 27 28  1  0  0  0  0
 28 29  2  0  0  0  0
 28 60  1  0  0  0  0
 29 30  1  0  0  0  0
 31 32  1  0  0  0  0
 31 61  1  0  0  0  0
 31 62  1  0  0  0  0
 32 33  1  0  0  0  0
 32 63  1  0  0  0  0
 33 64  1  0  0  0  0
M  END
> <s_m_source_file>
AV-unprocessed.smi

> <i_m_source_file_index>
36

> <i_lp_mmshare_version>
43012

> <i_f3d_flags>
0

> <s_epik_input>
W0NIM11DKFtDSDNdKShbQ0gzXSlbU2ldKFtDSDNdKShbQ0gzXSlPW0NIMl1bQ0BASF0xT1tDQEhdKFtDSDJdW0NASF0xW09IXSluKFtjSF1uMiljKGMyMyluW2NIXW5jM1tOSF1DKD1PKWM0W2NIXVtjSF1bY0hdW2NIXVtjSF00

> <s_epik_cmdline>
J2VwaWtfcHl0aG9uJywgJy1waCcsICc3LjAnLCAnLXRuJywgJzgnLCAnLW1hJywgJzIwMCcsICctbWV0YWxfYmluZGluZycsICctaW1hZScsICc8aW5maWxlLm1hZT4nLCAnLW9tYWUnLCAnPG91dGZpbGUubWFlPic=

> <r_lp_tautomer_probability>
1

> <r_epik_Ionization_Penalty>
0.00150433

> <r_epik_Ionization_Penalty_Charging>
0

> <r_epik_Ionization_Penalty_Neutral>
0.00150433

> <r_epik_State_Penalty>
0.00724046

> <r_epik_Charging_Adjusted_Penalty>
0.00724046

> <i_epik_Tot_Q>
0

> <i_epik_Tot_abs_Q>
0

> <r_epik_Metal_State_Penalty>
0.323355

> <b_epik_Metal_Only>
0

> <s_epik_Chemistry_Notes>
This compound contains an acetal/aminal-like group ( X-CH(R)-Y where X, Y are N, S, or O) that may be acid/base labile, releasing an aldehyde.

> <s_lp_Force_Field>
OPLS_2005

> <r_lp_Energy>
39.4689

> <b_lp_Chiralities_Consistent>
1

> <s_lp_Variant>
AV-unprocessed.smi:36-7

> <Gold.Version>
5.8.1

> <Gold.Id.Protein>
6NUR|6NUR_protein|mol2

> <Gold.PLP.Fitness>
55.9298

> <Gold.PLP.PLP>
-52.7772

> <Gold.PLP.part.hbond>
-3.0000

> <Gold.PLP.part.metal>
0.0000

> <Gold.PLP.part.buried>
-8.9380

> <Gold.PLP.part.nonpolar>
-41.2182

> <Gold.PLP.part.repulsive>
0.2534

> <Gold.PLP.ligand.clash>
0.0000

> <Gold.PLP.ligand.torsion>
2.6390

> <Gold.PLP.Chemscore.Hbond>
2.7520

> <Gold.PLP.Chemscore.CHOScore>
0.0000

> <Gold.PLP.Chemscore.Metal>
0.0000

> <Gold.Chemscore.Hbonds>
donor molecule, donor type, donor heavy atom, donor atom, acceptor molecule, acceptor atom, score
      P1  H  6896  6909       L1    11  0.96
      P1  H  7989  7998       L1    27  0.83
      P1  H 10752 10763       L1    29  0.93

> <Gold.PLP.Chemscore.Internal.Correction>
0.1747

> <Gold.Rescore>
     Score         DG    S(hbond)    S(metal)    S(lipo)     H(rot)  DE(clash)    DE(int)     intcor
     18.02     -21.12       2.40        0.00     124.39       2.70       0.31       2.80       ----

> <Gold.Chemscore.Fitness>
18.0181

> <Gold.Chemscore.DG>
-21.1231

> <Gold.Chemscore.ZeroCoef>
-5.4800

> <Gold.Chemscore.Hbond>
2.3986

> <Gold.Chemscore.Metal>
0.0000

> <Gold.Chemscore.Lipo>
124.3943

> <Gold.Chemscore.Internal_Hbond>
0.0000

> <Gold.Chemscore.DEClash>
0.3067

> <Gold.Chemscore.DEInternal>
2.7983

> <Gold.Chemscore.Rot>
2.7041

> <Gold.Chemscore.Internal.Correction>
   9.000000E+99

> <Gold.Chemscore.Hbonds>
donor molecule, donor type, donor heavy atom, donor atom, acceptor molecule, acceptor atom, score
      P1  H  6896  6909       L1    11  0.87
      P1  H  7989  7998       L1    27  0.24
      P1  H 10752 10763       L1    29  0.71

> <Gold.Chemscore.Hbond.Weighted>
-8.0114

> <Gold.Chemscore.Metal.Weighted>
-0.0000

> <Gold.Chemscore.Lipo.Weighted>
-14.5541

> <Gold.Chemscore.Internal_Hbond.Weighted>
0.0000

> <Gold.Chemscore.DEClash.Weighted>
0.3067

> <Gold.Chemscore.DEInternal.Weighted>
2.7983

> <Gold.Chemscore.Rot.Weighted>
6.9225

> <Gold.Chemscore.Internal.Correction.Weighted>
   9.000000E+99

> <Gold.Protein.RotatedTorsions>
[ 6907 6896 6895 6894 ] final   13.11 input  -60.11 | X-H torsion
[ 7974 7965 7964 7962 ] final  136.46 input  175.53 | X-H torsion
[ 8008 7997 7996 7995 ] final   74.22 input   59.86 | X-H torsion
[ 10167 10162 10161 10158 ] final   86.17 input  -65.29 | X-H torsion
[ 10718 10713 10712 10709 ] final  154.50 input   66.30 | X-H torsion
[ 10763 10752 10751 10750 ] final   49.91 input  -60.55 | X-H torsion
[ 11005 11000 10999 10996 ] final  -91.71 input  -57.11 | X-H torsion

> <Gold.Protein.ActiveResidues>
 VAL166  LYS551  ARG553  GLY616  TRP617  ASP618  TYR619  PRO620  LYS621  CYS622 
 ASP623  PHE694  ASN695  SER759  ASP760  ASP761  ALA762  ILE779  LEU786  VAL792 
 PHE793  MET794  SER795  GLU796  ALA797  LYS798  CYS799  TRP800  GLU811  SER814 

> <Gold.Protein.RotatedAtoms>
  151.7811  135.0761  160.0373 H   0  0  0  0  0  0  0  0  0  0  0  0  # atno 6907 bound_to 6896
  152.3222  133.5862  159.5760 H   0  0  0  0  0  0  0  0  0  0  0  0  # atno 6908 bound_to 6896
  150.7376  133.9910  159.3649 H   0  0  0  0  0  0  0  0  0  0  0  0  # atno 6909 bound_to 6896
  144.9563  139.4761  143.5501 H   0  0  0  0  0  0  0  0  0  0  0  0  # atno 7974 bound_to 7965
  155.7952  140.3478  155.5371 H   0  0  0  0  0  0  0  0  0  0  0  0  # atno 8008 bound_to 7997
  155.8594  140.0969  157.1644 H   0  0  0  0  0  0  0  0  0  0  0  0  # atno 8009 bound_to 7997
  154.4011  140.1361  156.3929 H   0  0  0  0  0  0  0  0  0  0  0  0  # atno 8010 bound_to 7997
  139.8902  144.6390  150.8747 H   0  0  0  0  0  0  0  0  0  0  0  0  # atno 10167 bound_to 10162
  157.2308  131.0738  151.1854 H   0  0  0  0  0  0  0  0  0  0  0  0  # atno 10718 bound_to 10713
  152.9785  135.5896  154.4165 H   0  0  0  0  0  0  0  0  0  0  0  0  # atno 10763 bound_to 10752
  154.3795  135.2767  155.2222 H   0  0  0  0  0  0  0  0  0  0  0  0  # atno 10764 bound_to 10752
  154.4142  135.6074  153.6025 H   0  0  0  0  0  0  0  0  0  0  0  0  # atno 10765 bound_to 10752
  141.1539  133.7773  156.9917 H   0  0  0  0  0  0  0  0  0  0  0  0  # atno 11005 bound_to 11000
  146.3338  139.8682  142.8844 LP  0  0  0  0  0  0  0  0  0  0  0  0  # atno 17320 bound_to 7965
  145.2767  141.0126  143.3740 LP  0  0  0  0  0  0  0  0  0  0  0  0  # atno 17321 bound_to 7965
  140.7728  143.3516  151.2003 LP  0  0  0  0  0  0  0  0  0  0  0  0  # atno 17342 bound_to 10162
  139.7116  143.9367  152.2950 LP  0  0  0  0  0  0  0  0  0  0  0  0  # atno 17343 bound_to 10162
  157.3480  130.7067  149.6423 LP  0  0  0  0  0  0  0  0  0  0  0  0  # atno 17370 bound_to 10713
  155.9675  130.4260  150.4682 LP  0  0  0  0  0  0  0  0  0  0  0  0  # atno 17371 bound_to 10713
  140.0998  134.9542  157.1906 LP  0  0  0  0  0  0  0  0  0  0  0  0  # atno 17394 bound_to 11000
  140.3333  134.2785  155.7224 LP  0  0  0  0  0  0  0  0  0  0  0  0  # atno 17395 bound_to 11000

$$$$
