AV-unprocessed.smi:1737|AV-procd|sdf|6995|dock10
  -GOLD-   22720 8213D 1   1.00000     0.00000
 Structure written by MMmdl.
 43 44  0  0  0  0  0  0  0  0  2 V2000
  147.7988  132.7617  152.4561 C   0  0  0  0  0  0  0  0  0  0  0  0
  146.5152  132.9441  151.6624 C   0  0  0  0  0  0  0  0  0  0  0  0
  145.9626  131.8392  150.9804 C   0  0  0  0  0  0  0  0  0  0  0  0
  144.7753  132.0087  150.2481 C   0  0  0  0  0  0  0  0  0  0  0  0
  144.1869  133.2847  150.2284 C   0  0  0  0  0  0  0  0  0  0  0  0
  144.7079  134.3462  150.8771 N   0  0  0  0  0  0  0  0  0  0  0  0
  145.8533  134.1993  151.5894 C   0  0  0  0  0  0  0  0  0  0  0  0
  146.4622  135.2767  152.2931 N   0  0  0  0  0  0  0  0  0  0  0  0
  145.9685  135.9862  153.3232 C   0  0  0  0  0  0  0  0  0  0  0  0
  144.8824  135.7921  153.8704 O   0  0  0  0  0  0  0  0  0  0  0  0
  146.8159  136.9551  153.6989 N   0  0  0  0  0  0  0  0  0  0  0  0
  146.5704  137.8931  154.7906 C   0  0  0  0  0  0  0  0  0  0  0  0
  147.1296  139.3142  154.5117 C   0  0  2  0  0  0  0  0  0  0  0  0
  146.9870  139.6561  153.0087 C   0  0  0  0  0  0  0  0  0  0  0  0
  148.5351  139.4266  155.0218 N   0  3  0  0  0  0  0  0  0  0  0  0
  149.5582  138.6442  154.2743 C   0  0  0  0  0  0  0  0  0  0  0  0
  150.9519  138.8101  154.9048 C   0  0  0  0  0  0  0  0  0  0  0  0
  151.3013  140.1854  154.9547 O   0  0  0  0  0  0  0  0  0  0  0  0
  150.3911  140.9253  155.7547 C   0  0  0  0  0  0  0  0  0  0  0  0
  148.9847  140.8410  155.1403 C   0  0  0  0  0  0  0  0  0  0  0  0
  148.1733  131.7408  152.3764 H   0  0  0  0  0  0  0  0  0  0  0  0
  147.6268  132.9743  153.5117 H   0  0  0  0  0  0  0  0  0  0  0  0
  148.5756  133.4328  152.0881 H   0  0  0  0  0  0  0  0  0  0  0  0
  146.4411  130.8713  151.0157 H   0  0  0  0  0  0  0  0  0  0  0  0
  144.3279  131.1829  149.7152 H   0  0  0  0  0  0  0  0  0  0  0  0
  143.2750  133.4595  149.6766 H   0  0  0  0  0  0  0  0  0  0  0  0
  147.3788  135.5421  151.9646 H   0  0  0  0  0  0  0  0  0  0  0  0
  147.6891  137.0486  153.2005 H   0  0  0  0  0  0  0  0  0  0  0  0
  145.4987  137.9054  154.9849 H   0  0  0  0  0  0  0  0  0  0  0  0
  147.0332  137.4866  155.6905 H   0  0  0  0  0  0  0  0  0  0  0  0
  146.5287  140.0453  155.0550 H   0  0  0  0  0  0  0  0  0  0  0  0
  145.9598  139.5385  152.6643 H   0  0  0  0  0  0  0  0  0  0  0  0
  147.6135  139.0118  152.3910 H   0  0  0  0  0  0  0  0  0  0  0  0
  147.2492  140.6930  152.7985 H   0  0  0  0  0  0  0  0  0  0  0  0
  149.3204  137.5808  154.2849 H   0  0  0  0  0  0  0  0  0  0  0  0
  149.5781  138.9670  153.2320 H   0  0  0  0  0  0  0  0  0  0  0  0
  150.9799  138.3787  155.9068 H   0  0  0  0  0  0  0  0  0  0  0  0
  151.6965  138.2796  154.3109 H   0  0  0  0  0  0  0  0  0  0  0  0
  150.3941  140.5513  156.7798 H   0  0  0  0  0  0  0  0  0  0  0  0
  150.7216  141.9635  155.7938 H   0  0  0  0  0  0  0  0  0  0  0  0
  148.9878  141.3060  154.1531 H   0  0  0  0  0  0  0  0  0  0  0  0
  148.3026  141.4226  155.7572 H   0  0  0  0  0  0  0  0  0  0  0  0
  148.5260  139.0423  155.9559 H   0  0  0  0  0  0  0  0  0  0  0  0
  1  2  1  0  0  0  0
  1 21  1  0  0  0  0
  1 22  1  0  0  0  0
  1 23  1  0  0  0  0
  2  7  1  0  0  0  0
  2  3  2  0  0  0  0
  3  4  1  0  0  0  0
  3 24  1  0  0  0  0
  4  5  2  0  0  0  0
  4 25  1  0  0  0  0
  5  6  1  0  0  0  0
  5 26  1  0  0  0  0
  6  7  2  0  0  0  0
  7  8  1  0  0  0  0
  8  9  1  0  0  0  0
  8 27  1  0  0  0  0
  9 10  2  0  0  0  0
  9 11  1  0  0  0  0
 11 12  1  0  0  0  0
 11 28  1  0  0  0  0
 12 13  1  0  0  0  0
 12 29  1  0  0  0  0
 12 30  1  0  0  0  0
 13 14  1  0  0  0  0
 13 15  1  0  0  0  0
 13 31  1  0  0  0  0
 14 32  1  0  0  0  0
 14 33  1  0  0  0  0
 14 34  1  0  0  0  0
 15 20  1  0  0  0  0
 15 16  1  0  0  0  0
 15 43  1  0  0  0  0
 16 17  1  0  0  0  0
 16 35  1  0  0  0  0
 16 36  1  0  0  0  0
 17 18  1  0  0  0  0
 17 37  1  0  0  0  0
 17 38  1  0  0  0  0
 18 19  1  0  0  0  0
 19 20  1  0  0  0  0
 19 39  1  0  0  0  0
 19 40  1  0  0  0  0
 20 41  1  0  0  0  0
 20 42  1  0  0  0  0
M  CHG  1  15   1
M  END
> <s_m_source_file>
AV-unprocessed.smi

> <i_m_source_file_index>
1737

> <i_lp_mmshare_version>
43012

> <i_f3d_flags>
0

> <s_epik_input>
W0NIM11jMVtjSF1bY0hdW2NIXW5jMVtOSF1DKD1PKVtOSF1bQ0gyXVtDQEhdKFtDSDNdKU4yW0NIMl1bQ0gyXU9bQ0gyXVtDSDJdMg==

> <s_epik_cmdline>
J2VwaWtfcHl0aG9uJywgJy1waCcsICc3LjAnLCAnLXRuJywgJzgnLCAnLW1hJywgJzIwMCcsICctbWV0YWxfYmluZGluZycsICctaW1hZScsICc8aW5maWxlLm1hZT4nLCAnLW9tYWUnLCAnPG91dGZpbGUubWFlPic=

> <r_epik_Ionization_Penalty>
0.602573

> <r_epik_Ionization_Penalty_Charging>
0.602531

> <r_epik_Ionization_Penalty_Neutral>
4.25912e-05

> <r_epik_State_Penalty>
0.617039

> <r_epik_Charging_Adjusted_Penalty>
1.21957

> <i_epik_Tot_Q>
1

> <i_epik_Tot_abs_Q>
1

> <r_epik_Metal_State_Penalty>
0.617042

> <b_epik_Metal_Only>
0

> <s_lp_Force_Field>
OPLS_2005

> <r_lp_Energy>
21.8503

> <b_lp_Chiralities_Consistent>
1

> <s_lp_Variant>
AV-unprocessed.smi:1737-3

> <Gold.Version>
5.8.1

> <Gold.Id.Protein>
6NUR|6NUR_protein|mol2

> <Gold.PLP.Fitness>
43.2404

> <Gold.PLP.PLP>
-33.8232

> <Gold.PLP.part.hbond>
-2.9933

> <Gold.PLP.part.metal>
0.0000

> <Gold.PLP.part.buried>
-2.9827

> <Gold.PLP.part.nonpolar>
-28.0458

> <Gold.PLP.part.repulsive>
0.3750

> <Gold.PLP.ligand.clash>
0.0000

> <Gold.PLP.ligand.torsion>
1.2291

> <Gold.PLP.Chemscore.Hbond>
2.9440

> <Gold.PLP.Chemscore.CHOScore>
1.0000

> <Gold.PLP.Chemscore.Metal>
0.0000

> <Gold.Chemscore.Hbonds>
donor molecule, donor type, donor heavy atom, donor atom, acceptor molecule, acceptor atom, score
      L1  H     8    27       P1  7948  1.00
      L1  H    11    28       P1  7948  0.93
      P1  H  7989  7998       L1    18  1.00
      L1  C     5    26       P1 10186  1.00

> <Gold.PLP.Chemscore.Internal.Correction>
0.0434

> <Gold.Rescore>
     Score         DG    S(hbond)    S(metal)    S(lipo)     H(rot)  DE(clash)    DE(int)     intcor
     19.39     -20.73       2.81        0.00      83.17       1.51       0.17       1.17       ----

> <Gold.Chemscore.Fitness>
19.3865

> <Gold.Chemscore.DG>
-20.7342

> <Gold.Chemscore.ZeroCoef>
-5.4800

> <Gold.Chemscore.Hbond>
2.8132

> <Gold.Chemscore.Metal>
0.0000

> <Gold.Chemscore.Lipo>
83.1691

> <Gold.Chemscore.Internal_Hbond>
0.0000

> <Gold.Chemscore.DEClash>
0.1731

> <Gold.Chemscore.DEInternal>
1.1746

> <Gold.Chemscore.Rot>
1.5128

> <Gold.Chemscore.Internal.Correction>
   9.000000E+99

> <Gold.Chemscore.Hbonds>
donor molecule, donor type, donor heavy atom, donor atom, acceptor molecule, acceptor atom, score
      L1  H     8    27       P1  7948  1.00
      L1  H    11    28       P1  7948  0.87
      P1  H  7989  7998       L1    18  0.79

> <Gold.Chemscore.Hbond.Weighted>
-9.3961

> <Gold.Chemscore.Metal.Weighted>
-0.0000

> <Gold.Chemscore.Lipo.Weighted>
-9.7308

> <Gold.Chemscore.Internal_Hbond.Weighted>
0.0000

> <Gold.Chemscore.DEClash.Weighted>
0.1731

> <Gold.Chemscore.DEInternal.Weighted>
1.1746

> <Gold.Chemscore.Rot.Weighted>
3.8726

> <Gold.Chemscore.Internal.Correction.Weighted>
   9.000000E+99

> <Gold.Protein.RotatedTorsions>
[ 6907 6896 6895 6894 ] final   96.15 input  -60.11 | X-H torsion
[ 7974 7965 7964 7962 ] final   -2.60 input  175.53 | X-H torsion
[ 8008 7997 7996 7995 ] final   92.86 input   59.86 | X-H torsion
[ 10167 10162 10161 10158 ] final  118.55 input  -65.29 | X-H torsion
[ 10718 10713 10712 10709 ] final  -64.54 input   66.30 | X-H torsion
[ 10763 10752 10751 10750 ] final -102.95 input  -60.55 | X-H torsion
[ 11005 11000 10999 10996 ] final  -31.66 input  -57.11 | X-H torsion

> <Gold.Protein.ActiveResidues>
 VAL166  LYS551  ARG553  GLY616  TRP617  ASP618  TYR619  PRO620  LYS621  CYS622 
 ASP623  PHE694  ASN695  SER759  ASP760  ASP761  ALA762  ILE779  LEU786  VAL792 
 PHE793  MET794  SER795  GLU796  ALA797  LYS798  CYS799  TRP800  GLU811  SER814 

> <Gold.Protein.RotatedAtoms>
  152.5437  134.0931  159.8284 H   0  0  0  0  0  0  0  0  0  0  0  0  # atno 6907 bound_to 6896
  151.1018  133.5231  159.2617 H   0  0  0  0  0  0  0  0  0  0  0  0  # atno 6908 bound_to 6896
  151.1983  135.0441  159.8916 H   0  0  0  0  0  0  0  0  0  0  0  0  # atno 6909 bound_to 6896
  146.2402  140.1595  142.8333 H   0  0  0  0  0  0  0  0  0  0  0  0  # atno 7974 bound_to 7965
  156.0402  140.3320  155.7235 H   0  0  0  0  0  0  0  0  0  0  0  0  # atno 8008 bound_to 7997
  155.5755  140.0632  157.2813 H   0  0  0  0  0  0  0  0  0  0  0  0  # atno 8009 bound_to 7997
  154.4390  140.1853  156.0911 H   0  0  0  0  0  0  0  0  0  0  0  0  # atno 8010 bound_to 7997
  139.6104  144.7080  151.2857 H   0  0  0  0  0  0  0  0  0  0  0  0  # atno 10167 bound_to 10162
  156.0723  130.4235  150.1435 H   0  0  0  0  0  0  0  0  0  0  0  0  # atno 10718 bound_to 10713
  154.7772  135.4841  153.9768 H   0  0  0  0  0  0  0  0  0  0  0  0  # atno 10763 bound_to 10752
  153.1444  135.6779  153.8984 H   0  0  0  0  0  0  0  0  0  0  0  0  # atno 10764 bound_to 10752
  153.8648  135.3151  155.3418 H   0  0  0  0  0  0  0  0  0  0  0  0  # atno 10765 bound_to 10752
  140.9487  133.7234  156.1186 H   0  0  0  0  0  0  0  0  0  0  0  0  # atno 11005 bound_to 11000
  145.0101  140.8707  143.5229 LP  0  0  0  0  0  0  0  0  0  0  0  0  # atno 17320 bound_to 7965
  145.1627  139.2449  143.5383 LP  0  0  0  0  0  0  0  0  0  0  0  0  # atno 17321 bound_to 7965
  140.7315  143.6850  150.7969 LP  0  0  0  0  0  0  0  0  0  0  0  0  # atno 17342 bound_to 10162
  140.0444  143.5313  152.2703 LP  0  0  0  0  0  0  0  0  0  0  0  0  # atno 17343 bound_to 10162
  156.9483  130.9766  151.3503 LP  0  0  0  0  0  0  0  0  0  0  0  0  # atno 17370 bound_to 10713
  157.5800  130.8370  149.8509 LP  0  0  0  0  0  0  0  0  0  0  0  0  # atno 17371 bound_to 10713
  140.7633  134.3915  157.5521 LP  0  0  0  0  0  0  0  0  0  0  0  0  # atno 17394 bound_to 11000
  139.8841  134.8975  156.2725 LP  0  0  0  0  0  0  0  0  0  0  0  0  # atno 17395 bound_to 11000

$$$$
