AV-unprocessed.smi:1120|AV-procd|sdf|4822|dock6
  -GOLD-   22720 3383D 1   1.00000     0.00000
 Structure written by MMmdl.
 47 48  0  0  0  0  0  0  0  0  2 V2000
  151.2465  145.2526  160.0733 C   0  0  0  0  0  0  0  0  0  0  0  0
  151.8474  144.0586  159.3189 C   0  0  2  0  0  0  0  0  0  0  0  0
  150.7987  143.3500  158.4307 C   0  0  0  0  0  0  0  0  0  0  0  0
  151.3718  142.1123  157.6958 C   0  0  0  0  0  0  0  0  0  0  0  0
  151.9991  141.0669  158.6497 C   0  0  1  0  0  0  0  0  0  0  0  0
  152.6149  140.0021  157.8686 N   0  5  0  0  0  0  0  0  0  0  0  0
  152.5523  138.4654  158.3868 S   0  0  0  0  0  0  0  0  0  0  0  0
  153.7496  137.6972  158.0067 O   0  0  0  0  0  0  0  0  0  0  0  0
  152.1032  138.3506  159.7840 O   0  0  0  0  0  0  0  0  0  0  0  0
  151.1655  137.8165  157.3493 C   0  0  0  0  0  0  0  0  0  0  0  0
  149.9607  137.4343  158.2111 C   0  0  0  0  0  0  0  0  0  0  0  0
  150.1092  136.7038  159.1907 O   0  0  0  0  0  0  0  0  0  0  0  0
  148.7786  137.9541  157.8546 N   0  0  0  0  0  0  0  0  0  0  0  0
  147.5145  137.7231  158.5409 C   0  0  0  0  0  0  0  0  0  0  0  0
  147.3949  136.2620  159.0074 C   0  0  0  0  0  0  0  0  0  0  0  0
  147.0299  136.1273  160.4763 C   0  0  0  0  0  0  0  0  0  0  0  0
  146.9371  134.8556  161.0820 C   0  0  0  0  0  0  0  0  0  0  0  0
  146.5682  134.7832  162.4387 C   0  0  0  0  0  0  0  0  0  0  0  0
  146.3117  135.9794  163.1361 C   0  0  0  0  0  0  0  0  0  0  0  0
  146.4347  137.1994  162.4414 C   0  0  0  0  0  0  0  0  0  0  0  0
  146.7847  137.2800  161.1395 N   0  0  0  0  0  0  0  0  0  0  0  0
  153.0413  141.7820  159.5476 C   0  0  0  0  0  0  0  0  0  0  0  0
  152.4704  143.0215  160.2816 C   0  0  0  0  0  0  0  0  0  0  0  0
  150.4420  144.9372  160.7384 H   0  0  0  0  0  0  0  0  0  0  0  0
  150.8370  145.9878  159.3802 H   0  0  0  0  0  0  0  0  0  0  0  0
  152.0021  145.7543  160.6784 H   0  0  0  0  0  0  0  0  0  0  0  0
  152.6396  144.4376  158.6712 H   0  0  0  0  0  0  0  0  0  0  0  0
  149.9389  143.0583  159.0375 H   0  0  0  0  0  0  0  0  0  0  0  0
  150.4141  144.0546  157.6926 H   0  0  0  0  0  0  0  0  0  0  0  0
  150.5815  141.6456  157.1068 H   0  0  0  0  0  0  0  0  0  0  0  0
  152.1231  142.4509  156.9801 H   0  0  0  0  0  0  0  0  0  0  0  0
  151.2038  140.6806  159.2882 H   0  0  0  0  0  0  0  0  0  0  0  0
  150.8831  138.5897  156.6348 H   0  0  0  0  0  0  0  0  0  0  0  0
  151.5220  136.9526  156.7890 H   0  0  0  0  0  0  0  0  0  0  0  0
  148.7508  138.5416  157.0327 H   0  0  0  0  0  0  0  0  0  0  0  0
  147.4238  138.3921  159.3978 H   0  0  0  0  0  0  0  0  0  0  0  0
  146.6992  137.9641  157.8577 H   0  0  0  0  0  0  0  0  0  0  0  0
  146.6415  135.7490  158.4079 H   0  0  0  0  0  0  0  0  0  0  0  0
  148.3339  135.7386  158.8230 H   0  0  0  0  0  0  0  0  0  0  0  0
  147.1312  133.9547  160.5178 H   0  0  0  0  0  0  0  0  0  0  0  0
  146.4810  133.8276  162.9341 H   0  0  0  0  0  0  0  0  0  0  0  0
  146.0256  135.9623  164.1772 H   0  0  0  0  0  0  0  0  0  0  0  0
  146.2445  138.1359  162.9447 H   0  0  0  0  0  0  0  0  0  0  0  0
  153.4332  141.0881  160.2912 H   0  0  0  0  0  0  0  0  0  0  0  0
  153.8939  142.0929  158.9420 H   0  0  0  0  0  0  0  0  0  0  0  0
  153.2690  143.4931  160.8554 H   0  0  0  0  0  0  0  0  0  0  0  0
  151.7251  142.7080  161.0156 H   0  0  0  0  0  0  0  0  0  0  0  0
  1  2  1  0  0  0  0
  1 24  1  0  0  0  0
  1 25  1  0  0  0  0
  1 26  1  0  0  0  0
  2 23  1  0  0  0  0
  2  3  1  0  0  0  0
  2 27  1  0  0  0  0
  3  4  1  0  0  0  0
  3 28  1  0  0  0  0
  3 29  1  0  0  0  0
  4  5  1  0  0  0  0
  4 30  1  0  0  0  0
  4 31  1  0  0  0  0
  5  6  1  0  0  0  0
  5 22  1  0  0  0  0
  5 32  1  0  0  0  0
  6  7  1  0  0  0  0
  7  8  2  0  0  0  0
  7  9  2  0  0  0  0
  7 10  1  0  0  0  0
 10 11  1  0  0  0  0
 10 33  1  0  0  0  0
 10 34  1  0  0  0  0
 11 12  2  0  0  0  0
 11 13  1  0  0  0  0
 13 14  1  0  0  0  0
 13 35  1  0  0  0  0
 14 15  1  0  0  0  0
 14 36  1  0  0  0  0
 14 37  1  0  0  0  0
 15 16  1  0  0  0  0
 15 38  1  0  0  0  0
 15 39  1  0  0  0  0
 16 21  1  0  0  0  0
 16 17  2  0  0  0  0
 17 18  1  0  0  0  0
 17 40  1  0  0  0  0
 18 19  2  0  0  0  0
 18 41  1  0  0  0  0
 19 20  1  0  0  0  0
 19 42  1  0  0  0  0
 20 21  2  0  0  0  0
 20 43  1  0  0  0  0
 22 23  1  0  0  0  0
 22 44  1  0  0  0  0
 22 45  1  0  0  0  0
 23 46  1  0  0  0  0
 23 47  1  0  0  0  0
M  CHG  1   6  -1
M  END
> <s_m_source_file>
AV-unprocessed.smi

> <i_m_source_file_index>
1120

> <i_lp_mmshare_version>
43012

> <i_f3d_flags>
0

> <s_epik_input>
W0NIM11bQ0BASF0xW0NIMl1bQ0gyXVtDQEhdKFtDSDJdW0NIMl0xKVtOSF1TKD1PKSg9TylbQ0gyXUMoPU8pW05IXVtDSDJdW0NIMl1jMltjSF1bY0hdW2NIXVtjSF1uMg==

> <s_epik_cmdline>
J2VwaWtfcHl0aG9uJywgJy1waCcsICc3LjAnLCAnLXRuJywgJzgnLCAnLW1hJywgJzIwMCcsICctbWV0YWxfYmluZGluZycsICctaW1hZScsICc8aW5maWxlLm1hZT4nLCAnLW9tYWUnLCAnPG91dGZpbGUubWFlPic=

> <r_epik_Ionization_Penalty>
5.68623

> <r_epik_Ionization_Penalty_Charging>
5.66033

> <r_epik_Ionization_Penalty_Neutral>
0.0259005

> <r_epik_State_Penalty>
5.67764

> <r_epik_Charging_Adjusted_Penalty>
11.338

> <i_epik_Tot_Q>
-1

> <i_epik_Tot_abs_Q>
1

> <r_epik_Metal_State_Penalty>
1.68319

> <b_epik_Metal_Only>
1

> <s_lp_Force_Field>
OPLS_2005

> <r_lp_Energy>
8.54043

> <b_lp_Chiralities_Consistent>
1

> <s_lp_Variant>
AV-unprocessed.smi:1120-5

> <Gold.Version>
5.8.1

> <Gold.Id.Protein>
6NUR|6NUR_protein|mol2

> <Gold.PLP.Fitness>
55.1144

> <Gold.PLP.PLP>
-45.2226

> <Gold.PLP.part.hbond>
-4.1975

> <Gold.PLP.part.metal>
0.0000

> <Gold.PLP.part.buried>
-5.8173

> <Gold.PLP.part.nonpolar>
-35.9702

> <Gold.PLP.part.repulsive>
0.1007

> <Gold.PLP.ligand.clash>
0.0000

> <Gold.PLP.ligand.torsion>
1.4575

> <Gold.PLP.Chemscore.Hbond>
3.9166

> <Gold.PLP.Chemscore.CHOScore>
0.0000

> <Gold.PLP.Chemscore.Metal>
0.0000

> <Gold.Chemscore.Hbonds>
donor molecule, donor type, donor heavy atom, donor atom, acceptor molecule, acceptor atom, score
      P1  H  6896  6907       L1    12  0.07
      P1  H  6934  6947       L1    21  1.00
      P1  H  7997  8009       L1     6  1.56

> <Gold.PLP.Chemscore.Internal.Correction>
1.0570

> <Gold.Rescore>
     Score         DG    S(hbond)    S(metal)    S(lipo)     H(rot)  DE(clash)    DE(int)     intcor
     16.90     -23.14       2.14        0.00     130.47       1.86       1.69       4.56       ----

> <Gold.Chemscore.Fitness>
16.8961

> <Gold.Chemscore.DG>
-23.1421

> <Gold.Chemscore.ZeroCoef>
-5.4800

> <Gold.Chemscore.Hbond>
2.1433

> <Gold.Chemscore.Metal>
0.0000

> <Gold.Chemscore.Lipo>
130.4746

> <Gold.Chemscore.Internal_Hbond>
0.0000

> <Gold.Chemscore.DEClash>
1.6885

> <Gold.Chemscore.DEInternal>
4.5574

> <Gold.Chemscore.Rot>
1.8602

> <Gold.Chemscore.Internal.Correction>
   9.000000E+99

> <Gold.Chemscore.Hbonds>
donor molecule, donor type, donor heavy atom, donor atom, acceptor molecule, acceptor atom, score
      P1  H  6896  6907       L1    12  0.08
      P1  H  6934  6947       L1    21  0.40
      P1  H  7997  8009       L1     6  0.26

> <Gold.Chemscore.Hbond.Weighted>
-7.1587

> <Gold.Chemscore.Metal.Weighted>
-0.0000

> <Gold.Chemscore.Lipo.Weighted>
-15.2655

> <Gold.Chemscore.Internal_Hbond.Weighted>
0.0000

> <Gold.Chemscore.DEClash.Weighted>
1.6885

> <Gold.Chemscore.DEInternal.Weighted>
4.5574

> <Gold.Chemscore.Rot.Weighted>
4.7622

> <Gold.Chemscore.Internal.Correction.Weighted>
   9.000000E+99

> <Gold.Protein.RotatedTorsions>
[ 6907 6896 6895 6894 ] final    9.35 input  -60.11 | X-H torsion
[ 7974 7965 7964 7962 ] final    4.93 input  175.53 | X-H torsion
[ 8008 7997 7996 7995 ] final  160.47 input   59.86 | X-H torsion
[ 10167 10162 10161 10158 ] final  173.27 input  -65.29 | X-H torsion
[ 10718 10713 10712 10709 ] final    5.12 input   66.30 | X-H torsion
[ 10763 10752 10751 10750 ] final -118.00 input  -60.55 | X-H torsion
[ 11005 11000 10999 10996 ] final -174.70 input  -57.11 | X-H torsion

> <Gold.Protein.ActiveResidues>
 VAL166  LYS551  ARG553  GLY616  TRP617  ASP618  TYR619  PRO620  LYS621  CYS622 
 ASP623  PHE694  ASN695  SER759  ASP760  ASP761  ALA762  ILE779  LEU786  VAL792 
 PHE793  MET794  SER795  GLU796  ALA797  LYS798  CYS799  TRP800  GLU811  SER814 

> <Gold.Protein.RotatedAtoms>
  151.7208  135.0894  160.0283 H   0  0  0  0  0  0  0  0  0  0  0  0  # atno 6907 bound_to 6896
  152.3603  133.6284  159.6018 H   0  0  0  0  0  0  0  0  0  0  0  0  # atno 6908 bound_to 6896
  150.7600  133.9350  159.3480 H   0  0  0  0  0  0  0  0  0  0  0  0  # atno 6909 bound_to 6896
  146.2442  140.0460  142.8378 H   0  0  0  0  0  0  0  0  0  0  0  0  # atno 7974 bound_to 7965
  156.2170  140.1803  156.7566 H   0  0  0  0  0  0  0  0  0  0  0  0  # atno 8008 bound_to 7997
  154.5806  140.0667  156.9128 H   0  0  0  0  0  0  0  0  0  0  0  0  # atno 8009 bound_to 7997
  155.2508  140.3329  155.4285 H   0  0  0  0  0  0  0  0  0  0  0  0  # atno 8010 bound_to 7997
  139.5103  144.3279  152.0139 H   0  0  0  0  0  0  0  0  0  0  0  0  # atno 10167 bound_to 10162
  156.9026  130.5727  149.5648 H   0  0  0  0  0  0  0  0  0  0  0  0  # atno 10718 bound_to 10713
  154.8573  135.4289  154.2070 H   0  0  0  0  0  0  0  0  0  0  0  0  # atno 10763 bound_to 10752
  153.3104  135.6975  153.7127 H   0  0  0  0  0  0  0  0  0  0  0  0  # atno 10764 bound_to 10752
  153.6222  135.3500  155.2988 H   0  0  0  0  0  0  0  0  0  0  0  0  # atno 10765 bound_to 10752
  140.4715  134.6160  157.4884 H   0  0  0  0  0  0  0  0  0  0  0  0  # atno 11005 bound_to 11000
  145.1026  140.9355  143.4703 LP  0  0  0  0  0  0  0  0  0  0  0  0  # atno 17320 bound_to 7965
  145.0657  139.3071  143.5858 LP  0  0  0  0  0  0  0  0  0  0  0  0  # atno 17321 bound_to 7965
  140.2720  144.3954  150.6148 LP  0  0  0  0  0  0  0  0  0  0  0  0  # atno 17342 bound_to 10162
  140.6081  143.2168  151.6940 LP  0  0  0  0  0  0  0  0  0  0  0  0  # atno 17343 bound_to 10162
  156.0574  130.5633  150.9121 LP  0  0  0  0  0  0  0  0  0  0  0  0  # atno 17370 bound_to 10713
  157.6016  131.0941  150.8949 LP  0  0  0  0  0  0  0  0  0  0  0  0  # atno 17371 bound_to 10713
  139.9882  134.7028  155.9736 LP  0  0  0  0  0  0  0  0  0  0  0  0  # atno 17394 bound_to 11000
  141.1574  133.6541  156.4207 LP  0  0  0  0  0  0  0  0  0  0  0  0  # atno 17395 bound_to 11000

$$$$
