AV-unprocessed.smi:334|AV-procd|sdf|2366|dock8
  -GOLD-   2262022283D 1   1.00000     0.00000
 Structure written by MMmdl.
 44 46  0  0  0  0  0  0  0  0  3 V2000
  145.7494  135.6466  152.4895 C   0  0  0  0  0  0  0  0  0  0  0  0
  146.4552  134.4117  153.0741 C   0  0  2  0  0  0  0  0  0  0  0  0
  147.8307  134.7437  153.4273 N   0  0  0  0  0  0  0  0  0  0  0  0
  148.5161  134.2669  154.4798 C   0  0  0  0  0  0  0  0  0  0  0  0
  148.0098  133.5438  155.3367 O   0  0  0  0  0  0  0  0  0  0  0  0
  150.0073  134.6294  154.5864 C   0  0  0  0  0  0  0  0  0  0  0  0
  150.3030  135.7284  155.5248 N   0  0  0  0  0  0  0  0  0  0  0  0
  150.6764  136.9663  154.9651 C   0  0  0  0  0  0  0  0  0  0  0  0
  150.9892  138.0316  155.7283 C   0  0  0  0  0  0  0  0  0  0  0  0
  151.3841  139.2908  155.1365 N   0  3  0  0  0  0  0  0  0  0  0  0
  150.5515  139.9291  154.5007 O   0  0  0  0  0  0  0  0  0  0  0  0
  152.5369  139.6841  155.2881 O   0  5  0  0  0  0  0  0  0  0  0  0
  150.9266  137.8714  157.1680 C   0  0  0  0  0  0  0  0  0  0  0  0
  150.5751  136.6890  157.7098 C   0  0  0  0  0  0  0  0  0  0  0  0
  150.2445  135.5279  156.8776 C   0  0  0  0  0  0  0  0  0  0  0  0
  149.9439  134.4390  157.3665 O   0  0  0  0  0  0  0  0  0  0  0  0
  146.4585  133.2222  152.0853 C   0  0  2  0  0  0  0  0  0  0  0  0
  146.7970  133.5960  150.6251 C   0  0  0  0  0  0  0  0  0  0  0  0
  145.6553  132.9385  149.8270 C   0  0  2  0  0  0  0  0  0  0  0  0
  144.3597  133.7422  150.0448 C   0  0  0  0  0  0  0  0  0  0  0  0
  143.9743  133.3787  151.4901 C   0  0  0  0  0  0  0  0  0  0  0  0
  145.1246  132.4477  151.9242 C   0  0  1  0  0  0  0  0  0  0  0  0
  145.3831  131.6751  150.6353 C   0  0  0  0  0  0  0  0  0  0  0  0
  144.7131  135.4250  152.2342 H   0  0  0  0  0  0  0  0  0  0  0  0
  146.2469  135.9977  151.5849 H   0  0  0  0  0  0  0  0  0  0  0  0
  145.7384  136.4703  153.2040 H   0  0  0  0  0  0  0  0  0  0  0  0
  145.9223  134.1145  153.9788 H   0  0  0  0  0  0  0  0  0  0  0  0
  148.3258  135.3393  152.7798 H   0  0  0  0  0  0  0  0  0  0  0  0
  150.5517  133.7289  154.8728 H   0  0  0  0  0  0  0  0  0  0  0  0
  150.3777  134.8766  153.5899 H   0  0  0  0  0  0  0  0  0  0  0  0
  150.7008  136.9799  153.8847 H   0  0  0  0  0  0  0  0  0  0  0  0
  151.1605  138.6985  157.8222 H   0  0  0  0  0  0  0  0  0  0  0  0
  150.5358  136.5917  158.7849 H   0  0  0  0  0  0  0  0  0  0  0  0
  147.2036  132.5040  152.4331 H   0  0  0  0  0  0  0  0  0  0  0  0
  146.8387  134.6729  150.4565 H   0  0  0  0  0  0  0  0  0  0  0  0
  147.7641  133.1802  150.3398 H   0  0  0  0  0  0  0  0  0  0  0  0
  145.8951  132.7726  148.7765 H   0  0  0  0  0  0  0  0  0  0  0  0
  144.5108  134.8141  149.9122 H   0  0  0  0  0  0  0  0  0  0  0  0
  143.5814  133.4258  149.3494 H   0  0  0  0  0  0  0  0  0  0  0  0
  143.8590  134.2525  152.1304 H   0  0  0  0  0  0  0  0  0  0  0  0
  143.0254  132.8410  151.5052 H   0  0  0  0  0  0  0  0  0  0  0  0
  144.8760  131.8198  152.7805 H   0  0  0  0  0  0  0  0  0  0  0  0
  144.5154  131.1140  150.2837 H   0  0  0  0  0  0  0  0  0  0  0  0
  146.2424  131.0046  150.6942 H   0  0  0  0  0  0  0  0  0  0  0  0
  1  2  1  0  0  0  0
  1 24  1  0  0  0  0
  1 25  1  0  0  0  0
  1 26  1  0  0  0  0
  2  3  1  0  0  0  0
  2 17  1  0  0  0  0
  2 27  1  0  0  0  0
  3  4  1  0  0  0  0
  3 28  1  0  0  0  0
  4  5  2  0  0  0  0
  4  6  1  0  0  0  0
  6  7  1  0  0  0  0
  6 29  1  0  0  0  0
  6 30  1  0  0  0  0
  7 15  1  0  0  0  0
  7  8  1  0  0  0  0
  8  9  2  0  0  0  0
  8 31  1  0  0  0  0
  9 10  1  0  0  0  0
  9 13  1  0  0  0  0
 10 11  2  0  0  0  0
 10 12  1  0  0  0  0
 13 14  2  0  0  0  0
 13 32  1  0  0  0  0
 14 15  1  0  0  0  0
 14 33  1  0  0  0  0
 15 16  2  0  0  0  0
 17 22  1  0  0  0  0
 17 18  1  0  0  0  0
 17 34  1  0  0  0  0
 18 19  1  0  0  0  0
 18 35  1  0  0  0  0
 18 36  1  0  0  0  0
 19 23  1  0  0  0  0
 19 20  1  0  0  0  0
 19 37  1  0  0  0  0
 20 21  1  0  0  0  0
 20 38  1  0  0  0  0
 20 39  1  0  0  0  0
 21 22  1  0  0  0  0
 21 40  1  0  0  0  0
 21 41  1  0  0  0  0
 22 23  1  0  0  0  0
 22 42  1  0  0  0  0
 23 43  1  0  0  0  0
 23 44  1  0  0  0  0
M  CHG  1  10   1
M  CHG  1  12  -1
M  END
> <s_m_source_file>
AV-unprocessed.smi

> <i_m_source_file_index>
334

> <i_lp_mmshare_version>
43012

> <i_f3d_flags>
0

> <s_epik_input>
W0NIMl0xW0NIMl1bQ0BIXShbQ0gyXTIpW0NAQEhdKFtDSDJdW0NAQEhdMTIpW0NASF0oW0NIM10pW05IXUMoPU8pW0NIMl1uM1tjSF1jKFtOK10oPU8pW08tXSlbY0hdW2NIXWMzPU8=

> <s_epik_cmdline>
J2VwaWtfcHl0aG9uJywgJy1waCcsICc3LjAnLCAnLXRuJywgJzgnLCAnLW1hJywgJzIwMCcsICctbWV0YWxfYmluZGluZycsICctaW1hZScsICc8aW5maWxlLm1hZT4nLCAnLW9tYWUnLCAnPG91dGZpbGUubWFlPic=

> <r_lp_tautomer_probability>
1

> <r_epik_Ionization_Penalty>
2.17081e-08

> <r_epik_Ionization_Penalty_Charging>
8.1195e-11

> <r_epik_Ionization_Penalty_Neutral>
2.16269e-08

> <r_epik_State_Penalty>
-0

> <r_epik_Charging_Adjusted_Penalty>
8.1195e-11

> <i_epik_Tot_Q>
0

> <i_epik_Tot_abs_Q>
2

> <r_epik_Metal_State_Penalty>
-0

> <b_epik_Metal_Only>
0

> <s_lp_Force_Field>
OPLS_2005

> <r_lp_Energy>
61.6433

> <b_lp_Chiralities_Consistent>
1

> <s_lp_Variant>
AV-unprocessed.smi:334-5

> <Gold.Version>
5.8.1

> <Gold.Id.Protein>
6NUR|6NUR_protein|mol2

> <Gold.PLP.Fitness>
47.3751

> <Gold.PLP.PLP>
-37.5387

> <Gold.PLP.part.hbond>
-4.9493

> <Gold.PLP.part.metal>
0.0000

> <Gold.PLP.part.buried>
-5.8641

> <Gold.PLP.part.nonpolar>
-27.0774

> <Gold.PLP.part.repulsive>
0.1602

> <Gold.PLP.ligand.clash>
0.0000

> <Gold.PLP.ligand.torsion>
2.3469

> <Gold.PLP.Chemscore.Hbond>
3.8073

> <Gold.PLP.Chemscore.CHOScore>
1.0265

> <Gold.PLP.Chemscore.Metal>
0.0000

> <Gold.Chemscore.Hbonds>
donor molecule, donor type, donor heavy atom, donor atom, acceptor molecule, acceptor atom, score
      L1  H     3    28       P1  7948  0.68
      P1  H  6896  6909       L1    16  0.62
      P1  H  7989  7998       L1    11  0.95
      P1  H  7997  8008       L1    12  0.93
      L1  C     8    31       P1  7948  0.28
      L1  C     8    31       P1  7949  0.56

> <Gold.PLP.Chemscore.Internal.Correction>
0.0288

> <Gold.Rescore>
     Score         DG    S(hbond)    S(metal)    S(lipo)     H(rot)  DE(clash)    DE(int)     intcor
     18.60     -21.96       3.72        0.00      72.98       1.75       0.02       3.34       ----

> <Gold.Chemscore.Fitness>
18.6006

> <Gold.Chemscore.DG>
-21.9591

> <Gold.Chemscore.ZeroCoef>
-5.4800

> <Gold.Chemscore.Hbond>
3.7168

> <Gold.Chemscore.Metal>
0.0000

> <Gold.Chemscore.Lipo>
72.9752

> <Gold.Chemscore.Internal_Hbond>
0.0000

> <Gold.Chemscore.DEClash>
0.0154

> <Gold.Chemscore.DEInternal>
3.3430

> <Gold.Chemscore.Rot>
1.7474

> <Gold.Chemscore.Internal.Correction>
   9.000000E+99

> <Gold.Chemscore.Hbonds>
donor molecule, donor type, donor heavy atom, donor atom, acceptor molecule, acceptor atom, score
      L1  H     3    28       P1  7948  0.65
      P1  H  6896  6909       L1    16  0.59
      P1  H  7989  7998       L1    11  0.22
      P1  H  7997  8008       L1    12  0.89

> <Gold.Chemscore.Hbond.Weighted>
-12.4143

> <Gold.Chemscore.Metal.Weighted>
-0.0000

> <Gold.Chemscore.Lipo.Weighted>
-8.5381

> <Gold.Chemscore.Internal_Hbond.Weighted>
0.0000

> <Gold.Chemscore.DEClash.Weighted>
0.0154

> <Gold.Chemscore.DEInternal.Weighted>
3.3430

> <Gold.Chemscore.Rot.Weighted>
4.4733

> <Gold.Chemscore.Internal.Correction.Weighted>
   9.000000E+99

> <Gold.Protein.RotatedTorsions>
[ 6907 6896 6895 6894 ] final    6.68 input  -60.11 | X-H torsion
[ 7974 7965 7964 7962 ] final   59.25 input  175.53 | X-H torsion
[ 8008 7997 7996 7995 ] final  -18.70 input   59.86 | X-H torsion
[ 10167 10162 10161 10158 ] final  -35.87 input  -65.29 | X-H torsion
[ 10718 10713 10712 10709 ] final  119.61 input   66.30 | X-H torsion
[ 10763 10752 10751 10750 ] final  -32.97 input  -60.55 | X-H torsion
[ 11005 11000 10999 10996 ] final  164.66 input  -57.11 | X-H torsion

> <Gold.Protein.ActiveResidues>
 VAL166  LYS551  ARG553  GLY616  TRP617  ASP618  TYR619  PRO620  LYS621  CYS622 
 ASP623  PHE694  ASN695  SER759  ASP760  ASP761  ALA762  ILE779  LEU786  VAL792 
 PHE793  MET794  SER795  GLU796  ALA797  LYS798  CYS799  TRP800  GLU811  SER814 

> <Gold.Protein.RotatedAtoms>
  151.6777  135.0966  160.0209 H   0  0  0  0  0  0  0  0  0  0  0  0  # atno 6907 bound_to 6896
  152.3854  133.6600  159.6203 H   0  0  0  0  0  0  0  0  0  0  0  0  # atno 6908 bound_to 6896
  150.7781  133.8960  159.3368 H   0  0  0  0  0  0  0  0  0  0  0  0  # atno 6909 bound_to 6896
  145.9092  139.3641  143.0545 H   0  0  0  0  0  0  0  0  0  0  0  0  # atno 7974 bound_to 7965
  154.4888  140.2108  155.9596 H   0  0  0  0  0  0  0  0  0  0  0  0  # atno 8008 bound_to 7997
  156.1274  140.3203  155.8267 H   0  0  0  0  0  0  0  0  0  0  0  0  # atno 8009 bound_to 7997
  155.4358  140.0506  157.3005 H   0  0  0  0  0  0  0  0  0  0  0  0  # atno 8010 bound_to 7997
  140.7155  143.3447  151.2281 H   0  0  0  0  0  0  0  0  0  0  0  0  # atno 10167 bound_to 10162
  157.5949  131.1059  150.7920 H   0  0  0  0  0  0  0  0  0  0  0  0  # atno 10718 bound_to 10713
  153.8225  135.6873  153.4825 H   0  0  0  0  0  0  0  0  0  0  0  0  # atno 10763 bound_to 10752
  153.1560  135.4598  154.9704 H   0  0  0  0  0  0  0  0  0  0  0  0  # atno 10764 bound_to 10752
  154.7921  135.3305  154.7695 H   0  0  0  0  0  0  0  0  0  0  0  0  # atno 10765 bound_to 10752
  140.2482  134.7998  157.3476 H   0  0  0  0  0  0  0  0  0  0  0  0  # atno 11005 bound_to 11000
  145.8692  140.9430  143.0659 LP  0  0  0  0  0  0  0  0  0  0  0  0  # atno 17320 bound_to 7965
  144.6742  140.0633  143.7475 LP  0  0  0  0  0  0  0  0  0  0  0  0  # atno 17321 bound_to 7965
  139.6964  143.9606  152.2884 LP  0  0  0  0  0  0  0  0  0  0  0  0  # atno 17342 bound_to 10162
  139.9285  144.6756  150.8388 LP  0  0  0  0  0  0  0  0  0  0  0  0  # atno 17343 bound_to 10162
  156.8333  130.5023  149.5329 LP  0  0  0  0  0  0  0  0  0  0  0  0  # atno 17370 bound_to 10713
  156.1010  130.5969  150.9894 LP  0  0  0  0  0  0  0  0  0  0  0  0  # atno 17371 bound_to 10713
  140.1585  134.4759  155.7911 LP  0  0  0  0  0  0  0  0  0  0  0  0  # atno 17394 bound_to 11000
  141.2204  133.6891  156.7503 LP  0  0  0  0  0  0  0  0  0  0  0  0  # atno 17395 bound_to 11000

$$$$
