AV-unprocessed.smi:884|AV-procd|sdf|4043|dock10
  -GOLD-   22720 1533D 1   1.00000     0.00000
 Structure written by MMmdl.
 48 50  0  0  0  0  0  0  0  0  2 V2000
  150.0074  133.1591  157.5157 O   0  0  0  0  0  0  0  0  0  0  0  0
  148.8519  132.8383  157.2344 C   0  0  0  0  0  0  0  0  0  0  0  0
  148.3595  132.9590  155.9886 N   0  0  0  0  0  0  0  0  0  0  0  0
  149.0771  133.5009  154.8365 C   0  0  0  0  0  0  0  0  0  0  0  0
  149.1167  132.5208  153.6478 C   0  0  0  0  0  0  0  0  0  0  0  0
  147.9062  132.6057  152.7333 C   0  0  0  0  0  0  0  0  0  0  0  0
  147.0763  131.4914  152.4848 C   0  0  0  0  0  0  0  0  0  0  0  0
  145.9797  131.6304  151.6086 C   0  0  0  0  0  0  0  0  0  0  0  0
  145.7334  132.8803  151.0037 C   0  0  0  0  0  0  0  0  0  0  0  0
  146.5952  133.9598  151.2855 C   0  0  0  0  0  0  0  0  0  0  0  0
  147.6405  133.7843  152.1234 N   0  3  0  0  0  0  0  0  0  0  0  0
  147.9787  132.3392  158.1468 N   0  0  0  0  0  0  0  0  0  0  0  0
  146.5473  132.0852  157.9241 C   0  0  0  0  0  0  0  0  0  0  0  0
  145.7418  133.2458  158.5216 C   0  0  0  0  0  0  0  0  0  0  0  0
  145.9821  133.3410  160.3220 S   0  0  0  0  0  0  0  0  0  0  0  0
  147.8100  133.2888  160.4631 C   0  0  0  0  0  0  0  0  0  0  0  0
  148.4260  134.6583  160.0719 C   0  0  0  0  0  0  0  0  0  0  0  0
  148.0858  135.7901  161.0575 C   0  0  0  0  0  0  0  0  0  0  0  0
  148.4980  135.4237  162.4888 C   0  0  0  0  0  0  0  0  0  0  0  0
  147.8602  134.0963  162.9186 C   0  0  0  0  0  0  0  0  0  0  0  0
  148.1987  132.9667  161.9280 C   0  0  0  0  0  0  0  0  0  0  0  0
  148.3489  132.1468  159.5572 C   0  0  0  0  0  0  0  0  0  0  0  0
  147.4094  132.6561  155.8297 H   0  0  0  0  0  0  0  0  0  0  0  0
  148.6357  134.4459  154.5166 H   0  0  0  0  0  0  0  0  0  0  0  0
  150.0946  133.7381  155.1480 H   0  0  0  0  0  0  0  0  0  0  0  0
  150.0160  132.6983  153.0569 H   0  0  0  0  0  0  0  0  0  0  0  0
  149.2015  131.5001  154.0238 H   0  0  0  0  0  0  0  0  0  0  0  0
  147.2813  130.5397  152.9531 H   0  0  0  0  0  0  0  0  0  0  0  0
  145.3355  130.7880  151.4029 H   0  0  0  0  0  0  0  0  0  0  0  0
  144.8992  133.0071  150.3292 H   0  0  0  0  0  0  0  0  0  0  0  0
  146.4865  134.9475  150.8619 H   0  0  0  0  0  0  0  0  0  0  0  0
  146.2871  131.9562  156.8736 H   0  0  0  0  0  0  0  0  0  0  0  0
  146.2570  131.1472  158.3998 H   0  0  0  0  0  0  0  0  0  0  0  0
  146.0343  134.1921  158.0659 H   0  0  0  0  0  0  0  0  0  0  0  0
  144.6787  133.1120  158.3209 H   0  0  0  0  0  0  0  0  0  0  0  0
  149.5110  134.5612  160.0178 H   0  0  0  0  0  0  0  0  0  0  0  0
  148.1038  134.9502  159.0749 H   0  0  0  0  0  0  0  0  0  0  0  0
  148.5909  136.7073  160.7536 H   0  0  0  0  0  0  0  0  0  0  0  0
  147.0174  136.0062  161.0258 H   0  0  0  0  0  0  0  0  0  0  0  0
  149.5841  135.3441  162.5483 H   0  0  0  0  0  0  0  0  0  0  0  0
  148.2065  136.2177  163.1768 H   0  0  0  0  0  0  0  0  0  0  0  0
  148.2087  133.8270  163.9159 H   0  0  0  0  0  0  0  0  0  0  0  0
  146.7794  134.2162  162.9974 H   0  0  0  0  0  0  0  0  0  0  0  0
  147.7126  132.0448  162.2499 H   0  0  0  0  0  0  0  0  0  0  0  0
  149.2710  132.7733  161.9832 H   0  0  0  0  0  0  0  0  0  0  0  0
  147.9577  131.1873  159.8991 H   0  0  0  0  0  0  0  0  0  0  0  0
  149.4304  132.0578  159.6723 H   0  0  0  0  0  0  0  0  0  0  0  0
  148.2542  134.5778  152.3089 H   0  0  0  0  0  0  0  0  0  0  0  0
  1  2  2  0  0  0  0
  2  3  1  0  0  0  0
  2 12  1  0  0  0  0
  3  4  1  0  0  0  0
  3 23  1  0  0  0  0
  4  5  1  0  0  0  0
  4 24  1  0  0  0  0
  4 25  1  0  0  0  0
  5  6  1  0  0  0  0
  5 26  1  0  0  0  0
  5 27  1  0  0  0  0
  6 11  1  0  0  0  0
  6  7  2  0  0  0  0
  7  8  1  0  0  0  0
  7 28  1  0  0  0  0
  8  9  2  0  0  0  0
  8 29  1  0  0  0  0
  9 10  1  0  0  0  0
  9 30  1  0  0  0  0
 10 11  2  0  0  0  0
 10 31  1  0  0  0  0
 11 48  1  0  0  0  0
 12 22  1  0  0  0  0
 12 13  1  0  0  0  0
 13 14  1  0  0  0  0
 13 32  1  0  0  0  0
 13 33  1  0  0  0  0
 14 15  1  0  0  0  0
 14 34  1  0  0  0  0
 14 35  1  0  0  0  0
 15 16  1  0  0  0  0
 16 21  1  0  0  0  0
 16 17  1  0  0  0  0
 16 22  1  0  0  0  0
 17 18  1  0  0  0  0
 17 36  1  0  0  0  0
 17 37  1  0  0  0  0
 18 19  1  0  0  0  0
 18 38  1  0  0  0  0
 18 39  1  0  0  0  0
 19 20  1  0  0  0  0
 19 40  1  0  0  0  0
 19 41  1  0  0  0  0
 20 21  1  0  0  0  0
 20 42  1  0  0  0  0
 20 43  1  0  0  0  0
 21 44  1  0  0  0  0
 21 45  1  0  0  0  0
 22 46  1  0  0  0  0
 22 47  1  0  0  0  0
M  CHG  1  11   1
M  END
> <s_m_source_file>
AV-unprocessed.smi

> <i_m_source_file_index>
884

> <i_lp_mmshare_version>
43012

> <i_f3d_flags>
0

> <s_epik_input>
bjFbY0hdW2NIXVtjSF1bY0hdYzFbQ0gyXVtDSDJdW05IXUMoPU8pTihbQ0gyXTIpW0NIMl1bQ0gyXVNDMjNbQ0gyXVtDSDJdW0NIMl1bQ0gyXVtDSDJdMw==

> <s_epik_cmdline>
J2VwaWtfcHl0aG9uJywgJy1waCcsICc3LjAnLCAnLXRuJywgJzgnLCAnLW1hJywgJzIwMCcsICctbWV0YWxfYmluZGluZycsICctaW1hZScsICc8aW5maWxlLm1hZT4nLCAnLW9tYWUnLCAnPG91dGZpbGUubWFlPic=

> <r_epik_Ionization_Penalty>
1.55139

> <r_epik_Ionization_Penalty_Charging>
1.55135

> <r_epik_Ionization_Penalty_Neutral>
4.66963e-05

> <r_epik_State_Penalty>
1.64559

> <r_epik_Charging_Adjusted_Penalty>
3.19693

> <i_epik_Tot_Q>
1

> <i_epik_Tot_abs_Q>
1

> <r_epik_Metal_State_Penalty>
1.68773

> <b_epik_Metal_Only>
0

> <s_lp_Force_Field>
OPLS_2005

> <r_lp_Energy>
36.5944

> <b_lp_Chiralities_Consistent>
1

> <s_lp_Variant>
AV-unprocessed.smi:884-2

> <Gold.Version>
5.8.1

> <Gold.Id.Protein>
6NUR|6NUR_protein|mol2

> <Gold.PLP.Fitness>
45.5204

> <Gold.PLP.PLP>
-36.8482

> <Gold.PLP.part.hbond>
-2.0000

> <Gold.PLP.part.metal>
0.0000

> <Gold.PLP.part.buried>
-3.7465

> <Gold.PLP.part.nonpolar>
-30.7264

> <Gold.PLP.part.repulsive>
0.0283

> <Gold.PLP.ligand.clash>
0.0000

> <Gold.PLP.ligand.torsion>
0.1755

> <Gold.PLP.Chemscore.Hbond>
3.0000

> <Gold.PLP.Chemscore.CHOScore>
0.0000

> <Gold.PLP.Chemscore.Metal>
0.0000

> <Gold.Chemscore.Hbonds>
donor molecule, donor type, donor heavy atom, donor atom, acceptor molecule, acceptor atom, score
      L1  H    11    48       P1  7948  1.70
      P1  H  6896  6908       L1     1  1.00

> <Gold.PLP.Chemscore.Internal.Correction>
0.0233

> <Gold.Rescore>
     Score         DG    S(hbond)    S(metal)    S(lipo)     H(rot)  DE(clash)    DE(int)     intcor
     19.35     -19.51       1.86        0.00      95.08       1.30       0.00       0.17       ----

> <Gold.Chemscore.Fitness>
19.3486

> <Gold.Chemscore.DG>
-19.5148

> <Gold.Chemscore.ZeroCoef>
-5.4800

> <Gold.Chemscore.Hbond>
1.8642

> <Gold.Chemscore.Metal>
0.0000

> <Gold.Chemscore.Lipo>
95.0793

> <Gold.Chemscore.Internal_Hbond>
0.0000

> <Gold.Chemscore.DEClash>
0.0000

> <Gold.Chemscore.DEInternal>
0.1662

> <Gold.Chemscore.Rot>
1.2953

> <Gold.Chemscore.Internal.Correction>
   9.000000E+99

> <Gold.Chemscore.Hbonds>
donor molecule, donor type, donor heavy atom, donor atom, acceptor molecule, acceptor atom, score
      L1  H    11    48       P1  7948  0.14
      P1  H  6896  6908       L1     1  0.97

> <Gold.Chemscore.Hbond.Weighted>
-6.2264

> <Gold.Chemscore.Metal.Weighted>
-0.0000

> <Gold.Chemscore.Lipo.Weighted>
-11.1243

> <Gold.Chemscore.Internal_Hbond.Weighted>
0.0000

> <Gold.Chemscore.DEClash.Weighted>
0.0000

> <Gold.Chemscore.DEInternal.Weighted>
0.1662

> <Gold.Chemscore.Rot.Weighted>
3.3159

> <Gold.Chemscore.Internal.Correction.Weighted>
   9.000000E+99

> <Gold.Protein.RotatedTorsions>
[ 6907 6896 6895 6894 ] final  104.99 input  -60.11 | X-H torsion
[ 7974 7965 7964 7962 ] final   20.75 input  175.53 | X-H torsion
[ 8008 7997 7996 7995 ] final -152.34 input   59.86 | X-H torsion
[ 10167 10162 10161 10158 ] final   65.77 input  -65.29 | X-H torsion
[ 10718 10713 10712 10709 ] final  -30.05 input   66.30 | X-H torsion
[ 10763 10752 10751 10750 ] final   96.41 input  -60.55 | X-H torsion
[ 11005 11000 10999 10996 ] final -121.31 input  -57.11 | X-H torsion

> <Gold.Protein.ActiveResidues>
 VAL166  LYS551  ARG553  GLY616  TRP617  ASP618  TYR619  PRO620  LYS621  CYS622 
 ASP623  PHE694  ASN695  SER759  ASP760  ASP761  ALA762  ILE779  LEU786  VAL792 
 PHE793  MET794  SER795  GLU796  ALA797  LYS798  CYS799  TRP800  GLU811  SER814 

> <Gold.Protein.RotatedAtoms>
  152.5246  133.9595  159.7710 H   0  0  0  0  0  0  0  0  0  0  0  0  # atno 6907 bound_to 6896
  150.9889  133.6162  159.2718 H   0  0  0  0  0  0  0  0  0  0  0  0  # atno 6908 bound_to 6896
  151.3312  135.0848  159.9392 H   0  0  0  0  0  0  0  0  0  0  0  0  # atno 6909 bound_to 6896
  146.2099  139.8125  142.8697 H   0  0  0  0  0  0  0  0  0  0  0  0  # atno 7974 bound_to 7965
  155.6536  140.0715  157.2578 H   0  0  0  0  0  0  0  0  0  0  0  0  # atno 8008 bound_to 7997
  154.4157  140.1729  156.1751 H   0  0  0  0  0  0  0  0  0  0  0  0  # atno 8009 bound_to 7997
  155.9756  140.3358  155.6619 H   0  0  0  0  0  0  0  0  0  0  0  0  # atno 8010 bound_to 7997
  140.1077  144.4847  150.6997 H   0  0  0  0  0  0  0  0  0  0  0  0  # atno 10167 bound_to 10162
  156.4047  130.4397  149.7296 H   0  0  0  0  0  0  0  0  0  0  0  0  # atno 10718 bound_to 10713
  153.2646  135.4219  155.0928 H   0  0  0  0  0  0  0  0  0  0  0  0  # atno 10763 bound_to 10752
  154.8433  135.3457  154.6329 H   0  0  0  0  0  0  0  0  0  0  0  0  # atno 10764 bound_to 10752
  153.6749  135.7042  153.5193 H   0  0  0  0  0  0  0  0  0  0  0  0  # atno 10765 bound_to 10752
  141.0079  134.0307  157.3452 H   0  0  0  0  0  0  0  0  0  0  0  0  # atno 11005 bound_to 11000
  145.3181  141.0237  143.3516 LP  0  0  0  0  0  0  0  0  0  0  0  0  # atno 17320 bound_to 7965
  144.8887  139.4804  143.6688 LP  0  0  0  0  0  0  0  0  0  0  0  0  # atno 17321 bound_to 7965
  140.6943  143.2394  151.5044 LP  0  0  0  0  0  0  0  0  0  0  0  0  # atno 17342 bound_to 10162
  139.5636  144.2096  152.1730 LP  0  0  0  0  0  0  0  0  0  0  0  0  # atno 17343 bound_to 10162
  156.4298  130.7810  151.2829 LP  0  0  0  0  0  0  0  0  0  0  0  0  # atno 17370 bound_to 10713
  157.7505  131.0157  150.3516 LP  0  0  0  0  0  0  0  0  0  0  0  0  # atno 17371 bound_to 10713
  139.9074  135.0182  156.7544 LP  0  0  0  0  0  0  0  0  0  0  0  0  # atno 17394 bound_to 11000
  140.6781  133.9499  155.7895 LP  0  0  0  0  0  0  0  0  0  0  0  0  # atno 17395 bound_to 11000

$$$$
