AV-unprocessed.smi:72|AV-procd|sdf|724|dock5
  -GOLD-   2262017 53D 1   1.00000     0.00000
 Structure written by MMmdl.
 28 29  0  0  0  0  0  0  0  0  2 V2000
  151.7856  142.8901  159.8701 N   0  0  0  0  0  0  0  0  0  0  0  0
  151.5376  142.2643  158.8045 C   0  0  0  0  0  0  0  0  0  0  0  0
  150.4624  142.6983  157.9402 N   0  0  0  0  0  0  0  0  0  0  0  0
  150.2689  142.0408  156.8384 C   0  0  0  0  0  0  0  0  0  0  0  0
  151.1085  140.9099  156.4562 N   0  0  0  0  0  0  0  0  0  0  0  0
  150.8974  140.1281  155.1672 C   0  0  1  0  0  0  0  0  0  0  0  0
  150.9626  138.7538  155.4238 O   0  0  0  0  0  0  0  0  0  0  0  0
  149.6470  138.2234  155.5569 C   0  0  2  0  0  0  0  0  0  0  0  0
  149.6468  136.6919  155.4114 C   0  0  0  0  0  0  0  0  0  0  0  0
  148.4839  136.2749  154.7286 O   0  0  0  0  0  0  0  0  0  0  0  0
  148.8845  138.9967  154.4771 C   0  0  2  0  0  0  0  0  0  0  0  0
  149.0929  138.4082  153.2032 O   0  0  0  0  0  0  0  0  0  0  0  0
  149.4910  140.3958  154.5860 C   0  0  2  0  0  0  0  0  0  0  0  0
  149.5150  141.0736  153.3434 O   0  0  0  0  0  0  0  0  0  0  0  0
  152.1246  140.4786  157.3517 C   0  0  0  0  0  0  0  0  0  0  0  0
  152.7898  139.4899  157.0417 O   0  0  0  0  0  0  0  0  0  0  0  0
  152.3196  141.1708  158.5085 N   0  5  0  0  0  0  0  0  0  0  0  0
  151.7237  140.4175  154.5156 H   0  0  0  0  0  0  0  0  0  0  0  0
  149.2359  138.5053  156.5283 H   0  0  0  0  0  0  0  0  0  0  0  0
  147.8116  139.0105  154.6715 H   0  0  0  0  0  0  0  0  0  0  0  0
  148.9097  140.9812  155.3004 H   0  0  0  0  0  0  0  0  0  0  0  0
  151.1652  143.6748  160.0061 H   0  0  0  0  0  0  0  0  0  0  0  0
  149.4703  142.2982  156.1430 H   0  0  0  0  0  0  0  0  0  0  0  0
  150.5056  136.3703  154.8216 H   0  0  0  0  0  0  0  0  0  0  0  0
  149.7122  136.1976  156.3810 H   0  0  0  0  0  0  0  0  0  0  0  0
  148.7252  136.0443  153.8443 H   0  0  0  0  0  0  0  0  0  0  0  0
  149.4537  139.0682  152.6304 H   0  0  0  0  0  0  0  0  0  0  0  0
  149.4621  140.4273  152.6548 H   0  0  0  0  0  0  0  0  0  0  0  0
  1  2  2  0  0  0  0
  1 22  1  0  0  0  0
  2 17  1  0  0  0  0
  2  3  1  0  0  0  0
  3  4  2  0  0  0  0
  4  5  1  0  0  0  0
  4 23  1  0  0  0  0
  5  6  1  0  0  0  0
  5 15  1  0  0  0  0
  6 18  1  0  0  0  0
  6 13  1  0  0  0  0
  6  7  1  0  0  0  0
  7  8  1  0  0  0  0
  8 19  1  0  0  0  0
  8  9  1  0  0  0  0
  8 11  1  0  0  0  0
  9 10  1  0  0  0  0
  9 24  1  0  0  0  0
  9 25  1  0  0  0  0
 10 26  1  0  0  0  0
 11 20  1  0  0  0  0
 11 12  1  0  0  0  0
 11 13  1  0  0  0  0
 12 27  1  0  0  0  0
 13 21  1  0  0  0  0
 13 14  1  0  0  0  0
 14 28  1  0  0  0  0
 15 16  2  0  0  0  0
 15 17  1  0  0  0  0
M  CHG  1  17  -1
M  END
> <s_m_source_file>
AV-unprocessed.smi

> <i_m_source_file_index>
72

> <i_lp_mmshare_version>
43012

> <i_f3d_flags>
0

> <s_epik_input>
W05IMl1jMW5bY0hdbihjKD1PKW4xKVtDQEBIXTJPW0NASF0oW0NIMl1bT0hdKVtDQEBIXShbT0hdKVtDQEhdMltPSF0=

> <s_epik_cmdline>
J2VwaWtfcHl0aG9uJywgJy1waCcsICc3LjAnLCAnLXRuJywgJzgnLCAnLW1hJywgJzIwMCcsICctbWV0YWxfYmluZGluZycsICctaW1hZScsICc8aW5maWxlLm1hZT4nLCAnLW9tYWUnLCAnPG91dGZpbGUubWFlPic=

> <r_lp_tautomer_probability>
7.17554e-07

> <r_epik_Ionization_Penalty>
12.8705

> <r_epik_Ionization_Penalty_Charging>
5.64144

> <r_epik_Ionization_Penalty_Neutral>
7.22905

> <r_epik_State_Penalty>
3.30104

> <r_epik_Charging_Adjusted_Penalty>
8.94249

> <i_epik_Tot_Q>
-1

> <i_epik_Tot_abs_Q>
1

> <r_epik_Metal_State_Penalty>
0.529074

> <b_epik_Metal_Only>
1

> <s_epik_Chemistry_Notes>
This compound contains an acetal/aminal-like group ( X-CH(R)-Y where X, Y are N, S, or O) that may be acid/base labile, releasing an aldehyde.

> <s_lp_Force_Field>
OPLS_2005

> <r_lp_Energy>
35.695

> <b_lp_Chiralities_Consistent>
1

> <s_lp_Variant>
AV-unprocessed.smi:72-62

> <Gold.Version>
5.8.1

> <Gold.Id.Protein>
6NUR|6NUR_protein|mol2

> <Gold.PLP.Fitness>
40.5346

> <Gold.PLP.PLP>
-25.5387

> <Gold.PLP.part.hbond>
-6.6275

> <Gold.PLP.part.metal>
0.0000

> <Gold.PLP.part.buried>
-3.1570

> <Gold.PLP.part.nonpolar>
-15.4530

> <Gold.PLP.part.repulsive>
0.1576

> <Gold.PLP.ligand.clash>
0.0000

> <Gold.PLP.ligand.torsion>
0.9278

> <Gold.PLP.Chemscore.Hbond>
4.8294

> <Gold.PLP.Chemscore.CHOScore>
0.7805

> <Gold.PLP.Chemscore.Metal>
0.0000

> <Gold.Chemscore.Hbonds>
donor molecule, donor type, donor heavy atom, donor atom, acceptor molecule, acceptor atom, score
      L1  H    10    26       P1  7948  1.00
      L1  H    12    27       P1  7957  1.00
      L1  H    14    28       P1  7957  0.99
      P1  H  7989  7998       L1    14  0.03
      P1  H  7997  8008       L1    16  1.00
      P1  H  8011  8017       L1    14  0.80
      L1  C     4    23       P1  8028  0.81

> <Gold.PLP.Chemscore.Internal.Correction>
0.0217

> <Gold.Rescore>
     Score         DG    S(hbond)    S(metal)    S(lipo)     H(rot)  DE(clash)    DE(int)     intcor
      8.35     -10.47       3.93        0.00      18.70       4.04       0.04       2.07       ----

> <Gold.Chemscore.Fitness>
8.3532

> <Gold.Chemscore.DG>
-10.4652

> <Gold.Chemscore.ZeroCoef>
-5.4800

> <Gold.Chemscore.Hbond>
3.9341

> <Gold.Chemscore.Metal>
0.0000

> <Gold.Chemscore.Lipo>
18.7044

> <Gold.Chemscore.Internal_Hbond>
0.0000

> <Gold.Chemscore.DEClash>
0.0402

> <Gold.Chemscore.DEInternal>
2.0718

> <Gold.Chemscore.Rot>
4.0403

> <Gold.Chemscore.Internal.Correction>
   9.000000E+99

> <Gold.Chemscore.Hbonds>
donor molecule, donor type, donor heavy atom, donor atom, acceptor molecule, acceptor atom, score
      L1  H    10    26       P1  7948  0.96
      L1  H    12    27       P1  7957  0.95
      L1  H    14    28       P1  7957  0.89
      P1  H  7997  8008       L1    16  0.55
      P1  H  8011  8017       L1    14  0.12

> <Gold.Chemscore.Hbond.Weighted>
-13.1399

> <Gold.Chemscore.Metal.Weighted>
-0.0000

> <Gold.Chemscore.Lipo.Weighted>
-2.1884

> <Gold.Chemscore.Internal_Hbond.Weighted>
0.0000

> <Gold.Chemscore.DEClash.Weighted>
0.0402

> <Gold.Chemscore.DEInternal.Weighted>
2.0718

> <Gold.Chemscore.Rot.Weighted>
10.3431

> <Gold.Chemscore.Internal.Correction.Weighted>
   9.000000E+99

> <Gold.Protein.RotatedTorsions>
[ 6907 6896 6895 6894 ] final  -78.67 input  -60.11 | X-H torsion
[ 7974 7965 7964 7962 ] final   14.74 input  175.53 | X-H torsion
[ 8008 7997 7996 7995 ] final  -72.64 input   59.86 | X-H torsion
[ 10167 10162 10161 10158 ] final   92.32 input  -65.29 | X-H torsion
[ 10718 10713 10712 10709 ] final   43.27 input   66.30 | X-H torsion
[ 10763 10752 10751 10750 ] final -162.37 input  -60.55 | X-H torsion
[ 11005 11000 10999 10996 ] final -150.35 input  -57.11 | X-H torsion

> <Gold.Protein.ActiveResidues>
 VAL166  LYS551  ARG553  GLY616  TRP617  ASP618  TYR619  PRO620  LYS621  CYS622 
 ASP623  PHE694  ASN695  SER759  ASP760  ASP761  ALA762  ILE779  LEU786  VAL792 
 PHE793  MET794  SER795  GLU796  ALA797  LYS798  CYS799  TRP800  GLU811  SER814 

> <Gold.Protein.RotatedAtoms>
  150.6967  134.4238  159.5216 H   0  0  0  0  0  0  0  0  0  0  0  0  # atno 6907 bound_to 6896
  152.1976  134.8614  160.0520 H   0  0  0  0  0  0  0  0  0  0  0  0  # atno 6908 bound_to 6896
  151.9546  133.3641  159.4049 H   0  0  0  0  0  0  0  0  0  0  0  0  # atno 6909 bound_to 6896
  146.2297  139.8996  142.8541 H   0  0  0  0  0  0  0  0  0  0  0  0  # atno 7974 bound_to 7965
  154.5183  140.0793  156.8123 H   0  0  0  0  0  0  0  0  0  0  0  0  # atno 8008 bound_to 7997
  155.3632  140.3419  155.4223 H   0  0  0  0  0  0  0  0  0  0  0  0  # atno 8009 bound_to 7997
  156.1652  140.1601  156.8530 H   0  0  0  0  0  0  0  0  0  0  0  0  # atno 8010 bound_to 7997
  139.8289  144.6697  150.9425 H   0  0  0  0  0  0  0  0  0  0  0  0  # atno 10167 bound_to 10162
  157.4141  130.7931  149.7456 H   0  0  0  0  0  0  0  0  0  0  0  0  # atno 10718 bound_to 10713
  154.7220  135.3028  154.9032 H   0  0  0  0  0  0  0  0  0  0  0  0  # atno 10763 bound_to 10752
  153.9901  135.6720  153.4758 H   0  0  0  0  0  0  0  0  0  0  0  0  # atno 10764 bound_to 10752
  153.0842  135.4993  154.8482 H   0  0  0  0  0  0  0  0  0  0  0  0  # atno 10765 bound_to 10752
  140.7411  134.3513  157.5147 H   0  0  0  0  0  0  0  0  0  0  0  0  # atno 11005 bound_to 11000
  145.2336  140.9982  143.3976 LP  0  0  0  0  0  0  0  0  0  0  0  0  # atno 17320 bound_to 7965
  144.9510  139.4083  143.6402 LP  0  0  0  0  0  0  0  0  0  0  0  0  # atno 17321 bound_to 7965
  140.7808  143.4020  151.1133 LP  0  0  0  0  0  0  0  0  0  0  0  0  # atno 17342 bound_to 10162
  139.7675  143.8543  152.3114 LP  0  0  0  0  0  0  0  0  0  0  0  0  # atno 17343 bound_to 10162
  155.9860  130.3979  150.3236 LP  0  0  0  0  0  0  0  0  0  0  0  0  # atno 17370 bound_to 10713
  157.1377  131.0288  151.2941 LP  0  0  0  0  0  0  0  0  0  0  0  0  # atno 17371 bound_to 10713
  139.8806  134.9081  156.2960 LP  0  0  0  0  0  0  0  0  0  0  0  0  # atno 17394 bound_to 11000
  140.9836  133.7252  156.0708 LP  0  0  0  0  0  0  0  0  0  0  0  0  # atno 17395 bound_to 11000

$$$$
