#       Name:                AV-unprocessed.smi:2216
#       Creating user name   scv26
#       Creation time:       Fri Mar 27 12:18:20 2020


#       File generated by GOLD software.
#

@<TRIPOS>MOLECULE
AV-unprocessed.smi:2216
    47    48     1
SMALL
NO_CHARGES


@<TRIPOS>ATOM
      1 ****        -4.4081   4.4050  -0.0395 C.3            1 S1                 0.0000
      2 ****        -4.5141   2.9478   0.3740 C.2            1 S1                 0.0000
      3 ****        -3.4159   2.1786   0.5588 C.2            1 S1                 0.0000
      4 ****        -3.5175   0.7809   0.9667 C.2            1 S1                 0.0000
      5 ****        -2.4368  -0.0858   1.1830 N.am           1 S1                 0.0000
      6 ****        -1.1274   0.1129   0.9453 C.2            1 S1                 0.0000
      7 ****        -0.6287   1.1181   0.4406 O.2            1 S1                 0.0000
      8 ****        -0.4064  -0.9522   1.3244 N.am           1 S1                 0.0000
      9 ****         1.0415  -1.0746   1.1962 C.3            1 S1                 0.0000
     10 ****         1.4470  -1.5175  -0.2202 C.3            1 S1                 0.0000
     11 ****         2.9637  -1.7111  -0.3761 C.3            1 S1                 0.0000
     12 ****         3.3308  -2.2820  -1.7599 C.3            1 S1                 0.0000
     13 ****         4.8521  -2.3935  -1.9110 C.3            1 S1                 0.0000
     14 ****         5.5013  -1.0412  -1.5994 C.3            1 S1                 0.0000
     15 ****         5.0261  -0.5237  -0.2324 C.3            1 S1                 0.0000
     16 ****         3.6038  -0.4469  -0.2100 O.3            1 S1                 0.0000
     17 ****        -4.7566   0.2984   1.1647 C.2            1 S1                 0.0000
     18 ****        -5.8912   1.0903   0.9734 N.am           1 S1                 0.0000
     19 ****        -5.8579   2.3846   0.5833 C.2            1 S1                 0.0000
     20 ****        -6.9020   3.0157   0.4277 O.2            1 S1                 0.0000
     21 ****        -6.7878   0.6547   1.1350 H              1 S1                 0.0000
     22 ****        -3.3691   4.7076  -0.1740 H              1 S1                 0.0000
     23 ****        -4.8509   5.0495   0.7206 H              1 S1                 0.0000
     24 ****        -4.9318   4.5735  -0.9811 H              1 S1                 0.0000
     25 ****        -2.4550   2.6424   0.4079 H              1 S1                 0.0000
     26 ****        -2.6876  -0.9837   1.5700 H              1 S1                 0.0000
     27 ****        -0.8939  -1.7375   1.7300 H              1 S1                 0.0000
     28 ****         1.5220  -0.1303   1.4576 H              1 S1                 0.0000
     29 ****         1.3837  -1.8082   1.9265 H              1 S1                 0.0000
     30 ****         0.9419  -2.4555  -0.4545 H              1 S1                 0.0000
     31 ****         1.0968  -0.7894  -0.9532 H              1 S1                 0.0000
     32 ****         3.3122  -2.3949   0.4001 H              1 S1                 0.0000
     33 ****         2.8706  -3.2605  -1.9013 H              1 S1                 0.0000
     34 ****         2.9342  -1.6337  -2.5425 H              1 S1                 0.0000
     35 ****         5.2349  -3.1517  -1.2266 H              1 S1                 0.0000
     36 ****         5.1123  -2.7187  -2.9186 H              1 S1                 0.0000
     37 ****         6.5878  -1.1314  -1.6138 H              1 S1                 0.0000
     38 ****         5.2364  -0.3200  -2.3735 H              1 S1                 0.0000
     39 ****         5.3785  -1.1703   0.5727 H              1 S1                 0.0000
     40 ****         5.4356   0.4690  -0.0446 H              1 S1                 0.0000
     41 ****        -4.9753  -0.7136   1.4731 H              1 S1                 0.0000
     42 ****        -1.2126   1.8822   0.1666 LP             1 S1                 0.0000
     43 ****         0.3606   1.1709   0.3044 LP             1 S1                 0.0000
     44 ****         3.3213  -0.0619   0.6686 LP             1 S1                 0.0000
     45 ****         3.3076   0.1576  -0.9495 LP             1 S1                 0.0000
     46 ****        -6.8695   3.9733   0.1416 LP             1 S1                 0.0000
     47 ****        -7.7834   2.5712   0.5874 LP             1 S1                 0.0000
@<TRIPOS>BOND
    1    1    2 1     
    2    1   22 1     
    3    1   23 1     
    4    1   24 1     
    5    2   19 1     
    6    2    3 2     
    7    3    4 1     
    8    3   25 1     
    9    4    5 1     
   10    4   17 2     
   11    5    6 am    
   12    5   26 1     
   13    6    7 2     
   14    6    8 am    
   15    8    9 1     
   16    8   27 1     
   17    9   10 1     
   18    9   28 1     
   19    9   29 1     
   20   10   11 1     
   21   10   30 1     
   22   10   31 1     
   23   11   16 1     
   24   11   12 1     
   25   11   32 1     
   26   12   13 1     
   27   12   33 1     
   28   12   34 1     
   29   13   14 1     
   30   13   35 1     
   31   13   36 1     
   32   14   15 1     
   33   14   37 1     
   34   14   38 1     
   35   15   16 1     
   36   15   39 1     
   37   15   40 1     
   38   17   18 1     
   39   17   41 1     
   40   18   21 1     
   41   18   19 am    
   42   19   20 2     
   43    7   42 1     
   44    7   43 1     
   45   16   44 1     
   46   16   45 1     
   47   20   46 1     
   48   20   47 1     
@<TRIPOS>SUBSTRUCTURE
      1 S1             1
@<TRIPOS>SET
LONE_PAIRS      STATIC     ATOMS    <user>   **** ""
6 42 43 44 45 46 47
DONOR_HYDROGENS      STATIC     ATOMS    <user>   **** ""
3 26 27 21
ATOM$BLUE        STATIC     ATOMS    COLORGROUP SYSTEM
6 42 43 44 45 46 47
ATOM$RED        STATIC     ATOMS    COLORGROUP SYSTEM
3 26 27 21
