#       Name:                AV-unprocessed.smi:2203
#       Creating user name   scv26
#       Creation time:       Fri Mar 27 12:15:11 2020


#       File generated by GOLD software.
#

@<TRIPOS>MOLECULE
AV-unprocessed.smi:2203
    53    54     1
SMALL
NO_CHARGES


@<TRIPOS>ATOM
      1 ****        -0.6438   2.0920  -0.8202 C.3            1 S1                 0.0000
      2 ****         0.5748   1.2139  -0.8118 C.2            1 S1                 0.0000
      3 ****         1.7593   1.7545  -0.5834 N.2            1 S1                 0.0000
      4 ****         2.6281   0.7235  -0.6348 N.pl3          1 S1                 0.0000
      5 ****         4.0452   0.9793  -0.4226 C.3            1 S1                 0.0000
      6 ****         4.8573   1.0334  -1.7346 C.3            1 S1                 0.0000
      7 ****         6.3523   1.2240  -1.4408 C.3            1 S1                 0.0000
      8 ****         4.3498   2.1110  -2.7083 C.3            1 S1                 0.0000
      9 ****         1.9848  -0.4750  -0.8866 C.2            1 S1                 0.0000
     10 ****         2.7131  -1.7780  -0.9805 C.3            1 S1                 0.0000
     11 ****         0.6502  -0.1956  -1.0129 C.2            1 S1                 0.0000
     12 ****        -0.4860  -1.1466  -1.2909 C.3            1 S1                 0.0000
     13 ****        -1.0423  -1.6772   0.0300 C.2            1 S1                 0.0000
     14 ****        -0.5338  -2.6648   0.5602 O.2            1 S1                 0.0000
     15 ****        -2.0790  -1.0086   0.5546 N.am           1 S1                 0.0000
     16 ****        -2.7296  -1.3502   1.8113 C.3            1 S1                 0.0000
     17 ****        -4.0178  -0.5359   1.9918 C.3            1 S1                 0.0000
     18 ****        -4.7070  -0.7690   3.3362 C.3            1 S1                 0.0000
     19 ****        -6.1496  -0.4686   3.0008 C.3            1 S1                 0.0000
     20 ****        -6.2660  -1.0669   1.6034 C.3            1 S1                 0.0000
     21 ****        -4.9834  -0.9001   1.0059 O.3            1 S1                 0.0000
     22 ****        -1.1762   2.0252   0.1287 H              1 S1                 0.0000
     23 ****        -1.3346   1.7989  -1.6106 H              1 S1                 0.0000
     24 ****        -0.3842   3.1387  -0.9834 H              1 S1                 0.0000
     25 ****         4.1552   1.9182   0.1230 H              1 S1                 0.0000
     26 ****         4.4381   0.2023   0.2334 H              1 S1                 0.0000
     27 ****         4.7509   0.0705  -2.2347 H              1 S1                 0.0000
     28 ****         6.5403   2.1755  -0.9425 H              1 S1                 0.0000
     29 ****         6.9395   1.2074  -2.3596 H              1 S1                 0.0000
     30 ****         6.7302   0.4298  -0.7963 H              1 S1                 0.0000
     31 ****         4.3928   3.1025  -2.2564 H              1 S1                 0.0000
     32 ****         3.3190   1.9265  -3.0108 H              1 S1                 0.0000
     33 ****         4.9523   2.1332  -3.6166 H              1 S1                 0.0000
     34 ****         2.0201  -2.6190  -0.9570 H              1 S1                 0.0000
     35 ****         3.4060  -1.9031  -0.1487 H              1 S1                 0.0000
     36 ****         3.2795  -1.8390  -1.9096 H              1 S1                 0.0000
     37 ****        -1.2841  -0.6635  -1.8560 H              1 S1                 0.0000
     38 ****        -0.1602  -1.9902  -1.9001 H              1 S1                 0.0000
     39 ****        -2.4397  -0.2106   0.0522 H              1 S1                 0.0000
     40 ****        -2.9532  -2.4179   1.8398 H              1 S1                 0.0000
     41 ****        -2.0397  -1.1422   2.6303 H              1 S1                 0.0000
     42 ****        -3.8114   0.5299   1.8797 H              1 S1                 0.0000
     43 ****        -4.6087  -1.8107   3.6459 H              1 S1                 0.0000
     44 ****        -4.3111  -0.1377   4.1320 H              1 S1                 0.0000
     45 ****        -6.8561  -0.8997   3.7107 H              1 S1                 0.0000
     46 ****        -6.3110   0.6097   2.9654 H              1 S1                 0.0000
     47 ****        -6.4832  -2.1341   1.6640 H              1 S1                 0.0000
     48 ****        -7.0491  -0.5950   1.0097 H              1 S1                 0.0000
     49 ****         1.9663   2.7174  -0.4103 LP             1 S1                 0.0000
     50 ****         0.2437  -3.1204   0.1267 LP             1 S1                 0.0000
     51 ****        -0.8981  -3.0116   1.4245 LP             1 S1                 0.0000
     52 ****        -4.7064  -1.7591   0.5752 LP             1 S1                 0.0000
     53 ****        -5.0339  -0.1809   0.3129 LP             1 S1                 0.0000
@<TRIPOS>BOND
    1    1    2 1     
    2    1   22 1     
    3    1   23 1     
    4    1   24 1     
    5    2   11 1     
    6    2    3 2     
    7    3    4 1     
    8    4    5 1     
    9    4    9 1     
   10    5    6 1     
   11    5   25 1     
   12    5   26 1     
   13    6    7 1     
   14    6    8 1     
   15    6   27 1     
   16    7   28 1     
   17    7   29 1     
   18    7   30 1     
   19    8   31 1     
   20    8   32 1     
   21    8   33 1     
   22    9   10 1     
   23    9   11 2     
   24   10   34 1     
   25   10   35 1     
   26   10   36 1     
   27   11   12 1     
   28   12   13 1     
   29   12   37 1     
   30   12   38 1     
   31   13   14 2     
   32   13   15 am    
   33   15   16 1     
   34   15   39 1     
   35   16   17 1     
   36   16   40 1     
   37   16   41 1     
   38   17   21 1     
   39   17   18 1     
   40   17   42 1     
   41   18   19 1     
   42   18   43 1     
   43   18   44 1     
   44   19   20 1     
   45   19   45 1     
   46   19   46 1     
   47   20   21 1     
   48   20   47 1     
   49   20   48 1     
   50    3   49 1     
   51   14   50 1     
   52   14   51 1     
   53   21   52 1     
   54   21   53 1     
@<TRIPOS>SUBSTRUCTURE
      1 S1             1
@<TRIPOS>SET
LONE_PAIRS      STATIC     ATOMS    <user>   **** ""
5 49 50 51 52 53
DONOR_HYDROGENS      STATIC     ATOMS    <user>   **** ""
1 39
ATOM$BLUE        STATIC     ATOMS    COLORGROUP SYSTEM
5 49 50 51 52 53
ATOM$RED        STATIC     ATOMS    COLORGROUP SYSTEM
1 39
