AV-unprocessed.smi:102|AV-procd|sdf|968|dock7
  -GOLD-   2262017513D 1   1.00000     0.00000
 Structure written by MMmdl.
 43 44  0  0  0  0  0  0  0  0  2 V2000
  152.2375  144.6887  158.5563 C   0  0  0  0  0  0  0  0  0  0  0  0
  151.1975  143.5920  158.3650 C   0  0  0  0  0  0  0  0  0  0  0  0
  150.3115  143.3971  159.1973 O   0  0  0  0  0  0  0  0  0  0  0  0
  151.3738  142.9063  157.2250 O   0  0  0  0  0  0  0  0  0  0  0  0
  150.4884  141.8471  156.9014 C   0  0  0  0  0  0  0  0  0  0  0  0
  151.2319  140.8024  156.0459 C   0  0  1  0  0  0  0  0  0  0  0  0
  152.2883  140.2446  156.8166 O   0  0  0  0  0  0  0  0  0  0  0  0
  151.8018  139.1809  157.5800 C   0  0  2  0  0  0  0  0  0  0  0  0
  152.8686  138.1094  157.6493 N   0  0  0  0  0  0  0  0  0  0  0  0
  153.2058  137.5349  158.8627 C   0  0  0  0  0  0  0  0  0  0  0  0
  154.1731  136.5990  158.9473 C   0  0  0  0  0  0  0  0  0  0  0  0
  154.4807  136.0609  160.1399 F   0  0  0  0  0  0  0  0  0  0  0  0
  154.8843  136.1832  157.7397 C   0  0  0  0  0  0  0  0  0  0  0  0
  155.7593  135.3225  157.8212 O   0  0  0  0  0  0  0  0  0  0  0  0
  154.5427  136.7799  156.5606 N   0  5  0  0  0  0  0  0  0  0  0  0
  153.5712  137.7352  156.4717 C   0  0  0  0  0  0  0  0  0  0  0  0
  153.2792  138.3020  155.4186 O   0  0  0  0  0  0  0  0  0  0  0  0
  150.4933  138.6879  156.9236 C   0  0  2  0  0  0  0  0  0  0  0  0
  150.5515  137.3115  156.5610 O   0  0  0  0  0  0  0  0  0  0  0  0
  150.6022  136.3603  157.5060 C   0  0  0  0  0  0  0  0  0  0  0  0
  150.8446  134.9769  156.9185 C   0  0  0  0  0  0  0  0  0  0  0  0
  150.4690  136.5318  158.7180 O   0  0  0  0  0  0  0  0  0  0  0  0
  150.3977  139.5666  155.6843 C   0  0  1  0  0  0  0  0  0  0  0  0
  149.0389  139.8697  155.3936 O   0  0  0  0  0  0  0  0  0  0  0  0
  148.7339  140.7384  154.4158 C   0  0  0  0  0  0  0  0  0  0  0  0
  147.2373  141.0019  154.3221 C   0  0  0  0  0  0  0  0  0  0  0  0
  149.5338  141.2898  153.6598 O   0  0  0  0  0  0  0  0  0  0  0  0
  152.7555  144.9018  157.6207 H   0  0  0  0  0  0  0  0  0  0  0  0
  152.9748  144.3824  159.2983 H   0  0  0  0  0  0  0  0  0  0  0  0
  151.7598  145.6056  158.9016 H   0  0  0  0  0  0  0  0  0  0  0  0
  150.0816  141.3981  157.8084 H   0  0  0  0  0  0  0  0  0  0  0  0
  149.6502  142.2613  156.3394 H   0  0  0  0  0  0  0  0  0  0  0  0
  151.6232  141.2746  155.1441 H   0  0  0  0  0  0  0  0  0  0  0  0
  151.6524  139.5421  158.5984 H   0  0  0  0  0  0  0  0  0  0  0  0
  152.6963  137.8428  159.7636 H   0  0  0  0  0  0  0  0  0  0  0  0
  149.6809  138.8953  157.6224 H   0  0  0  0  0  0  0  0  0  0  0  0
  151.7088  134.9939  156.2540 H   0  0  0  0  0  0  0  0  0  0  0  0
  149.9748  134.6514  156.3480 H   0  0  0  0  0  0  0  0  0  0  0  0
  151.0320  134.2513  157.7102 H   0  0  0  0  0  0  0  0  0  0  0  0
  150.8750  139.0464  154.8517 H   0  0  0  0  0  0  0  0  0  0  0  0
  146.6975  140.0674  154.1683 H   0  0  0  0  0  0  0  0  0  0  0  0
  147.0167  141.6696  153.4891 H   0  0  0  0  0  0  0  0  0  0  0  0
  146.8763  141.4640  155.2410 H   0  0  0  0  0  0  0  0  0  0  0  0
  1  2  1  0  0  0  0
  1 28  1  0  0  0  0
  1 29  1  0  0  0  0
  1 30  1  0  0  0  0
  2  3  2  0  0  0  0
  2  4  1  0  0  0  0
  4  5  1  0  0  0  0
  5  6  1  0  0  0  0
  5 31  1  0  0  0  0
  5 32  1  0  0  0  0
  6 23  1  0  0  0  0
  6  7  1  0  0  0  0
  6 33  1  0  0  0  0
  7  8  1  0  0  0  0
  8  9  1  0  0  0  0
  8 18  1  0  0  0  0
  8 34  1  0  0  0  0
  9 16  1  0  0  0  0
  9 10  1  0  0  0  0
 10 11  2  0  0  0  0
 10 35  1  0  0  0  0
 11 12  1  0  0  0  0
 11 13  1  0  0  0  0
 13 14  2  0  0  0  0
 13 15  1  0  0  0  0
 15 16  1  0  0  0  0
 16 17  2  0  0  0  0
 18 19  1  0  0  0  0
 18 23  1  0  0  0  0
 18 36  1  0  0  0  0
 19 20  1  0  0  0  0
 20 21  1  0  0  0  0
 20 22  2  0  0  0  0
 21 37  1  0  0  0  0
 21 38  1  0  0  0  0
 21 39  1  0  0  0  0
 23 24  1  0  0  0  0
 23 40  1  0  0  0  0
 24 25  1  0  0  0  0
 25 26  1  0  0  0  0
 25 27  2  0  0  0  0
 26 41  1  0  0  0  0
 26 42  1  0  0  0  0
 26 43  1  0  0  0  0
M  CHG  1  15  -1
M  END
> <s_m_source_file>
AV-unprocessed.smi

> <i_m_source_file_index>
102

> <i_lp_mmshare_version>
43012

> <i_f3d_flags>
0

> <s_epik_input>
W0NIM11DKD1PKU9bQ0gyXVtDQEBIXTFPW0NASF0oW0NAQEhdKE9DKD1PKVtDSDNdKVtDQEhdMU9DKD1PKVtDSDNdKW4yW2NIXWMoRiljKD1PKVtuSF1jMj1P

> <s_epik_cmdline>
J2VwaWtfcHl0aG9uJywgJy1waCcsICc3LjAnLCAnLXRuJywgJzgnLCAnLW1hJywgJzIwMCcsICctbWV0YWxfYmluZGluZycsICctaW1hZScsICc8aW5maWxlLm1hZT4nLCAnLW9tYWUnLCAnPG91dGZpbGUubWFlPic=

> <r_epik_Ionization_Penalty>
1.40304

> <r_epik_Ionization_Penalty_Charging>
1.43915e-08

> <r_epik_Ionization_Penalty_Neutral>
1.40304

> <r_epik_State_Penalty>
1.48536

> <r_epik_Charging_Adjusted_Penalty>
1.48536

> <i_epik_Tot_Q>
-1

> <i_epik_Tot_abs_Q>
1

> <r_epik_Metal_State_Penalty>
0.00663881

> <b_epik_Metal_Only>
0

> <s_epik_Chemistry_Notes>
This compound has an ester and may undergo hydrolysis at high or low pH. This compound contains an acetal/aminal-like group ( X-CH(R)-Y where X, Y are N, S, or O) that may be acid/base labile, releasing an aldehyde.

> <s_lp_Force_Field>
OPLS_2005

> <r_lp_Energy>
24.6661

> <b_lp_Chiralities_Consistent>
1

> <s_lp_Variant>
AV-unprocessed.smi:102-24

> <Gold.Version>
5.8.1

> <Gold.Id.Protein>
6NUR|6NUR_protein|mol2

> <Gold.PLP.Fitness>
42.1858

> <Gold.PLP.PLP>
-30.1057

> <Gold.PLP.part.hbond>
-6.2070

> <Gold.PLP.part.metal>
0.0000

> <Gold.PLP.part.buried>
-1.7202

> <Gold.PLP.part.nonpolar>
-23.8971

> <Gold.PLP.part.repulsive>
2.4059

> <Gold.PLP.ligand.clash>
0.0000

> <Gold.PLP.ligand.torsion>
0.5950

> <Gold.PLP.Chemscore.Hbond>
4.3814

> <Gold.PLP.Chemscore.CHOScore>
0.0000

> <Gold.PLP.Chemscore.Metal>
0.0000

> <Gold.Chemscore.Hbonds>
donor molecule, donor type, donor heavy atom, donor atom, acceptor molecule, acceptor atom, score
      P1  H  6896  6907       L1    22  1.00
      P1  H  7989  7998       L1    27  0.17
      P1  H  7997  8009       L1     7  0.88
      P1  H  8011  8017       L1    27  0.90
      P1  H 10752 10765       L1    15  1.47

> <Gold.PLP.Chemscore.Internal.Correction>
0.1260

> <Gold.Rescore>
     Score         DG    S(hbond)    S(metal)    S(lipo)     H(rot)  DE(clash)    DE(int)     intcor
      5.56     -12.04       3.22        0.00      51.61       4.00       1.00       5.48       ----

> <Gold.Chemscore.Fitness>
5.5641

> <Gold.Chemscore.DG>
-12.0409

> <Gold.Chemscore.ZeroCoef>
-5.4800

> <Gold.Chemscore.Hbond>
3.2187

> <Gold.Chemscore.Metal>
0.0000

> <Gold.Chemscore.Lipo>
51.6068

> <Gold.Chemscore.Internal_Hbond>
0.0000

> <Gold.Chemscore.DEClash>
0.9954

> <Gold.Chemscore.DEInternal>
5.4814

> <Gold.Chemscore.Rot>
3.9951

> <Gold.Chemscore.Internal.Correction>
   9.000000E+99

> <Gold.Chemscore.Hbonds>
donor molecule, donor type, donor heavy atom, donor atom, acceptor molecule, acceptor atom, score
      P1  H  6896  6907       L1    22  0.83
      P1  H  7989  7998       L1    27  0.16
      P1  H  7997  8009       L1     7  0.68
      P1  H  8011  8017       L1    27  0.88
      P1  H 10752 10765       L1    15  0.31

> <Gold.Chemscore.Hbond.Weighted>
-10.7503

> <Gold.Chemscore.Metal.Weighted>
-0.0000

> <Gold.Chemscore.Lipo.Weighted>
-6.0380

> <Gold.Chemscore.Internal_Hbond.Weighted>
0.0000

> <Gold.Chemscore.DEClash.Weighted>
0.9954

> <Gold.Chemscore.DEInternal.Weighted>
5.4814

> <Gold.Chemscore.Rot.Weighted>
10.2274

> <Gold.Chemscore.Internal.Correction.Weighted>
   9.000000E+99

> <Gold.Protein.RotatedTorsions>
[ 6907 6896 6895 6894 ] final  -37.89 input  -60.11 | X-H torsion
[ 7974 7965 7964 7962 ] final  139.70 input  175.53 | X-H torsion
[ 8008 7997 7996 7995 ] final -175.20 input   59.86 | X-H torsion
[ 10167 10162 10161 10158 ] final   -6.96 input  -65.29 | X-H torsion
[ 10718 10713 10712 10709 ] final  -56.55 input   66.30 | X-H torsion
[ 10763 10752 10751 10750 ] final  -75.24 input  -60.55 | X-H torsion
[ 11005 11000 10999 10996 ] final -105.18 input  -57.11 | X-H torsion

> <Gold.Protein.ActiveResidues>
 VAL166  LYS551  ARG553  GLY616  TRP617  ASP618  TYR619  PRO620  LYS621  CYS622 
 ASP623  PHE694  ASN695  SER759  ASP760  ASP761  ALA762  ILE779  LEU786  VAL792 
 PHE793  MET794  SER795  GLU796  ALA797  LYS798  CYS799  TRP800  GLU811  SER814 

> <Gold.Protein.RotatedAtoms>
  151.0091  134.9383  159.7996 H   0  0  0  0  0  0  0  0  0  0  0  0  # atno 6907 bound_to 6896
  152.5298  134.3052  159.9103 H   0  0  0  0  0  0  0  0  0  0  0  0  # atno 6908 bound_to 6896
  151.3058  133.4060  159.2677 H   0  0  0  0  0  0  0  0  0  0  0  0  # atno 6909 bound_to 6896
  144.9254  139.5114  143.5643 H   0  0  0  0  0  0  0  0  0  0  0  0  # atno 7974 bound_to 7965
  155.9796  140.1179  157.0738 H   0  0  0  0  0  0  0  0  0  0  0  0  # atno 8008 bound_to 7997
  154.4179  140.1147  156.5485 H   0  0  0  0  0  0  0  0  0  0  0  0  # atno 8009 bound_to 7997
  155.6488  140.3473  155.4743 H   0  0  0  0  0  0  0  0  0  0  0  0  # atno 8010 bound_to 7997
  140.7014  143.6134  150.8681 H   0  0  0  0  0  0  0  0  0  0  0  0  # atno 10167 bound_to 10162
  156.1280  130.4161  150.0320 H   0  0  0  0  0  0  0  0  0  0  0  0  # atno 10718 bound_to 10713
  154.4839  135.5838  153.6409 H   0  0  0  0  0  0  0  0  0  0  0  0  # atno 10763 bound_to 10752
  152.9851  135.6096  154.3211 H   0  0  0  0  0  0  0  0  0  0  0  0  # atno 10764 bound_to 10752
  154.3105  135.2845  155.2547 H   0  0  0  0  0  0  0  0  0  0  0  0  # atno 10765 bound_to 10752
  141.1066  133.8786  157.1702 H   0  0  0  0  0  0  0  0  0  0  0  0  # atno 11005 bound_to 11000
  146.3224  139.8166  142.8935 LP  0  0  0  0  0  0  0  0  0  0  0  0  # atno 17320 bound_to 7965
  145.3227  141.0248  143.3491 LP  0  0  0  0  0  0  0  0  0  0  0  0  # atno 17321 bound_to 7965
  139.9857  143.5902  152.2928 LP  0  0  0  0  0  0  0  0  0  0  0  0  # atno 17342 bound_to 10162
  139.6539  144.7661  151.2093 LP  0  0  0  0  0  0  0  0  0  0  0  0  # atno 17343 bound_to 10162
  156.8240  130.9369  151.3640 LP  0  0  0  0  0  0  0  0  0  0  0  0  # atno 17370 bound_to 10713
  157.6460  130.8845  149.9540 LP  0  0  0  0  0  0  0  0  0  0  0  0  # atno 17371 bound_to 10713
  139.9938  135.0054  157.0037 LP  0  0  0  0  0  0  0  0  0  0  0  0  # atno 17394 bound_to 11000
  140.4887  134.1215  155.7229 LP  0  0  0  0  0  0  0  0  0  0  0  0  # atno 17395 bound_to 11000

$$$$
