AV-unprocessed.smi:1237|AV-procd|sdf|5183|dock9
  -GOLD-   22720 4263D 1   1.00000     0.00000
 Structure written by MMmdl.
 44 45  0  0  0  0  0  0  0  0  1 V2000
  157.5703  140.0627  159.7514 C   0  0  0  0  0  0  0  0  0  0  0  0
  156.7751  139.4644  158.7436 O   0  0  0  0  0  0  0  0  0  0  0  0
  156.7441  138.0496  158.8439 C   0  0  0  0  0  0  0  0  0  0  0  0
  156.0721  137.4624  157.5918 C   0  0  0  0  0  0  0  0  0  0  0  0
  154.6088  137.5020  157.6892 N   0  0  0  0  0  0  0  0  0  0  0  0
  154.1020  138.7385  158.0532 N   0  0  0  0  0  0  0  0  0  0  0  0
  152.8269  138.9019  158.1989 C   0  0  0  0  0  0  0  0  0  0  0  0
  152.2434  140.2122  158.5992 C   0  0  0  0  0  0  0  0  0  0  0  0
  151.0277  140.3727  158.7205 O   0  0  0  0  0  0  0  0  0  0  0  0
  153.1357  141.1951  158.8204 N   0  0  0  0  0  0  0  0  0  0  0  0
  152.8173  142.5642  159.2212 C   0  0  0  0  0  0  0  0  0  0  0  0
  152.4196  142.5443  160.7127 C   0  0  0  0  0  0  0  0  0  0  0  0
  151.7089  143.7921  161.2684 C   0  0  0  0  0  0  0  0  0  0  0  0
  152.1570  145.1395  160.6809 C   0  0  0  0  0  0  0  0  0  0  0  0
  151.4140  145.4944  159.3819 C   0  0  0  0  0  0  0  0  0  0  0  0
  151.8572  144.6948  158.1482 C   0  0  0  0  0  0  0  0  0  0  0  0
  151.7494  143.1648  158.2806 C   0  0  0  0  0  0  0  0  0  0  0  0
  151.9056  137.8000  157.9765 C   0  0  0  0  0  0  0  0  0  0  0  0
  152.4145  136.6004  157.6193 C   0  0  0  0  0  0  0  0  0  0  0  0
  153.8533  136.3870  157.4548 C   0  0  0  0  0  0  0  0  0  0  0  0
  154.3410  135.3018  157.1393 O   0  0  0  0  0  0  0  0  0  0  0  0
  157.5569  141.1462  159.6336 H   0  0  0  0  0  0  0  0  0  0  0  0
  158.6067  139.7288  159.6861 H   0  0  0  0  0  0  0  0  0  0  0  0
  157.1885  139.8282  160.7458 H   0  0  0  0  0  0  0  0  0  0  0  0
  157.7631  137.6686  158.9223 H   0  0  0  0  0  0  0  0  0  0  0  0
  156.2138  137.7418  159.7466 H   0  0  0  0  0  0  0  0  0  0  0  0
  156.4090  138.0065  156.7074 H   0  0  0  0  0  0  0  0  0  0  0  0
  156.4073  136.4346  157.4422 H   0  0  0  0  0  0  0  0  0  0  0  0
  154.1140  140.9746  158.7005 H   0  0  0  0  0  0  0  0  0  0  0  0
  153.7286  143.1586  159.1318 H   0  0  0  0  0  0  0  0  0  0  0  0
  151.7782  141.6845  160.9125 H   0  0  0  0  0  0  0  0  0  0  0  0
  153.3245  142.3703  161.2967 H   0  0  0  0  0  0  0  0  0  0  0  0
  150.6318  143.6831  161.1355 H   0  0  0  0  0  0  0  0  0  0  0  0
  151.8609  143.8092  162.3482 H   0  0  0  0  0  0  0  0  0  0  0  0
  151.9297  145.9162  161.4121 H   0  0  0  0  0  0  0  0  0  0  0  0
  153.2382  145.1700  160.5417 H   0  0  0  0  0  0  0  0  0  0  0  0
  150.3390  145.3806  159.5272 H   0  0  0  0  0  0  0  0  0  0  0  0
  151.5699  146.5531  159.1717 H   0  0  0  0  0  0  0  0  0  0  0  0
  151.2457  145.0124  157.3030 H   0  0  0  0  0  0  0  0  0  0  0  0
  152.8805  144.9663  157.8861 H   0  0  0  0  0  0  0  0  0  0  0  0
  151.8813  142.7528  157.2790 H   0  0  0  0  0  0  0  0  0  0  0  0
  150.7464  142.8687  158.5908 H   0  0  0  0  0  0  0  0  0  0  0  0
  150.8391  137.9288  158.0909 H   0  0  0  0  0  0  0  0  0  0  0  0
  151.7414  135.7727  157.4507 H   0  0  0  0  0  0  0  0  0  0  0  0
  1  2  1  0  0  0  0
  1 22  1  0  0  0  0
  1 23  1  0  0  0  0
  1 24  1  0  0  0  0
  2  3  1  0  0  0  0
  3  4  1  0  0  0  0
  3 25  1  0  0  0  0
  3 26  1  0  0  0  0
  4  5  1  0  0  0  0
  4 27  1  0  0  0  0
  4 28  1  0  0  0  0
  5 20  1  0  0  0  0
  5  6  1  0  0  0  0
  6  7  2  0  0  0  0
  7  8  1  0  0  0  0
  7 18  1  0  0  0  0
  8  9  2  0  0  0  0
  8 10  1  0  0  0  0
 10 11  1  0  0  0  0
 10 29  1  0  0  0  0
 11 17  1  0  0  0  0
 11 12  1  0  0  0  0
 11 30  1  0  0  0  0
 12 13  1  0  0  0  0
 12 31  1  0  0  0  0
 12 32  1  0  0  0  0
 13 14  1  0  0  0  0
 13 33  1  0  0  0  0
 13 34  1  0  0  0  0
 14 15  1  0  0  0  0
 14 35  1  0  0  0  0
 14 36  1  0  0  0  0
 15 16  1  0  0  0  0
 15 37  1  0  0  0  0
 15 38  1  0  0  0  0
 16 17  1  0  0  0  0
 16 39  1  0  0  0  0
 16 40  1  0  0  0  0
 17 41  1  0  0  0  0
 17 42  1  0  0  0  0
 18 19  2  0  0  0  0
 18 43  1  0  0  0  0
 19 20  1  0  0  0  0
 19 44  1  0  0  0  0
 20 21  2  0  0  0  0
M  END
> <s_m_source_file>
AV-unprocessed.smi

> <i_m_source_file_index>
1237

> <i_lp_mmshare_version>
43012

> <i_f3d_flags>
0

> <s_epik_input>
W0NIM11PW0NIMl1bQ0gyXW4xbmMoW2NIXVtjSF1jMT1PKUMoPU8pW05IXVtDSF0yW0NIMl1bQ0gyXVtDSDJdW0NIMl1bQ0gyXVtDSDJdMg==

> <s_epik_cmdline>
J2VwaWtfcHl0aG9uJywgJy1waCcsICc3LjAnLCAnLXRuJywgJzgnLCAnLW1hJywgJzIwMCcsICctbWV0YWxfYmluZGluZycsICctaW1hZScsICc8aW5maWxlLm1hZT4nLCAnLW9tYWUnLCAnPG91dGZpbGUubWFlPic=

> <r_lp_tautomer_probability>
1

> <r_epik_Ionization_Penalty>
5.81787e-07

> <r_epik_Ionization_Penalty_Charging>
6.75108e-09

> <r_epik_Ionization_Penalty_Neutral>
5.75036e-07

> <r_epik_State_Penalty>
-0

> <r_epik_Charging_Adjusted_Penalty>
6.75108e-09

> <i_epik_Tot_Q>
0

> <i_epik_Tot_abs_Q>
0

> <r_epik_Metal_State_Penalty>
-0

> <b_epik_Metal_Only>
0

> <s_lp_Force_Field>
OPLS_2005

> <r_lp_Energy>
36.1796

> <b_lp_Chiralities_Consistent>
1

> <s_lp_Variant>
AV-unprocessed.smi:1237-1

> <Gold.Version>
5.8.1

> <Gold.Id.Protein>
6NUR|6NUR_protein|mol2

> <Gold.PLP.Fitness>
43.4059

> <Gold.PLP.PLP>
-36.2070

> <Gold.PLP.part.hbond>
-3.0000

> <Gold.PLP.part.metal>
0.0000

> <Gold.PLP.part.buried>
-2.7026

> <Gold.PLP.part.nonpolar>
-29.8979

> <Gold.PLP.part.repulsive>
0.1676

> <Gold.PLP.ligand.clash>
0.0000

> <Gold.PLP.ligand.torsion>
0.3480

> <Gold.PLP.Chemscore.Hbond>
2.6160

> <Gold.PLP.Chemscore.CHOScore>
0.0000

> <Gold.PLP.Chemscore.Metal>
0.0000

> <Gold.Chemscore.Hbonds>
donor molecule, donor type, donor heavy atom, donor atom, acceptor molecule, acceptor atom, score
      P1  H  7997  8009       L1     2  0.76
      P1  H  7997  8010       L1     6  0.78
      P1  H 10752 10764       L1    21  1.00

> <Gold.PLP.Chemscore.Internal.Correction>
0.0469

> <Gold.Rescore>
     Score         DG    S(hbond)    S(metal)    S(lipo)     H(rot)  DE(clash)    DE(int)     intcor
     17.71     -20.48       1.85        0.00     109.23       1.55       0.10       2.67       ----

> <Gold.Chemscore.Fitness>
17.7082

> <Gold.Chemscore.DG>
-20.4845

> <Gold.Chemscore.ZeroCoef>
-5.4800

> <Gold.Chemscore.Hbond>
1.8523

> <Gold.Chemscore.Metal>
0.0000

> <Gold.Chemscore.Lipo>
109.2318

> <Gold.Chemscore.Internal_Hbond>
0.0000

> <Gold.Chemscore.DEClash>
0.1013

> <Gold.Chemscore.DEInternal>
2.6749

> <Gold.Chemscore.Rot>
1.5478

> <Gold.Chemscore.Internal.Correction>
   9.000000E+99

> <Gold.Chemscore.Hbonds>
donor molecule, donor type, donor heavy atom, donor atom, acceptor molecule, acceptor atom, score
      P1  H  7997  8009       L1     2  0.60
      P1  H  7997  8010       L1     6  0.22
      P1  H 10752 10764       L1    21  0.30

> <Gold.Chemscore.Hbond.Weighted>
-6.1866

> <Gold.Chemscore.Metal.Weighted>
-0.0000

> <Gold.Chemscore.Lipo.Weighted>
-12.7801

> <Gold.Chemscore.Internal_Hbond.Weighted>
0.0000

> <Gold.Chemscore.DEClash.Weighted>
0.1013

> <Gold.Chemscore.DEInternal.Weighted>
2.6749

> <Gold.Chemscore.Rot.Weighted>
3.9623

> <Gold.Chemscore.Internal.Correction.Weighted>
   9.000000E+99

> <Gold.Protein.RotatedTorsions>
[ 6907 6896 6895 6894 ] final   69.38 input  -60.11 | X-H torsion
[ 7974 7965 7964 7962 ] final   29.68 input  175.53 | X-H torsion
[ 8008 7997 7996 7995 ] final   47.39 input   59.86 | X-H torsion
[ 10167 10162 10161 10158 ] final  118.39 input  -65.29 | X-H torsion
[ 10718 10713 10712 10709 ] final  -65.55 input   66.30 | X-H torsion
[ 10763 10752 10751 10750 ] final   29.45 input  -60.55 | X-H torsion
[ 11005 11000 10999 10996 ] final -123.81 input  -57.11 | X-H torsion

> <Gold.Protein.ActiveResidues>
 VAL166  LYS551  ARG553  GLY616  TRP617  ASP618  TYR619  PRO620  LYS621  CYS622 
 ASP623  PHE694  ASN695  SER759  ASP760  ASP761  ALA762  ILE779  LEU786  VAL792 
 PHE793  MET794  SER795  GLU796  ALA797  LYS798  CYS799  TRP800  GLU811  SER814 

> <Gold.Protein.RotatedAtoms>
  152.4682  134.5024  159.9728 H   0  0  0  0  0  0  0  0  0  0  0  0  # atno 6907 bound_to 6896
  151.5057  133.3489  159.2884 H   0  0  0  0  0  0  0  0  0  0  0  0  # atno 6908 bound_to 6896
  150.8677  134.8073  159.7193 H   0  0  0  0  0  0  0  0  0  0  0  0  # atno 6909 bound_to 6896
  146.1657  139.6890  142.9002 H   0  0  0  0  0  0  0  0  0  0  0  0  # atno 7974 bound_to 7965
  155.3683  140.3422  155.4242 H   0  0  0  0  0  0  0  0  0  0  0  0  # atno 8008 bound_to 7997
  156.1676  140.1621  156.8538 H   0  0  0  0  0  0  0  0  0  0  0  0  # atno 8009 bound_to 7997
  154.5201  140.0769  156.8137 H   0  0  0  0  0  0  0  0  0  0  0  0  # atno 8010 bound_to 7997
  139.6115  144.7083  151.2834 H   0  0  0  0  0  0  0  0  0  0  0  0  # atno 10167 bound_to 10162
  156.0663  130.4249  150.1581 H   0  0  0  0  0  0  0  0  0  0  0  0  # atno 10718 bound_to 10713
  153.0429  135.6488  154.0893 H   0  0  0  0  0  0  0  0  0  0  0  0  # atno 10763 bound_to 10752
  154.0596  135.2889  155.3328 H   0  0  0  0  0  0  0  0  0  0  0  0  # atno 10764 bound_to 10752
  154.6666  135.5372  153.8150 H   0  0  0  0  0  0  0  0  0  0  0  0  # atno 10765 bound_to 10752
  140.9890  134.0566  157.3677 H   0  0  0  0  0  0  0  0  0  0  0  0  # atno 11005 bound_to 11000
  145.4473  141.0426  143.2824 LP  0  0  0  0  0  0  0  0  0  0  0  0  # atno 17320 bound_to 7965
  144.8089  139.5998  143.7038 LP  0  0  0  0  0  0  0  0  0  0  0  0  # atno 17321 bound_to 7965
  140.7322  143.6830  150.7985 LP  0  0  0  0  0  0  0  0  0  0  0  0  # atno 17342 bound_to 10162
  140.0425  143.5331  152.2711 LP  0  0  0  0  0  0  0  0  0  0  0  0  # atno 17343 bound_to 10162
  156.9640  130.9814  151.3473 LP  0  0  0  0  0  0  0  0  0  0  0  0  # atno 17370 bound_to 10713
  157.5706  130.8308  149.8387 LP  0  0  0  0  0  0  0  0  0  0  0  0  # atno 17371 bound_to 10713
  139.8983  135.0154  156.7144 LP  0  0  0  0  0  0  0  0  0  0  0  0  # atno 17394 bound_to 11000
  140.7070  133.9257  155.8060 LP  0  0  0  0  0  0  0  0  0  0  0  0  # atno 17395 bound_to 11000

$$$$
