#       Name:                AV-unprocessed.smi:1809
#       Creating user name   scv26
#       Creation time:       Fri Mar 27 08:59:03 2020


#       File generated by GOLD software.
#

@<TRIPOS>MOLECULE
AV-unprocessed.smi:1809
    46    48     1
SMALL
NO_CHARGES


@<TRIPOS>ATOM
      1 ****        -8.2383   2.1053  -0.1934 C.3            1 S1                 0.0000
      2 ****        -6.8706   1.8811   0.3548 C.2            1 S1                 0.0000
      3 ****        -6.6426   1.6307   1.6464 N.2            1 S1                 0.0000
      4 ****        -5.2922   1.4583   1.9150 N.2            1 S1                 0.0000
      5 ****        -4.5208   1.5698   0.8240 C.2            1 S1                 0.0000
      6 ****        -3.1844   1.4419   0.8694 N.pl3          1 S1                -1.0000
      7 ****        -2.6064   0.2631   0.5440 C.2            1 S1                 0.0000
      8 ****        -3.1904  -0.7681   0.2022 O.2            1 S1                 0.0000
      9 ****        -1.2692   0.2785   0.6167 N.am           1 S1                 0.0000
     10 ****        -0.4000  -0.8522   0.3173 C.3            1 S1                 0.0000
     11 ****         1.0768  -0.4451   0.4130 C.3            1 S1                 0.0000
     12 ****         2.0196  -1.6571   0.2301 C.3            1 S1                 0.0000
     13 ****         3.3995  -1.2110   0.1985 N.3            1 S1                 0.0000
     14 ****         4.4067  -2.2163  -0.0485 C.3            1 S1                 0.0000
     15 ****         5.6606  -1.4100  -0.4310 C.3            1 S1                 0.0000
     16 ****         5.1143  -0.0329  -0.8703 C.3            1 S1                 0.0000
     17 ****         3.6002  -0.2489  -0.8512 C.3            1 S1                 0.0000
     18 ****         2.7063   0.9808  -0.6386 C.3            1 S1                 0.0000
     19 ****         1.3491   0.5339  -0.5990 O.3            1 S1                 0.0000
     20 ****        -5.4290   1.9228  -0.6460 S.3            1 S1                 0.0000
     21 ****        -8.7666   1.1554  -0.2757 H              1 S1                 0.0000
     22 ****        -8.1802   2.5606  -1.1822 H              1 S1                 0.0000
     23 ****        -8.8040   2.7677   0.4622 H              1 S1                 0.0000
     24 ****        -0.8235   1.1405   0.8949 H              1 S1                 0.0000
     25 ****        -0.6120  -1.6541   1.0260 H              1 S1                 0.0000
     26 ****        -0.6209  -1.2353  -0.6801 H              1 S1                 0.0000
     27 ****         1.2615   0.0038   1.3907 H              1 S1                 0.0000
     28 ****         1.8782  -2.3703   1.0427 H              1 S1                 0.0000
     29 ****         1.7759  -2.1789  -0.6967 H              1 S1                 0.0000
     30 ****         4.5644  -2.8518   0.8232 H              1 S1                 0.0000
     31 ****         4.1063  -2.8530  -0.8824 H              1 S1                 0.0000
     32 ****         6.3282  -1.2973   0.4239 H              1 S1                 0.0000
     33 ****         6.2174  -1.9035  -1.2282 H              1 S1                 0.0000
     34 ****         5.4044   0.7341  -0.1508 H              1 S1                 0.0000
     35 ****         5.4746   0.2700  -1.8538 H              1 S1                 0.0000
     36 ****         3.3205  -0.7045  -1.8036 H              1 S1                 0.0000
     37 ****         2.9564   1.4970   0.2897 H              1 S1                 0.0000
     38 ****         2.8287   1.6941  -1.4538 H              1 S1                 0.0000
     39 ****        -7.3613   1.5740   2.3394 LP             1 S1                 0.0000
     40 ****        -4.9313   1.2702   2.8285 LP             1 S1                 0.0000
     41 ****        -2.6168   2.2182   1.1438 LP             1 S1                 0.0000
     42 ****        -4.1887  -0.7820   0.1457 LP             1 S1                 0.0000
     43 ****        -2.6655  -1.5902  -0.0184 LP             1 S1                 0.0000
     44 ****         3.5202  -0.8580   1.1263 LP             1 S1                 0.0000
     45 ****         0.7634   1.3271  -0.4324 LP             1 S1                 0.0000
     46 ****         1.1252   0.1351  -1.4882 LP             1 S1                 0.0000
@<TRIPOS>BOND
    1    1    2 1     
    2    1   21 1     
    3    1   22 1     
    4    1   23 1     
    5    2   20 1     
    6    2    3 2     
    7    3    4 1     
    8    4    5 2     
    9    5    6 1     
   10    5   20 1     
   11    6    7 1     
   12    7    8 2     
   13    7    9 am    
   14    9   10 1     
   15    9   24 1     
   16   10   11 1     
   17   10   25 1     
   18   10   26 1     
   19   11   19 1     
   20   11   12 1     
   21   11   27 1     
   22   12   13 1     
   23   12   28 1     
   24   12   29 1     
   25   13   17 1     
   26   13   14 1     
   27   14   15 1     
   28   14   30 1     
   29   14   31 1     
   30   15   16 1     
   31   15   32 1     
   32   15   33 1     
   33   16   17 1     
   34   16   34 1     
   35   16   35 1     
   36   17   18 1     
   37   17   36 1     
   38   18   19 1     
   39   18   37 1     
   40   18   38 1     
   41    3   39 1     
   42    4   40 1     
   43    6   41 1     
   44    8   42 1     
   45    8   43 1     
   46   13   44 1     
   47   19   45 1     
   48   19   46 1     
@<TRIPOS>SUBSTRUCTURE
      1 S1             1
@<TRIPOS>SET
LONE_PAIRS      STATIC     ATOMS    <user>   **** ""
8 39 40 41 42 43 44 45 46
DONOR_HYDROGENS      STATIC     ATOMS    <user>   **** ""
1 24
ATOM$BLUE        STATIC     ATOMS    COLORGROUP SYSTEM
8 39 40 41 42 43 44 45 46
ATOM$RED        STATIC     ATOMS    COLORGROUP SYSTEM
1 24
