AV-unprocessed.smi:290|AV-procd|sdf|2230|dock2
  -GOLD-   2262022 93D 1   1.00000     0.00000
 Structure written by MMmdl.
 59 62  0  0  0  0  0  0  0  0  2 V2000
  152.9171  141.1757  158.7717 C   0  0  0  0  0  0  0  0  0  0  0  0
  151.9271  142.3113  159.0738 C   0  0  1  0  0  0  0  0  0  0  0  0
  152.6798  143.2891  159.7935 O   0  0  0  0  0  0  0  0  0  0  0  0
  152.3146  144.5920  159.3736 C   0  0  0  0  0  0  0  0  0  0  0  0
  152.0304  144.4031  157.8916 C   0  0  0  0  0  0  0  0  0  0  0  0
  151.3096  143.0612  157.8560 C   0  0  2  0  0  0  0  0  0  0  0  0
  149.9467  143.3190  158.1494 O   0  0  0  0  0  0  0  0  0  0  0  0
  151.3864  142.3986  156.4512 C   0  0  0  0  0  0  0  0  0  0  0  0
  150.7986  141.0669  156.3376 N   0  0  0  0  0  0  0  0  0  0  0  0
  149.4799  140.7045  156.5138 C   0  0  0  0  0  0  0  0  0  0  0  0
  149.2175  139.4400  156.3275 N   0  0  0  0  0  0  0  0  0  0  0  0
  150.4397  138.8865  155.9684 C   0  0  0  0  0  0  0  0  0  0  0  0
  150.8709  137.5738  155.6204 C   0  0  0  0  0  0  0  0  0  0  0  0
  150.0369  136.5001  155.6098 N   0  0  0  0  0  0  0  0  0  0  0  0
  150.6623  135.1795  155.6418 C   0  0  0  0  0  0  0  0  0  0  0  0
  149.8018  134.2670  154.7615 C   0  0  0  0  0  0  0  0  0  0  0  0
  148.4471  134.9830  154.7481 C   0  0  2  0  0  0  0  0  0  0  0  0
  147.5195  134.6019  153.6444 N   0  3  2  0  0  0  0  0  0  0  0  0
  146.2109  135.2884  153.7585 C   0  0  0  0  0  0  0  0  0  0  0  0
  147.3798  133.1408  153.3946 C   0  0  0  0  0  0  0  0  0  0  0  0
  146.5540  132.8538  152.1304 C   0  0  0  0  0  0  0  0  0  0  0  0
  147.3504  133.0432  150.9794 O   0  0  0  0  0  0  0  0  0  0  0  0
  148.8408  136.4667  154.7680 C   0  0  1  0  0  0  0  0  0  0  0  0
  147.7183  137.3774  155.2968 C   0  0  0  0  0  0  0  0  0  0  0  0
  152.1810  137.4167  155.2928 N   0  0  0  0  0  0  0  0  0  0  0  0
  153.0136  138.4612  155.3082 C   0  0  0  0  0  0  0  0  0  0  0  0
  152.7512  139.7311  155.6191 N   0  0  0  0  0  0  0  0  0  0  0  0
  151.4384  139.9008  155.9480 C   0  0  0  0  0  0  0  0  0  0  0  0
  147.9516  134.7693  155.6978 H   0  0  0  0  0  0  0  0  0  0  0  0
  149.1206  136.7942  153.7677 H   0  0  0  0  0  0  0  0  0  0  0  0
  152.4115  140.2954  158.3804 H   0  0  0  0  0  0  0  0  0  0  0  0
  153.4271  140.8604  159.6821 H   0  0  0  0  0  0  0  0  0  0  0  0
  153.6808  141.4857  158.0581 H   0  0  0  0  0  0  0  0  0  0  0  0
  151.1441  141.9260  159.7295 H   0  0  0  0  0  0  0  0  0  0  0  0
  151.4198  144.9128  159.9091 H   0  0  0  0  0  0  0  0  0  0  0  0
  153.1091  145.3136  159.5641 H   0  0  0  0  0  0  0  0  0  0  0  0
  151.4576  145.2239  157.4574 H   0  0  0  0  0  0  0  0  0  0  0  0
  152.9776  144.3386  157.3540 H   0  0  0  0  0  0  0  0  0  0  0  0
  149.5159  143.5954  157.3549 H   0  0  0  0  0  0  0  0  0  0  0  0
  150.8973  143.0375  155.7146 H   0  0  0  0  0  0  0  0  0  0  0  0
  152.4288  142.3386  156.1373 H   0  0  0  0  0  0  0  0  0  0  0  0
  148.7035  141.4038  156.7844 H   0  0  0  0  0  0  0  0  0  0  0  0
  151.6959  135.1981  155.2921 H   0  0  0  0  0  0  0  0  0  0  0  0
  150.6628  134.8218  156.6719 H   0  0  0  0  0  0  0  0  0  0  0  0
  150.2445  134.2214  153.7665 H   0  0  0  0  0  0  0  0  0  0  0  0
  149.7418  133.2490  155.1471 H   0  0  0  0  0  0  0  0  0  0  0  0
  145.6747  134.9625  154.6508 H   0  0  0  0  0  0  0  0  0  0  0  0
  145.5807  135.0877  152.8927 H   0  0  0  0  0  0  0  0  0  0  0  0
  146.3436  136.3692  153.8171 H   0  0  0  0  0  0  0  0  0  0  0  0
  148.3488  132.6565  153.2832 H   0  0  0  0  0  0  0  0  0  0  0  0
  146.9130  132.6694  154.2607 H   0  0  0  0  0  0  0  0  0  0  0  0
  146.2058  131.8205  152.1385 H   0  0  0  0  0  0  0  0  0  0  0  0
  145.6685  133.4859  152.0707 H   0  0  0  0  0  0  0  0  0  0  0  0
  147.6072  132.1971  150.6443 H   0  0  0  0  0  0  0  0  0  0  0  0
  146.8284  137.3003  154.6716 H   0  0  0  0  0  0  0  0  0  0  0  0
  148.0176  138.4252  155.3057 H   0  0  0  0  0  0  0  0  0  0  0  0
  147.4343  137.1071  156.3143 H   0  0  0  0  0  0  0  0  0  0  0  0
  154.0368  138.2488  155.0352 H   0  0  0  0  0  0  0  0  0  0  0  0
  147.9499  134.9749  152.8095 H   0  0  0  0  0  0  0  0  0  0  0  0
  1  2  1  0  0  0  0
  1 31  1  0  0  0  0
  1 32  1  0  0  0  0
  1 33  1  0  0  0  0
  2  6  1  0  0  0  0
  2  3  1  0  0  0  0
  2 34  1  0  0  0  0
  3  4  1  0  0  0  0
  4  5  1  0  0  0  0
  4 35  1  0  0  0  0
  4 36  1  0  0  0  0
  5  6  1  0  0  0  0
  5 37  1  0  0  0  0
  5 38  1  0  0  0  0
  6  7  1  0  0  0  0
  6  8  1  0  0  0  0
  7 39  1  0  0  0  0
  8  9  1  0  0  0  0
  8 40  1  0  0  0  0
  8 41  1  0  0  0  0
  9 28  1  0  0  0  0
  9 10  1  0  0  0  0
 10 11  2  0  0  0  0
 10 42  1  0  0  0  0
 11 12  1  0  0  0  0
 12 28  2  0  0  0  0
 12 13  1  0  0  0  0
 13 14  1  0  0  0  0
 13 25  2  0  0  0  0
 14 23  1  0  0  0  0
 14 15  1  0  0  0  0
 15 16  1  0  0  0  0
 15 43  1  0  0  0  0
 15 44  1  0  0  0  0
 16 17  1  0  0  0  0
 16 45  1  0  0  0  0
 16 46  1  0  0  0  0
 17 29  1  0  0  0  0
 17 18  1  0  0  0  0
 17 23  1  0  0  0  0
 18 19  1  0  0  0  0
 18 20  1  0  0  0  0
 18 59  1  0  0  0  0
 19 47  1  0  0  0  0
 19 48  1  0  0  0  0
 19 49  1  0  0  0  0
 20 21  1  0  0  0  0
 20 50  1  0  0  0  0
 20 51  1  0  0  0  0
 21 22  1  0  0  0  0
 21 52  1  0  0  0  0
 21 53  1  0  0  0  0
 22 54  1  0  0  0  0
 23 30  1  0  0  0  0
 23 24  1  0  0  0  0
 24 55  1  0  0  0  0
 24 56  1  0  0  0  0
 24 57  1  0  0  0  0
 25 26  1  0  0  0  0
 26 27  2  0  0  0  0
 26 58  1  0  0  0  0
 27 28  1  0  0  0  0
M  CHG  1  18   1
M  END
> <s_m_source_file>
AV-unprocessed.smi

> <i_m_source_file_index>
290

> <i_lp_mmshare_version>
43012

> <i_f3d_flags>
0

> <s_epik_input>
W0NIMl0xW0NIMl1PW0NAQEhdKFtDSDNdKVtDQEBdMShbT0hdKVtDSDJdbihbY0hdbjIpYyhjMjMpbltjSF1uYzNONFtDSDJdW0NIMl1bQ0BIXShbQ0BIXTRbQ0gzXSlOKFtDSDNdKVtDSDJdW0NIMl1bT0hd

> <s_epik_cmdline>
J2VwaWtfcHl0aG9uJywgJy1waCcsICc3LjAnLCAnLXRuJywgJzgnLCAnLW1hJywgJzIwMCcsICctbWV0YWxfYmluZGluZycsICctaW1hZScsICc8aW5maWxlLm1hZT4nLCAnLW9tYWUnLCAnPG91dGZpbGUubWFlPic=

> <r_lp_tautomer_probability>
1

> <r_epik_Ionization_Penalty>
0.0036983

> <r_epik_Ionization_Penalty_Charging>
0.0032725

> <r_epik_Ionization_Penalty_Neutral>
0.000425798

> <r_epik_State_Penalty>
-0

> <r_epik_Charging_Adjusted_Penalty>
0.0032725

> <i_epik_Tot_Q>
1

> <i_epik_Tot_abs_Q>
1

> <r_epik_Metal_State_Penalty>
-0

> <b_epik_Metal_Only>
0

> <s_lp_Force_Field>
OPLS_2005

> <r_lp_Energy>
62.8721

> <b_lp_Chiralities_Consistent>
1

> <s_lp_Variant>
AV-unprocessed.smi:290-16

> <Gold.Version>
5.8.1

> <Gold.Id.Protein>
6NUR|6NUR_protein|mol2

> <Gold.PLP.Fitness>
58.5105

> <Gold.PLP.PLP>
-41.5961

> <Gold.PLP.part.hbond>
-4.8332

> <Gold.PLP.part.metal>
0.0000

> <Gold.PLP.part.buried>
-4.0521

> <Gold.PLP.part.nonpolar>
-32.9046

> <Gold.PLP.part.repulsive>
0.1478

> <Gold.PLP.ligand.clash>
0.0000

> <Gold.PLP.ligand.torsion>
0.4717

> <Gold.PLP.Chemscore.Hbond>
5.7340

> <Gold.PLP.Chemscore.CHOScore>
0.0000

> <Gold.PLP.Chemscore.Metal>
0.0000

> <Gold.Chemscore.Hbonds>
donor molecule, donor type, donor heavy atom, donor atom, acceptor molecule, acceptor atom, score
      L1  H     7    39       P1  8028  0.80
      L1  H    18    59       P1  7948  2.00
      L1  H    22    54       P1 10747  1.00
      P1  H  7997  8010       L1    27  0.85
      P1  H 10752 10763       L1    25  0.64

> <Gold.PLP.Chemscore.Internal.Correction>
0.6558

> <Gold.Rescore>
     Score         DG    S(hbond)    S(metal)    S(lipo)     H(rot)  DE(clash)    DE(int)     intcor
     13.72     -19.17       3.50        0.00      97.42       3.67       2.28       3.17       ----

> <Gold.Chemscore.Fitness>
13.7217

> <Gold.Chemscore.DG>
-19.1706

> <Gold.Chemscore.ZeroCoef>
-5.4800

> <Gold.Chemscore.Hbond>
3.4960

> <Gold.Chemscore.Metal>
0.0000

> <Gold.Chemscore.Lipo>
97.4220

> <Gold.Chemscore.Internal_Hbond>
0.0000

> <Gold.Chemscore.DEClash>
2.2837

> <Gold.Chemscore.DEInternal>
3.1651

> <Gold.Chemscore.Rot>
3.6658

> <Gold.Chemscore.Internal.Correction>
   9.000000E+99

> <Gold.Chemscore.Hbonds>
donor molecule, donor type, donor heavy atom, donor atom, acceptor molecule, acceptor atom, score
      L1  H     7    39       P1  8028  0.55
      L1  H    18    59       P1  7948  0.93
      L1  H    22    54       P1 10747  0.94
      P1  H  7997  8010       L1    27  0.15
      P1  H 10752 10763       L1    25  0.59

> <Gold.Chemscore.Hbond.Weighted>
-11.6766

> <Gold.Chemscore.Metal.Weighted>
-0.0000

> <Gold.Chemscore.Lipo.Weighted>
-11.3984

> <Gold.Chemscore.Internal_Hbond.Weighted>
0.0000

> <Gold.Chemscore.DEClash.Weighted>
2.2837

> <Gold.Chemscore.DEInternal.Weighted>
3.1651

> <Gold.Chemscore.Rot.Weighted>
9.3844

> <Gold.Chemscore.Internal.Correction.Weighted>
   9.000000E+99

> <Gold.Protein.RotatedTorsions>
[ 6907 6896 6895 6894 ] final  -42.20 input  -60.11 | X-H torsion
[ 7974 7965 7964 7962 ] final   40.09 input  175.53 | X-H torsion
[ 8008 7997 7996 7995 ] final   91.75 input   59.86 | X-H torsion
[ 10167 10162 10161 10158 ] final -171.99 input  -65.29 | X-H torsion
[ 10718 10713 10712 10709 ] final   19.14 input   66.30 | X-H torsion
[ 10763 10752 10751 10750 ] final   55.70 input  -60.55 | X-H torsion
[ 11005 11000 10999 10996 ] final -102.51 input  -57.11 | X-H torsion

> <Gold.Protein.ActiveResidues>
 VAL166  LYS551  ARG553  GLY616  TRP617  ASP618  TYR619  PRO620  LYS621  CYS622 
 ASP623  PHE694  ASN695  SER759  ASP760  ASP761  ALA762  ILE779  LEU786  VAL792 
 PHE793  MET794  SER795  GLU796  ALA797  LYS798  CYS799  TRP800  GLU811  SER814 

> <Gold.Protein.RotatedAtoms>
  150.9580  134.8972  159.7712 H   0  0  0  0  0  0  0  0  0  0  0  0  # atno 6907 bound_to 6896
  152.5145  134.3713  159.9329 H   0  0  0  0  0  0  0  0  0  0  0  0  # atno 6908 bound_to 6896
  151.3726  133.3809  159.2736 H   0  0  0  0  0  0  0  0  0  0  0  0  # atno 6909 bound_to 6896
  146.0932  139.5574  142.9462 H   0  0  0  0  0  0  0  0  0  0  0  0  # atno 7974 bound_to 7965
  156.0274  140.3334  155.7102 H   0  0  0  0  0  0  0  0  0  0  0  0  # atno 8008 bound_to 7997
  155.5935  140.0648  157.2770 H   0  0  0  0  0  0  0  0  0  0  0  0  # atno 8009 bound_to 7997
  154.4339  140.1823  156.1087 H   0  0  0  0  0  0  0  0  0  0  0  0  # atno 8010 bound_to 7997
  139.5770  144.1509  152.1464 H   0  0  0  0  0  0  0  0  0  0  0  0  # atno 10167 bound_to 10162
  157.1062  130.6489  149.5885 H   0  0  0  0  0  0  0  0  0  0  0  0  # atno 10718 bound_to 10713
  152.9820  135.5702  154.5109 H   0  0  0  0  0  0  0  0  0  0  0  0  # atno 10763 bound_to 10752
  154.4613  135.2781  155.1713 H   0  0  0  0  0  0  0  0  0  0  0  0  # atno 10764 bound_to 10752
  154.3300  135.6251  153.5600 H   0  0  0  0  0  0  0  0  0  0  0  0  # atno 10765 bound_to 10752
  141.1186  133.8564  157.1369 H   0  0  0  0  0  0  0  0  0  0  0  0  # atno 11005 bound_to 11000
  145.5998  141.0357  143.2024 LP  0  0  0  0  0  0  0  0  0  0  0  0  # atno 17320 bound_to 7965
  144.7376  139.7541  143.7323 LP  0  0  0  0  0  0  0  0  0  0  0  0  # atno 17321 bound_to 7965
  140.1054  144.5503  150.6961 LP  0  0  0  0  0  0  0  0  0  0  0  0  # atno 17342 bound_to 10162
  140.7052  143.2463  151.4747 LP  0  0  0  0  0  0  0  0  0  0  0  0  # atno 17343 bound_to 10162
  155.9861  130.4894  150.7064 LP  0  0  0  0  0  0  0  0  0  0  0  0  # atno 17370 bound_to 10713
  157.4598  131.0882  151.0758 LP  0  0  0  0  0  0  0  0  0  0  0  0  # atno 17371 bound_to 10713
  140.0126  134.9981  157.0426 LP  0  0  0  0  0  0  0  0  0  0  0  0  # atno 17394 bound_to 11000
  140.4574  134.1519  155.7187 LP  0  0  0  0  0  0  0  0  0  0  0  0  # atno 17395 bound_to 11000

$$$$
