AV-unprocessed.smi:3026|AV-procd|sdf|11513|dock10
  -GOLD-   2272016453D 1   1.00000     0.00000
 Structure written by MMmdl.
 33 34  0  0  0  0  0  0  0  0  1 V2000
  153.0123  141.9989  160.5168 C   0  0  0  0  0  0  0  0  0  0  0  0
  152.2900  142.4123  159.2526 C   0  0  0  0  0  0  0  0  0  0  0  0
  151.9615  143.7595  158.9970 C   0  0  0  0  0  0  0  0  0  0  0  0
  151.2863  144.0151  157.7868 C   0  0  0  0  0  0  0  0  0  0  0  0
  150.9743  143.0249  156.9227 N   0  0  0  0  0  0  0  0  0  0  0  0
  151.3414  141.7836  157.2591 C   0  0  0  0  0  0  0  0  0  0  0  0
  150.9868  140.7794  156.3665 N   0  0  0  0  0  0  0  0  0  0  0  0
  152.1387  140.0074  155.9089 C   0  0  0  0  0  0  0  0  0  0  0  0
  151.6957  138.7267  155.1926 C   0  0  0  0  0  0  0  0  0  0  0  0
  150.8522  139.0825  154.1087 O   0  0  0  0  0  0  0  0  0  0  0  0
  149.6688  139.7270  154.5609 C   0  0  0  0  0  0  0  0  0  0  0  0
  149.9978  141.0437  155.3082 C   0  0  1  0  0  0  0  0  0  0  0  0
  148.6984  141.6895  155.8654 C   0  0  0  0  0  0  0  0  0  0  0  0
  147.5740  141.8897  154.8339 C   0  0  0  0  0  0  0  0  0  0  0  0
  147.8643  142.9823  153.9880 O   0  0  0  0  0  0  0  0  0  0  0  0
  151.9728  141.4267  158.3854 N   0  0  0  0  0  0  0  0  0  0  0  0
  153.4618  142.8607  161.0107 H   0  0  0  0  0  0  0  0  0  0  0  0
  153.8057  141.2860  160.2901 H   0  0  0  0  0  0  0  0  0  0  0  0
  152.3153  141.5298  161.2115 H   0  0  0  0  0  0  0  0  0  0  0  0
  152.2100  144.5525  159.6869 H   0  0  0  0  0  0  0  0  0  0  0  0
  150.9937  145.0177  157.5121 H   0  0  0  0  0  0  0  0  0  0  0  0
  152.7359  140.6237  155.2355 H   0  0  0  0  0  0  0  0  0  0  0  0
  152.7788  139.7478  156.7532 H   0  0  0  0  0  0  0  0  0  0  0  0
  152.5636  138.1917  154.8071 H   0  0  0  0  0  0  0  0  0  0  0  0
  151.1791  138.0507  155.8759 H   0  0  0  0  0  0  0  0  0  0  0  0
  149.0538  139.9242  153.6840 H   0  0  0  0  0  0  0  0  0  0  0  0
  149.1010  139.0472  155.1986 H   0  0  0  0  0  0  0  0  0  0  0  0
  150.4603  141.7329  154.6004 H   0  0  0  0  0  0  0  0  0  0  0  0
  148.3206  141.0762  156.6844 H   0  0  0  0  0  0  0  0  0  0  0  0
  148.9044  142.6648  156.3051 H   0  0  0  0  0  0  0  0  0  0  0  0
  147.4060  140.9955  154.2353 H   0  0  0  0  0  0  0  0  0  0  0  0
  146.6364  142.0983  155.3496 H   0  0  0  0  0  0  0  0  0  0  0  0
  148.4070  143.5941  154.4620 H   0  0  0  0  0  0  0  0  0  0  0  0
  1  2  1  0  0  0  0
  1 17  1  0  0  0  0
  1 18  1  0  0  0  0
  1 19  1  0  0  0  0
  2 16  1  0  0  0  0
  2  3  2  0  0  0  0
  3  4  1  0  0  0  0
  3 20  1  0  0  0  0
  4  5  2  0  0  0  0
  4 21  1  0  0  0  0
  5  6  1  0  0  0  0
  6  7  1  0  0  0  0
  6 16  2  0  0  0  0
  7 12  1  0  0  0  0
  7  8  1  0  0  0  0
  8  9  1  0  0  0  0
  8 22  1  0  0  0  0
  8 23  1  0  0  0  0
  9 10  1  0  0  0  0
  9 24  1  0  0  0  0
  9 25  1  0  0  0  0
 10 11  1  0  0  0  0
 11 12  1  0  0  0  0
 11 26  1  0  0  0  0
 11 27  1  0  0  0  0
 12 13  1  0  0  0  0
 12 28  1  0  0  0  0
 13 14  1  0  0  0  0
 13 29  1  0  0  0  0
 13 30  1  0  0  0  0
 14 15  1  0  0  0  0
 14 31  1  0  0  0  0
 14 32  1  0  0  0  0
 15 33  1  0  0  0  0
M  END
> <s_m_source_file>
AV-unprocessed.smi

> <i_m_source_file_index>
3026

> <i_lp_mmshare_version>
43012

> <i_f3d_flags>
0

> <s_epik_input>
W0NIM11jMVtjSF1bY0hdbmMobjEpTjJbQ0gyXVtDSDJdT1tDSDJdW0NASF0yW0NIMl1bQ0gyXVtPSF0=

> <s_epik_cmdline>
J2VwaWtfcHl0aG9uJywgJy1waCcsICc3LjAnLCAnLXRuJywgJzgnLCAnLW1hJywgJzIwMCcsICctbWV0YWxfYmluZGluZycsICctaW1hZScsICc8aW5maWxlLm1hZT4nLCAnLW9tYWUnLCAnPG91dGZpbGUubWFlPic=

> <r_lp_tautomer_probability>
1

> <r_epik_Ionization_Penalty>
6.52665e-05

> <r_epik_Ionization_Penalty_Charging>
0

> <r_epik_Ionization_Penalty_Neutral>
6.52665e-05

> <r_epik_State_Penalty>
-0

> <r_epik_Charging_Adjusted_Penalty>
0

> <i_epik_Tot_Q>
0

> <i_epik_Tot_abs_Q>
0

> <r_epik_Metal_State_Penalty>
-0

> <b_epik_Metal_Only>
0

> <s_lp_Force_Field>
OPLS_2005

> <r_lp_Energy>
15.2375

> <b_lp_Chiralities_Consistent>
1

> <s_lp_Variant>
AV-unprocessed.smi:3026-1

> <Gold.Version>
5.8.1

> <Gold.Id.Protein>
6NUR|6NUR_protein|mol2

> <Gold.PLP.Fitness>
37.5361

> <Gold.PLP.PLP>
-31.8831

> <Gold.PLP.part.hbond>
-3.9608

> <Gold.PLP.part.metal>
0.0000

> <Gold.PLP.part.buried>
-0.6807

> <Gold.PLP.part.nonpolar>
-28.6693

> <Gold.PLP.part.repulsive>
1.4277

> <Gold.PLP.ligand.clash>
0.0000

> <Gold.PLP.ligand.torsion>
0.2757

> <Gold.PLP.Chemscore.Hbond>
1.7000

> <Gold.PLP.Chemscore.CHOScore>
0.2651

> <Gold.PLP.Chemscore.Metal>
0.0000

> <Gold.Chemscore.Hbonds>
donor molecule, donor type, donor heavy atom, donor atom, acceptor molecule, acceptor atom, score
      L1  H    15    33       P1  8028  1.00
      P1  H  7989  7998       L1    10  0.59
      L1  C     4    21       P1  8028  0.21

> <Gold.PLP.Chemscore.Internal.Correction>
0.3090

> <Gold.Rescore>
     Score         DG    S(hbond)    S(metal)    S(lipo)     H(rot)  DE(clash)    DE(int)     intcor
     11.88     -13.82       0.99        0.00      86.49       1.99       0.39       1.54       ----

> <Gold.Chemscore.Fitness>
11.8841

> <Gold.Chemscore.DG>
-13.8194

> <Gold.Chemscore.ZeroCoef>
-5.4800

> <Gold.Chemscore.Hbond>
0.9897

> <Gold.Chemscore.Metal>
0.0000

> <Gold.Chemscore.Lipo>
86.4879

> <Gold.Chemscore.Internal_Hbond>
0.0000

> <Gold.Chemscore.DEClash>
0.3938

> <Gold.Chemscore.DEInternal>
1.5415

> <Gold.Chemscore.Rot>
1.9864

> <Gold.Chemscore.Internal.Correction>
   9.000000E+99

> <Gold.Chemscore.Hbonds>
donor molecule, donor type, donor heavy atom, donor atom, acceptor molecule, acceptor atom, score
      L1  H    15    33       P1  8028  0.98
      P1  H  7989  7998       L1    10  0.02

> <Gold.Chemscore.Hbond.Weighted>
-3.3055

> <Gold.Chemscore.Metal.Weighted>
-0.0000

> <Gold.Chemscore.Lipo.Weighted>
-10.1191

> <Gold.Chemscore.Internal_Hbond.Weighted>
0.0000

> <Gold.Chemscore.DEClash.Weighted>
0.3938

> <Gold.Chemscore.DEInternal.Weighted>
1.5415

> <Gold.Chemscore.Rot.Weighted>
5.0851

> <Gold.Chemscore.Internal.Correction.Weighted>
   9.000000E+99

> <Gold.Protein.RotatedTorsions>
[ 6907 6896 6895 6894 ] final   32.15 input  -60.11 | X-H torsion
[ 7974 7965 7964 7962 ] final   42.67 input  175.53 | X-H torsion
[ 8008 7997 7996 7995 ] final -158.07 input   59.86 | X-H torsion
[ 10167 10162 10161 10158 ] final  159.10 input  -65.29 | X-H torsion
[ 10718 10713 10712 10709 ] final  -47.94 input   66.30 | X-H torsion
[ 10763 10752 10751 10750 ] final -168.84 input  -60.55 | X-H torsion
[ 11005 11000 10999 10996 ] final  103.02 input  -57.11 | X-H torsion

> <Gold.Protein.ActiveResidues>
 VAL166  LYS551  ARG553  GLY616  TRP617  ASP618  TYR619  PRO620  LYS621  CYS622 
 ASP623  PHE694  ASN695  SER759  ASP760  ASP761  ALA762  ILE779  LEU786  VAL792 
 PHE793  MET794  SER795  GLU796  ALA797  LYS798  CYS799  TRP800  GLU811  SER814 

> <Gold.Protein.RotatedAtoms>
  152.0703  134.9537  160.0574 H   0  0  0  0  0  0  0  0  0  0  0  0  # atno 6907 bound_to 6896
  152.0866  133.4174  159.4533 H   0  0  0  0  0  0  0  0  0  0  0  0  # atno 6908 bound_to 6896
  150.6836  134.2840  159.4682 H   0  0  0  0  0  0  0  0  0  0  0  0  # atno 6909 bound_to 6896
  146.0721  139.5274  142.9591 H   0  0  0  0  0  0  0  0  0  0  0  0  # atno 7974 bound_to 7965
  155.7421  140.0815  157.2241 H   0  0  0  0  0  0  0  0  0  0  0  0  # atno 8008 bound_to 7997
  154.4021  140.1576  156.2683 H   0  0  0  0  0  0  0  0  0  0  0  0  # atno 8009 bound_to 7997
  155.9011  140.3409  155.6030 H   0  0  0  0  0  0  0  0  0  0  0  0  # atno 8010 bound_to 7997
  139.4830  144.4762  151.8508 H   0  0  0  0  0  0  0  0  0  0  0  0  # atno 10167 bound_to 10162
  156.2036  130.4157  149.9208 H   0  0  0  0  0  0  0  0  0  0  0  0  # atno 10718 bound_to 10713
  154.6586  135.2921  154.9896 H   0  0  0  0  0  0  0  0  0  0  0  0  # atno 10763 bound_to 10752
  154.0964  135.6583  153.4865 H   0  0  0  0  0  0  0  0  0  0  0  0  # atno 10764 bound_to 10752
  153.0416  135.5232  154.7526 H   0  0  0  0  0  0  0  0  0  0  0  0  # atno 10765 bound_to 10752
  139.8781  134.9247  156.5146 H   0  0  0  0  0  0  0  0  0  0  0  0  # atno 11005 bound_to 11000
  145.6372  141.0292  143.1831 LP  0  0  0  0  0  0  0  0  0  0  0  0  # atno 17320 bound_to 7965
  144.7238  139.7942  143.7372 LP  0  0  0  0  0  0  0  0  0  0  0  0  # atno 17321 bound_to 7965
  140.4234  144.2213  150.5887 LP  0  0  0  0  0  0  0  0  0  0  0  0  # atno 17342 bound_to 10162
  140.4851  143.2366  151.8899 LP  0  0  0  0  0  0  0  0  0  0  0  0  # atno 17343 bound_to 10162
  156.6910  130.8895  151.3588 LP  0  0  0  0  0  0  0  0  0  0  0  0  # atno 17370 bound_to 10713
  157.6999  130.9322  150.0755 LP  0  0  0  0  0  0  0  0  0  0  0  0  # atno 17371 bound_to 10713
  140.8495  133.8143  155.9154 LP  0  0  0  0  0  0  0  0  0  0  0  0  # atno 17394 bound_to 11000
  140.9158  134.2203  157.4957 LP  0  0  0  0  0  0  0  0  0  0  0  0  # atno 17395 bound_to 11000

$$$$
