#       Name:                AV-unprocessed.smi:1439
#       Creating user name   scv26
#       Creation time:       Fri Mar 27 05:54:52 2020


#       File generated by GOLD software.
#

@<TRIPOS>MOLECULE
AV-unprocessed.smi:1439
    43    44     1
SMALL
NO_CHARGES


@<TRIPOS>ATOM
      1 ****        -5.7843  -1.6180   0.4713 N.am           1 S1                 0.0000
      2 ****        -5.7550  -1.8491  -0.8450 C.2            1 S1                 0.0000
      3 ****        -5.8941  -2.9786  -1.3100 O.2            1 S1                 0.0000
      4 ****        -5.5700  -0.6474  -1.7801 C.3            1 S1                 0.0000
      5 ****        -4.4459   0.2431  -1.3288 C.2            1 S1                 0.0000
      6 ****        -4.5608   1.4531  -0.6938 C.2            1 S1                 0.0000
      7 ****        -3.0042   2.1462  -0.3412 S.3            1 S1                 0.0000
      8 ****        -2.2256   0.7465  -1.0810 C.2            1 S1                 0.0000
      9 ****        -0.8991   0.5714  -1.1835 N.pl3          1 S1                -1.0000
     10 ****        -0.2133   0.0424  -0.1419 C.2            1 S1                 0.0000
     11 ****        -0.6418  -0.3320   0.9513 O.2            1 S1                 0.0000
     12 ****         1.2874  -0.0725  -0.4402 C.3            1 S1                 0.0000
     13 ****         2.1514   0.5372   0.6782 C.3            1 S1                 0.0000
     14 ****         3.6521   0.5005   0.3547 C.3            1 S1                 0.0000
     15 ****         4.5281   1.1661   1.4134 C.3            1 S1                 0.0000
     16 ****         5.8662   0.5148   1.1484 C.3            1 S1                 0.0000
     17 ****         5.4611  -0.9151   0.7964 C.3            1 S1                 0.0000
     18 ****         4.1297  -0.8405   0.2910 O.3            1 S1                 0.0000
     19 ****        -3.1175  -0.1317  -1.5524 N.2            1 S1                 0.0000
     20 ****        -5.8752  -2.3908   1.1143 H              1 S1                 0.0000
     21 ****        -5.6860  -0.6747   0.8180 H              1 S1                 0.0000
     22 ****        -5.3839  -1.0067  -2.7930 H              1 S1                 0.0000
     23 ****        -6.5076  -0.0923  -1.8197 H              1 S1                 0.0000
     24 ****        -5.4619   1.9753  -0.4097 H              1 S1                 0.0000
     25 ****         1.5285  -1.1292  -0.5605 H              1 S1                 0.0000
     26 ****         1.5355   0.4078  -1.3889 H              1 S1                 0.0000
     27 ****         1.8502   1.5734   0.8392 H              1 S1                 0.0000
     28 ****         1.9706   0.0141   1.6183 H              1 S1                 0.0000
     29 ****         3.8413   0.9732  -0.6106 H              1 S1                 0.0000
     30 ****         4.5546   2.2524   1.3232 H              1 S1                 0.0000
     31 ****         4.1816   0.9127   2.4164 H              1 S1                 0.0000
     32 ****         6.3483   0.9897   0.2928 H              1 S1                 0.0000
     33 ****         6.5471   0.5688   1.9983 H              1 S1                 0.0000
     34 ****         6.1364  -1.3651   0.0682 H              1 S1                 0.0000
     35 ****         5.4570  -1.5435   1.6876 H              1 S1                 0.0000
     36 ****        -6.0341  -3.7573  -0.6985 LP             1 S1                 0.0000
     37 ****        -5.8673  -3.1187  -2.2998 LP             1 S1                 0.0000
     38 ****        -0.4204   0.8295  -2.0227 LP             1 S1                 0.0000
     39 ****        -1.6180  -0.2613   1.1566 LP             1 S1                 0.0000
     40 ****        -0.0134  -0.7065   1.6330 LP             1 S1                 0.0000
     41 ****         4.1198  -1.1496  -0.6600 LP             1 S1                 0.0000
     42 ****         3.5352  -1.4290   0.8389 LP             1 S1                 0.0000
     43 ****        -2.8587  -0.9766  -2.0206 LP             1 S1                 0.0000
@<TRIPOS>BOND
    1    1    2 am    
    2    1   20 1     
    3    1   21 1     
    4    2    3 2     
    5    2    4 1     
    6    4    5 1     
    7    4   22 1     
    8    4   23 1     
    9    5   19 1     
   10    5    6 2     
   11    6    7 1     
   12    6   24 1     
   13    7    8 1     
   14    8    9 1     
   15    8   19 2     
   16    9   10 1     
   17   10   11 2     
   18   10   12 1     
   19   12   13 1     
   20   12   25 1     
   21   12   26 1     
   22   13   14 1     
   23   13   27 1     
   24   13   28 1     
   25   14   18 1     
   26   14   15 1     
   27   14   29 1     
   28   15   16 1     
   29   15   30 1     
   30   15   31 1     
   31   16   17 1     
   32   16   32 1     
   33   16   33 1     
   34   17   18 1     
   35   17   34 1     
   36   17   35 1     
   37    3   36 1     
   38    3   37 1     
   39    9   38 1     
   40   11   39 1     
   41   11   40 1     
   42   18   41 1     
   43   18   42 1     
   44   19   43 1     
@<TRIPOS>SUBSTRUCTURE
      1 S1             1
@<TRIPOS>SET
LONE_PAIRS      STATIC     ATOMS    <user>   **** ""
8 36 37 38 39 40 41 42 43
DONOR_HYDROGENS      STATIC     ATOMS    <user>   **** ""
2 20 21
ATOM$BLUE        STATIC     ATOMS    COLORGROUP SYSTEM
8 36 37 38 39 40 41 42 43
ATOM$RED        STATIC     ATOMS    COLORGROUP SYSTEM
2 20 21
