AV-unprocessed.smi:1543|AV-procd|sdf|6210|dock1
  -GOLD-   22720 6383D 1   1.00000     0.00000
 Structure written by MMmdl.
 49 50  0  0  0  0  0  0  0  0  2 V2000
  152.0279  137.9395  154.0087 C   0  0  0  0  0  0  0  0  0  0  0  0
  150.8798  138.5807  154.7960 C   0  0  2  0  0  0  0  0  0  0  0  0
  149.5306  138.4550  154.0636 C   0  0  0  0  0  0  0  0  0  0  0  0
  148.4526  139.1445  154.8271 N   0  3  2  0  0  0  0  0  0  0  0  0
  147.0488  138.9368  154.3175 C   0  0  0  0  0  0  0  0  0  0  0  0
  146.0951  139.9717  154.9657 C   0  0  0  0  0  0  0  0  0  0  0  0
  147.0099  139.2144  152.7933 C   0  0  0  0  0  0  0  0  0  0  0  0
  146.5430  137.4944  154.6236 C   0  0  0  0  0  0  0  0  0  0  0  0
  146.8168  136.5400  153.5498 N   0  0  0  0  0  0  0  0  0  0  0  0
  145.9014  135.7868  152.9234 C   0  0  0  0  0  0  0  0  0  0  0  0
  144.7014  135.8119  153.1952 O   0  0  0  0  0  0  0  0  0  0  0  0
  146.4676  135.0275  151.9701 N   0  0  0  0  0  0  0  0  0  0  0  0
  145.8478  134.0849  151.1058 C   0  0  0  0  0  0  0  0  0  0  0  0
  144.4744  134.1010  150.7609 C   0  0  0  0  0  0  0  0  0  0  0  0
  143.9764  133.0983  149.9070 C   0  0  0  0  0  0  0  0  0  0  0  0
  144.8656  132.1134  149.4353 C   0  0  0  0  0  0  0  0  0  0  0  0
  146.1734  132.0776  149.7666 N   0  0  0  0  0  0  0  0  0  0  0  0
  146.6436  133.0415  150.5867 C   0  0  0  0  0  0  0  0  0  0  0  0
  148.8501  140.5593  155.0772 C   0  0  0  0  0  0  0  0  0  0  0  0
  150.2180  140.6225  155.7820 C   0  0  2  0  0  0  0  0  0  0  0  0
  150.6912  142.0642  156.0000 C   0  0  0  0  0  0  0  0  0  0  0  0
  151.1845  139.9572  154.9793 O   0  0  0  0  0  0  0  0  0  0  0  0
  151.8510  136.8750  153.8522 H   0  0  0  0  0  0  0  0  0  0  0  0
  152.9721  138.0429  154.5439 H   0  0  0  0  0  0  0  0  0  0  0  0
  152.1467  138.4070  153.0310 H   0  0  0  0  0  0  0  0  0  0  0  0
  150.8154  138.0932  155.7704 H   0  0  0  0  0  0  0  0  0  0  0  0
  149.6159  138.8836  153.0647 H   0  0  0  0  0  0  0  0  0  0  0  0
  149.3164  137.3950  153.9416 H   0  0  0  0  0  0  0  0  0  0  0  0
  145.1240  139.9920  154.4700 H   0  0  0  0  0  0  0  0  0  0  0  0
  146.5035  140.9812  154.9071 H   0  0  0  0  0  0  0  0  0  0  0  0
  145.8930  139.7501  156.0134 H   0  0  0  0  0  0  0  0  0  0  0  0
  145.9878  139.2869  152.4202 H   0  0  0  0  0  0  0  0  0  0  0  0
  147.4862  138.4231  152.2151 H   0  0  0  0  0  0  0  0  0  0  0  0
  147.5038  140.1551  152.5471 H   0  0  0  0  0  0  0  0  0  0  0  0
  146.9620  137.1217  155.5585 H   0  0  0  0  0  0  0  0  0  0  0  0
  145.4625  137.4922  154.7626 H   0  0  0  0  0  0  0  0  0  0  0  0
  147.7788  136.4545  153.2557 H   0  0  0  0  0  0  0  0  0  0  0  0
  147.4522  135.1795  151.8062 H   0  0  0  0  0  0  0  0  0  0  0  0
  143.7941  134.8466  151.1416 H   0  0  0  0  0  0  0  0  0  0  0  0
  142.9344  133.0824  149.6238 H   0  0  0  0  0  0  0  0  0  0  0  0
  144.5155  131.3301  148.7794 H   0  0  0  0  0  0  0  0  0  0  0  0
  147.6934  132.9786  150.8333 H   0  0  0  0  0  0  0  0  0  0  0  0
  148.9019  141.1075  154.1362 H   0  0  0  0  0  0  0  0  0  0  0  0
  148.1262  141.0714  155.7080 H   0  0  0  0  0  0  0  0  0  0  0  0
  150.1547  140.1292  156.7537 H   0  0  0  0  0  0  0  0  0  0  0  0
  149.9883  142.6190  156.6219 H   0  0  0  0  0  0  0  0  0  0  0  0
  150.7920  142.5959  155.0534 H   0  0  0  0  0  0  0  0  0  0  0  0
  151.6610  142.0846  156.4977 H   0  0  0  0  0  0  0  0  0  0  0  0
  148.4568  138.7069  155.7375 H   0  0  0  0  0  0  0  0  0  0  0  0
  1  2  1  0  0  0  0
  1 23  1  0  0  0  0
  1 24  1  0  0  0  0
  1 25  1  0  0  0  0
  2 22  1  0  0  0  0
  2  3  1  0  0  0  0
  2 26  1  0  0  0  0
  3  4  1  0  0  0  0
  3 27  1  0  0  0  0
  3 28  1  0  0  0  0
  4  5  1  0  0  0  0
  4 19  1  0  0  0  0
  4 49  1  0  0  0  0
  5  6  1  0  0  0  0
  5  7  1  0  0  0  0
  5  8  1  0  0  0  0
  6 29  1  0  0  0  0
  6 30  1  0  0  0  0
  6 31  1  0  0  0  0
  7 32  1  0  0  0  0
  7 33  1  0  0  0  0
  7 34  1  0  0  0  0
  8  9  1  0  0  0  0
  8 35  1  0  0  0  0
  8 36  1  0  0  0  0
  9 10  1  0  0  0  0
  9 37  1  0  0  0  0
 10 11  2  0  0  0  0
 10 12  1  0  0  0  0
 12 13  1  0  0  0  0
 12 38  1  0  0  0  0
 13 18  1  0  0  0  0
 13 14  2  0  0  0  0
 14 15  1  0  0  0  0
 14 39  1  0  0  0  0
 15 16  2  0  0  0  0
 15 40  1  0  0  0  0
 16 17  1  0  0  0  0
 16 41  1  0  0  0  0
 17 18  2  0  0  0  0
 18 42  1  0  0  0  0
 19 20  1  0  0  0  0
 19 43  1  0  0  0  0
 19 44  1  0  0  0  0
 20 21  1  0  0  0  0
 20 22  1  0  0  0  0
 20 45  1  0  0  0  0
 21 46  1  0  0  0  0
 21 47  1  0  0  0  0
 21 48  1  0  0  0  0
M  CHG  1   4   1
M  END
> <s_m_source_file>
AV-unprocessed.smi

> <i_m_source_file_index>
1543

> <i_lp_mmshare_version>
43012

> <i_f3d_flags>
0

> <s_epik_input>
W0NIM11bQ0BASF0xW0NIMl1OKFtDSDJdW0NASF0oTzEpW0NIM10pQyhbQ0gzXSkoW0NIM10pW0NIMl1bTkhdQyg9TylbTkhdYzJbY0hdW2NIXVtjSF1uW2NIXTI=

> <s_epik_cmdline>
J2VwaWtfcHl0aG9uJywgJy1waCcsICc3LjAnLCAnLXRuJywgJzgnLCAnLW1hJywgJzIwMCcsICctbWV0YWxfYmluZGluZycsICctaW1hZScsICc8aW5maWxlLm1hZT4nLCAnLW9tYWUnLCAnPG91dGZpbGUubWFlPic=

> <r_epik_Ionization_Penalty>
0.60676

> <r_epik_Ionization_Penalty_Charging>
0.602531

> <r_epik_Ionization_Penalty_Neutral>
0.00422967

> <r_epik_State_Penalty>
0.607492

> <r_epik_Charging_Adjusted_Penalty>
1.21002

> <i_epik_Tot_Q>
1

> <i_epik_Tot_abs_Q>
1

> <r_epik_Metal_State_Penalty>
0.604589

> <b_epik_Metal_Only>
0

> <s_lp_Force_Field>
OPLS_2005

> <r_lp_Energy>
27.1707

> <b_lp_Chiralities_Consistent>
1

> <s_lp_Variant>
AV-unprocessed.smi:1543-6

> <Gold.Version>
5.8.1

> <Gold.Id.Protein>
6NUR|6NUR_protein|mol2

> <Gold.PLP.Fitness>
42.9845

> <Gold.PLP.PLP>
-34.0805

> <Gold.PLP.part.hbond>
-3.0000

> <Gold.PLP.part.metal>
0.0000

> <Gold.PLP.part.buried>
-3.5868

> <Gold.PLP.part.nonpolar>
-28.6612

> <Gold.PLP.part.repulsive>
0.6532

> <Gold.PLP.ligand.clash>
0.0000

> <Gold.PLP.ligand.torsion>
1.1986

> <Gold.PLP.Chemscore.Hbond>
2.9280

> <Gold.PLP.Chemscore.CHOScore>
0.7944

> <Gold.PLP.Chemscore.Metal>
0.0000

> <Gold.Chemscore.Hbonds>
donor molecule, donor type, donor heavy atom, donor atom, acceptor molecule, acceptor atom, score
      L1  H     9    37       P1  7948  0.94
      L1  H    12    38       P1  7948  1.00
      P1  H  7989  7998       L1    22  1.00
      L1  C    18    42       P1 10747  0.80

> <Gold.PLP.Chemscore.Internal.Correction>
0.1339

> <Gold.Rescore>
     Score         DG    S(hbond)    S(metal)    S(lipo)     H(rot)  DE(clash)    DE(int)     intcor
     19.71     -22.36       2.67        0.00      99.97       1.46       0.49       2.16       ----

> <Gold.Chemscore.Fitness>
19.7150

> <Gold.Chemscore.DG>
-22.3626

> <Gold.Chemscore.ZeroCoef>
-5.4800

> <Gold.Chemscore.Hbond>
2.6742

> <Gold.Chemscore.Metal>
0.0000

> <Gold.Chemscore.Lipo>
99.9728

> <Gold.Chemscore.Internal_Hbond>
0.0000

> <Gold.Chemscore.DEClash>
0.4918

> <Gold.Chemscore.DEInternal>
2.1559

> <Gold.Chemscore.Rot>
1.4632

> <Gold.Chemscore.Internal.Correction>
   9.000000E+99

> <Gold.Chemscore.Hbonds>
donor molecule, donor type, donor heavy atom, donor atom, acceptor molecule, acceptor atom, score
      L1  H     9    37       P1  7948  0.91
      L1  H    12    38       P1  7948  0.90
      P1  H  7989  7998       L1    22  0.82

> <Gold.Chemscore.Hbond.Weighted>
-8.9317

> <Gold.Chemscore.Metal.Weighted>
-0.0000

> <Gold.Chemscore.Lipo.Weighted>
-11.6968

> <Gold.Chemscore.Internal_Hbond.Weighted>
0.0000

> <Gold.Chemscore.DEClash.Weighted>
0.4918

> <Gold.Chemscore.DEInternal.Weighted>
2.1559

> <Gold.Chemscore.Rot.Weighted>
3.7459

> <Gold.Chemscore.Internal.Correction.Weighted>
   9.000000E+99

> <Gold.Protein.RotatedTorsions>
[ 6907 6896 6895 6894 ] final  -39.09 input  -60.11 | X-H torsion
[ 7974 7965 7964 7962 ] final  -14.50 input  175.53 | X-H torsion
[ 8008 7997 7996 7995 ] final  -33.38 input   59.86 | X-H torsion
[ 10167 10162 10161 10158 ] final  -26.19 input  -65.29 | X-H torsion
[ 10718 10713 10712 10709 ] final  -20.78 input   66.30 | X-H torsion
[ 10763 10752 10751 10750 ] final  165.50 input  -60.55 | X-H torsion
[ 11005 11000 10999 10996 ] final  149.55 input  -57.11 | X-H torsion

> <Gold.Protein.ActiveResidues>
 VAL166  LYS551  ARG553  GLY616  TRP617  ASP618  TYR619  PRO620  LYS621  CYS622 
 ASP623  PHE694  ASN695  SER759  ASP760  ASP761  ALA762  ILE779  LEU786  VAL792 
 PHE793  MET794  SER795  GLU796  ALA797  LYS798  CYS799  TRP800  GLU811  SER814 

> <Gold.Protein.RotatedAtoms>
  150.9945  134.9272  159.7918 H   0  0  0  0  0  0  0  0  0  0  0  0  # atno 6907 bound_to 6896
  152.5260  134.3237  159.9167 H   0  0  0  0  0  0  0  0  0  0  0  0  # atno 6908 bound_to 6896
  151.3243  133.3985  159.2691 H   0  0  0  0  0  0  0  0  0  0  0  0  # atno 6909 bound_to 6896
  146.2071  140.3357  142.8403 H   0  0  0  0  0  0  0  0  0  0  0  0  # atno 7974 bound_to 7965
  154.4150  140.1712  156.1879 H   0  0  0  0  0  0  0  0  0  0  0  0  # atno 8008 bound_to 7997
  155.9627  140.3392  155.6481 H   0  0  0  0  0  0  0  0  0  0  0  0  # atno 8009 bound_to 7997
  155.6727  140.0713  157.2505 H   0  0  0  0  0  0  0  0  0  0  0  0  # atno 8010 bound_to 7997
  140.7284  143.4199  151.0968 H   0  0  0  0  0  0  0  0  0  0  0  0  # atno 10167 bound_to 10162
  156.5272  130.4646  149.6566 H   0  0  0  0  0  0  0  0  0  0  0  0  # atno 10718 bound_to 10713
  154.3250  135.2755  155.2501 H   0  0  0  0  0  0  0  0  0  0  0  0  # atno 10763 bound_to 10752
  154.4838  135.5851  153.6412 H   0  0  0  0  0  0  0  0  0  0  0  0  # atno 10764 bound_to 10752
  152.9872  135.6118  154.3437 H   0  0  0  0  0  0  0  0  0  0  0  0  # atno 10765 bound_to 10752
  140.1054  134.8957  157.1858 H   0  0  0  0  0  0  0  0  0  0  0  0  # atno 11005 bound_to 11000
  144.8821  140.7414  143.5980 LP  0  0  0  0  0  0  0  0  0  0  0  0  # atno 17320 bound_to 7965
  145.3277  139.1769  143.4553 LP  0  0  0  0  0  0  0  0  0  0  0  0  # atno 17321 bound_to 7965
  139.7843  143.8309  152.3142 LP  0  0  0  0  0  0  0  0  0  0  0  0  # atno 17342 bound_to 10162
  139.8271  144.7270  150.9497 LP  0  0  0  0  0  0  0  0  0  0  0  0  # atno 17343 bound_to 10162
  156.3094  130.7220  151.2110 LP  0  0  0  0  0  0  0  0  0  0  0  0  # atno 17370 bound_to 10713
  157.7427  131.0485  150.5000 LP  0  0  0  0  0  0  0  0  0  0  0  0  # atno 17371 bound_to 10713
  140.3163  134.2967  155.7256 LP  0  0  0  0  0  0  0  0  0  0  0  0  # atno 17394 bound_to 11000
  141.2117  133.7681  156.9847 LP  0  0  0  0  0  0  0  0  0  0  0  0  # atno 17395 bound_to 11000

$$$$
