AV-unprocessed.smi:1929|AV-procd|sdf|7806|dock2
  -GOLD-   22720 9543D 1   1.00000     0.00000
 Structure written by MMmdl.
 42 43  0  0  0  0  0  0  0  0  3 V2000
  143.9667  145.2629  153.6525 C   0  0  0  0  0  0  0  0  0  0  0  0
  143.8924  145.0842  155.0979 N   0  5  0  0  0  0  0  0  0  0  0  0
  144.2819  143.9474  155.7350 C   0  0  0  0  0  0  0  0  0  0  0  0
  144.8839  143.7863  156.8018 O   0  0  0  0  0  0  0  0  0  0  0  0
  143.8979  142.7028  154.9264 C   0  0  0  0  0  0  0  0  0  0  0  0
  145.1125  141.9433  154.5366 N   0  3  2  0  0  0  0  0  0  0  0  0
  145.7668  141.2538  155.6818 C   0  0  0  0  0  0  0  0  0  0  0  0
  146.9465  140.3864  155.2095 C   0  0  0  0  0  0  0  0  0  0  0  0
  147.9805  141.2060  154.4132 C   0  0  2  0  0  0  0  0  0  0  0  0
  148.7050  142.1444  155.2704 N   0  0  0  0  0  0  0  0  0  0  0  0
  149.5746  141.8036  156.2329 C   0  0  0  0  0  0  0  0  0  0  0  0
  149.8708  140.6381  156.4943 O   0  0  0  0  0  0  0  0  0  0  0  0
  150.0442  142.8912  156.8685 N   0  0  0  0  0  0  0  0  0  0  0  0
  150.9515  142.9627  157.9606 C   0  0  0  0  0  0  0  0  0  0  0  0
  151.4197  141.7478  158.5026 C   0  0  0  0  0  0  0  0  0  0  0  0
  152.3095  141.7890  159.5947 C   0  0  0  0  0  0  0  0  0  0  0  0
  152.7356  142.9373  160.1612 N   0  0  0  0  0  0  0  0  0  0  0  0
  152.2757  144.0990  159.6502 C   0  0  0  0  0  0  0  0  0  0  0  0
  151.3847  144.1697  158.5605 C   0  0  0  0  0  0  0  0  0  0  0  0
  147.2708  141.9556  153.2727 C   0  0  0  0  0  0  0  0  0  0  0  0
  146.0755  142.7836  153.7798 C   0  0  0  0  0  0  0  0  0  0  0  0
  143.5037  146.1976  153.3361 H   0  0  0  0  0  0  0  0  0  0  0  0
  143.4579  144.4676  153.1066 H   0  0  0  0  0  0  0  0  0  0  0  0
  144.9948  145.2877  153.2898 H   0  0  0  0  0  0  0  0  0  0  0  0
  143.2688  142.0895  155.5729 H   0  0  0  0  0  0  0  0  0  0  0  0
  143.2955  142.9380  154.0459 H   0  0  0  0  0  0  0  0  0  0  0  0
  146.1061  141.9930  156.4089 H   0  0  0  0  0  0  0  0  0  0  0  0
  145.0507  140.6149  156.1987 H   0  0  0  0  0  0  0  0  0  0  0  0
  147.4160  139.8982  156.0640 H   0  0  0  0  0  0  0  0  0  0  0  0
  146.5650  139.5826  154.5784 H   0  0  0  0  0  0  0  0  0  0  0  0
  148.7080  140.5234  153.9701 H   0  0  0  0  0  0  0  0  0  0  0  0
  148.5235  143.1266  155.1245 H   0  0  0  0  0  0  0  0  0  0  0  0
  149.6517  143.7750  156.5795 H   0  0  0  0  0  0  0  0  0  0  0  0
  151.1104  140.7988  158.0898 H   0  0  0  0  0  0  0  0  0  0  0  0
  152.6878  140.8737  160.0254 H   0  0  0  0  0  0  0  0  0  0  0  0
  152.6238  145.0024  160.1286 H   0  0  0  0  0  0  0  0  0  0  0  0
  151.0486  145.1373  158.2219 H   0  0  0  0  0  0  0  0  0  0  0  0
  147.9764  142.5992  152.7455 H   0  0  0  0  0  0  0  0  0  0  0  0
  146.9144  141.2324  152.5377 H   0  0  0  0  0  0  0  0  0  0  0  0
  145.5723  143.2393  152.9261 H   0  0  0  0  0  0  0  0  0  0  0  0
  146.4211  143.6010  154.4146 H   0  0  0  0  0  0  0  0  0  0  0  0
  144.7973  141.2242  153.9011 H   0  0  0  0  0  0  0  0  0  0  0  0
  1  2  1  0  0  0  0
  1 22  1  0  0  0  0
  1 23  1  0  0  0  0
  1 24  1  0  0  0  0
  2  3  1  0  0  0  0
  3  4  2  0  0  0  0
  3  5  1  0  0  0  0
  5  6  1  0  0  0  0
  5 25  1  0  0  0  0
  5 26  1  0  0  0  0
  6 21  1  0  0  0  0
  6  7  1  0  0  0  0
  6 42  1  0  0  0  0
  7  8  1  0  0  0  0
  7 27  1  0  0  0  0
  7 28  1  0  0  0  0
  8  9  1  0  0  0  0
  8 29  1  0  0  0  0
  8 30  1  0  0  0  0
  9 10  1  0  0  0  0
  9 20  1  0  0  0  0
  9 31  1  0  0  0  0
 10 11  1  0  0  0  0
 10 32  1  0  0  0  0
 11 12  2  0  0  0  0
 11 13  1  0  0  0  0
 13 14  1  0  0  0  0
 13 33  1  0  0  0  0
 14 19  1  0  0  0  0
 14 15  2  0  0  0  0
 15 16  1  0  0  0  0
 15 34  1  0  0  0  0
 16 17  2  0  0  0  0
 16 35  1  0  0  0  0
 17 18  1  0  0  0  0
 18 19  2  0  0  0  0
 18 36  1  0  0  0  0
 19 37  1  0  0  0  0
 20 21  1  0  0  0  0
 20 38  1  0  0  0  0
 20 39  1  0  0  0  0
 21 40  1  0  0  0  0
 21 41  1  0  0  0  0
M  CHG  1   2  -1
M  CHG  1   6   1
M  END
> <s_m_source_file>
AV-unprocessed.smi

> <i_m_source_file_index>
1929

> <i_lp_mmshare_version>
43012

> <i_f3d_flags>
0

> <s_epik_input>
W0NIM11bTkhdQyg9TylbQ0gyXU4xW0NIMl1bQ0gyXVtDSF0oW0NIMl1bQ0gyXTEpW05IXUMoPU8pW05IXWMyW2NIXVtjSF1uW2NIXVtjSF0y

> <s_epik_cmdline>
J2VwaWtfcHl0aG9uJywgJy1waCcsICc3LjAnLCAnLXRuJywgJzgnLCAnLW1hJywgJzIwMCcsICctbWV0YWxfYmluZGluZycsICctaW1hZScsICc8aW5maWxlLm1hZT4nLCAnLW9tYWUnLCAnPG91dGZpbGUubWFlPic=

> <r_epik_Ionization_Penalty>
6.23856

> <r_epik_Ionization_Penalty_Charging>
6.13946

> <r_epik_Ionization_Penalty_Neutral>
0.0990993

> <r_epik_State_Penalty>
7.04382

> <r_epik_Charging_Adjusted_Penalty>
13.1833

> <i_epik_Tot_Q>
0

> <i_epik_Tot_abs_Q>
2

> <r_epik_Metal_State_Penalty>
3.07449

> <b_epik_Metal_Only>
1

> <s_lp_Force_Field>
OPLS_2005

> <r_lp_Energy>
14.5033

> <b_lp_Chiralities_Consistent>
1

> <s_lp_Variant>
AV-unprocessed.smi:1929-8

> <Gold.Version>
5.8.1

> <Gold.Id.Protein>
6NUR|6NUR_protein|mol2

> <Gold.PLP.Fitness>
46.8347

> <Gold.PLP.PLP>
-36.1113

> <Gold.PLP.part.hbond>
-3.0000

> <Gold.PLP.part.metal>
0.0000

> <Gold.PLP.part.buried>
-6.1416

> <Gold.PLP.part.nonpolar>
-27.4315

> <Gold.PLP.part.repulsive>
0.5018

> <Gold.PLP.ligand.clash>
0.0000

> <Gold.PLP.ligand.torsion>
0.4100

> <Gold.PLP.Chemscore.Hbond>
3.8290

> <Gold.PLP.Chemscore.CHOScore>
0.0000

> <Gold.PLP.Chemscore.Metal>
0.0000

> <Gold.Chemscore.Hbonds>
donor molecule, donor type, donor heavy atom, donor atom, acceptor molecule, acceptor atom, score
      L1  H     6    42       P1 10175  2.00
      L1  H    10    32       P1  8028  0.93
      L1  H    13    33       P1  8028  0.96

> <Gold.PLP.Chemscore.Internal.Correction>
0.0564

> <Gold.Rescore>
     Score         DG    S(hbond)    S(metal)    S(lipo)     H(rot)  DE(clash)    DE(int)     intcor
     16.53     -20.97       2.64        0.00      92.83       1.63       1.43       3.00       ----

> <Gold.Chemscore.Fitness>
16.5326

> <Gold.Chemscore.DG>
-20.9674

> <Gold.Chemscore.ZeroCoef>
-5.4800

> <Gold.Chemscore.Hbond>
2.6364

> <Gold.Chemscore.Metal>
0.0000

> <Gold.Chemscore.Lipo>
92.8250

> <Gold.Chemscore.Internal_Hbond>
0.0000

> <Gold.Chemscore.DEClash>
1.4331

> <Gold.Chemscore.DEInternal>
3.0017

> <Gold.Chemscore.Rot>
1.6323

> <Gold.Chemscore.Internal.Correction>
   9.000000E+99

> <Gold.Chemscore.Hbonds>
donor molecule, donor type, donor heavy atom, donor atom, acceptor molecule, acceptor atom, score
      L1  H     6    42       P1 10175  0.54
      L1  H    10    32       P1  8028  0.91
      L1  H    13    33       P1  8028  0.90

> <Gold.Chemscore.Hbond.Weighted>
-8.8054

> <Gold.Chemscore.Metal.Weighted>
-0.0000

> <Gold.Chemscore.Lipo.Weighted>
-10.8605

> <Gold.Chemscore.Internal_Hbond.Weighted>
0.0000

> <Gold.Chemscore.DEClash.Weighted>
1.4331

> <Gold.Chemscore.DEInternal.Weighted>
3.0017

> <Gold.Chemscore.Rot.Weighted>
4.1786

> <Gold.Chemscore.Internal.Correction.Weighted>
   9.000000E+99

> <Gold.Protein.RotatedTorsions>
[ 6907 6896 6895 6894 ] final  -38.18 input  -60.11 | X-H torsion
[ 7974 7965 7964 7962 ] final   75.56 input  175.53 | X-H torsion
[ 8008 7997 7996 7995 ] final   86.80 input   59.86 | X-H torsion
[ 10167 10162 10161 10158 ] final  -54.01 input  -65.29 | X-H torsion
[ 10718 10713 10712 10709 ] final   50.23 input   66.30 | X-H torsion
[ 10763 10752 10751 10750 ] final  -55.90 input  -60.55 | X-H torsion
[ 11005 11000 10999 10996 ] final  -51.61 input  -57.11 | X-H torsion

> <Gold.Protein.ActiveResidues>
 VAL166  LYS551  ARG553  GLY616  TRP617  ASP618  TYR619  PRO620  LYS621  CYS622 
 ASP623  PHE694  ASN695  SER759  ASP760  ASP761  ALA762  ILE779  LEU786  VAL792 
 PHE793  MET794  SER795  GLU796  ALA797  LYS798  CYS799  TRP800  GLU811  SER814 

> <Gold.Protein.RotatedAtoms>
  151.0056  134.9356  159.7978 H   0  0  0  0  0  0  0  0  0  0  0  0  # atno 6907 bound_to 6896
  152.5289  134.3096  159.9118 H   0  0  0  0  0  0  0  0  0  0  0  0  # atno 6908 bound_to 6896
  151.3102  133.4042  159.2680 H   0  0  0  0  0  0  0  0  0  0  0  0  # atno 6909 bound_to 6896
  145.7141  139.2625  143.1634 H   0  0  0  0  0  0  0  0  0  0  0  0  # atno 7974 bound_to 7965
  155.9674  140.3388  155.6545 H   0  0  0  0  0  0  0  0  0  0  0  0  # atno 8008 bound_to 7997
  155.6719  140.0728  157.2535 H   0  0  0  0  0  0  0  0  0  0  0  0  # atno 8009 bound_to 7997
  154.4158  140.1690  156.1876 H   0  0  0  0  0  0  0  0  0  0  0  0  # atno 8010 bound_to 7997
  140.6454  143.2532  151.4875 H   0  0  0  0  0  0  0  0  0  0  0  0  # atno 10167 bound_to 10162
  157.4864  130.8348  149.8152 H   0  0  0  0  0  0  0  0  0  0  0  0  # atno 10718 bound_to 10713
  154.1981  135.6416  153.5079 H   0  0  0  0  0  0  0  0  0  0  0  0  # atno 10763 bound_to 10752
  153.0018  135.5445  154.6344 H   0  0  0  0  0  0  0  0  0  0  0  0  # atno 10764 bound_to 10752
  154.5750  135.2920  155.0762 H   0  0  0  0  0  0  0  0  0  0  0  0  # atno 10765 bound_to 10752
  141.0880  133.6638  156.3902 H   0  0  0  0  0  0  0  0  0  0  0  0  # atno 11005 bound_to 11000
  146.0686  140.7894  142.9699 LP  0  0  0  0  0  0  0  0  0  0  0  0  # atno 17320 bound_to 7965
  144.6934  140.3307  143.7216 LP  0  0  0  0  0  0  0  0  0  0  0  0  # atno 17321 bound_to 7965
  139.5664  144.2032  152.1771 LP  0  0  0  0  0  0  0  0  0  0  0  0  # atno 17342 bound_to 10162
  140.1315  144.5284  150.6799 LP  0  0  0  0  0  0  0  0  0  0  0  0  # atno 17343 bound_to 10162
  156.0149  130.3818  150.2143 LP  0  0  0  0  0  0  0  0  0  0  0  0  # atno 17370 bound_to 10713
  157.0330  131.0013  151.3306 LP  0  0  0  0  0  0  0  0  0  0  0  0  # atno 17371 bound_to 10713
  140.5318  134.6205  157.5352 LP  0  0  0  0  0  0  0  0  0  0  0  0  # atno 17394 bound_to 11000
  139.9701  134.7307  156.0058 LP  0  0  0  0  0  0  0  0  0  0  0  0  # atno 17395 bound_to 11000

$$$$
