AV-unprocessed.smi:1580|AV-procd|sdf|6359|dock7
  -GOLD-   22720 6583D 1   1.00000     0.00000
 Structure written by MMmdl.
 37 38  0  0  0  0  0  0  0  0  1 V2000
  152.3758  138.5516  159.2770 C   0  0  0  0  0  0  0  0  0  0  0  0
  153.3905  137.3283  158.3522 S   0  0  0  0  0  0  0  0  0  0  0  0
  154.5030  138.0526  157.7176 O   0  0  0  0  0  0  0  0  0  0  0  0
  153.6777  136.1960  159.2467 O   0  0  0  0  0  0  0  0  0  0  0  0
  152.2902  136.7486  157.0658 C   0  0  0  0  0  0  0  0  0  0  0  0
  151.9597  137.5835  155.9801 C   0  0  0  0  0  0  0  0  0  0  0  0
  151.0588  137.0940  155.0153 C   0  0  0  0  0  0  0  0  0  0  0  0
  150.5188  135.7933  155.1779 C   0  0  0  0  0  0  0  0  0  0  0  0
  149.5988  135.1746  154.2861 N   0  0  0  0  0  0  0  0  0  0  0  0
  149.0323  133.9570  154.3490 C   0  0  0  0  0  0  0  0  0  0  0  0
  149.2246  133.1200  155.2300 O   0  0  0  0  0  0  0  0  0  0  0  0
  148.2071  133.7567  153.3123 N   0  0  0  0  0  0  0  0  0  0  0  0
  147.4505  132.5334  153.0706 C   0  0  0  0  0  0  0  0  0  0  0  0
  146.0971  132.8308  152.4040 C   0  0  1  0  0  0  0  0  0  0  0  0
  146.2197  133.3764  150.9824 C   0  0  0  0  0  0  0  0  0  0  0  0
  144.8858  132.9835  150.3903 C   0  0  0  0  0  0  0  0  0  0  0  0
  144.6653  131.6077  151.0114 C   0  0  0  0  0  0  0  0  0  0  0  0
  145.3283  131.6364  152.2734 O   0  0  0  0  0  0  0  0  0  0  0  0
  150.9085  135.0587  156.3188 C   0  0  0  0  0  0  0  0  0  0  0  0
  151.7695  135.5174  157.2510 N   0  0  0  0  0  0  0  0  0  0  0  0
  152.9639  138.9663  160.0953 H   0  0  0  0  0  0  0  0  0  0  0  0
  151.4906  138.0595  159.6794 H   0  0  0  0  0  0  0  0  0  0  0  0
  152.0718  139.3537  158.6049 H   0  0  0  0  0  0  0  0  0  0  0  0
  152.3810  138.5730  155.8833 H   0  0  0  0  0  0  0  0  0  0  0  0
  150.8027  137.7322  154.1854 H   0  0  0  0  0  0  0  0  0  0  0  0
  149.3135  135.7470  153.5052 H   0  0  0  0  0  0  0  0  0  0  0  0
  148.1054  134.4953  152.6319 H   0  0  0  0  0  0  0  0  0  0  0  0
  148.0348  131.8514  152.4508 H   0  0  0  0  0  0  0  0  0  0  0  0
  147.2964  132.0281  154.0243 H   0  0  0  0  0  0  0  0  0  0  0  0
  145.5211  133.5385  153.0027 H   0  0  0  0  0  0  0  0  0  0  0  0
  146.4013  134.4510  150.9538 H   0  0  0  0  0  0  0  0  0  0  0  0
  147.0274  132.8777  150.4445 H   0  0  0  0  0  0  0  0  0  0  0  0
  144.1106  133.6756  150.7220 H   0  0  0  0  0  0  0  0  0  0  0  0
  144.8865  132.9651  149.3002 H   0  0  0  0  0  0  0  0  0  0  0  0
  143.6078  131.3672  151.1217 H   0  0  0  0  0  0  0  0  0  0  0  0
  145.1261  130.8337  150.3967 H   0  0  0  0  0  0  0  0  0  0  0  0
  150.5156  134.0673  156.4917 H   0  0  0  0  0  0  0  0  0  0  0  0
  1  2  1  0  0  0  0
  1 21  1  0  0  0  0
  1 22  1  0  0  0  0
  1 23  1  0  0  0  0
  2  3  2  0  0  0  0
  2  4  2  0  0  0  0
  2  5  1  0  0  0  0
  5 20  1  0  0  0  0
  5  6  2  0  0  0  0
  6  7  1  0  0  0  0
  6 24  1  0  0  0  0
  7  8  2  0  0  0  0
  7 25  1  0  0  0  0
  8  9  1  0  0  0  0
  8 19  1  0  0  0  0
  9 10  1  0  0  0  0
  9 26  1  0  0  0  0
 10 11  2  0  0  0  0
 10 12  1  0  0  0  0
 12 13  1  0  0  0  0
 12 27  1  0  0  0  0
 13 14  1  0  0  0  0
 13 28  1  0  0  0  0
 13 29  1  0  0  0  0
 14 18  1  0  0  0  0
 14 15  1  0  0  0  0
 14 30  1  0  0  0  0
 15 16  1  0  0  0  0
 15 31  1  0  0  0  0
 15 32  1  0  0  0  0
 16 17  1  0  0  0  0
 16 33  1  0  0  0  0
 16 34  1  0  0  0  0
 17 18  1  0  0  0  0
 17 35  1  0  0  0  0
 17 36  1  0  0  0  0
 19 20  2  0  0  0  0
 19 37  1  0  0  0  0
M  END
> <s_m_source_file>
AV-unprocessed.smi

> <i_m_source_file_index>
1580

> <i_lp_mmshare_version>
43012

> <i_f3d_flags>
0

> <s_epik_input>
W0NIM11TKD1PKSg9TyljMVtjSF1bY0hdYyhbY0hdbjEpW05IXUMoPU8pW05IXVtDSDJdW0NAQEhdMltDSDJdW0NIMl1bQ0gyXU8y

> <s_epik_cmdline>
J2VwaWtfcHl0aG9uJywgJy1waCcsICc3LjAnLCAnLXRuJywgJzgnLCAnLW1hJywgJzIwMCcsICctbWV0YWxfYmluZGluZycsICctaW1hZScsICc8aW5maWxlLm1hZT4nLCAnLW9tYWUnLCAnPG91dGZpbGUubWFlPic=

> <r_lp_tautomer_probability>
1

> <r_epik_Ionization_Penalty>
3.28405e-05

> <r_epik_Ionization_Penalty_Charging>
0

> <r_epik_Ionization_Penalty_Neutral>
3.28405e-05

> <r_epik_State_Penalty>
-0

> <r_epik_Charging_Adjusted_Penalty>
0

> <i_epik_Tot_Q>
0

> <i_epik_Tot_abs_Q>
0

> <r_epik_Metal_State_Penalty>
-0

> <b_epik_Metal_Only>
0

> <s_lp_Force_Field>
OPLS_2005

> <r_lp_Energy>
18.5383

> <b_lp_Chiralities_Consistent>
1

> <s_lp_Variant>
AV-unprocessed.smi:1580-2

> <Gold.Version>
5.8.1

> <Gold.Id.Protein>
6NUR|6NUR_protein|mol2

> <Gold.PLP.Fitness>
40.9883

> <Gold.PLP.PLP>
-30.2284

> <Gold.PLP.part.hbond>
-5.3637

> <Gold.PLP.part.metal>
0.0000

> <Gold.PLP.part.buried>
-5.1025

> <Gold.PLP.part.nonpolar>
-20.4545

> <Gold.PLP.part.repulsive>
0.2268

> <Gold.PLP.ligand.clash>
0.0000

> <Gold.PLP.ligand.torsion>
1.2261

> <Gold.PLP.Chemscore.Hbond>
3.7280

> <Gold.PLP.Chemscore.CHOScore>
0.0000

> <Gold.PLP.Chemscore.Metal>
0.0000

> <Gold.Chemscore.Hbonds>
donor molecule, donor type, donor heavy atom, donor atom, acceptor molecule, acceptor atom, score
      L1  H     9    26       P1  7948  1.00
      L1  H    12    27       P1  7948  0.89
      P1  H  6896  6909       L1     4  0.82
      P1  H  7997  8009       L1     3  0.74

> <Gold.PLP.Chemscore.Internal.Correction>
2.0282

> <Gold.Rescore>
     Score         DG    S(hbond)    S(metal)    S(lipo)     H(rot)  DE(clash)    DE(int)     intcor
     17.03     -19.62       3.10        0.00      60.31       1.27       0.00       2.60       ----

> <Gold.Chemscore.Fitness>
17.0255

> <Gold.Chemscore.DG>
-19.6225

> <Gold.Chemscore.ZeroCoef>
-5.4800

> <Gold.Chemscore.Hbond>
3.0968

> <Gold.Chemscore.Metal>
0.0000

> <Gold.Chemscore.Lipo>
60.3137

> <Gold.Chemscore.Internal_Hbond>
0.0000

> <Gold.Chemscore.DEClash>
0.0000

> <Gold.Chemscore.DEInternal>
2.5969

> <Gold.Chemscore.Rot>
1.2725

> <Gold.Chemscore.Internal.Correction>
   9.000000E+99

> <Gold.Chemscore.Hbonds>
donor molecule, donor type, donor heavy atom, donor atom, acceptor molecule, acceptor atom, score
      L1  H     9    26       P1  7948  0.50
      L1  H    12    27       P1  7948  0.32
      P1  H  6896  6909       L1     4  0.76
      P1  H  7997  8009       L1     3  0.69

> <Gold.Chemscore.Hbond.Weighted>
-10.3434

> <Gold.Chemscore.Metal.Weighted>
-0.0000

> <Gold.Chemscore.Lipo.Weighted>
-7.0567

> <Gold.Chemscore.Internal_Hbond.Weighted>
0.0000

> <Gold.Chemscore.DEClash.Weighted>
0.0000

> <Gold.Chemscore.DEInternal.Weighted>
2.5969

> <Gold.Chemscore.Rot.Weighted>
3.2576

> <Gold.Chemscore.Internal.Correction.Weighted>
   9.000000E+99

> <Gold.Protein.RotatedTorsions>
[ 6907 6896 6895 6894 ] final  156.70 input  -60.11 | X-H torsion
[ 7974 7965 7964 7962 ] final  135.69 input  175.53 | X-H torsion
[ 8008 7997 7996 7995 ] final  137.13 input   59.86 | X-H torsion
[ 10167 10162 10161 10158 ] final   55.65 input  -65.29 | X-H torsion
[ 10718 10713 10712 10709 ] final   53.09 input   66.30 | X-H torsion
[ 10763 10752 10751 10750 ] final    2.04 input  -60.55 | X-H torsion
[ 11005 11000 10999 10996 ] final  129.72 input  -57.11 | X-H torsion

> <Gold.Protein.ActiveResidues>
 VAL166  LYS551  ARG553  GLY616  TRP617  ASP618  TYR619  PRO620  LYS621  CYS622 
 ASP623  PHE694  ASN695  SER759  ASP760  ASP761  ALA762  ILE779  LEU786  VAL792 
 PHE793  MET794  SER795  GLU796  ALA797  LYS798  CYS799  TRP800  GLU811  SER814 

> <Gold.Protein.RotatedAtoms>
  152.0258  133.3917  159.4276 H   0  0  0  0  0  0  0  0  0  0  0  0  # atno 6907 bound_to 6896
  150.6886  134.3575  159.4945 H   0  0  0  0  0  0  0  0  0  0  0  0  # atno 6908 bound_to 6896
  152.1355  134.9102  160.0607 H   0  0  0  0  0  0  0  0  0  0  0  0  # atno 6909 bound_to 6896
  144.9639  139.4680  143.5466 H   0  0  0  0  0  0  0  0  0  0  0  0  # atno 7974 bound_to 7965
  156.3003  140.2427  156.3860 H   0  0  0  0  0  0  0  0  0  0  0  0  # atno 8008 bound_to 7997
  154.8657  140.0418  157.1713 H   0  0  0  0  0  0  0  0  0  0  0  0  # atno 8009 bound_to 7997
  154.8848  140.2954  155.5408 H   0  0  0  0  0  0  0  0  0  0  0  0  # atno 8010 bound_to 7997
  140.2172  144.3827  150.6465 H   0  0  0  0  0  0  0  0  0  0  0  0  # atno 10167 bound_to 10162
  157.5135  130.8516  149.8465 H   0  0  0  0  0  0  0  0  0  0  0  0  # atno 10718 bound_to 10713
  153.3005  135.6955  153.7207 H   0  0  0  0  0  0  0  0  0  0  0  0  # atno 10763 bound_to 10752
  153.6124  135.3442  155.2984 H   0  0  0  0  0  0  0  0  0  0  0  0  # atno 10764 bound_to 10752
  154.8549  135.4366  154.2115 H   0  0  0  0  0  0  0  0  0  0  0  0  # atno 10765 bound_to 10752
  139.9631  134.9597  156.9190 H   0  0  0  0  0  0  0  0  0  0  0  0  # atno 11005 bound_to 11000
  146.3361  139.8806  142.8825 LP  0  0  0  0  0  0  0  0  0  0  0  0  # atno 17320 bound_to 7965
  145.2659  141.0093  143.3799 LP  0  0  0  0  0  0  0  0  0  0  0  0  # atno 17321 bound_to 7965
  140.6281  143.2184  151.6554 LP  0  0  0  0  0  0  0  0  0  0  0  0  # atno 17342 bound_to 10162
  139.5157  144.3369  152.0776 LP  0  0  0  0  0  0  0  0  0  0  0  0  # atno 17343 bound_to 10162
  156.0304  130.3766  150.1703 LP  0  0  0  0  0  0  0  0  0  0  0  0  # atno 17370 bound_to 10713
  156.9892  130.9888  151.3419 LP  0  0  0  0  0  0  0  0  0  0  0  0  # atno 17371 bound_to 10713
  140.5455  134.0678  155.7354 LP  0  0  0  0  0  0  0  0  0  0  0  0  # atno 17394 bound_to 11000
  141.1310  133.9302  157.2536 LP  0  0  0  0  0  0  0  0  0  0  0  0  # atno 17395 bound_to 11000

$$$$
