AV-unprocessed.smi:1282|AV-procd|sdf|5360|dock1
  -GOLD-   22720 4503D 1   1.00000     0.00000
 Structure written by MMmdl.
 36 37  0  0  0  0  0  0  0  0  1 V2000
  145.5105  135.8349  151.2570 C   0  0  0  0  0  0  0  0  0  0  0  0
  145.7489  136.9336  152.1193 O   0  0  0  0  0  0  0  0  0  0  0  0
  146.4421  137.9884  151.4740 C   0  0  0  0  0  0  0  0  0  0  0  0
  146.7139  139.1047  152.4862 C   0  0  0  0  0  0  0  0  0  0  0  0
  147.7791  138.6944  153.3378 O   0  0  0  0  0  0  0  0  0  0  0  0
  148.4426  139.6540  154.0744 C   0  0  0  0  0  0  0  0  0  0  0  0
  149.5145  139.2500  154.8945 C   0  0  0  0  0  0  0  0  0  0  0  0
  150.1967  140.2212  155.6521 C   0  0  0  0  0  0  0  0  0  0  0  0
  149.7769  141.5705  155.5721 C   0  0  0  0  0  0  0  0  0  0  0  0
  150.3921  142.6446  156.2705 N   0  0  0  0  0  0  0  0  0  0  0  0
  151.3968  142.6022  157.1644 C   0  0  0  0  0  0  0  0  0  0  0  0
  151.9432  141.5697  157.5527 O   0  0  0  0  0  0  0  0  0  0  0  0
  151.8320  143.9633  157.7249 C   0  0  0  0  0  0  0  0  0  0  0  0
  152.8557  143.8855  158.8716 C   0  0  0  0  0  0  0  0  0  0  0  0
  152.0490  144.9596  159.6073 C   0  0  0  0  0  0  0  0  0  0  0  0
  150.8491  144.5914  158.7295 C   0  0  0  0  0  0  0  0  0  0  0  0
  148.7023  141.8725  154.7097 C   0  0  0  0  0  0  0  0  0  0  0  0
  148.0445  140.9466  153.9804 N   0  0  0  0  0  0  0  0  0  0  0  0
  144.9708  135.0561  151.7957 H   0  0  0  0  0  0  0  0  0  0  0  0
  146.4468  135.4070  150.8962 H   0  0  0  0  0  0  0  0  0  0  0  0
  144.9067  136.1303  150.3980 H   0  0  0  0  0  0  0  0  0  0  0  0
  147.3844  137.6221  151.0636 H   0  0  0  0  0  0  0  0  0  0  0  0
  145.8473  138.3737  150.6444 H   0  0  0  0  0  0  0  0  0  0  0  0
  146.9824  140.0226  151.9604 H   0  0  0  0  0  0  0  0  0  0  0  0
  145.8116  139.2989  153.0685 H   0  0  0  0  0  0  0  0  0  0  0  0
  149.8118  138.2127  154.9386 H   0  0  0  0  0  0  0  0  0  0  0  0
  151.0306  139.9135  156.2631 H   0  0  0  0  0  0  0  0  0  0  0  0
  149.9827  143.5538  156.1117 H   0  0  0  0  0  0  0  0  0  0  0  0
  152.1369  144.6750  156.9551 H   0  0  0  0  0  0  0  0  0  0  0  0
  152.8667  142.9308  159.4010 H   0  0  0  0  0  0  0  0  0  0  0  0
  153.8633  144.1987  158.5971 H   0  0  0  0  0  0  0  0  0  0  0  0
  151.9084  144.7748  160.6727 H   0  0  0  0  0  0  0  0  0  0  0  0
  152.4180  145.9684  159.4157 H   0  0  0  0  0  0  0  0  0  0  0  0
  150.3013  145.4520  158.3444 H   0  0  0  0  0  0  0  0  0  0  0  0
  150.1786  143.8778  159.2119 H   0  0  0  0  0  0  0  0  0  0  0  0
  148.3542  142.8896  154.6036 H   0  0  0  0  0  0  0  0  0  0  0  0
  1  2  1  0  0  0  0
  1 19  1  0  0  0  0
  1 20  1  0  0  0  0
  1 21  1  0  0  0  0
  2  3  1  0  0  0  0
  3  4  1  0  0  0  0
  3 22  1  0  0  0  0
  3 23  1  0  0  0  0
  4  5  1  0  0  0  0
  4 24  1  0  0  0  0
  4 25  1  0  0  0  0
  5  6  1  0  0  0  0
  6 18  1  0  0  0  0
  6  7  2  0  0  0  0
  7  8  1  0  0  0  0
  7 26  1  0  0  0  0
  8  9  2  0  0  0  0
  8 27  1  0  0  0  0
  9 10  1  0  0  0  0
  9 17  1  0  0  0  0
 10 11  1  0  0  0  0
 10 28  1  0  0  0  0
 11 12  2  0  0  0  0
 11 13  1  0  0  0  0
 13 16  1  0  0  0  0
 13 14  1  0  0  0  0
 13 29  1  0  0  0  0
 14 15  1  0  0  0  0
 14 30  1  0  0  0  0
 14 31  1  0  0  0  0
 15 16  1  0  0  0  0
 15 32  1  0  0  0  0
 15 33  1  0  0  0  0
 16 34  1  0  0  0  0
 16 35  1  0  0  0  0
 17 18  2  0  0  0  0
 17 36  1  0  0  0  0
M  END
> <s_m_source_file>
AV-unprocessed.smi

> <i_m_source_file_index>
1282

> <i_lp_mmshare_version>
43012

> <i_f3d_flags>
0

> <s_epik_input>
W0NIM11PW0NIMl1bQ0gyXU9jMVtjSF1bY0hdYyhbY0hdbjEpW05IXUMoPU8pW0NIXTJbQ0gyXVtDSDJdW0NIMl0y

> <s_epik_cmdline>
J2VwaWtfcHl0aG9uJywgJy1waCcsICc3LjAnLCAnLXRuJywgJzgnLCAnLW1hJywgJzIwMCcsICctbWV0YWxfYmluZGluZycsICctaW1hZScsICc8aW5maWxlLm1hZT4nLCAnLW9tYWUnLCAnPG91dGZpbGUubWFlPic=

> <r_lp_tautomer_probability>
1

> <r_epik_Ionization_Penalty>
2.67646e-05

> <r_epik_Ionization_Penalty_Charging>
0

> <r_epik_Ionization_Penalty_Neutral>
2.67646e-05

> <r_epik_State_Penalty>
-0

> <r_epik_Charging_Adjusted_Penalty>
0

> <i_epik_Tot_Q>
0

> <i_epik_Tot_abs_Q>
0

> <r_epik_Metal_State_Penalty>
-0

> <b_epik_Metal_Only>
0

> <s_lp_Force_Field>
OPLS_2005

> <r_lp_Energy>
17.3297

> <b_lp_Chiralities_Consistent>
1

> <s_lp_Variant>
AV-unprocessed.smi:1282-1

> <Gold.Version>
5.8.1

> <Gold.Id.Protein>
6NUR|6NUR_protein|mol2

> <Gold.PLP.Fitness>
42.3293

> <Gold.PLP.PLP>
-36.6114

> <Gold.PLP.part.hbond>
-1.0000

> <Gold.PLP.part.metal>
0.0000

> <Gold.PLP.part.buried>
0.6657

> <Gold.PLP.part.nonpolar>
-37.5691

> <Gold.PLP.part.repulsive>
0.8270

> <Gold.PLP.ligand.clash>
0.0000

> <Gold.PLP.ligand.torsion>
0.3506

> <Gold.PLP.Chemscore.Hbond>
1.0000

> <Gold.PLP.Chemscore.CHOScore>
1.0000

> <Gold.PLP.Chemscore.Metal>
0.0000

> <Gold.Chemscore.Hbonds>
donor molecule, donor type, donor heavy atom, donor atom, acceptor molecule, acceptor atom, score
      L1  H    10    28       P1  8028  1.00
      L1  C    17    36       P1  8028  1.00

> <Gold.PLP.Chemscore.Internal.Correction>
0.4191

> <Gold.Rescore>
     Score         DG    S(hbond)    S(metal)    S(lipo)     H(rot)  DE(clash)    DE(int)     intcor
     13.62     -15.47       1.00        0.00      95.54       1.76       0.39       1.46       ----

> <Gold.Chemscore.Fitness>
13.6183

> <Gold.Chemscore.DG>
-15.4691

> <Gold.Chemscore.ZeroCoef>
-5.4800

> <Gold.Chemscore.Hbond>
0.9957

> <Gold.Chemscore.Metal>
0.0000

> <Gold.Chemscore.Lipo>
95.5366

> <Gold.Chemscore.Internal_Hbond>
0.0000

> <Gold.Chemscore.DEClash>
0.3923

> <Gold.Chemscore.DEInternal>
1.4585

> <Gold.Chemscore.Rot>
1.7634

> <Gold.Chemscore.Internal.Correction>
   9.000000E+99

> <Gold.Chemscore.Hbonds>
donor molecule, donor type, donor heavy atom, donor atom, acceptor molecule, acceptor atom, score
      L1  H    10    28       P1  8028  1.00

> <Gold.Chemscore.Hbond.Weighted>
-3.3255

> <Gold.Chemscore.Metal.Weighted>
-0.0000

> <Gold.Chemscore.Lipo.Weighted>
-11.1778

> <Gold.Chemscore.Internal_Hbond.Weighted>
0.0000

> <Gold.Chemscore.DEClash.Weighted>
0.3923

> <Gold.Chemscore.DEInternal.Weighted>
1.4585

> <Gold.Chemscore.Rot.Weighted>
4.5142

> <Gold.Chemscore.Internal.Correction.Weighted>
   9.000000E+99

> <Gold.Protein.RotatedTorsions>
[ 6907 6896 6895 6894 ] final  -53.46 input  -60.11 | X-H torsion
[ 7974 7965 7964 7962 ] final   87.76 input  175.53 | X-H torsion
[ 8008 7997 7996 7995 ] final   77.93 input   59.86 | X-H torsion
[ 10167 10162 10161 10158 ] final -138.96 input  -65.29 | X-H torsion
[ 10718 10713 10712 10709 ] final  -86.57 input   66.30 | X-H torsion
[ 10763 10752 10751 10750 ] final -145.49 input  -60.55 | X-H torsion
[ 11005 11000 10999 10996 ] final   36.80 input  -57.11 | X-H torsion

> <Gold.Protein.ActiveResidues>
 VAL166  LYS551  ARG553  GLY616  TRP617  ASP618  TYR619  PRO620  LYS621  CYS622 
 ASP623  PHE694  ASN695  SER759  ASP760  ASP761  ALA762  ILE779  LEU786  VAL792 
 PHE793  MET794  SER795  GLU796  ALA797  LYS798  CYS799  TRP800  GLU811  SER814 

> <Gold.Protein.RotatedAtoms>
  150.8425  134.7722  159.6943 H   0  0  0  0  0  0  0  0  0  0  0  0  # atno 6907 bound_to 6896
  152.4509  134.5392  159.9844 H   0  0  0  0  0  0  0  0  0  0  0  0  # atno 6908 bound_to 6896
  151.5529  133.3377  159.2992 H   0  0  0  0  0  0  0  0  0  0  0  0  # atno 6909 bound_to 6896
  145.5547  139.2298  143.2493 H   0  0  0  0  0  0  0  0  0  0  0  0  # atno 7974 bound_to 7965
  155.8486  140.3459  155.5678 H   0  0  0  0  0  0  0  0  0  0  0  0  # atno 8008 bound_to 7997
  155.8062  140.0892  157.1949 H   0  0  0  0  0  0  0  0  0  0  0  0  # atno 8009 bound_to 7997
  154.4007  140.1456  156.3321 H   0  0  0  0  0  0  0  0  0  0  0  0  # atno 8010 bound_to 7997
  139.8427  143.7301  152.2662 H   0  0  0  0  0  0  0  0  0  0  0  0  # atno 10167 bound_to 10162
  155.9989  130.4770  150.4735 H   0  0  0  0  0  0  0  0  0  0  0  0  # atno 10718 bound_to 10713
  154.8381  135.3412  154.6512 H   0  0  0  0  0  0  0  0  0  0  0  0  # atno 10763 bound_to 10752
  153.7125  135.6963  153.5038 H   0  0  0  0  0  0  0  0  0  0  0  0  # atno 10764 bound_to 10752
  153.2441  135.4375  155.0682 H   0  0  0  0  0  0  0  0  0  0  0  0  # atno 10765 bound_to 10752
  140.2290  134.3550  155.7972 H   0  0  0  0  0  0  0  0  0  0  0  0  # atno 11005 bound_to 11000
  146.1893  140.6370  142.9153 LP  0  0  0  0  0  0  0  0  0  0  0  0  # atno 17320 bound_to 7965
  144.7512  140.5195  143.6800 LP  0  0  0  0  0  0  0  0  0  0  0  0  # atno 17321 bound_to 7965
  139.7543  144.7525  151.0459 LP  0  0  0  0  0  0  0  0  0  0  0  0  # atno 17342 bound_to 10162
  140.7796  143.4823  151.0001 LP  0  0  0  0  0  0  0  0  0  0  0  0  # atno 17343 bound_to 10162
  157.2748  131.0594  151.2236 LP  0  0  0  0  0  0  0  0  0  0  0  0  # atno 17370 bound_to 10713
  157.3304  130.6982  149.6321 LP  0  0  0  0  0  0  0  0  0  0  0  0  # atno 17371 bound_to 10713
  141.2219  133.7235  156.8700 LP  0  0  0  0  0  0  0  0  0  0  0  0  # atno 17394 bound_to 11000
  140.1771  134.9060  157.2903 LP  0  0  0  0  0  0  0  0  0  0  0  0  # atno 17395 bound_to 11000

$$$$
