AV-unprocessed.smi:2095|AV-procd|sdf|8559|dock1
  -GOLD-   2272011283D 1   1.00000     0.00000
 Structure written by MMmdl.
 42 43  0  0  0  0  0  0  0  0  2 V2000
  145.5713  135.9682  151.0519 C   0  0  0  0  0  0  0  0  0  0  0  0
  145.0388  134.8322  151.9438 C   0  0  1  0  0  0  0  0  0  0  0  0
  144.9387  133.4910  151.1982 C   0  0  0  0  0  0  0  0  0  0  0  0
  146.3268  132.8770  150.9873 C   0  0  0  0  0  0  0  0  0  0  0  0
  147.0763  132.7603  152.3220 C   0  0  0  0  0  0  0  0  0  0  0  0
  147.2025  134.0814  153.0013 N   0  3  2  0  0  0  0  0  0  0  0  0
  148.1281  134.0149  154.1807 C   0  0  1  0  0  0  0  0  0  0  0  0
  149.5222  133.5462  153.7086 C   0  0  0  0  0  0  0  0  0  0  0  0
  148.2318  135.3346  154.9949 C   0  0  0  0  0  0  0  0  0  0  0  0
  149.2223  136.2603  154.4485 N   0  0  0  0  0  0  0  0  0  0  0  0
  150.4810  136.4082  154.8919 C   0  0  0  0  0  0  0  0  0  0  0  0
  150.9428  135.7727  155.8396 O   0  0  0  0  0  0  0  0  0  0  0  0
  151.3449  137.4394  154.1613 C   0  0  0  0  0  0  0  0  0  0  0  0
  151.7457  138.5188  155.0451 N   0  0  0  0  0  0  0  0  0  0  0  0
  152.5183  138.5204  156.1333 C   0  0  0  0  0  0  0  0  0  0  0  0
  152.6296  139.7335  156.6526 N   0  0  0  0  0  0  0  0  0  0  0  0
  151.8614  140.5111  155.8021 N   0  0  0  0  0  0  0  0  0  0  0  0
  151.3352  139.7960  154.8457 N   0  0  0  0  0  0  0  0  0  0  0  0
  145.8560  134.6803  153.2453 C   0  0  0  0  0  0  0  0  0  0  0  0
  146.6008  135.7935  150.7391 H   0  0  0  0  0  0  0  0  0  0  0  0
  145.5463  136.9230  151.5779 H   0  0  0  0  0  0  0  0  0  0  0  0
  144.9649  136.0759  150.1522 H   0  0  0  0  0  0  0  0  0  0  0  0
  144.0254  135.1187  152.2282 H   0  0  0  0  0  0  0  0  0  0  0  0
  144.3276  132.7999  151.7804 H   0  0  0  0  0  0  0  0  0  0  0  0
  144.4298  133.6186  150.2421 H   0  0  0  0  0  0  0  0  0  0  0  0
  146.2280  131.8915  150.5311 H   0  0  0  0  0  0  0  0  0  0  0  0
  146.9056  133.4809  150.2877 H   0  0  0  0  0  0  0  0  0  0  0  0
  146.5543  132.0638  152.9803 H   0  0  0  0  0  0  0  0  0  0  0  0
  148.0563  132.3260  152.1303 H   0  0  0  0  0  0  0  0  0  0  0  0
  147.7317  133.2627  154.8649 H   0  0  0  0  0  0  0  0  0  0  0  0
  150.1880  133.3506  154.5486 H   0  0  0  0  0  0  0  0  0  0  0  0
  149.9965  134.3005  153.0796 H   0  0  0  0  0  0  0  0  0  0  0  0
  149.4810  132.6223  153.1339 H   0  0  0  0  0  0  0  0  0  0  0  0
  147.2552  135.8159  155.0710 H   0  0  0  0  0  0  0  0  0  0  0  0
  148.5583  135.1286  156.0143 H   0  0  0  0  0  0  0  0  0  0  0  0
  148.9299  136.8280  153.6661 H   0  0  0  0  0  0  0  0  0  0  0  0
  152.2440  136.9740  153.7544 H   0  0  0  0  0  0  0  0  0  0  0  0
  150.7846  137.8487  153.3194 H   0  0  0  0  0  0  0  0  0  0  0  0
  152.9935  137.6408  156.5418 H   0  0  0  0  0  0  0  0  0  0  0  0
  145.9394  135.6710  153.6907 H   0  0  0  0  0  0  0  0  0  0  0  0
  145.3113  134.0562  153.9557 H   0  0  0  0  0  0  0  0  0  0  0  0
  147.6501  134.7030  152.3427 H   0  0  0  0  0  0  0  0  0  0  0  0
  1  2  1  0  0  0  0
  1 20  1  0  0  0  0
  1 21  1  0  0  0  0
  1 22  1  0  0  0  0
  2 19  1  0  0  0  0
  2  3  1  0  0  0  0
  2 23  1  0  0  0  0
  3  4  1  0  0  0  0
  3 24  1  0  0  0  0
  3 25  1  0  0  0  0
  4  5  1  0  0  0  0
  4 26  1  0  0  0  0
  4 27  1  0  0  0  0
  5  6  1  0  0  0  0
  5 28  1  0  0  0  0
  5 29  1  0  0  0  0
  6  7  1  0  0  0  0
  6 19  1  0  0  0  0
  6 42  1  0  0  0  0
  7  8  1  0  0  0  0
  7  9  1  0  0  0  0
  7 30  1  0  0  0  0
  8 31  1  0  0  0  0
  8 32  1  0  0  0  0
  8 33  1  0  0  0  0
  9 10  1  0  0  0  0
  9 34  1  0  0  0  0
  9 35  1  0  0  0  0
 10 11  1  0  0  0  0
 10 36  1  0  0  0  0
 11 12  2  0  0  0  0
 11 13  1  0  0  0  0
 13 14  1  0  0  0  0
 13 37  1  0  0  0  0
 13 38  1  0  0  0  0
 14 18  1  0  0  0  0
 14 15  1  0  0  0  0
 15 16  2  0  0  0  0
 15 39  1  0  0  0  0
 16 17  1  0  0  0  0
 17 18  2  0  0  0  0
 19 40  1  0  0  0  0
 19 41  1  0  0  0  0
M  CHG  1   6   1
M  END
> <s_m_source_file>
AV-unprocessed.smi

> <i_m_source_file_index>
2095

> <i_lp_mmshare_version>
43012

> <i_f3d_flags>
0

> <s_epik_input>
W0NIM11bQ0BASF0xW0NIMl1bQ0gyXVtDSDJdTihbQ0gyXTEpW0NASF0oW0NIM10pW0NIMl1bTkhdQyg9TylbQ0gyXW4yW2NIXW5ubjI=

> <s_epik_cmdline>
J2VwaWtfcHl0aG9uJywgJy1waCcsICc3LjAnLCAnLXRuJywgJzgnLCAnLW1hJywgJzIwMCcsICctbWV0YWxfYmluZGluZycsICctaW1hZScsICc8aW5maWxlLm1hZT4nLCAnLW9tYWUnLCAnPG91dGZpbGUubWFlPic=

> <r_lp_tautomer_probability>
1

> <r_epik_Ionization_Penalty>
0.00268321

> <r_epik_Ionization_Penalty_Charging>
0.00267875

> <r_epik_Ionization_Penalty_Neutral>
4.46125e-06

> <r_epik_State_Penalty>
0.00186642

> <r_epik_Charging_Adjusted_Penalty>
0.00454517

> <i_epik_Tot_Q>
1

> <i_epik_Tot_abs_Q>
1

> <r_epik_Metal_State_Penalty>
-0

> <b_epik_Metal_Only>
0

> <s_lp_Force_Field>
OPLS_2005

> <r_lp_Energy>
29.9009

> <b_lp_Chiralities_Consistent>
1

> <s_lp_Variant>
AV-unprocessed.smi:2095-6

> <Gold.Version>
5.8.1

> <Gold.Id.Protein>
6NUR|6NUR_protein|mol2

> <Gold.PLP.Fitness>
43.7667

> <Gold.PLP.PLP>
-30.5610

> <Gold.PLP.part.hbond>
-5.1376

> <Gold.PLP.part.metal>
0.0000

> <Gold.PLP.part.buried>
-1.7996

> <Gold.PLP.part.nonpolar>
-23.8080

> <Gold.PLP.part.repulsive>
0.1371

> <Gold.PLP.ligand.clash>
0.0000

> <Gold.PLP.ligand.torsion>
0.4925

> <Gold.PLP.Chemscore.Hbond>
4.6881

> <Gold.PLP.Chemscore.CHOScore>
0.0000

> <Gold.PLP.Chemscore.Metal>
0.0000

> <Gold.Chemscore.Hbonds>
donor molecule, donor type, donor heavy atom, donor atom, acceptor molecule, acceptor atom, score
      L1  H     6    42       P1  7948  2.00
      L1  H    10    36       P1  7948  0.46
      P1  H  7989  7998       L1    18  0.95
      P1  H  7997  8008       L1    16  1.00
      P1  H 10752 10765       L1    12  0.23

> <Gold.PLP.Chemscore.Internal.Correction>
0.1264

> <Gold.Rescore>
     Score         DG    S(hbond)    S(metal)    S(lipo)     H(rot)  DE(clash)    DE(int)     intcor
     13.22     -14.07       2.66        0.00      55.33       2.64       0.30       0.54       ----

> <Gold.Chemscore.Fitness>
13.2235

> <Gold.Chemscore.DG>
-14.0685

> <Gold.Chemscore.ZeroCoef>
-5.4800

> <Gold.Chemscore.Hbond>
2.6595

> <Gold.Chemscore.Metal>
0.0000

> <Gold.Chemscore.Lipo>
55.3343

> <Gold.Chemscore.Internal_Hbond>
0.0000

> <Gold.Chemscore.DEClash>
0.3047

> <Gold.Chemscore.DEInternal>
0.5402

> <Gold.Chemscore.Rot>
2.6439

> <Gold.Chemscore.Internal.Correction>
   9.000000E+99

> <Gold.Chemscore.Hbonds>
donor molecule, donor type, donor heavy atom, donor atom, acceptor molecule, acceptor atom, score
      L1  H     6    42       P1  7948  0.72
      L1  H    10    36       P1  7948  0.46
      P1  H  7989  7998       L1    18  0.22
      P1  H  7997  8008       L1    16  0.46
      P1  H 10752 10765       L1    12  0.03

> <Gold.Chemscore.Hbond.Weighted>
-8.8828

> <Gold.Chemscore.Metal.Weighted>
-0.0000

> <Gold.Chemscore.Lipo.Weighted>
-6.4741

> <Gold.Chemscore.Internal_Hbond.Weighted>
0.0000

> <Gold.Chemscore.DEClash.Weighted>
0.3047

> <Gold.Chemscore.DEInternal.Weighted>
0.5402

> <Gold.Chemscore.Rot.Weighted>
6.7685

> <Gold.Chemscore.Internal.Correction.Weighted>
   9.000000E+99

> <Gold.Protein.RotatedTorsions>
[ 6907 6896 6895 6894 ] final -151.57 input  -60.11 | X-H torsion
[ 7974 7965 7964 7962 ] final  -98.58 input  175.53 | X-H torsion
[ 8008 7997 7996 7995 ] final  -61.90 input   59.86 | X-H torsion
[ 10167 10162 10161 10158 ] final  172.92 input  -65.29 | X-H torsion
[ 10718 10713 10712 10709 ] final   24.42 input   66.30 | X-H torsion
[ 10763 10752 10751 10750 ] final -160.81 input  -60.55 | X-H torsion
[ 11005 11000 10999 10996 ] final   38.42 input  -57.11 | X-H torsion

> <Gold.Protein.ActiveResidues>
 VAL166  LYS551  ARG553  GLY616  TRP617  ASP618  TYR619  PRO620  LYS621  CYS622 
 ASP623  PHE694  ASN695  SER759  ASP760  ASP761  ALA762  ILE779  LEU786  VAL792 
 PHE793  MET794  SER795  GLU796  ALA797  LYS798  CYS799  TRP800  GLU811  SER814 

> <Gold.Protein.RotatedAtoms>
  151.2151  133.4534  159.2598 H   0  0  0  0  0  0  0  0  0  0  0  0  # atno 6907 bound_to 6896
  151.0939  134.9933  159.8426 H   0  0  0  0  0  0  0  0  0  0  0  0  # atno 6908 bound_to 6896
  152.5437  134.2082  159.8792 H   0  0  0  0  0  0  0  0  0  0  0  0  # atno 6909 bound_to 6896
  145.3188  140.9417  143.2727 H   0  0  0  0  0  0  0  0  0  0  0  0  # atno 7974 bound_to 7965
  154.4472  140.1007  156.6504 H   0  0  0  0  0  0  0  0  0  0  0  0  # atno 8008 bound_to 7997
  155.5404  140.3483  155.4427 H   0  0  0  0  0  0  0  0  0  0  0  0  # atno 8009 bound_to 7997
  156.0601  140.1324  156.9940 H   0  0  0  0  0  0  0  0  0  0  0  0  # atno 8010 bound_to 7997
  139.5092  144.3319  152.0103 H   0  0  0  0  0  0  0  0  0  0  0  0  # atno 10167 bound_to 10162
  157.1795  130.6796  149.6108 H   0  0  0  0  0  0  0  0  0  0  0  0  # atno 10718 bound_to 10713
  154.7358  135.3057  154.8813 H   0  0  0  0  0  0  0  0  0  0  0  0  # atno 10763 bound_to 10752
  153.9642  135.6749  153.4750 H   0  0  0  0  0  0  0  0  0  0  0  0  # atno 10764 bound_to 10752
  153.0961  135.4935  154.8704 H   0  0  0  0  0  0  0  0  0  0  0  0  # atno 10765 bound_to 10752
  140.2128  134.3734  155.8041 H   0  0  0  0  0  0  0  0  0  0  0  0  # atno 11005 bound_to 11000
  144.8956  139.4716  143.6657 LP  0  0  0  0  0  0  0  0  0  0  0  0  # atno 17320 bound_to 7965
  146.3090  139.7680  142.9034 LP  0  0  0  0  0  0  0  0  0  0  0  0  # atno 17321 bound_to 7965
  140.2759  144.3913  150.6135 LP  0  0  0  0  0  0  0  0  0  0  0  0  # atno 17342 bound_to 10162
  140.6054  143.2167  151.6990 LP  0  0  0  0  0  0  0  0  0  0  0  0  # atno 17343 bound_to 10162
  155.9726  130.4651  150.6243 LP  0  0  0  0  0  0  0  0  0  0  0  0  # atno 17370 bound_to 10713
  157.3966  131.0803  151.1346 LP  0  0  0  0  0  0  0  0  0  0  0  0  # atno 17371 bound_to 10713
  141.2226  133.7152  156.8447 LP  0  0  0  0  0  0  0  0  0  0  0  0  # atno 17394 bound_to 11000
  140.1932  134.8950  157.3085 LP  0  0  0  0  0  0  0  0  0  0  0  0  # atno 17395 bound_to 11000

$$$$
