AV-unprocessed.smi:21|AV-procd|sdf|122|dock1
  -GOLD-   2262015293D 1   1.00000     0.00000
 Structure written by MMmdl.
 62 65  0  0  0  0  0  0  0  0  2 V2000
  145.6105  132.0670  151.6903 C   0  0  0  0  0  0  0  0  0  0  0  0
  145.3583  132.4415  153.0348 O   0  0  0  0  0  0  0  0  0  0  0  0
  146.4742  133.0410  153.6761 C   0  0  2  0  0  0  0  0  0  0  0  0
  147.6659  132.0892  153.6704 C   0  0  0  0  0  0  0  0  0  0  0  0
  148.5118  132.4994  154.8908 C   0  0  1  0  0  0  0  0  0  0  0  0
  149.7781  133.3068  154.5255 C   0  0  0  0  0  0  0  0  0  0  0  0
  150.4130  133.9561  155.6736 N   0  0  0  0  0  0  0  0  0  0  0  0
  151.0527  133.1225  156.6893 C   0  0  0  0  0  0  0  0  0  0  0  0
  150.1098  135.2502  155.9798 C   0  0  0  0  0  0  0  0  0  0  0  0
  149.2314  135.4897  156.9907 N   0  0  0  0  0  0  0  0  0  0  0  0
  148.8703  136.7367  157.3041 C   0  0  0  0  0  0  0  0  0  0  0  0
  149.2582  137.8816  156.7427 N   0  0  0  0  0  0  0  0  0  0  0  0
  150.1511  137.6581  155.7380 C   0  0  0  0  0  0  0  0  0  0  0  0
  150.6349  136.3914  155.2989 C   0  0  0  0  0  0  0  0  0  0  0  0
  151.5453  136.5804  154.2632 N   0  0  0  0  0  0  0  0  0  0  0  0
  151.5859  137.8729  154.0929 C   0  0  0  0  0  0  0  0  0  0  0  0
  150.7657  138.5947  154.9272 N   0  0  0  0  0  0  0  0  0  0  0  0
  150.5925  140.0353  154.9491 C   0  0  0  0  0  0  0  0  0  0  0  0
  149.6689  140.5349  156.0924 C   0  0  2  0  0  0  0  0  0  0  0  0
  148.2636  140.9442  155.5795 C   0  0  0  0  0  0  0  0  0  0  0  0
  148.3205  141.9952  154.6362 O   0  0  0  0  0  0  0  0  0  0  0  0
  150.3423  141.7030  156.8604 C   0  0  2  0  0  0  0  0  0  0  0  0
  151.7504  141.4160  157.3570 C   0  0  0  0  0  0  0  0  0  0  0  0
  151.9436  142.4863  158.4239 C   0  0  0  0  0  0  0  0  0  0  0  0
  150.6610  142.6728  159.0077 O   0  0  0  0  0  0  0  0  0  0  0  0
  149.6600  142.0867  158.1811 C   0  0  0  0  0  0  0  0  0  0  0  0
  147.6200  133.3206  155.7468 N   0  3  2  0  0  0  0  0  0  0  0  0
  147.6708  132.9877  157.1867 C   0  0  0  0  0  0  0  0  0  0  0  0
  146.2616  133.2795  155.1697 C   0  0  0  0  0  0  0  0  0  0  0  0
  146.7587  133.9709  153.1797 H   0  0  0  0  0  0  0  0  0  0  0  0
  148.7911  131.5944  155.4325 H   0  0  0  0  0  0  0  0  0  0  0  0
  144.7239  131.5884  151.2741 H   0  0  0  0  0  0  0  0  0  0  0  0
  146.4358  131.3570  151.6262 H   0  0  0  0  0  0  0  0  0  0  0  0
  145.8435  132.9326  151.0696 H   0  0  0  0  0  0  0  0  0  0  0  0
  147.3143  131.0658  153.8108 H   0  0  0  0  0  0  0  0  0  0  0  0
  148.2067  132.1145  152.7254 H   0  0  0  0  0  0  0  0  0  0  0  0
  150.4979  132.6411  154.0481 H   0  0  0  0  0  0  0  0  0  0  0  0
  149.5525  134.0562  153.7686 H   0  0  0  0  0  0  0  0  0  0  0  0
  151.9585  133.6017  157.0624 H   0  0  0  0  0  0  0  0  0  0  0  0
  151.3385  132.1527  156.2816 H   0  0  0  0  0  0  0  0  0  0  0  0
  150.3827  132.9493  157.5319 H   0  0  0  0  0  0  0  0  0  0  0  0
  148.1651  136.8295  158.1169 H   0  0  0  0  0  0  0  0  0  0  0  0
  152.2074  138.3368  153.3409 H   0  0  0  0  0  0  0  0  0  0  0  0
  151.5869  140.4728  155.0347 H   0  0  0  0  0  0  0  0  0  0  0  0
  150.1993  140.3524  153.9824 H   0  0  0  0  0  0  0  0  0  0  0  0
  149.5397  139.7178  156.8044 H   0  0  0  0  0  0  0  0  0  0  0  0
  147.7706  140.1145  155.0751 H   0  0  0  0  0  0  0  0  0  0  0  0
  147.6172  141.2317  156.4095 H   0  0  0  0  0  0  0  0  0  0  0  0
  148.5566  142.7902  155.0897 H   0  0  0  0  0  0  0  0  0  0  0  0
  150.3783  142.5855  156.2192 H   0  0  0  0  0  0  0  0  0  0  0  0
  151.8015  140.4238  157.8084 H   0  0  0  0  0  0  0  0  0  0  0  0
  152.5074  141.4757  156.5745 H   0  0  0  0  0  0  0  0  0  0  0  0
  152.6866  142.2048  159.1705 H   0  0  0  0  0  0  0  0  0  0  0  0
  152.2588  143.4255  157.9677 H   0  0  0  0  0  0  0  0  0  0  0  0
  148.8311  142.7798  158.0361 H   0  0  0  0  0  0  0  0  0  0  0  0
  149.2742  141.2025  158.6902 H   0  0  0  0  0  0  0  0  0  0  0  0
  147.3520  131.9600  157.3659 H   0  0  0  0  0  0  0  0  0  0  0  0
  147.0199  133.6532  157.7544 H   0  0  0  0  0  0  0  0  0  0  0  0
  148.6849  133.1031  157.5697 H   0  0  0  0  0  0  0  0  0  0  0  0
  145.7100  134.1965  155.3786 H   0  0  0  0  0  0  0  0  0  0  0  0
  145.7057  132.4439  155.5989 H   0  0  0  0  0  0  0  0  0  0  0  0
  147.9394  134.2737  155.6470 H   0  0  0  0  0  0  0  0  0  0  0  0
  1  2  1  0  0  0  0
  1 32  1  0  0  0  0
  1 33  1  0  0  0  0
  1 34  1  0  0  0  0
  2  3  1  0  0  0  0
  3 30  1  0  0  0  0
  3 29  1  0  0  0  0
  3  4  1  0  0  0  0
  4  5  1  0  0  0  0
  4 35  1  0  0  0  0
  4 36  1  0  0  0  0
  5 31  1  0  0  0  0
  5  6  1  0  0  0  0
  5 27  1  0  0  0  0
  6  7  1  0  0  0  0
  6 37  1  0  0  0  0
  6 38  1  0  0  0  0
  7  8  1  0  0  0  0
  7  9  1  0  0  0  0
  8 39  1  0  0  0  0
  8 40  1  0  0  0  0
  8 41  1  0  0  0  0
  9 14  1  0  0  0  0
  9 10  2  0  0  0  0
 10 11  1  0  0  0  0
 11 12  2  0  0  0  0
 11 42  1  0  0  0  0
 12 13  1  0  0  0  0
 13 17  1  0  0  0  0
 13 14  2  0  0  0  0
 14 15  1  0  0  0  0
 15 16  2  0  0  0  0
 16 17  1  0  0  0  0
 16 43  1  0  0  0  0
 17 18  1  0  0  0  0
 18 19  1  0  0  0  0
 18 44  1  0  0  0  0
 18 45  1  0  0  0  0
 19 20  1  0  0  0  0
 19 22  1  0  0  0  0
 19 46  1  0  0  0  0
 20 21  1  0  0  0  0
 20 47  1  0  0  0  0
 20 48  1  0  0  0  0
 21 49  1  0  0  0  0
 22 26  1  0  0  0  0
 22 23  1  0  0  0  0
 22 50  1  0  0  0  0
 23 24  1  0  0  0  0
 23 51  1  0  0  0  0
 23 52  1  0  0  0  0
 24 25  1  0  0  0  0
 24 53  1  0  0  0  0
 24 54  1  0  0  0  0
 25 26  1  0  0  0  0
 26 55  1  0  0  0  0
 26 56  1  0  0  0  0
 27 28  1  0  0  0  0
 27 29  1  0  0  0  0
 27 62  1  0  0  0  0
 28 57  1  0  0  0  0
 28 58  1  0  0  0  0
 28 59  1  0  0  0  0
 29 60  1  0  0  0  0
 29 61  1  0  0  0  0
M  CHG  1  27   1
M  END
> <s_m_source_file>
AV-unprocessed.smi

> <i_m_source_file_index>
21

> <i_lp_mmshare_version>
43012

> <i_f3d_flags>
0

> <s_epik_input>
W0NIM11PW0NASF0xW0NIMl1bQ0BIXShOKFtDSDNdKVtDSDJdMSlbQ0gyXU4oW0NIM10pYyhuW2NIXW4yKWMoYzIzKW5bY0hdbjNbQ0gyXVtDQEhdKFtDSDJdW09IXSlbQ0BASF00W0NIMl1bQ0gyXU9bQ0gyXTQ=

> <s_epik_cmdline>
J2VwaWtfcHl0aG9uJywgJy1waCcsICc3LjAnLCAnLXRuJywgJzgnLCAnLW1hJywgJzIwMCcsICctbWV0YWxfYmluZGluZycsICctaW1hZScsICc8aW5maWxlLm1hZT4nLCAnLW9tYWUnLCAnPG91dGZpbGUubWFlPic=

> <r_lp_tautomer_probability>
1

> <r_epik_Ionization_Penalty>
0.0157465

> <r_epik_Ionization_Penalty_Charging>
0.015354

> <r_epik_Ionization_Penalty_Neutral>
0.000392529

> <r_epik_State_Penalty>
0.0120612

> <r_epik_Charging_Adjusted_Penalty>
0.0274152

> <i_epik_Tot_Q>
1

> <i_epik_Tot_abs_Q>
1

> <r_epik_Metal_State_Penalty>
0.0121253

> <b_epik_Metal_Only>
0

> <s_lp_Force_Field>
OPLS_2005

> <r_lp_Energy>
59.339

> <b_lp_Chiralities_Consistent>
1

> <s_lp_Variant>
AV-unprocessed.smi:21-2

> <Gold.Version>
5.8.1

> <Gold.Id.Protein>
6NUR|6NUR_protein|mol2

> <Gold.PLP.Fitness>
45.4951

> <Gold.PLP.PLP>
-42.6487

> <Gold.PLP.part.hbond>
-3.7449

> <Gold.PLP.part.metal>
0.0000

> <Gold.PLP.part.buried>
-4.3802

> <Gold.PLP.part.nonpolar>
-36.0035

> <Gold.PLP.part.repulsive>
1.1701

> <Gold.PLP.ligand.clash>
0.0000

> <Gold.PLP.ligand.torsion>
2.3453

> <Gold.PLP.Chemscore.Hbond>
2.2560

> <Gold.PLP.Chemscore.CHOScore>
0.0000

> <Gold.PLP.Chemscore.Metal>
0.0000

> <Gold.Chemscore.Hbonds>
donor molecule, donor type, donor heavy atom, donor atom, acceptor molecule, acceptor atom, score
      L1  H    21    49       P1  8028  1.00
      P1  H 10752 10763       L1    15  1.00

> <Gold.PLP.Chemscore.Internal.Correction>
0.7691

> <Gold.Rescore>
     Score         DG    S(hbond)    S(metal)    S(lipo)     H(rot)  DE(clash)    DE(int)     intcor
      9.82     -14.88       2.10        0.00      87.72       3.08       0.43       4.63       ----

> <Gold.Chemscore.Fitness>
9.8201

> <Gold.Chemscore.DG>
-14.8821

> <Gold.Chemscore.ZeroCoef>
-5.4800

> <Gold.Chemscore.Hbond>
2.0997

> <Gold.Chemscore.Metal>
0.0000

> <Gold.Chemscore.Lipo>
87.7185

> <Gold.Chemscore.Internal_Hbond>
0.0000

> <Gold.Chemscore.DEClash>
0.4337

> <Gold.Chemscore.DEInternal>
4.6282

> <Gold.Chemscore.Rot>
3.0758

> <Gold.Chemscore.Internal.Correction>
   9.000000E+99

> <Gold.Chemscore.Hbonds>
donor molecule, donor type, donor heavy atom, donor atom, acceptor molecule, acceptor atom, score
      L1  H    21    49       P1  8028  0.94
      P1  H 10752 10763       L1    15  0.94

> <Gold.Chemscore.Hbond.Weighted>
-7.0131

> <Gold.Chemscore.Metal.Weighted>
-0.0000

> <Gold.Chemscore.Lipo.Weighted>
-10.2631

> <Gold.Chemscore.Internal_Hbond.Weighted>
0.0000

> <Gold.Chemscore.DEClash.Weighted>
0.4337

> <Gold.Chemscore.DEInternal.Weighted>
4.6282

> <Gold.Chemscore.Rot.Weighted>
7.8741

> <Gold.Chemscore.Internal.Correction.Weighted>
   9.000000E+99

> <Gold.Protein.RotatedTorsions>
[ 6907 6896 6895 6894 ] final   25.23 input  -60.11 | X-H torsion
[ 7974 7965 7964 7962 ] final   41.24 input  175.53 | X-H torsion
[ 8008 7997 7996 7995 ] final   12.38 input   59.86 | X-H torsion
[ 10167 10162 10161 10158 ] final -171.99 input  -65.29 | X-H torsion
[ 10718 10713 10712 10709 ] final  158.21 input   66.30 | X-H torsion
[ 10763 10752 10751 10750 ] final   40.18 input  -60.55 | X-H torsion
[ 11005 11000 10999 10996 ] final -164.13 input  -57.11 | X-H torsion

> <Gold.Protein.ActiveResidues>
 VAL166  LYS551  ARG553  GLY616  TRP617  ASP618  TYR619  PRO620  LYS621  CYS622 
 ASP623  PHE694  ASN695  SER759  ASP760  ASP761  ALA762  ILE779  LEU786  VAL792 
 PHE793  MET794  SER795  GLU796  ALA797  LYS798  CYS799  TRP800  GLU811  SER814 

> <Gold.Protein.RotatedAtoms>
  151.9694  135.0084  160.0551 H   0  0  0  0  0  0  0  0  0  0  0  0  # atno 6907 bound_to 6896
  152.1797  133.4694  159.4960 H   0  0  0  0  0  0  0  0  0  0  0  0  # atno 6908 bound_to 6896
  150.6915  134.1767  159.4276 H   0  0  0  0  0  0  0  0  0  0  0  0  # atno 6909 bound_to 6896
  146.0840  139.5439  142.9519 H   0  0  0  0  0  0  0  0  0  0  0  0  # atno 7974 bound_to 7965
  154.8199  140.2882  155.5794 H   0  0  0  0  0  0  0  0  0  0  0  0  # atno 8008 bound_to 7997
  156.2996  140.2552  156.3034 H   0  0  0  0  0  0  0  0  0  0  0  0  # atno 8009 bound_to 7997
  154.9351  140.0382  157.2057 H   0  0  0  0  0  0  0  0  0  0  0  0  # atno 8010 bound_to 7997
  139.5770  144.1509  152.1464 H   0  0  0  0  0  0  0  0  0  0  0  0  # atno 10167 bound_to 10162
  157.1810  131.0632  151.2131 H   0  0  0  0  0  0  0  0  0  0  0  0  # atno 10718 bound_to 10713
  152.9944  135.6199  154.2584 H   0  0  0  0  0  0  0  0  0  0  0  0  # atno 10763 bound_to 10752
  154.2321  135.2791  155.2887 H   0  0  0  0  0  0  0  0  0  0  0  0  # atno 10764 bound_to 10752
  154.5440  135.5752  153.6922 H   0  0  0  0  0  0  0  0  0  0  0  0  # atno 10765 bound_to 10752
  140.5904  134.5051  157.5192 H   0  0  0  0  0  0  0  0  0  0  0  0  # atno 11005 bound_to 11000
  145.6165  141.0330  143.1938 LP  0  0  0  0  0  0  0  0  0  0  0  0  # atno 17320 bound_to 7965
  144.7313  139.7719  143.7346 LP  0  0  0  0  0  0  0  0  0  0  0  0  # atno 17321 bound_to 7965
  140.1054  144.5503  150.6960 LP  0  0  0  0  0  0  0  0  0  0  0  0  # atno 17342 bound_to 10162
  140.7052  143.2463  151.4748 LP  0  0  0  0  0  0  0  0  0  0  0  0  # atno 17343 bound_to 10162
  157.3952  130.7303  149.6726 LP  0  0  0  0  0  0  0  0  0  0  0  0  # atno 17370 bound_to 10713
  155.9724  130.4135  150.4088 LP  0  0  0  0  0  0  0  0  0  0  0  0  # atno 17371 bound_to 10713
  139.9277  134.8024  156.1021 LP  0  0  0  0  0  0  0  0  0  0  0  0  # atno 17394 bound_to 11000
  141.0939  133.6703  156.2601 LP  0  0  0  0  0  0  0  0  0  0  0  0  # atno 17395 bound_to 11000

$$$$
