AV-unprocessed.smi:2731|AV-procd|sdf|10531|dock2
  -GOLD-   2272014573D 1   1.00000     0.00000
 Structure written by MMmdl.
 46 47  0  0  0  0  0  0  0  0  2 V2000
  151.0869  141.8862  155.4606 C   0  0  0  0  0  0  0  0  0  0  0  0
  149.7649  141.4055  154.9653 C   0  0  0  0  0  0  0  0  0  0  0  0
  148.6880  142.2077  154.7517 N   0  3  0  0  0  0  0  0  0  0  0  0
  147.6446  141.4809  154.3269 N   0  0  0  0  0  0  0  0  0  0  0  0
  146.3799  142.1589  154.0407 C   0  0  0  0  0  0  0  0  0  0  0  0
  147.9930  140.1654  154.2382 C   0  0  0  0  0  0  0  0  0  0  0  0
  147.0790  139.0633  153.8100 C   0  0  0  0  0  0  0  0  0  0  0  0
  149.3314  140.1131  154.6491 C   0  0  0  0  0  0  0  0  0  0  0  0
  150.1659  138.8652  154.7638 C   0  0  0  0  0  0  0  0  0  0  0  0
  149.6007  137.8268  155.7541 C   0  0  0  0  0  0  0  0  0  0  0  0
  149.6316  136.4682  155.2166 N   0  0  0  0  0  0  0  0  0  0  0  0
  149.9670  135.3675  155.9078 C   0  0  0  0  0  0  0  0  0  0  0  0
  150.3284  135.3974  157.0854 O   0  0  0  0  0  0  0  0  0  0  0  0
  149.8555  134.0376  155.1511 C   0  0  0  0  0  0  0  0  0  0  0  0
  149.8367  132.8757  156.0499 N   0  0  0  0  0  0  0  0  0  0  0  0
  150.9818  132.7086  156.9538 C   0  0  0  0  0  0  0  0  0  0  0  0
  151.5179  131.2683  156.8900 C   0  0  0  0  0  0  0  0  0  0  0  0
  150.4097  130.2180  157.1081 C   0  0  0  0  0  0  0  0  0  0  0  0
  148.9728  130.7761  157.0020 C   0  0  0  0  0  0  0  0  0  0  0  0
  148.8531  131.9470  156.0181 C   0  0  0  0  0  0  0  0  0  0  0  0
  147.8847  132.0054  155.2607 O   0  0  0  0  0  0  0  0  0  0  0  0
  151.2024  141.6393  156.5161 H   0  0  0  0  0  0  0  0  0  0  0  0
  151.1703  142.9672  155.3452 H   0  0  0  0  0  0  0  0  0  0  0  0
  151.8950  141.4153  154.9015 H   0  0  0  0  0  0  0  0  0  0  0  0
  146.2977  142.3181  152.9653 H   0  0  0  0  0  0  0  0  0  0  0  0
  146.3441  143.1188  154.5578 H   0  0  0  0  0  0  0  0  0  0  0  0
  145.5520  141.5378  154.3830 H   0  0  0  0  0  0  0  0  0  0  0  0
  146.7307  138.5085  154.6811 H   0  0  0  0  0  0  0  0  0  0  0  0
  147.6000  138.3754  153.1447 H   0  0  0  0  0  0  0  0  0  0  0  0
  146.2125  139.4566  153.2786 H   0  0  0  0  0  0  0  0  0  0  0  0
  150.2730  138.3944  153.7865 H   0  0  0  0  0  0  0  0  0  0  0  0
  151.1801  139.1264  155.0671 H   0  0  0  0  0  0  0  0  0  0  0  0
  150.1873  137.8429  156.6728 H   0  0  0  0  0  0  0  0  0  0  0  0
  148.5841  138.0983  156.0430 H   0  0  0  0  0  0  0  0  0  0  0  0
  149.3587  136.3549  154.2509 H   0  0  0  0  0  0  0  0  0  0  0  0
  148.9439  134.0399  154.5515 H   0  0  0  0  0  0  0  0  0  0  0  0
  150.6770  133.9698  154.4362 H   0  0  0  0  0  0  0  0  0  0  0  0
  151.7821  133.4051  156.7015 H   0  0  0  0  0  0  0  0  0  0  0  0
  150.6685  132.9513  157.9701 H   0  0  0  0  0  0  0  0  0  0  0  0
  151.9646  131.1105  155.9072 H   0  0  0  0  0  0  0  0  0  0  0  0
  152.3214  131.1274  157.6132 H   0  0  0  0  0  0  0  0  0  0  0  0
  150.5419  129.4044  156.3940 H   0  0  0  0  0  0  0  0  0  0  0  0
  150.5320  129.7673  158.0934 H   0  0  0  0  0  0  0  0  0  0  0  0
  148.2779  129.9807  156.7302 H   0  0  0  0  0  0  0  0  0  0  0  0
  148.6534  131.1429  157.9783 H   0  0  0  0  0  0  0  0  0  0  0  0
  148.6114  143.2089  154.8791 H   0  0  0  0  0  0  0  0  0  0  0  0
  1  2  1  0  0  0  0
  1 22  1  0  0  0  0
  1 23  1  0  0  0  0
  1 24  1  0  0  0  0
  2  8  1  0  0  0  0
  2  3  2  0  0  0  0
  3  4  1  0  0  0  0
  3 46  1  0  0  0  0
  4  5  1  0  0  0  0
  4  6  1  0  0  0  0
  5 25  1  0  0  0  0
  5 26  1  0  0  0  0
  5 27  1  0  0  0  0
  6  7  1  0  0  0  0
  6  8  2  0  0  0  0
  7 28  1  0  0  0  0
  7 29  1  0  0  0  0
  7 30  1  0  0  0  0
  8  9  1  0  0  0  0
  9 10  1  0  0  0  0
  9 31  1  0  0  0  0
  9 32  1  0  0  0  0
 10 11  1  0  0  0  0
 10 33  1  0  0  0  0
 10 34  1  0  0  0  0
 11 12  1  0  0  0  0
 11 35  1  0  0  0  0
 12 13  2  0  0  0  0
 12 14  1  0  0  0  0
 14 15  1  0  0  0  0
 14 36  1  0  0  0  0
 14 37  1  0  0  0  0
 15 20  1  0  0  0  0
 15 16  1  0  0  0  0
 16 17  1  0  0  0  0
 16 38  1  0  0  0  0
 16 39  1  0  0  0  0
 17 18  1  0  0  0  0
 17 40  1  0  0  0  0
 17 41  1  0  0  0  0
 18 19  1  0  0  0  0
 18 42  1  0  0  0  0
 18 43  1  0  0  0  0
 19 20  1  0  0  0  0
 19 44  1  0  0  0  0
 19 45  1  0  0  0  0
 20 21  2  0  0  0  0
M  CHG  1   3   1
M  END
> <s_m_source_file>
AV-unprocessed.smi

> <i_m_source_file_index>
2731

> <i_lp_mmshare_version>
43012

> <i_f3d_flags>
0

> <s_epik_input>
W0NIM11jMW5uKFtDSDNdKWMoW0NIM10pYzFbQ0gyXVtDSDJdW05IXUMoPU8pW0NIMl1OMltDSDJdW0NIMl1bQ0gyXVtDSDJdQzI9Tw==

> <s_epik_cmdline>
J2VwaWtfcHl0aG9uJywgJy1waCcsICc3LjAnLCAnLXRuJywgJzgnLCAnLW1hJywgJzIwMCcsICctbWV0YWxfYmluZGluZycsICctaW1hZScsICc8aW5maWxlLm1hZT4nLCAnLW9tYWUnLCAnPG91dGZpbGUubWFlPic=

> <r_lp_tautomer_probability>
1

> <r_epik_Ionization_Penalty>
2.35701

> <r_epik_Ionization_Penalty_Charging>
2.357

> <r_epik_Ionization_Penalty_Neutral>
2.49505e-07

> <r_epik_State_Penalty>
2.51177

> <r_epik_Charging_Adjusted_Penalty>
4.86877

> <i_epik_Tot_Q>
1

> <i_epik_Tot_abs_Q>
1

> <r_epik_Metal_State_Penalty>
2.52284

> <b_epik_Metal_Only>
0

> <s_lp_Force_Field>
OPLS_2005

> <r_lp_Energy>
19.064

> <b_lp_Chiralities_Consistent>
1

> <s_lp_Variant>
AV-unprocessed.smi:2731-2

> <Gold.Version>
5.8.1

> <Gold.Id.Protein>
6NUR|6NUR_protein|mol2

> <Gold.PLP.Fitness>
46.2221

> <Gold.PLP.PLP>
-38.5828

> <Gold.PLP.part.hbond>
-2.0000

> <Gold.PLP.part.metal>
0.0000

> <Gold.PLP.part.buried>
-4.6005

> <Gold.PLP.part.nonpolar>
-32.1388

> <Gold.PLP.part.repulsive>
0.3400

> <Gold.PLP.ligand.clash>
0.0000

> <Gold.PLP.ligand.torsion>
0.6935

> <Gold.PLP.Chemscore.Hbond>
3.0000

> <Gold.PLP.Chemscore.CHOScore>
0.0000

> <Gold.PLP.Chemscore.Metal>
0.0000

> <Gold.Chemscore.Hbonds>
donor molecule, donor type, donor heavy atom, donor atom, acceptor molecule, acceptor atom, score
      L1  H     3    46       P1  8028  2.00
      L1  H    11    35       P1  7948  0.06

> <Gold.PLP.Chemscore.Internal.Correction>
0.0262

> <Gold.Rescore>
     Score         DG    S(hbond)    S(metal)    S(lipo)     H(rot)  DE(clash)    DE(int)     intcor
     11.51     -14.12       1.41        0.00      74.12       1.85       0.39       2.22       ----

> <Gold.Chemscore.Fitness>
11.5110

> <Gold.Chemscore.DG>
-14.1198

> <Gold.Chemscore.ZeroCoef>
-5.4800

> <Gold.Chemscore.Hbond>
1.4084

> <Gold.Chemscore.Metal>
0.0000

> <Gold.Chemscore.Lipo>
74.1196

> <Gold.Chemscore.Internal_Hbond>
0.0000

> <Gold.Chemscore.DEClash>
0.3864

> <Gold.Chemscore.DEInternal>
2.2224

> <Gold.Chemscore.Rot>
1.8501

> <Gold.Chemscore.Internal.Correction>
   9.000000E+99

> <Gold.Chemscore.Hbonds>
donor molecule, donor type, donor heavy atom, donor atom, acceptor molecule, acceptor atom, score
      L1  H     3    46       P1  8028  0.99
      L1  H    11    35       P1  7948  0.10

> <Gold.Chemscore.Hbond.Weighted>
-4.7040

> <Gold.Chemscore.Metal.Weighted>
-0.0000

> <Gold.Chemscore.Lipo.Weighted>
-8.6720

> <Gold.Chemscore.Internal_Hbond.Weighted>
0.0000

> <Gold.Chemscore.DEClash.Weighted>
0.3864

> <Gold.Chemscore.DEInternal.Weighted>
2.2224

> <Gold.Chemscore.Rot.Weighted>
4.7362

> <Gold.Chemscore.Internal.Correction.Weighted>
   9.000000E+99

> <Gold.Protein.RotatedTorsions>
[ 6907 6896 6895 6894 ] final -131.22 input  -60.11 | X-H torsion
[ 7974 7965 7964 7962 ] final   14.58 input  175.53 | X-H torsion
[ 8008 7997 7996 7995 ] final -163.65 input   59.86 | X-H torsion
[ 10167 10162 10161 10158 ] final  147.39 input  -65.29 | X-H torsion
[ 10718 10713 10712 10709 ] final   39.23 input   66.30 | X-H torsion
[ 10763 10752 10751 10750 ] final  -74.51 input  -60.55 | X-H torsion
[ 11005 11000 10999 10996 ] final   52.88 input  -57.11 | X-H torsion

> <Gold.Protein.ActiveResidues>
 VAL166  LYS551  ARG553  GLY616  TRP617  ASP618  TYR619  PRO620  LYS621  CYS622 
 ASP623  PHE694  ASN695  SER759  ASP760  ASP761  ALA762  ILE779  LEU786  VAL792 
 PHE793  MET794  SER795  GLU796  ALA797  LYS798  CYS799  TRP800  GLU811  SER814 

> <Gold.Protein.RotatedAtoms>
  150.9485  133.6576  159.2776 H   0  0  0  0  0  0  0  0  0  0  0  0  # atno 6907 bound_to 6896
  151.3940  135.0959  159.9545 H   0  0  0  0  0  0  0  0  0  0  0  0  # atno 6908 bound_to 6896
  152.5100  133.8993  159.7488 H   0  0  0  0  0  0  0  0  0  0  0  0  # atno 6909 bound_to 6896
  146.2301  139.9020  142.8538 H   0  0  0  0  0  0  0  0  0  0  0  0  # atno 7974 bound_to 7965
  155.8244  140.0924  157.1830 H   0  0  0  0  0  0  0  0  0  0  0  0  # atno 8008 bound_to 7997
  154.3979  140.1431  156.3598 H   0  0  0  0  0  0  0  0  0  0  0  0  # atno 8009 bound_to 7997
  155.8232  140.3445  155.5529 H   0  0  0  0  0  0  0  0  0  0  0  0  # atno 8010 bound_to 7997
  139.4891  144.5759  151.6966 H   0  0  0  0  0  0  0  0  0  0  0  0  # atno 10167 bound_to 10162
  157.3682  130.7686  149.7098 H   0  0  0  0  0  0  0  0  0  0  0  0  # atno 10718 bound_to 10713
  154.4741  135.5862  153.6342 H   0  0  0  0  0  0  0  0  0  0  0  0  # atno 10763 bound_to 10752
  152.9838  135.6074  154.3330 H   0  0  0  0  0  0  0  0  0  0  0  0  # atno 10764 bound_to 10752
  154.3215  135.2843  155.2496 H   0  0  0  0  0  0  0  0  0  0  0  0  # atno 10765 bound_to 10752
  140.0813  134.5335  155.8944 H   0  0  0  0  0  0  0  0  0  0  0  0  # atno 11005 bound_to 11000
  145.2313  140.9974  143.3989 LP  0  0  0  0  0  0  0  0  0  0  0  0  # atno 17320 bound_to 7965
  144.9528  139.4064  143.6394 LP  0  0  0  0  0  0  0  0  0  0  0  0  # atno 17321 bound_to 7965
  140.5355  144.0662  150.6069 LP  0  0  0  0  0  0  0  0  0  0  0  0  # atno 17342 bound_to 10162
  140.3667  143.2877  152.0324 LP  0  0  0  0  0  0  0  0  0  0  0  0  # atno 17343 bound_to 10162
  155.9750  130.4095  150.3880 LP  0  0  0  0  0  0  0  0  0  0  0  0  # atno 17370 bound_to 10713
  157.1967  131.0428  151.2672 LP  0  0  0  0  0  0  0  0  0  0  0  0  # atno 17371 bound_to 10713
  141.2047  133.6641  156.6139 LP  0  0  0  0  0  0  0  0  0  0  0  0  # atno 17394 bound_to 11000
  140.3484  134.7789  157.4449 LP  0  0  0  0  0  0  0  0  0  0  0  0  # atno 17395 bound_to 11000

$$$$
