AV-unprocessed.smi:496|AV-procd|sdf|2716|dock9
  -GOLD-   2262023163D 1   1.00000     0.00000
 Structure written by MMmdl.
 42 44  0  0  0  0  0  0  0  0  1 V2000
  154.9056  135.8252  159.2943 C   0  0  0  0  0  0  0  0  0  0  0  0
  153.6012  136.2308  159.6704 O   0  0  0  0  0  0  0  0  0  0  0  0
  153.2256  137.4632  159.0807 C   0  0  0  0  0  0  0  0  0  0  0  0
  151.8294  137.8484  159.5849 C   0  0  0  0  0  0  0  0  0  0  0  0
  151.3766  139.1071  159.0114 N   0  0  0  0  0  0  0  0  0  0  0  0
  150.2891  139.3442  158.2312 C   0  0  0  0  0  0  0  0  0  0  0  0
  149.3295  138.2581  157.8122 C   0  0  2  0  0  0  0  0  0  0  0  0
  148.3024  138.7576  156.7868 C   0  0  0  0  0  0  0  0  0  0  0  0
  148.6512  137.7557  159.0045 N   0  0  0  0  0  0  0  0  0  0  0  0
  148.7575  136.5080  159.4888 C   0  0  0  0  0  0  0  0  0  0  0  0
  149.4343  135.6286  158.9558 O   0  0  0  0  0  0  0  0  0  0  0  0
  147.9874  136.2291  160.7154 C   0  0  0  0  0  0  0  0  0  0  0  0
  147.6164  135.0478  161.3030 C   0  0  0  0  0  0  0  0  0  0  0  0
  146.8668  135.3878  162.4630 C   0  0  0  0  0  0  0  0  0  0  0  0
  146.8278  136.7522  162.4982 C   0  0  0  0  0  0  0  0  0  0  0  0
  147.4999  137.2791  161.4388 O   0  0  0  0  0  0  0  0  0  0  0  0
  150.1155  140.6157  157.8593 N   0  0  0  0  0  0  0  0  0  0  0  0
  151.1931  141.2560  158.4362 C   0  0  0  0  0  0  0  0  0  0  0  0
  151.5776  142.6156  158.4031 C   0  0  0  0  0  0  0  0  0  0  0  0
  152.7415  143.0445  159.0740 C   0  0  0  0  0  0  0  0  0  0  0  0
  153.5350  142.1222  159.7863 C   0  0  0  0  0  0  0  0  0  0  0  0
  153.1681  140.7634  159.8332 C   0  0  0  0  0  0  0  0  0  0  0  0
  152.0049  140.3400  159.1618 C   0  0  0  0  0  0  0  0  0  0  0  0
  155.1457  134.8752  159.7719 H   0  0  0  0  0  0  0  0  0  0  0  0
  155.6519  136.5569  159.6065 H   0  0  0  0  0  0  0  0  0  0  0  0
  154.9800  135.6875  158.2147 H   0  0  0  0  0  0  0  0  0  0  0  0
  153.9455  138.2391  159.3470 H   0  0  0  0  0  0  0  0  0  0  0  0
  153.2270  137.3712  157.9937 H   0  0  0  0  0  0  0  0  0  0  0  0
  151.1016  137.0666  159.3689 H   0  0  0  0  0  0  0  0  0  0  0  0
  151.8447  137.9453  160.6706 H   0  0  0  0  0  0  0  0  0  0  0  0
  149.8656  137.4316  157.3480 H   0  0  0  0  0  0  0  0  0  0  0  0
  148.7968  139.1274  155.8882 H   0  0  0  0  0  0  0  0  0  0  0  0
  147.6963  139.5697  157.1899 H   0  0  0  0  0  0  0  0  0  0  0  0
  147.6271  137.9562  156.4859 H   0  0  0  0  0  0  0  0  0  0  0  0
  148.0735  138.4116  159.5094 H   0  0  0  0  0  0  0  0  0  0  0  0
  147.8538  134.0573  160.9429 H   0  0  0  0  0  0  0  0  0  0  0  0
  146.4121  134.7194  163.1792 H   0  0  0  0  0  0  0  0  0  0  0  0
  146.3864  137.4738  163.1700 H   0  0  0  0  0  0  0  0  0  0  0  0
  150.9767  143.3294  157.8594 H   0  0  0  0  0  0  0  0  0  0  0  0
  153.0272  144.0856  159.0413 H   0  0  0  0  0  0  0  0  0  0  0  0
  154.4257  142.4584  160.2970 H   0  0  0  0  0  0  0  0  0  0  0  0
  153.7757  140.0562  160.3777 H   0  0  0  0  0  0  0  0  0  0  0  0
  1  2  1  0  0  0  0
  1 24  1  0  0  0  0
  1 25  1  0  0  0  0
  1 26  1  0  0  0  0
  2  3  1  0  0  0  0
  3  4  1  0  0  0  0
  3 27  1  0  0  0  0
  3 28  1  0  0  0  0
  4  5  1  0  0  0  0
  4 29  1  0  0  0  0
  4 30  1  0  0  0  0
  5 23  1  0  0  0  0
  5  6  1  0  0  0  0
  6  7  1  0  0  0  0
  6 17  2  0  0  0  0
  7  8  1  0  0  0  0
  7  9  1  0  0  0  0
  7 31  1  0  0  0  0
  8 32  1  0  0  0  0
  8 33  1  0  0  0  0
  8 34  1  0  0  0  0
  9 10  1  0  0  0  0
  9 35  1  0  0  0  0
 10 11  2  0  0  0  0
 10 12  1  0  0  0  0
 12 16  1  0  0  0  0
 12 13  2  0  0  0  0
 13 14  1  0  0  0  0
 13 36  1  0  0  0  0
 14 15  2  0  0  0  0
 14 37  1  0  0  0  0
 15 16  1  0  0  0  0
 15 38  1  0  0  0  0
 17 18  1  0  0  0  0
 18 23  2  0  0  0  0
 18 19  1  0  0  0  0
 19 20  2  0  0  0  0
 19 39  1  0  0  0  0
 20 21  1  0  0  0  0
 20 40  1  0  0  0  0
 21 22  2  0  0  0  0
 21 41  1  0  0  0  0
 22 23  1  0  0  0  0
 22 42  1  0  0  0  0
M  END
> <s_m_source_file>
AV-unprocessed.smi

> <i_m_source_file_index>
496

> <i_lp_mmshare_version>
43012

> <i_f3d_flags>
0

> <s_epik_input>
W2NIXTFbY0hdW2NIXVtjSF1jKGMxMiluKFtDSDJdW0NIMl1PW0NIM10pYyhuMilbQ0BIXShbQ0gzXSlbTkhdQyg9TyljM1tjSF1bY0hdW2NIXW8z

> <s_epik_cmdline>
J2VwaWtfcHl0aG9uJywgJy1waCcsICc3LjAnLCAnLXRuJywgJzgnLCAnLW1hJywgJzIwMCcsICctbWV0YWxfYmluZGluZycsICctaW1hZScsICc8aW5maWxlLm1hZT4nLCAnLW9tYWUnLCAnPG91dGZpbGUubWFlPic=

> <r_epik_Ionization_Penalty>
0.116528

> <r_epik_Ionization_Penalty_Charging>
0

> <r_epik_Ionization_Penalty_Neutral>
0.116528

> <r_epik_State_Penalty>
0.106132

> <r_epik_Charging_Adjusted_Penalty>
0.106132

> <i_epik_Tot_Q>
0

> <i_epik_Tot_abs_Q>
0

> <r_epik_Metal_State_Penalty>
0.0963468

> <b_epik_Metal_Only>
0

> <s_lp_Force_Field>
OPLS_2005

> <r_lp_Energy>
7.66614

> <b_lp_Chiralities_Consistent>
1

> <s_lp_Variant>
AV-unprocessed.smi:496-1

> <Gold.Version>
5.8.1

> <Gold.Id.Protein>
6NUR|6NUR_protein|mol2

> <Gold.PLP.Fitness>
53.2141

> <Gold.PLP.PLP>
-42.1684

> <Gold.PLP.part.hbond>
-4.0000

> <Gold.PLP.part.metal>
0.0000

> <Gold.PLP.part.buried>
-6.1988

> <Gold.PLP.part.nonpolar>
-32.0019

> <Gold.PLP.part.repulsive>
0.2159

> <Gold.PLP.ligand.clash>
0.0000

> <Gold.PLP.ligand.torsion>
0.2142

> <Gold.PLP.Chemscore.Hbond>
3.8080

> <Gold.PLP.Chemscore.CHOScore>
0.0000

> <Gold.PLP.Chemscore.Metal>
0.0000

> <Gold.Chemscore.Hbonds>
donor molecule, donor type, donor heavy atom, donor atom, acceptor molecule, acceptor atom, score
      P1  H  6896  6907       L1    11  1.00
      P1  H  6896  6908       L1     2  1.00
      P1  H  6931  6943       L1    16  0.90
      P1  H  6934  6947       L1    16  0.86

> <Gold.PLP.Chemscore.Internal.Correction>
0.0501

> <Gold.Rescore>
     Score         DG    S(hbond)    S(metal)    S(lipo)     H(rot)  DE(clash)    DE(int)     intcor
     23.52     -23.89       3.48        0.00      98.39       1.85       0.00       0.36       ----

> <Gold.Chemscore.Fitness>
23.5195

> <Gold.Chemscore.DG>
-23.8864

> <Gold.Chemscore.ZeroCoef>
-5.4800

> <Gold.Chemscore.Hbond>
3.4807

> <Gold.Chemscore.Metal>
0.0000

> <Gold.Chemscore.Lipo>
98.3909

> <Gold.Chemscore.Internal_Hbond>
0.0000

> <Gold.Chemscore.DEClash>
0.0048

> <Gold.Chemscore.DEInternal>
0.3621

> <Gold.Chemscore.Rot>
1.8480

> <Gold.Chemscore.Internal.Correction>
   9.000000E+99

> <Gold.Chemscore.Hbonds>
donor molecule, donor type, donor heavy atom, donor atom, acceptor molecule, acceptor atom, score
      P1  H  6896  6907       L1    11  1.00
      P1  H  6896  6908       L1     2  0.76
      P1  H  6931  6943       L1    16  0.35
      P1  H  6934  6947       L1    16  0.82

> <Gold.Chemscore.Hbond.Weighted>
-11.6255

> <Gold.Chemscore.Metal.Weighted>
-0.0000

> <Gold.Chemscore.Lipo.Weighted>
-11.5117

> <Gold.Chemscore.Internal_Hbond.Weighted>
0.0000

> <Gold.Chemscore.DEClash.Weighted>
0.0048

> <Gold.Chemscore.DEInternal.Weighted>
0.3621

> <Gold.Chemscore.Rot.Weighted>
4.7308

> <Gold.Chemscore.Internal.Correction.Weighted>
   9.000000E+99

> <Gold.Protein.RotatedTorsions>
[ 6907 6896 6895 6894 ] final  -59.13 input  -60.11 | X-H torsion
[ 7974 7965 7964 7962 ] final   51.53 input  175.53 | X-H torsion
[ 8008 7997 7996 7995 ] final -117.02 input   59.86 | X-H torsion
[ 10167 10162 10161 10158 ] final -108.61 input  -65.29 | X-H torsion
[ 10718 10713 10712 10709 ] final   30.24 input   66.30 | X-H torsion
[ 10763 10752 10751 10750 ] final   78.38 input  -60.55 | X-H torsion
[ 11005 11000 10999 10996 ] final    1.98 input  -57.11 | X-H torsion

> <Gold.Protein.ActiveResidues>
 VAL166  LYS551  ARG553  GLY616  TRP617  ASP618  TYR619  PRO620  LYS621  CYS622 
 ASP623  PHE694  ASN695  SER759  ASP760  ASP761  ALA762  ILE779  LEU786  VAL792 
 PHE793  MET794  SER795  GLU796  ALA797  LYS798  CYS799  TRP800  GLU811  SER814 

> <Gold.Protein.RotatedAtoms>
  150.7954  134.7009  159.6549 H   0  0  0  0  0  0  0  0  0  0  0  0  # atno 6907 bound_to 6896
  152.4065  134.6194  160.0056 H   0  0  0  0  0  0  0  0  0  0  0  0  # atno 6908 bound_to 6896
  151.6450  133.3287  159.3175 H   0  0  0  0  0  0  0  0  0  0  0  0  # atno 6909 bound_to 6896
  145.9904  139.4333  143.0077 H   0  0  0  0  0  0  0  0  0  0  0  0  # atno 7974 bound_to 7965
  155.0770  140.0394  157.2627 H   0  0  0  0  0  0  0  0  0  0  0  0  # atno 8008 bound_to 7997
  154.6937  140.2659  155.6763 H   0  0  0  0  0  0  0  0  0  0  0  0  # atno 8009 bound_to 7997
  156.2737  140.2754  156.1524 H   0  0  0  0  0  0  0  0  0  0  0  0  # atno 8010 bound_to 7997
  140.1642  143.4095  152.1403 H   0  0  0  0  0  0  0  0  0  0  0  0  # atno 10167 bound_to 10162
  157.2570  130.7142  149.6434 H   0  0  0  0  0  0  0  0  0  0  0  0  # atno 10718 bound_to 10713
  153.0870  135.4879  154.8616 H   0  0  0  0  0  0  0  0  0  0  0  0  # atno 10763 bound_to 10752
  154.7223  135.3042  154.9030 H   0  0  0  0  0  0  0  0  0  0  0  0  # atno 10764 bound_to 10752
  153.9691  135.6803  153.4800 H   0  0  0  0  0  0  0  0  0  0  0  0  # atno 10765 bound_to 10752
  140.6094  133.9762  155.8170 H   0  0  0  0  0  0  0  0  0  0  0  0  # atno 11005 bound_to 11000
  145.7639  140.9924  143.1185 LP  0  0  0  0  0  0  0  0  0  0  0  0  # atno 17320 bound_to 7965
  144.6887  139.9364  143.7473 LP  0  0  0  0  0  0  0  0  0  0  0  0  # atno 17321 bound_to 7965
  139.5367  144.7216  151.4870 LP  0  0  0  0  0  0  0  0  0  0  0  0  # atno 17342 bound_to 10162
  140.6623  143.8471  150.6902 LP  0  0  0  0  0  0  0  0  0  0  0  0  # atno 17343 bound_to 10162
  155.9665  130.4409  150.5321 LP  0  0  0  0  0  0  0  0  0  0  0  0  # atno 17370 bound_to 10713
  157.3217  131.0683  151.1927 LP  0  0  0  0  0  0  0  0  0  0  0  0  # atno 17371 bound_to 10713
  141.0818  134.0050  157.3374 LP  0  0  0  0  0  0  0  0  0  0  0  0  # atno 17394 bound_to 11000
  139.9198  135.0200  156.8023 LP  0  0  0  0  0  0  0  0  0  0  0  0  # atno 17395 bound_to 11000

$$$$
