#       Name:                AV-unprocessed.smi:1763
#       Creating user name   scv26
#       Creation time:       Fri Mar 27 08:36:35 2020


#       File generated by GOLD software.
#

@<TRIPOS>MOLECULE
AV-unprocessed.smi:1763
    48    49     1
SMALL
NO_CHARGES


@<TRIPOS>ATOM
      1 ****        -4.6497   3.9688   2.2015 C.3            1 S1                 0.0000
      2 ****        -4.3062   2.5631   2.0557 N.am           1 S1                 0.0000
      3 ****        -4.7701   1.7688   1.0799 C.2            1 S1                 0.0000
      4 ****        -5.5499   2.1517   0.2082 O.2            1 S1                 0.0000
      5 ****        -4.2830   0.3150   1.0900 C.3            1 S1                 0.0000
      6 ****        -2.8136   0.1526   0.9896 N.3            1 S1                 0.0000
      7 ****        -2.2720   0.6960  -0.2652 C.3            1 S1                 0.0000
      8 ****        -0.7384   0.5700  -0.2936 C.3            1 S1                 0.0000
      9 ****        -0.2946  -0.8917  -0.1208 C.3            1 S1                 0.0000
     10 ****         1.1583  -0.9872  -0.0146 N.am           1 S1                 0.0000
     11 ****         2.0094  -1.0096  -1.0507 C.2            1 S1                 0.0000
     12 ****         1.6489  -0.9470  -2.2266 O.2            1 S1                 0.0000
     13 ****         3.2833  -1.1042  -0.6308 N.am           1 S1                 0.0000
     14 ****         4.4647  -1.1726  -1.4165 C.ar           1 S1                 0.0000
     15 ****         5.6688  -1.2513  -0.6804 C.ar           1 S1                 0.0000
     16 ****         6.8965  -1.3276  -1.3660 C.ar           1 S1                 0.0000
     17 ****         6.8890  -1.3241  -2.7723 C.ar           1 S1                 0.0000
     18 ****         5.6469  -1.2428  -3.4283 C.ar           1 S1                 0.0000
     19 ****         4.4689  -1.1687  -2.7732 N.ar           1 S1                 0.0000
     20 ****        -0.9502  -1.4641   1.1433 C.3            1 S1                 0.0000
     21 ****        -2.4761  -1.2694   1.1122 C.3            1 S1                 0.0000
     22 ****        -4.2001   4.3690   3.1101 H              1 S1                 0.0000
     23 ****        -5.7303   4.1026   2.2684 H              1 S1                 0.0000
     24 ****        -4.2783   4.5462   1.3540 H              1 S1                 0.0000
     25 ****        -3.6660   2.1689   2.7302 H              1 S1                 0.0000
     26 ****        -4.6366  -0.1375   2.0177 H              1 S1                 0.0000
     27 ****        -4.7691  -0.2275   0.2769 H              1 S1                 0.0000
     28 ****        -2.7101   0.1771  -1.1196 H              1 S1                 0.0000
     29 ****        -2.5236   1.7507  -0.3754 H              1 S1                 0.0000
     30 ****        -0.3572   0.9699  -1.2339 H              1 S1                 0.0000
     31 ****        -0.3106   1.1859   0.4991 H              1 S1                 0.0000
     32 ****        -0.6347  -1.4745  -0.9792 H              1 S1                 0.0000
     33 ****         1.5419  -1.0425   0.9174 H              1 S1                 0.0000
     34 ****         3.4249  -1.1370   0.3679 H              1 S1                 0.0000
     35 ****         5.6562  -1.2544   0.3999 H              1 S1                 0.0000
     36 ****         7.8273  -1.3888  -0.8217 H              1 S1                 0.0000
     37 ****         7.8099  -1.3827  -3.3334 H              1 S1                 0.0000
     38 ****         5.5969  -1.2386  -4.5071 H              1 S1                 0.0000
     39 ****        -0.7159  -2.5252   1.2370 H              1 S1                 0.0000
     40 ****        -0.5412  -0.9779   2.0307 H              1 S1                 0.0000
     41 ****        -2.9003  -1.6724   2.0329 H              1 S1                 0.0000
     42 ****        -2.9124  -1.8361   0.2875 H              1 S1                 0.0000
     43 ****        -5.8696   3.0992   0.2045 LP             1 S1                 0.0000
     44 ****        -5.8639   1.5153  -0.4964 LP             1 S1                 0.0000
     45 ****        -2.3962   0.6731   1.7344 LP             1 S1                 0.0000
     46 ****         0.6764  -0.8752  -2.4483 LP             1 S1                 0.0000
     47 ****         2.3286  -0.9680  -2.9598 LP             1 S1                 0.0000
     48 ****         3.6097  -1.1116  -3.2818 LP             1 S1                 0.0000
@<TRIPOS>BOND
    1    1    2 1     
    2    1   22 1     
    3    1   23 1     
    4    1   24 1     
    5    2    3 am    
    6    2   25 1     
    7    3    4 2     
    8    3    5 1     
    9    5    6 1     
   10    5   26 1     
   11    5   27 1     
   12    6   21 1     
   13    6    7 1     
   14    7    8 1     
   15    7   28 1     
   16    7   29 1     
   17    8    9 1     
   18    8   30 1     
   19    8   31 1     
   20    9   10 1     
   21    9   20 1     
   22    9   32 1     
   23   10   11 am    
   24   10   33 1     
   25   11   12 2     
   26   11   13 am    
   27   13   14 1     
   28   13   34 1     
   29   14   19 ar    
   30   14   15 ar    
   31   15   16 ar    
   32   15   35 1     
   33   16   17 ar    
   34   16   36 1     
   35   17   18 ar    
   36   17   37 1     
   37   18   19 ar    
   38   18   38 1     
   39   20   21 1     
   40   20   39 1     
   41   20   40 1     
   42   21   41 1     
   43   21   42 1     
   44    4   43 1     
   45    4   44 1     
   46    6   45 1     
   47   12   46 1     
   48   12   47 1     
   49   19   48 1     
@<TRIPOS>SUBSTRUCTURE
      1 S1             1
@<TRIPOS>SET
LONE_PAIRS      STATIC     ATOMS    <user>   **** ""
6 43 44 45 46 47 48
DONOR_HYDROGENS      STATIC     ATOMS    <user>   **** ""
3 25 33 34
ATOM$BLUE        STATIC     ATOMS    COLORGROUP SYSTEM
6 43 44 45 46 47 48
ATOM$RED        STATIC     ATOMS    COLORGROUP SYSTEM
3 25 33 34
