AV-unprocessed.smi:1221|AV-procd|sdf|5118|dock10
  -GOLD-   22720 4173D 1   1.00000     0.00000
 Structure written by MMmdl.
 40 41  0  0  0  0  0  0  0  0  1 V2000
  143.7969  132.5241  149.5511 C   0  0  0  0  0  0  0  0  0  0  0  0
  144.2453  133.6103  150.4677 C   0  0  0  0  0  0  0  0  0  0  0  0
  145.3992  134.3375  150.5537 C   0  0  0  0  0  0  0  0  0  0  0  0
  145.1515  135.2007  151.6540 C   0  0  0  0  0  0  0  0  0  0  0  0
  146.1282  136.1373  152.0784 N   0  0  0  0  0  0  0  0  0  0  0  0
  145.9264  137.2744  152.7655 C   0  0  0  0  0  0  0  0  0  0  0  0
  144.8305  137.6898  153.1435 O   0  0  0  0  0  0  0  0  0  0  0  0
  147.0809  137.9151  152.9993 N   0  0  0  0  0  0  0  0  0  0  0  0
  147.2008  139.1737  153.7245 C   0  0  0  0  0  0  0  0  0  0  0  0
  148.5321  139.8815  153.4104 C   0  0  0  0  0  0  0  0  0  0  0  0
  148.8727  140.8569  154.4534 N   0  0  0  0  0  0  0  0  0  0  0  0
  147.8415  141.8572  154.7752 C   0  0  0  0  0  0  0  0  0  0  0  0
  147.1951  141.6583  156.1664 C   0  0  0  0  0  0  0  0  0  0  0  0
  148.0858  141.0168  157.2488 C   0  0  0  0  0  0  0  0  0  0  0  0
  149.4568  141.6946  157.4516 C   0  0  0  0  0  0  0  0  0  0  0  0
  150.3371  141.8625  156.1901 C   0  0  0  0  0  0  0  0  0  0  0  0
  150.0702  140.8237  155.0890 C   0  0  0  0  0  0  0  0  0  0  0  0
  150.9465  139.9987  154.8287 O   0  0  0  0  0  0  0  0  0  0  0  0
  143.9551  135.0169  152.1910 N   0  0  0  0  0  0  0  0  0  0  0  0
  143.3674  133.9978  151.4325 O   0  0  0  0  0  0  0  0  0  0  0  0
  144.6479  132.0589  149.0534 H   0  0  0  0  0  0  0  0  0  0  0  0
  143.1299  132.9183  148.7846 H   0  0  0  0  0  0  0  0  0  0  0  0
  143.2620  131.7488  150.1000 H   0  0  0  0  0  0  0  0  0  0  0  0
  146.2767  134.2619  149.9289 H   0  0  0  0  0  0  0  0  0  0  0  0
  147.0822  135.9164  151.8347 H   0  0  0  0  0  0  0  0  0  0  0  0
  147.9358  137.5040  152.6541 H   0  0  0  0  0  0  0  0  0  0  0  0
  146.3653  139.8131  153.4375 H   0  0  0  0  0  0  0  0  0  0  0  0
  147.0970  138.9937  154.7960 H   0  0  0  0  0  0  0  0  0  0  0  0
  149.3359  139.1491  153.3158 H   0  0  0  0  0  0  0  0  0  0  0  0
  148.4722  140.3614  152.4332 H   0  0  0  0  0  0  0  0  0  0  0  0
  148.2782  142.8542  154.7102 H   0  0  0  0  0  0  0  0  0  0  0  0
  147.0508  141.8672  154.0245 H   0  0  0  0  0  0  0  0  0  0  0  0
  146.8221  142.6193  156.5222 H   0  0  0  0  0  0  0  0  0  0  0  0
  146.3132  141.0277  156.0496 H   0  0  0  0  0  0  0  0  0  0  0  0
  147.5464  141.0236  158.1962 H   0  0  0  0  0  0  0  0  0  0  0  0
  148.2325  139.9610  157.0171 H   0  0  0  0  0  0  0  0  0  0  0  0
  149.3025  142.6771  157.8989 H   0  0  0  0  0  0  0  0  0  0  0  0
  150.0137  141.1209  158.1934 H   0  0  0  0  0  0  0  0  0  0  0  0
  150.2089  142.8613  155.7732 H   0  0  0  0  0  0  0  0  0  0  0  0
  151.3880  141.8150  156.4788 H   0  0  0  0  0  0  0  0  0  0  0  0
  1  2  1  0  0  0  0
  1 21  1  0  0  0  0
  1 22  1  0  0  0  0
  1 23  1  0  0  0  0
  2 20  1  0  0  0  0
  2  3  2  0  0  0  0
  3  4  1  0  0  0  0
  3 24  1  0  0  0  0
  4  5  1  0  0  0  0
  4 19  2  0  0  0  0
  5  6  1  0  0  0  0
  5 25  1  0  0  0  0
  6  7  2  0  0  0  0
  6  8  1  0  0  0  0
  8  9  1  0  0  0  0
  8 26  1  0  0  0  0
  9 10  1  0  0  0  0
  9 27  1  0  0  0  0
  9 28  1  0  0  0  0
 10 11  1  0  0  0  0
 10 29  1  0  0  0  0
 10 30  1  0  0  0  0
 11 17  1  0  0  0  0
 11 12  1  0  0  0  0
 12 13  1  0  0  0  0
 12 31  1  0  0  0  0
 12 32  1  0  0  0  0
 13 14  1  0  0  0  0
 13 33  1  0  0  0  0
 13 34  1  0  0  0  0
 14 15  1  0  0  0  0
 14 35  1  0  0  0  0
 14 36  1  0  0  0  0
 15 16  1  0  0  0  0
 15 37  1  0  0  0  0
 15 38  1  0  0  0  0
 16 17  1  0  0  0  0
 16 39  1  0  0  0  0
 16 40  1  0  0  0  0
 17 18  2  0  0  0  0
 19 20  1  0  0  0  0
M  END
> <s_m_source_file>
AV-unprocessed.smi

> <i_m_source_file_index>
1221

> <i_lp_mmshare_version>
43012

> <i_f3d_flags>
0

> <s_epik_input>
W0NIM11jMVtjSF1jKG5vMSlbTkhdQyg9TylbTkhdW0NIMl1bQ0gyXU4yW0NIMl1bQ0gyXVtDSDJdW0NIMl1bQ0gyXUMyPU8=

> <s_epik_cmdline>
J2VwaWtfcHl0aG9uJywgJy1waCcsICc3LjAnLCAnLXRuJywgJzgnLCAnLW1hJywgJzIwMCcsICctbWV0YWxfYmluZGluZycsICctaW1hZScsICc8aW5maWxlLm1hZT4nLCAnLW9tYWUnLCAnPG91dGZpbGUubWFlPic=

> <r_lp_tautomer_probability>
1

> <r_epik_Ionization_Penalty>
2.943e-05

> <r_epik_Ionization_Penalty_Charging>
0

> <r_epik_Ionization_Penalty_Neutral>
2.943e-05

> <r_epik_State_Penalty>
-0

> <r_epik_Charging_Adjusted_Penalty>
0

> <i_epik_Tot_Q>
0

> <i_epik_Tot_abs_Q>
0

> <r_epik_Metal_State_Penalty>
0.0104721

> <b_epik_Metal_Only>
0

> <s_lp_Force_Field>
OPLS_2005

> <r_lp_Energy>
18.1231

> <b_lp_Chiralities_Consistent>
1

> <s_lp_Variant>
AV-unprocessed.smi:1221-1

> <Gold.Version>
5.8.1

> <Gold.Id.Protein>
6NUR|6NUR_protein|mol2

> <Gold.PLP.Fitness>
38.1569

> <Gold.PLP.PLP>
-29.9319

> <Gold.PLP.part.hbond>
-3.0000

> <Gold.PLP.part.metal>
0.0000

> <Gold.PLP.part.buried>
-0.7519

> <Gold.PLP.part.nonpolar>
-27.0540

> <Gold.PLP.part.repulsive>
0.5923

> <Gold.PLP.ligand.clash>
0.0000

> <Gold.PLP.ligand.torsion>
0.3919

> <Gold.PLP.Chemscore.Hbond>
3.0000

> <Gold.PLP.Chemscore.CHOScore>
0.0000

> <Gold.PLP.Chemscore.Metal>
0.0000

> <Gold.Chemscore.Hbonds>
donor molecule, donor type, donor heavy atom, donor atom, acceptor molecule, acceptor atom, score
      L1  H     5    25       P1  7948  1.00
      L1  H     8    26       P1  7948  1.00
      P1  H  7989  7998       L1    18  0.80

> <Gold.PLP.Chemscore.Internal.Correction>
0.0089

> <Gold.Rescore>
     Score         DG    S(hbond)    S(metal)    S(lipo)     H(rot)  DE(clash)    DE(int)     intcor
     15.03     -17.02       2.93        0.00      50.65       1.63       0.71       1.28       ----

> <Gold.Chemscore.Fitness>
15.0314

> <Gold.Chemscore.DG>
-17.0175

> <Gold.Chemscore.ZeroCoef>
-5.4800

> <Gold.Chemscore.Hbond>
2.9269

> <Gold.Chemscore.Metal>
0.0000

> <Gold.Chemscore.Lipo>
50.6460

> <Gold.Chemscore.Internal_Hbond>
0.0000

> <Gold.Chemscore.DEClash>
0.7085

> <Gold.Chemscore.DEInternal>
1.2777

> <Gold.Chemscore.Rot>
1.6266

> <Gold.Chemscore.Internal.Correction>
   9.000000E+99

> <Gold.Chemscore.Hbonds>
donor molecule, donor type, donor heavy atom, donor atom, acceptor molecule, acceptor atom, score
      L1  H     5    25       P1  7948  0.98
      L1  H     8    26       P1  7948  0.99
      P1  H  7989  7998       L1    18  0.12

> <Gold.Chemscore.Hbond.Weighted>
-9.7760

> <Gold.Chemscore.Metal.Weighted>
-0.0000

> <Gold.Chemscore.Lipo.Weighted>
-5.9256

> <Gold.Chemscore.Internal_Hbond.Weighted>
0.0000

> <Gold.Chemscore.DEClash.Weighted>
0.7085

> <Gold.Chemscore.DEInternal.Weighted>
1.2777

> <Gold.Chemscore.Rot.Weighted>
4.1641

> <Gold.Chemscore.Internal.Correction.Weighted>
   9.000000E+99

> <Gold.Protein.RotatedTorsions>
[ 6907 6896 6895 6894 ] final  173.66 input  -60.11 | X-H torsion
[ 7974 7965 7964 7962 ] final  144.56 input  175.53 | X-H torsion
[ 8008 7997 7996 7995 ] final   85.81 input   59.86 | X-H torsion
[ 10167 10162 10161 10158 ] final -167.65 input  -65.29 | X-H torsion
[ 10718 10713 10712 10709 ] final  170.51 input   66.30 | X-H torsion
[ 10763 10752 10751 10750 ] final -104.74 input  -60.55 | X-H torsion
[ 11005 11000 10999 10996 ] final   79.63 input  -57.11 | X-H torsion

> <Gold.Protein.ActiveResidues>
 VAL166  LYS551  ARG553  GLY616  TRP617  ASP618  TYR619  PRO620  LYS621  CYS622 
 ASP623  PHE694  ASN695  SER759  ASP760  ASP761  ALA762  ILE779  LEU786  VAL792 
 PHE793  MET794  SER795  GLU796  ALA797  LYS798  CYS799  TRP800  GLU811  SER814 

> <Gold.Protein.RotatedAtoms>
  151.7647  133.3336  159.3427 H   0  0  0  0  0  0  0  0  0  0  0  0  # atno 6907 bound_to 6896
  150.7484  134.6073  159.6077 H   0  0  0  0  0  0  0  0  0  0  0  0  # atno 6908 bound_to 6896
  152.3381  134.7172  160.0323 H   0  0  0  0  0  0  0  0  0  0  0  0  # atno 6909 bound_to 6896
  144.8826  139.5677  143.5836 H   0  0  0  0  0  0  0  0  0  0  0  0  # atno 7974 bound_to 7965
  155.9547  140.3398  155.6438 H   0  0  0  0  0  0  0  0  0  0  0  0  # atno 8008 bound_to 7997
  155.6874  140.0745  157.2479 H   0  0  0  0  0  0  0  0  0  0  0  0  # atno 8009 bound_to 7997
  154.4129  140.1663  156.2037 H   0  0  0  0  0  0  0  0  0  0  0  0  # atno 8010 bound_to 7997
  139.6036  144.0960  152.1769 H   0  0  0  0  0  0  0  0  0  0  0  0  # atno 10167 bound_to 10162
  157.0071  131.0193  151.2814 H   0  0  0  0  0  0  0  0  0  0  0  0  # atno 10718 bound_to 10713
  154.7899  135.4775  154.0029 H   0  0  0  0  0  0  0  0  0  0  0  0  # atno 10763 bound_to 10752
  153.1615  135.6809  153.8742 H   0  0  0  0  0  0  0  0  0  0  0  0  # atno 10764 bound_to 10752
  153.8354  135.3186  155.3400 H   0  0  0  0  0  0  0  0  0  0  0  0  # atno 10765 bound_to 10752
  139.9165  134.7858  156.1804 H   0  0  0  0  0  0  0  0  0  0  0  0  # atno 11005 bound_to 11000
  146.3004  139.7408  142.9095 LP  0  0  0  0  0  0  0  0  0  0  0  0  # atno 17320 bound_to 7965
  145.3927  141.0374  143.3115 LP  0  0  0  0  0  0  0  0  0  0  0  0  # atno 17321 bound_to 7965
  140.0562  144.5893  150.7298 LP  0  0  0  0  0  0  0  0  0  0  0  0  # atno 17342 bound_to 10162
  140.7268  143.2645  151.4093 LP  0  0  0  0  0  0  0  0  0  0  0  0  # atno 17343 bound_to 10162
  157.5348  130.8081  149.7958 LP  0  0  0  0  0  0  0  0  0  0  0  0  # atno 17370 bound_to 10713
  156.0149  130.3817  150.2142 LP  0  0  0  0  0  0  0  0  0  0  0  0  # atno 17371 bound_to 10713
  141.0646  133.6825  156.2018 LP  0  0  0  0  0  0  0  0  0  0  0  0  # atno 17394 bound_to 11000
  140.6607  134.4971  157.5583 LP  0  0  0  0  0  0  0  0  0  0  0  0  # atno 17395 bound_to 11000

$$$$
