AV-unprocessed.smi:2391|AV-procd|sdf|9481|dock2
  -GOLD-   2272013113D 1   1.00000     0.00000
 Structure written by MMmdl.
 35 36  0  0  0  0  0  0  0  0  1 V2000
  150.6258  136.9388  159.1201 O   0  0  0  0  0  0  0  0  0  0  0  0
  149.7454  137.6450  158.6286 C   0  0  0  0  0  0  0  0  0  0  0  0
  148.4742  137.7139  159.0614 N   0  0  0  0  0  0  0  0  0  0  0  0
  147.8787  137.0167  160.1456 C   0  0  0  0  0  0  0  0  0  0  0  0
  148.2751  135.6697  160.2887 C   0  0  0  0  0  0  0  0  0  0  0  0
  147.7226  134.9199  161.3411 C   0  0  0  0  0  0  0  0  0  0  0  0
  146.8063  135.5722  162.1837 C   0  0  0  0  0  0  0  0  0  0  0  0
  146.4556  136.8648  162.0098 N   0  0  0  0  0  0  0  0  0  0  0  0
  146.9854  137.5721  161.0057 N   0  0  0  0  0  0  0  0  0  0  0  0
  149.9413  138.4550  157.5777 N   0  0  0  0  0  0  0  0  0  0  0  0
  151.1946  138.6227  156.8384 C   0  0  2  0  0  0  0  0  0  0  0  0
  151.6889  140.0840  156.9956 C   0  0  0  0  0  0  0  0  0  0  0  0
  152.2171  140.4507  158.3871 C   0  0  0  0  0  0  0  0  0  0  0  0
  152.1911  141.9809  158.4325 C   0  0  0  0  0  0  0  0  0  0  0  0
  151.1010  142.4187  157.4452 C   0  0  0  0  0  0  0  0  0  0  0  0
  150.5991  141.1410  156.7628 C   0  0  0  0  0  0  0  0  0  0  0  0
  150.9675  138.1877  155.3725 C   0  0  0  0  0  0  0  0  0  0  0  0
  152.0940  138.3430  154.6756 F   0  0  0  0  0  0  0  0  0  0  0  0
  150.6039  136.9058  155.3151 F   0  0  0  0  0  0  0  0  0  0  0  0
  150.0269  138.9314  154.7918 F   0  0  0  0  0  0  0  0  0  0  0  0
  147.8614  138.3377  158.5577 H   0  0  0  0  0  0  0  0  0  0  0  0
  148.9848  135.2189  159.6101 H   0  0  0  0  0  0  0  0  0  0  0  0
  147.9902  133.8854  161.4966 H   0  0  0  0  0  0  0  0  0  0  0  0
  146.3465  135.0504  163.0100 H   0  0  0  0  0  0  0  0  0  0  0  0
  149.1549  138.9942  157.2466 H   0  0  0  0  0  0  0  0  0  0  0  0
  151.9586  137.9650  157.2568 H   0  0  0  0  0  0  0  0  0  0  0  0
  152.4883  140.2664  156.2754 H   0  0  0  0  0  0  0  0  0  0  0  0
  151.5535  140.0516  159.1556 H   0  0  0  0  0  0  0  0  0  0  0  0
  153.2175  140.0605  158.5752 H   0  0  0  0  0  0  0  0  0  0  0  0
  152.0077  142.3520  159.4413 H   0  0  0  0  0  0  0  0  0  0  0  0
  153.1553  142.3765  158.1104 H   0  0  0  0  0  0  0  0  0  0  0  0
  150.2853  142.9378  157.9500 H   0  0  0  0  0  0  0  0  0  0  0  0
  151.5188  143.1072  156.7098 H   0  0  0  0  0  0  0  0  0  0  0  0
  150.3877  141.2975  155.7046 H   0  0  0  0  0  0  0  0  0  0  0  0
  149.6694  140.8225  157.2370 H   0  0  0  0  0  0  0  0  0  0  0  0
  1  2  2  0  0  0  0
  2  3  1  0  0  0  0
  2 10  1  0  0  0  0
  3  4  1  0  0  0  0
  3 21  1  0  0  0  0
  4  9  1  0  0  0  0
  4  5  2  0  0  0  0
  5  6  1  0  0  0  0
  5 22  1  0  0  0  0
  6  7  2  0  0  0  0
  6 23  1  0  0  0  0
  7  8  1  0  0  0  0
  7 24  1  0  0  0  0
  8  9  2  0  0  0  0
 10 11  1  0  0  0  0
 10 25  1  0  0  0  0
 11 12  1  0  0  0  0
 11 17  1  0  0  0  0
 11 26  1  0  0  0  0
 12 16  1  0  0  0  0
 12 13  1  0  0  0  0
 12 27  1  0  0  0  0
 13 14  1  0  0  0  0
 13 28  1  0  0  0  0
 13 29  1  0  0  0  0
 14 15  1  0  0  0  0
 14 30  1  0  0  0  0
 14 31  1  0  0  0  0
 15 16  1  0  0  0  0
 15 32  1  0  0  0  0
 15 33  1  0  0  0  0
 16 34  1  0  0  0  0
 16 35  1  0  0  0  0
 17 18  1  0  0  0  0
 17 19  1  0  0  0  0
 17 20  1  0  0  0  0
M  END
> <s_m_source_file>
AV-unprocessed.smi

> <i_m_source_file_index>
2391

> <i_lp_mmshare_version>
43012

> <i_f3d_flags>
0

> <s_epik_input>
W0NIMl0xW0NIMl1bQ0gyXVtDSDJdW0NIXTFbQ0BIXShDKEYpKEYpRilbTkhdQyg9TylbTkhdYzJbY0hdW2NIXVtjSF1ubjI=

> <s_epik_cmdline>
J2VwaWtfcHl0aG9uJywgJy1waCcsICc3LjAnLCAnLXRuJywgJzgnLCAnLW1hJywgJzIwMCcsICctbWV0YWxfYmluZGluZycsICctaW1hZScsICc8aW5maWxlLm1hZT4nLCAnLW9tYWUnLCAnPG91dGZpbGUubWFlPic=

> <r_lp_tautomer_probability>
1

> <r_epik_Ionization_Penalty>
0.00359591

> <r_epik_Ionization_Penalty_Charging>
0

> <r_epik_Ionization_Penalty_Neutral>
0.00359591

> <r_epik_State_Penalty>
0.0123658

> <r_epik_Charging_Adjusted_Penalty>
0.0123658

> <i_epik_Tot_Q>
0

> <i_epik_Tot_abs_Q>
0

> <r_epik_Metal_State_Penalty>
0.0410426

> <b_epik_Metal_Only>
0

> <s_lp_Force_Field>
OPLS_2005

> <r_lp_Energy>
31.4517

> <b_lp_Chiralities_Consistent>
1

> <s_lp_Variant>
AV-unprocessed.smi:2391-1

> <Gold.Version>
5.8.1

> <Gold.Id.Protein>
6NUR|6NUR_protein|mol2

> <Gold.PLP.Fitness>
37.6270

> <Gold.PLP.PLP>
-32.2674

> <Gold.PLP.part.hbond>
-2.3228

> <Gold.PLP.part.metal>
0.0000

> <Gold.PLP.part.buried>
-6.0307

> <Gold.PLP.part.nonpolar>
-25.2604

> <Gold.PLP.part.repulsive>
0.2218

> <Gold.PLP.ligand.clash>
0.0000

> <Gold.PLP.ligand.torsion>
0.4834

> <Gold.PLP.Chemscore.Hbond>
2.0000

> <Gold.PLP.Chemscore.CHOScore>
0.0000

> <Gold.PLP.Chemscore.Metal>
0.0000

> <Gold.Chemscore.Hbonds>
donor molecule, donor type, donor heavy atom, donor atom, acceptor molecule, acceptor atom, score
      P1  H  6896  6908       L1     1  0.88
      P1  H  6934  6947       L1     9  0.83

> <Gold.PLP.Chemscore.Internal.Correction>
0.3265

> <Gold.Rescore>
     Score         DG    S(hbond)    S(metal)    S(lipo)     H(rot)  DE(clash)    DE(int)     intcor
     13.44     -14.81       1.84        0.00      56.38       1.33       0.01       1.35       ----

> <Gold.Chemscore.Fitness>
13.4422

> <Gold.Chemscore.DG>
-14.8052

> <Gold.Chemscore.ZeroCoef>
-5.4800

> <Gold.Chemscore.Hbond>
1.8368

> <Gold.Chemscore.Metal>
0.0000

> <Gold.Chemscore.Lipo>
56.3768

> <Gold.Chemscore.Internal_Hbond>
0.0000

> <Gold.Chemscore.DEClash>
0.0135

> <Gold.Chemscore.DEInternal>
1.3496

> <Gold.Chemscore.Rot>
1.3304

> <Gold.Chemscore.Internal.Correction>
   9.000000E+99

> <Gold.Chemscore.Hbonds>
donor molecule, donor type, donor heavy atom, donor atom, acceptor molecule, acceptor atom, score
      P1  H  6896  6908       L1     1  0.85
      P1  H  6934  6947       L1     9  0.50

> <Gold.Chemscore.Hbond.Weighted>
-6.1349

> <Gold.Chemscore.Metal.Weighted>
-0.0000

> <Gold.Chemscore.Lipo.Weighted>
-6.5961

> <Gold.Chemscore.Internal_Hbond.Weighted>
0.0000

> <Gold.Chemscore.DEClash.Weighted>
0.0135

> <Gold.Chemscore.DEInternal.Weighted>
1.3496

> <Gold.Chemscore.Rot.Weighted>
3.4057

> <Gold.Chemscore.Internal.Correction.Weighted>
   9.000000E+99

> <Gold.Protein.RotatedTorsions>
[ 6907 6896 6895 6894 ] final -158.07 input  -60.11 | X-H torsion
[ 7974 7965 7964 7962 ] final -139.68 input  175.53 | X-H torsion
[ 8008 7997 7996 7995 ] final   42.27 input   59.86 | X-H torsion
[ 10167 10162 10161 10158 ] final  -35.92 input  -65.29 | X-H torsion
[ 10718 10713 10712 10709 ] final -164.81 input   66.30 | X-H torsion
[ 10763 10752 10751 10750 ] final -146.31 input  -60.55 | X-H torsion
[ 11005 11000 10999 10996 ] final  -40.63 input  -57.11 | X-H torsion

> <Gold.Protein.ActiveResidues>
 VAL166  LYS551  ARG553  GLY616  TRP617  ASP618  TYR619  PRO620  LYS621  CYS622 
 ASP623  PHE694  ASN695  SER759  ASP760  ASP761  ALA762  ILE779  LEU786  VAL792 
 PHE793  MET794  SER795  GLU796  ALA797  LYS798  CYS799  TRP800  GLU811  SER814 

> <Gold.Protein.RotatedAtoms>
  151.3125  133.4074  159.2647 H   0  0  0  0  0  0  0  0  0  0  0  0  # atno 6907 bound_to 6896
  151.0102  134.9391  159.8013 H   0  0  0  0  0  0  0  0  0  0  0  0  # atno 6908 bound_to 6896
  152.5298  134.3090  159.9159 H   0  0  0  0  0  0  0  0  0  0  0  0  # atno 6909 bound_to 6896
  144.8658  140.6290  143.5299 H   0  0  0  0  0  0  0  0  0  0  0  0  # atno 7974 bound_to 7965
  155.2834  140.3374  155.4257 H   0  0  0  0  0  0  0  0  0  0  0  0  # atno 8008 bound_to 7997
  156.2079  140.1758  156.7800 H   0  0  0  0  0  0  0  0  0  0  0  0  # atno 8009 bound_to 7997
  154.5646  140.0681  156.8856 H   0  0  0  0  0  0  0  0  0  0  0  0  # atno 8010 bound_to 7997
  140.7154  143.3444  151.2288 H   0  0  0  0  0  0  0  0  0  0  0  0  # atno 10167 bound_to 10162
  156.6444  130.8982  151.3002 H   0  0  0  0  0  0  0  0  0  0  0  0  # atno 10718 bound_to 10713
  154.8342  135.3390  154.6642 H   0  0  0  0  0  0  0  0  0  0  0  0  # atno 10763 bound_to 10752
  153.7259  135.6955  153.5006 H   0  0  0  0  0  0  0  0  0  0  0  0  # atno 10764 bound_to 10752
  153.2347  135.4404  155.0586 H   0  0  0  0  0  0  0  0  0  0  0  0  # atno 10765 bound_to 10752
  141.0189  133.6872  156.2348 H   0  0  0  0  0  0  0  0  0  0  0  0  # atno 11005 bound_to 11000
  145.4225  139.1561  143.4066 LP  0  0  0  0  0  0  0  0  0  0  0  0  # atno 17320 bound_to 7965
  146.2894  140.4336  142.8745 LP  0  0  0  0  0  0  0  0  0  0  0  0  # atno 17321 bound_to 7965
  139.6959  143.9613  152.2882 LP  0  0  0  0  0  0  0  0  0  0  0  0  # atno 17342 bound_to 10162
  139.9290  144.6753  150.8382 LP  0  0  0  0  0  0  0  0  0  0  0  0  # atno 17343 bound_to 10162
  157.7161  130.9499  150.1260 LP  0  0  0  0  0  0  0  0  0  0  0  0  # atno 17370 bound_to 10713
  156.2134  130.3668  149.8643 LP  0  0  0  0  0  0  0  0  0  0  0  0  # atno 17371 bound_to 10713
  140.6608  134.4970  157.5583 LP  0  0  0  0  0  0  0  0  0  0  0  0  # atno 17394 bound_to 11000
  139.9134  134.8298  156.1450 LP  0  0  0  0  0  0  0  0  0  0  0  0  # atno 17395 bound_to 11000

$$$$
