#       Name:                AV-unprocessed.smi:1819
#       Creating user name   scv26
#       Creation time:       Fri Mar 27 09:05:14 2020


#       File generated by GOLD software.
#

@<TRIPOS>MOLECULE
AV-unprocessed.smi:1819
    35    35     1
SMALL
NO_CHARGES


@<TRIPOS>ATOM
      1 ****         0.0557   1.1472  -1.5954 O.2            1 S1                 0.0000
      2 ****        -0.2033  -0.0516  -1.4827 C.2            1 S1                 0.0000
      3 ****        -1.6374  -0.5095  -1.1924 C.3            1 S1                 0.0000
      4 ****        -2.2514   0.2557  -0.0958 N.am           1 S1                 0.0000
      5 ****        -3.1366   1.2942  -0.4345 C.2            1 S1                 0.0000
      6 ****        -3.7375   2.0498   0.5044 C.2            1 S1                 0.0000
      7 ****        -3.4498   1.7682   1.9055 C.2            1 S1                 0.0000
      8 ****        -3.9931   2.4449   2.7764 O.2            1 S1                 0.0000
      9 ****        -2.5802   0.7530   2.1833 N.pl3          1 S1                -1.0000
     10 ****        -1.9746  -0.0058   1.2179 C.2            1 S1                 0.0000
     11 ****        -1.1904  -0.9160   1.4906 O.2            1 S1                 0.0000
     12 ****         0.7140  -1.0222  -1.6112 N.am           1 S1                 0.0000
     13 ****         2.1441  -0.8166  -1.8156 C.3            1 S1                 0.0000
     14 ****         2.9336  -1.0181  -0.5118 C.3            1 S1                 0.0000
     15 ****         2.6439   0.3092   0.6956 S.3            1 S1                 0.0000
     16 ****         3.6435  -0.2902   2.0841 C.3            1 S1                 0.0000
     17 ****         3.5754   0.5740   3.0951 F              1 S1                 0.0000
     18 ****         3.1928  -1.4726   2.5014 F              1 S1                 0.0000
     19 ****         4.9178  -0.4147   1.7148 F              1 S1                 0.0000
     20 ****        -2.2195  -0.4057  -2.1089 H              1 S1                 0.0000
     21 ****        -1.6555  -1.5759  -0.9586 H              1 S1                 0.0000
     22 ****        -3.2900   1.4418  -1.4934 H              1 S1                 0.0000
     23 ****        -4.4126   2.8461   0.2278 H              1 S1                 0.0000
     24 ****         0.4028  -1.9769  -1.5061 H              1 S1                 0.0000
     25 ****         2.4759  -1.5482  -2.5525 H              1 S1                 0.0000
     26 ****         2.3552   0.1642  -2.2448 H              1 S1                 0.0000
     27 ****         2.6778  -1.9773  -0.0604 H              1 S1                 0.0000
     28 ****         4.0005  -1.0478  -0.7328 H              1 S1                 0.0000
     29 ****        -0.6711   1.8271  -1.4975 LP             1 S1                 0.0000
     30 ****         0.9927   1.4407  -1.7848 LP             1 S1                 0.0000
     31 ****        -4.6234   3.1777   2.5197 LP             1 S1                 0.0000
     32 ****        -3.8048   2.2626   3.7414 LP             1 S1                 0.0000
     33 ****        -2.3750   0.5533   3.1414 LP             1 S1                 0.0000
     34 ****        -0.7685  -1.4489   0.7572 LP             1 S1                 0.0000
     35 ****        -0.9759  -1.1218   2.4454 LP             1 S1                 0.0000
@<TRIPOS>BOND
    1    1    2 2     
    2    2    3 1     
    3    2   12 am    
    4    3    4 1     
    5    3   20 1     
    6    3   21 1     
    7    4   10 am    
    8    4    5 1     
    9    5    6 2     
   10    5   22 1     
   11    6    7 1     
   12    6   23 1     
   13    7    8 2     
   14    7    9 1     
   15    9   10 1     
   16   10   11 2     
   17   12   13 1     
   18   12   24 1     
   19   13   14 1     
   20   13   25 1     
   21   13   26 1     
   22   14   15 1     
   23   14   27 1     
   24   14   28 1     
   25   15   16 1     
   26   16   17 1     
   27   16   18 1     
   28   16   19 1     
   29    1   29 1     
   30    1   30 1     
   31    8   31 1     
   32    8   32 1     
   33    9   33 1     
   34   11   34 1     
   35   11   35 1     
@<TRIPOS>SUBSTRUCTURE
      1 S1             1
@<TRIPOS>SET
LONE_PAIRS      STATIC     ATOMS    <user>   **** ""
7 29 30 31 32 33 34 35
DONOR_HYDROGENS      STATIC     ATOMS    <user>   **** ""
1 24
ATOM$BLUE        STATIC     ATOMS    COLORGROUP SYSTEM
7 29 30 31 32 33 34 35
ATOM$RED        STATIC     ATOMS    COLORGROUP SYSTEM
1 24
