#       Name:                AV-unprocessed.smi:1247
#       Creating user name   scv26
#       Creation time:       Fri Mar 27 04:35:48 2020


#       File generated by GOLD software.
#

@<TRIPOS>MOLECULE
AV-unprocessed.smi:1247
    52    53     1
SMALL
NO_CHARGES


@<TRIPOS>ATOM
      1 ****        -6.2693   3.6326   1.1579 C.3            1 S1                 0.0000
      2 ****        -5.6233   2.2958   0.9421 C.2            1 S1                 0.0000
      3 ****        -4.2378   1.9683   1.0095 C.2            1 S1                 0.0000
      4 ****        -4.2301   0.6290   0.7297 C.2            1 S1                 0.0000
      5 ****        -3.1703  -0.2207   0.6677 N.am           1 S1                 0.0000
      6 ****        -1.8585   0.0662   0.7336 C.2            1 S1                 0.0000
      7 ****        -1.3760   1.1953   0.8252 O.2            1 S1                 0.0000
      8 ****        -1.1147  -1.0479   0.6745 N.am           1 S1                 0.0000
      9 ****         0.3425  -1.0794   0.7185 C.3            1 S1                 0.0000
     10 ****         0.9543  -0.7381  -0.6534 C.3            1 S1                 0.0000
     11 ****         2.4366  -0.8023  -0.6390 N.4            1 S1                 1.0000
     12 ****         3.0083  -1.0294  -1.9876 C.3            1 S1                 0.0000
     13 ****         4.5433  -1.1578  -1.9280 C.3            1 S1                 0.0000
     14 ****         5.0261  -2.4934  -1.3347 C.3            1 S1                 0.0000
     15 ****         5.1060  -0.0320  -1.2542 O.3            1 S1                 0.0000
     16 ****         4.5993   0.1960   0.0584 C.3            1 S1                 0.0000
     17 ****         5.3021   1.4341   0.6261 C.3            1 S1                 0.0000
     18 ****         3.0722   0.3777  -0.0051 C.3            1 S1                 0.0000
     19 ****        -5.5272   0.2106   0.5218 N.pl3          1 S1                 0.0000
     20 ****        -6.0474  -1.1045   0.1993 C.3            1 S1                 0.0000
     21 ****        -6.3834   1.2467   0.6498 N.2            1 S1                 0.0000
     22 ****        -5.5438   4.3705   1.5006 H              1 S1                 0.0000
     23 ****        -7.0591   3.5723   1.9074 H              1 S1                 0.0000
     24 ****        -6.7122   4.0066   0.2345 H              1 S1                 0.0000
     25 ****        -3.4073   2.6213   1.2313 H              1 S1                 0.0000
     26 ****        -3.4084  -1.1949   0.5533 H              1 S1                 0.0000
     27 ****        -1.5896  -1.9358   0.5992 H              1 S1                 0.0000
     28 ****         0.6942  -0.3987   1.4945 H              1 S1                 0.0000
     29 ****         0.6503  -2.0801   1.0226 H              1 S1                 0.0000
     30 ****         0.5709  -1.4559  -1.3802 H              1 S1                 0.0000
     31 ****         0.6335   0.2472  -0.9960 H              1 S1                 0.0000
     32 ****         2.5787  -1.9273  -2.4339 H              1 S1                 0.0000
     33 ****         2.7345  -0.1939  -2.6339 H              1 S1                 0.0000
     34 ****         4.9191  -1.1149  -2.9507 H              1 S1                 0.0000
     35 ****         4.6905  -3.3312  -1.9464 H              1 S1                 0.0000
     36 ****         4.6504  -2.6603  -0.3256 H              1 S1                 0.0000
     37 ****         6.1150  -2.5307  -1.2966 H              1 S1                 0.0000
     38 ****         4.8411  -0.6520   0.6995 H              1 S1                 0.0000
     39 ****         4.9561   1.6544   1.6363 H              1 S1                 0.0000
     40 ****         5.1140   2.3130   0.0088 H              1 S1                 0.0000
     41 ****         6.3810   1.2836   0.6706 H              1 S1                 0.0000
     42 ****         2.8217   1.2756  -0.5728 H              1 S1                 0.0000
     43 ****         2.6847   0.5219   1.0030 H              1 S1                 0.0000
     44 ****        -5.2614  -1.8567   0.2638 H              1 S1                 0.0000
     45 ****        -6.4503  -1.1002  -0.8140 H              1 S1                 0.0000
     46 ****        -6.8423  -1.3684   0.8975 H              1 S1                 0.0000
     47 ****         2.6859  -1.6100  -0.0862 H              1 S1                 0.0000
     48 ****        -1.9762   1.9945   0.8563 LP             1 S1                 0.0000
     49 ****        -0.3839   1.3130   0.8685 LP             1 S1                 0.0000
     50 ****         4.9225   0.7828  -1.8040 LP             1 S1                 0.0000
     51 ****         6.0937  -0.1725  -1.1859 LP             1 S1                 0.0000
     52 ****        -7.3779   1.2281   0.5466 LP             1 S1                 0.0000
@<TRIPOS>BOND
    1    1    2 1     
    2    1   22 1     
    3    1   23 1     
    4    1   24 1     
    5    2   21 2     
    6    2    3 1     
    7    3    4 2     
    8    3   25 1     
    9    4    5 1     
   10    4   19 1     
   11    5    6 am    
   12    5   26 1     
   13    6    7 2     
   14    6    8 am    
   15    8    9 1     
   16    8   27 1     
   17    9   10 1     
   18    9   28 1     
   19    9   29 1     
   20   10   11 1     
   21   10   30 1     
   22   10   31 1     
   23   11   18 1     
   24   11   12 1     
   25   11   47 1     
   26   12   13 1     
   27   12   32 1     
   28   12   33 1     
   29   13   14 1     
   30   13   15 1     
   31   13   34 1     
   32   14   35 1     
   33   14   36 1     
   34   14   37 1     
   35   15   16 1     
   36   16   17 1     
   37   16   18 1     
   38   16   38 1     
   39   17   39 1     
   40   17   40 1     
   41   17   41 1     
   42   18   42 1     
   43   18   43 1     
   44   19   20 1     
   45   19   21 1     
   46   20   44 1     
   47   20   45 1     
   48   20   46 1     
   49    7   48 1     
   50    7   49 1     
   51   15   50 1     
   52   15   51 1     
   53   21   52 1     
@<TRIPOS>SUBSTRUCTURE
      1 S1             1
@<TRIPOS>SET
LONE_PAIRS      STATIC     ATOMS    <user>   **** ""
5 48 49 50 51 52
DONOR_HYDROGENS      STATIC     ATOMS    <user>   **** ""
3 26 27 47
ATOM$BLUE        STATIC     ATOMS    COLORGROUP SYSTEM
5 48 49 50 51 52
ATOM$RED        STATIC     ATOMS    COLORGROUP SYSTEM
3 26 27 47
