AV-unprocessed.smi:109|AV-procd|sdf|1051|dock4
  -GOLD-   2262018103D 1   1.00000     0.00000
 Structure written by MMmdl.
 58 61  0  0  0  0  0  0  0  0  1 V2000
  152.0094  137.3235  159.3255 O   0  0  0  0  0  0  0  0  0  0  0  0
  151.4751  138.6174  159.1473 C   0  0  0  0  0  0  0  0  0  0  0  0
  151.7640  139.1107  157.7189 C   0  0  0  0  0  0  0  0  0  0  0  0
  151.1247  140.4796  157.3784 C   0  0  2  0  0  0  0  0  0  0  0  0
  151.0686  140.6412  155.9234 N   0  0  0  0  0  0  0  0  0  0  0  0
  149.9019  140.6468  155.2400 C   0  0  0  0  0  0  0  0  0  0  0  0
  149.4160  141.7806  154.6720 N   0  0  0  0  0  0  0  0  0  0  0  0
  148.2581  141.7520  154.0064 C   0  0  0  0  0  0  0  0  0  0  0  0
  147.4445  140.7159  153.7940 N   0  0  0  0  0  0  0  0  0  0  0  0
  147.9252  139.5726  154.3628 C   0  0  0  0  0  0  0  0  0  0  0  0
  149.1388  139.4592  155.0975 C   0  0  0  0  0  0  0  0  0  0  0  0
  149.3062  138.1514  155.5322 N   0  0  0  0  0  0  0  0  0  0  0  0
  148.2507  137.5311  155.0783 C   0  0  0  0  0  0  0  0  0  0  0  0
  147.3658  138.3091  154.3651 N   0  0  0  0  0  0  0  0  0  0  0  0
  146.0821  137.8647  153.7295 C   0  0  2  0  0  0  0  0  0  0  0  0
  145.8907  136.5024  153.9730 O   0  0  0  0  0  0  0  0  0  0  0  0
  145.7934  135.7854  152.7454 C   0  0  1  0  0  0  0  0  0  0  0  0
  144.9070  134.5386  152.9103 C   0  0  0  0  0  0  0  0  0  0  0  0
  144.8791  133.7919  151.7125 O   0  0  0  0  0  0  0  0  0  0  0  0
  145.3450  136.8313  151.7141 C   0  0  1  0  0  0  0  0  0  0  0  0
  143.9399  137.0038  151.7259 O   0  0  0  0  0  0  0  0  0  0  0  0
  146.0392  138.0924  152.2037 C   0  0  2  0  0  0  0  0  0  0  0  0
  147.3159  138.2256  151.6038 O   0  0  0  0  0  0  0  0  0  0  0  0
  151.8753  141.6907  158.0036 C   0  0  0  0  0  0  0  0  0  0  0  0
  151.9854  141.6127  159.5472 C   0  0  0  0  0  0  0  0  0  0  0  0
  152.6937  142.8376  160.1492 C   0  0  0  0  0  0  0  0  0  0  0  0
  152.0037  144.1443  159.7401 C   0  0  0  0  0  0  0  0  0  0  0  0
  151.9109  144.2501  158.2134 C   0  0  0  0  0  0  0  0  0  0  0  0
  151.1948  143.0291  157.6153 C   0  0  0  0  0  0  0  0  0  0  0  0
  145.3072  138.4230  154.2567 H   0  0  0  0  0  0  0  0  0  0  0  0
  146.8016  135.4634  152.4831 H   0  0  0  0  0  0  0  0  0  0  0  0
  145.6415  136.5568  150.7007 H   0  0  0  0  0  0  0  0  0  0  0  0
  145.4698  138.9964  151.9835 H   0  0  0  0  0  0  0  0  0  0  0  0
  151.4466  136.8443  159.9142 H   0  0  0  0  0  0  0  0  0  0  0  0
  150.4038  138.5777  159.3441 H   0  0  0  0  0  0  0  0  0  0  0  0
  151.9193  139.2884  159.8831 H   0  0  0  0  0  0  0  0  0  0  0  0
  152.8466  139.1746  157.6238 H   0  0  0  0  0  0  0  0  0  0  0  0
  151.4349  138.3620  156.9969 H   0  0  0  0  0  0  0  0  0  0  0  0
  150.1223  140.4865  157.8058 H   0  0  0  0  0  0  0  0  0  0  0  0
  151.9650  140.7025  155.4622 H   0  0  0  0  0  0  0  0  0  0  0  0
  147.9374  142.6926  153.5840 H   0  0  0  0  0  0  0  0  0  0  0  0
  148.0863  136.4778  155.2538 H   0  0  0  0  0  0  0  0  0  0  0  0
  145.3084  133.9031  153.6999 H   0  0  0  0  0  0  0  0  0  0  0  0
  143.8911  134.8031  153.2041 H   0  0  0  0  0  0  0  0  0  0  0  0
  144.7683  132.8792  151.9310 H   0  0  0  0  0  0  0  0  0  0  0  0
  143.7004  137.5354  150.9818 H   0  0  0  0  0  0  0  0  0  0  0  0
  147.9414  137.7430  152.1219 H   0  0  0  0  0  0  0  0  0  0  0  0
  152.8898  141.7016  157.6014 H   0  0  0  0  0  0  0  0  0  0  0  0
  150.9903  141.5152  159.9830 H   0  0  0  0  0  0  0  0  0  0  0  0
  152.5470  140.7315  159.8526 H   0  0  0  0  0  0  0  0  0  0  0  0
  152.7157  142.7560  161.2365 H   0  0  0  0  0  0  0  0  0  0  0  0
  153.7336  142.8555  159.8202 H   0  0  0  0  0  0  0  0  0  0  0  0
  151.0035  144.1838  160.1734 H   0  0  0  0  0  0  0  0  0  0  0  0
  152.5509  144.9976  160.1417 H   0  0  0  0  0  0  0  0  0  0  0  0
  151.3816  145.1626  157.9375 H   0  0  0  0  0  0  0  0  0  0  0  0
  152.9121  144.3323  157.7885 H   0  0  0  0  0  0  0  0  0  0  0  0
  151.1647  143.1486  156.5321 H   0  0  0  0  0  0  0  0  0  0  0  0
  150.1562  143.0201  157.9488 H   0  0  0  0  0  0  0  0  0  0  0  0
  1  2  1  0  0  0  0
  1 34  1  0  0  0  0
  2  3  1  0  0  0  0
  2 35  1  0  0  0  0
  2 36  1  0  0  0  0
  3  4  1  0  0  0  0
  3 37  1  0  0  0  0
  3 38  1  0  0  0  0
  4  5  1  0  0  0  0
  4 24  1  0  0  0  0
  4 39  1  0  0  0  0
  5  6  1  0  0  0  0
  5 40  1  0  0  0  0
  6 11  1  0  0  0  0
  6  7  2  0  0  0  0
  7  8  1  0  0  0  0
  8  9  2  0  0  0  0
  8 41  1  0  0  0  0
  9 10  1  0  0  0  0
 10 14  1  0  0  0  0
 10 11  2  0  0  0  0
 11 12  1  0  0  0  0
 12 13  2  0  0  0  0
 13 14  1  0  0  0  0
 13 42  1  0  0  0  0
 14 15  1  0  0  0  0
 15 30  1  0  0  0  0
 15 22  1  0  0  0  0
 15 16  1  0  0  0  0
 16 17  1  0  0  0  0
 17 31  1  0  0  0  0
 17 18  1  0  0  0  0
 17 20  1  0  0  0  0
 18 19  1  0  0  0  0
 18 43  1  0  0  0  0
 18 44  1  0  0  0  0
 19 45  1  0  0  0  0
 20 32  1  0  0  0  0
 20 21  1  0  0  0  0
 20 22  1  0  0  0  0
 21 46  1  0  0  0  0
 22 33  1  0  0  0  0
 22 23  1  0  0  0  0
 23 47  1  0  0  0  0
 24 29  1  0  0  0  0
 24 25  1  0  0  0  0
 24 48  1  0  0  0  0
 25 26  1  0  0  0  0
 25 49  1  0  0  0  0
 25 50  1  0  0  0  0
 26 27  1  0  0  0  0
 26 51  1  0  0  0  0
 26 52  1  0  0  0  0
 27 28  1  0  0  0  0
 27 53  1  0  0  0  0
 27 54  1  0  0  0  0
 28 29  1  0  0  0  0
 28 55  1  0  0  0  0
 28 56  1  0  0  0  0
 29 57  1  0  0  0  0
 29 58  1  0  0  0  0
M  END
> <s_m_source_file>
AV-unprocessed.smi

> <i_m_source_file_index>
109

> <i_lp_mmshare_version>
43012

> <i_f3d_flags>
0

> <s_epik_input>
W0NIMl0xW0NIMl1bQ0gyXVtDSDJdW0NIMl1bQ0hdMVtDQEhdKFtDSDJdW0NIMl1bT0hdKVtOSF1jKG5bY0hdbjIpYyhjMjMpbltjSF1uM1tDQEBIXTRPW0NASF0oW0NIMl1bT0hdKVtDQEBIXShbT0hdKVtDQEhdNFtPSF0=

> <s_epik_cmdline>
J2VwaWtfcHl0aG9uJywgJy1waCcsICc3LjAnLCAnLXRuJywgJzgnLCAnLW1hJywgJzIwMCcsICctbWV0YWxfYmluZGluZycsICctaW1hZScsICc8aW5maWxlLm1hZT4nLCAnLW9tYWUnLCAnPG91dGZpbGUubWFlPic=

> <r_lp_tautomer_probability>
1

> <r_epik_Ionization_Penalty>
0.000793976

> <r_epik_Ionization_Penalty_Charging>
0

> <r_epik_Ionization_Penalty_Neutral>
0.000793976

> <r_epik_State_Penalty>
-0

> <r_epik_Charging_Adjusted_Penalty>
0

> <i_epik_Tot_Q>
0

> <i_epik_Tot_abs_Q>
0

> <r_epik_Metal_State_Penalty>
-0

> <b_epik_Metal_Only>
0

> <s_epik_Chemistry_Notes>
This compound contains an acetal/aminal-like group ( X-CH(R)-Y where X, Y are N, S, or O) that may be acid/base labile, releasing an aldehyde.

> <s_lp_Force_Field>
OPLS_2005

> <r_lp_Energy>
55.8609

> <b_lp_Chiralities_Consistent>
1

> <s_lp_Variant>
AV-unprocessed.smi:109-21

> <Gold.Version>
5.8.1

> <Gold.Id.Protein>
6NUR|6NUR_protein|mol2

> <Gold.PLP.Fitness>
52.2613

> <Gold.PLP.PLP>
-46.1256

> <Gold.PLP.part.hbond>
-5.5035

> <Gold.PLP.part.metal>
0.0000

> <Gold.PLP.part.buried>
-4.9219

> <Gold.PLP.part.nonpolar>
-36.2371

> <Gold.PLP.part.repulsive>
0.6032

> <Gold.PLP.ligand.clash>
0.0000

> <Gold.PLP.ligand.torsion>
0.8688

> <Gold.PLP.Chemscore.Hbond>
2.5880

> <Gold.PLP.Chemscore.CHOScore>
0.0000

> <Gold.PLP.Chemscore.Metal>
0.0000

> <Gold.Chemscore.Hbonds>
donor molecule, donor type, donor heavy atom, donor atom, acceptor molecule, acceptor atom, score
      L1  H    21    46       P1 10171  1.00
      L1  H    23    47       P1  7948  0.67
      P1  H  7954  7966       L1    23  0.75

> <Gold.PLP.Chemscore.Internal.Correction>
0.1093

> <Gold.Rescore>
     Score         DG    S(hbond)    S(metal)    S(lipo)     H(rot)  DE(clash)    DE(int)     intcor
      8.87     -10.06       1.97        0.00     102.39       5.47       0.06       1.12       ----

> <Gold.Chemscore.Fitness>
8.8744

> <Gold.Chemscore.DG>
-10.0570

> <Gold.Chemscore.ZeroCoef>
-5.4800

> <Gold.Chemscore.Hbond>
1.9734

> <Gold.Chemscore.Metal>
0.0000

> <Gold.Chemscore.Lipo>
102.3885

> <Gold.Chemscore.Internal_Hbond>
0.0000

> <Gold.Chemscore.DEClash>
0.0636

> <Gold.Chemscore.DEInternal>
1.1190

> <Gold.Chemscore.Rot>
5.4662

> <Gold.Chemscore.Internal.Correction>
   9.000000E+99

> <Gold.Chemscore.Hbonds>
donor molecule, donor type, donor heavy atom, donor atom, acceptor molecule, acceptor atom, score
      L1  H    21    46       P1 10171  0.96
      L1  H    23    47       P1  7948  0.68
      P1  H  7954  7966       L1    23  0.09

> <Gold.Chemscore.Hbond.Weighted>
-6.5910

> <Gold.Chemscore.Metal.Weighted>
-0.0000

> <Gold.Chemscore.Lipo.Weighted>
-11.9795

> <Gold.Chemscore.Internal_Hbond.Weighted>
0.0000

> <Gold.Chemscore.DEClash.Weighted>
0.0636

> <Gold.Chemscore.DEInternal.Weighted>
1.1190

> <Gold.Chemscore.Rot.Weighted>
13.9935

> <Gold.Chemscore.Internal.Correction.Weighted>
   9.000000E+99

> <Gold.Protein.RotatedTorsions>
[ 6907 6896 6895 6894 ] final -157.13 input  -60.11 | X-H torsion
[ 7974 7965 7964 7962 ] final  158.21 input  175.53 | X-H torsion
[ 8008 7997 7996 7995 ] final  105.63 input   59.86 | X-H torsion
[ 10167 10162 10161 10158 ] final   59.22 input  -65.29 | X-H torsion
[ 10718 10713 10712 10709 ] final   57.65 input   66.30 | X-H torsion
[ 10763 10752 10751 10750 ] final  -75.78 input  -60.55 | X-H torsion
[ 11005 11000 10999 10996 ] final  -20.00 input  -57.11 | X-H torsion

> <Gold.Protein.ActiveResidues>
 VAL166  LYS551  ARG553  GLY616  TRP617  ASP618  TYR619  PRO620  LYS621  CYS622 
 ASP623  PHE694  ASN695  SER759  ASP760  ASP761  ALA762  ILE779  LEU786  VAL792 
 PHE793  MET794  SER795  GLU796  ALA797  LYS798  CYS799  TRP800  GLU811  SER814 

> <Gold.Protein.RotatedAtoms>
  151.2981  133.4134  159.2637 H   0  0  0  0  0  0  0  0  0  0  0  0  # atno 6907 bound_to 6896
  151.0219  134.9475  159.8074 H   0  0  0  0  0  0  0  0  0  0  0  0  # atno 6908 bound_to 6896
  152.5326  134.2944  159.9108 H   0  0  0  0  0  0  0  0  0  0  0  0  # atno 6909 bound_to 6896
  144.7859  139.7446  143.6241 H   0  0  0  0  0  0  0  0  0  0  0  0  # atno 7974 bound_to 7965
  156.1675  140.3127  155.8914 H   0  0  0  0  0  0  0  0  0  0  0  0  # atno 8008 bound_to 7997
  155.3656  140.0479  157.3063 H   0  0  0  0  0  0  0  0  0  0  0  0  # atno 8009 bound_to 7997
  154.5207  140.2197  155.8992 H   0  0  0  0  0  0  0  0  0  0  0  0  # atno 8010 bound_to 7997
  140.1788  144.4203  150.6625 H   0  0  0  0  0  0  0  0  0  0  0  0  # atno 10167 bound_to 10162
  157.5532  130.8781  149.8995 H   0  0  0  0  0  0  0  0  0  0  0  0  # atno 10718 bound_to 10713
  154.4911  135.5820  153.6460 H   0  0  0  0  0  0  0  0  0  0  0  0  # atno 10763 bound_to 10752
  152.9862  135.6113  154.3124 H   0  0  0  0  0  0  0  0  0  0  0  0  # atno 10764 bound_to 10752
  154.3024  135.2846  155.2584 H   0  0  0  0  0  0  0  0  0  0  0  0  # atno 10765 bound_to 10752
  140.8422  133.7918  155.9873 H   0  0  0  0  0  0  0  0  0  0  0  0  # atno 11005 bound_to 11000
  146.2090  139.5434  142.9693 LP  0  0  0  0  0  0  0  0  0  0  0  0  # atno 17320 bound_to 7965
  145.5924  141.0367  143.2063 LP  0  0  0  0  0  0  0  0  0  0  0  0  # atno 17321 bound_to 7965
  140.6533  143.2231  151.6026 LP  0  0  0  0  0  0  0  0  0  0  0  0  # atno 17342 bound_to 10162
  139.5305  144.2930  152.1137 LP  0  0  0  0  0  0  0  0  0  0  0  0  # atno 17343 bound_to 10162
  156.0595  130.3702  150.1014 LP  0  0  0  0  0  0  0  0  0  0  0  0  # atno 17370 bound_to 10713
  156.9185  130.9675  151.3552 LP  0  0  0  0  0  0  0  0  0  0  0  0  # atno 17371 bound_to 10713
  140.8882  134.2527  157.5108 LP  0  0  0  0  0  0  0  0  0  0  0  0  # atno 17394 bound_to 11000
  139.8703  134.9649  156.4509 LP  0  0  0  0  0  0  0  0  0  0  0  0  # atno 17395 bound_to 11000

$$$$
