AV-unprocessed.smi:2478|AV-procd|sdf|9765|dock6
  -GOLD-   2272013403D 1   1.00000     0.00000
 Structure written by MMmdl.
 42 43  0  0  0  0  0  0  0  0  1 V2000
  153.0655  141.3058  159.3929 C   0  0  0  0  0  0  0  0  0  0  0  0
  153.0530  142.6771  160.0864 C   0  0  2  0  0  0  0  0  0  0  0  0
  152.7204  142.5546  161.5871 C   0  0  0  0  0  0  0  0  0  0  0  0
  152.7415  143.9246  162.2835 C   0  0  0  0  0  0  0  0  0  0  0  0
  151.7918  144.9154  161.5937 C   0  0  0  0  0  0  0  0  0  0  0  0
  152.1126  145.0453  160.0949 C   0  0  0  0  0  0  0  0  0  0  0  0
  152.1064  143.6785  159.3857 C   0  0  2  0  0  0  0  0  0  0  0  0
  150.7787  143.1718  159.4225 O   0  0  0  0  0  0  0  0  0  0  0  0
  150.1493  143.0670  158.1527 C   0  0  0  0  0  0  0  0  0  0  0  0
  150.2609  141.6266  157.6511 C   0  0  0  0  0  0  0  0  0  0  0  0
  149.5764  140.7498  158.1778 O   0  0  0  0  0  0  0  0  0  0  0  0
  151.1153  141.4243  156.6308 N   0  0  0  0  0  0  0  0  0  0  0  0
  151.4434  140.2127  155.9672 C   0  0  0  0  0  0  0  0  0  0  0  0
  152.4730  139.4145  156.3444 N   0  0  0  0  0  0  0  0  0  0  0  0
  152.7134  138.2794  155.6573 C   0  0  0  0  0  0  0  0  0  0  0  0
  151.9414  137.8696  154.5563 C   0  0  0  0  0  0  0  0  0  0  0  0
  150.8707  138.6876  154.1560 C   0  0  0  0  0  0  0  0  0  0  0  0
  150.6156  139.8854  154.8643 C   0  0  0  0  0  0  0  0  0  0  0  0
  149.5731  140.7220  154.5313 O   0  0  0  0  0  0  0  0  0  0  0  0
  148.3419  140.1827  154.3302 C   0  0  0  0  0  0  0  0  0  0  0  0
  147.8461  139.6885  155.4909 F   0  0  0  0  0  0  0  0  0  0  0  0
  147.4882  141.1391  153.8917 F   0  0  0  0  0  0  0  0  0  0  0  0
  152.0908  140.8201  159.4507 H   0  0  0  0  0  0  0  0  0  0  0  0
  153.7944  140.6400  159.8557 H   0  0  0  0  0  0  0  0  0  0  0  0
  153.3289  141.4009  158.3391 H   0  0  0  0  0  0  0  0  0  0  0  0
  154.0642  143.0793  160.0085 H   0  0  0  0  0  0  0  0  0  0  0  0
  151.7383  142.0969  161.7132 H   0  0  0  0  0  0  0  0  0  0  0  0
  153.4335  141.8886  162.0740 H   0  0  0  0  0  0  0  0  0  0  0  0
  152.4638  143.8125  163.3319 H   0  0  0  0  0  0  0  0  0  0  0  0
  153.7562  144.3245  162.2729 H   0  0  0  0  0  0  0  0  0  0  0  0
  150.7611  144.5823  161.7226 H   0  0  0  0  0  0  0  0  0  0  0  0
  151.8610  145.8917  162.0739 H   0  0  0  0  0  0  0  0  0  0  0  0
  151.3970  145.7160  159.6182 H   0  0  0  0  0  0  0  0  0  0  0  0
  153.0931  145.5082  159.9764 H   0  0  0  0  0  0  0  0  0  0  0  0
  152.4419  143.8233  158.3566 H   0  0  0  0  0  0  0  0  0  0  0  0
  149.0991  143.3530  158.2289 H   0  0  0  0  0  0  0  0  0  0  0  0
  150.6296  143.7290  157.4308 H   0  0  0  0  0  0  0  0  0  0  0  0
  151.6140  142.2411  156.3079 H   0  0  0  0  0  0  0  0  0  0  0  0
  153.5444  137.6791  155.9969 H   0  0  0  0  0  0  0  0  0  0  0  0
  152.1630  136.9505  154.0347 H   0  0  0  0  0  0  0  0  0  0  0  0
  150.2558  138.3916  153.3191 H   0  0  0  0  0  0  0  0  0  0  0  0
  148.3669  139.3889  153.5829 H   0  0  0  0  0  0  0  0  0  0  0  0
  1  2  1  0  0  0  0
  1 23  1  0  0  0  0
  1 24  1  0  0  0  0
  1 25  1  0  0  0  0
  2  7  1  0  0  0  0
  2  3  1  0  0  0  0
  2 26  1  0  0  0  0
  3  4  1  0  0  0  0
  3 27  1  0  0  0  0
  3 28  1  0  0  0  0
  4  5  1  0  0  0  0
  4 29  1  0  0  0  0
  4 30  1  0  0  0  0
  5  6  1  0  0  0  0
  5 31  1  0  0  0  0
  5 32  1  0  0  0  0
  6  7  1  0  0  0  0
  6 33  1  0  0  0  0
  6 34  1  0  0  0  0
  7  8  1  0  0  0  0
  7 35  1  0  0  0  0
  8  9  1  0  0  0  0
  9 10  1  0  0  0  0
  9 36  1  0  0  0  0
  9 37  1  0  0  0  0
 10 11  2  0  0  0  0
 10 12  1  0  0  0  0
 12 13  1  0  0  0  0
 12 38  1  0  0  0  0
 13 18  1  0  0  0  0
 13 14  2  0  0  0  0
 14 15  1  0  0  0  0
 15 16  2  0  0  0  0
 15 39  1  0  0  0  0
 16 17  1  0  0  0  0
 16 40  1  0  0  0  0
 17 18  2  0  0  0  0
 17 41  1  0  0  0  0
 18 19  1  0  0  0  0
 19 20  1  0  0  0  0
 20 21  1  0  0  0  0
 20 22  1  0  0  0  0
 20 42  1  0  0  0  0
M  END
> <s_m_source_file>
AV-unprocessed.smi

> <i_m_source_file_index>
2478

> <i_lp_mmshare_version>
43012

> <i_f3d_flags>
0

> <s_epik_input>
W0NIM11bQ0BASF0xW0NIMl1bQ0gyXVtDSDJdW0NIMl1bQ0BIXTFPW0NIMl1DKD1PKVtOSF1jMm5bY0hdW2NIXVtjSF1jMk9bQ0hdKEYpRg==

> <s_epik_cmdline>
J2VwaWtfcHl0aG9uJywgJy1waCcsICc3LjAnLCAnLXRuJywgJzgnLCAnLW1hJywgJzIwMCcsICctbWV0YWxfYmluZGluZycsICctaW1hZScsICc8aW5maWxlLm1hZT4nLCAnLW9tYWUnLCAnPG91dGZpbGUubWFlPic=

> <r_lp_tautomer_probability>
1

> <r_epik_Ionization_Penalty>
6.06012e-05

> <r_epik_Ionization_Penalty_Charging>
0

> <r_epik_Ionization_Penalty_Neutral>
6.06012e-05

> <r_epik_State_Penalty>
-0

> <r_epik_Charging_Adjusted_Penalty>
0

> <i_epik_Tot_Q>
0

> <i_epik_Tot_abs_Q>
0

> <r_epik_Metal_State_Penalty>
-0

> <b_epik_Metal_Only>
0

> <s_lp_Force_Field>
OPLS_2005

> <r_lp_Energy>
14.1885

> <b_lp_Chiralities_Consistent>
1

> <s_lp_Variant>
AV-unprocessed.smi:2478-3

> <Gold.Version>
5.8.1

> <Gold.Id.Protein>
6NUR|6NUR_protein|mol2

> <Gold.PLP.Fitness>
45.3717

> <Gold.PLP.PLP>
-46.3575

> <Gold.PLP.part.hbond>
-2.1875

> <Gold.PLP.part.metal>
0.0000

> <Gold.PLP.part.buried>
-0.8045

> <Gold.PLP.part.nonpolar>
-42.6547

> <Gold.PLP.part.repulsive>
0.2866

> <Gold.PLP.ligand.clash>
0.0000

> <Gold.PLP.ligand.torsion>
2.0279

> <Gold.PLP.Chemscore.Hbond>
1.0000

> <Gold.PLP.Chemscore.CHOScore>
0.0000

> <Gold.PLP.Chemscore.Metal>
0.0000

> <Gold.Chemscore.Hbonds>
donor molecule, donor type, donor heavy atom, donor atom, acceptor molecule, acceptor atom, score
      P1  H  7997  8010       L1    14  0.85

> <Gold.PLP.Chemscore.Internal.Correction>
0.0699

> <Gold.Rescore>
     Score         DG    S(hbond)    S(metal)    S(lipo)     H(rot)  DE(clash)    DE(int)     intcor
     12.89     -17.64       0.55        0.00     128.61       1.85       2.78       1.97       ----

> <Gold.Chemscore.Fitness>
12.8937

> <Gold.Chemscore.DG>
-17.6443

> <Gold.Chemscore.ZeroCoef>
-5.4800

> <Gold.Chemscore.Hbond>
0.5534

> <Gold.Chemscore.Metal>
0.0000

> <Gold.Chemscore.Lipo>
128.6071

> <Gold.Chemscore.Internal_Hbond>
0.0000

> <Gold.Chemscore.DEClash>
2.7844

> <Gold.Chemscore.DEInternal>
1.9662

> <Gold.Chemscore.Rot>
1.8481

> <Gold.Chemscore.Internal.Correction>
   9.000000E+99

> <Gold.Chemscore.Hbonds>
donor molecule, donor type, donor heavy atom, donor atom, acceptor molecule, acceptor atom, score
      P1  H  7997  8010       L1    14  0.14

> <Gold.Chemscore.Hbond.Weighted>
-1.8484

> <Gold.Chemscore.Metal.Weighted>
-0.0000

> <Gold.Chemscore.Lipo.Weighted>
-15.0470

> <Gold.Chemscore.Internal_Hbond.Weighted>
0.0000

> <Gold.Chemscore.DEClash.Weighted>
2.7844

> <Gold.Chemscore.DEInternal.Weighted>
1.9662

> <Gold.Chemscore.Rot.Weighted>
4.7311

> <Gold.Chemscore.Internal.Correction.Weighted>
   9.000000E+99

> <Gold.Protein.RotatedTorsions>
[ 6907 6896 6895 6894 ] final  -75.46 input  -60.11 | X-H torsion
[ 7974 7965 7964 7962 ] final  122.14 input  175.53 | X-H torsion
[ 8008 7997 7996 7995 ] final   77.90 input   59.86 | X-H torsion
[ 10167 10162 10161 10158 ] final   75.93 input  -65.29 | X-H torsion
[ 10718 10713 10712 10709 ] final  -87.13 input   66.30 | X-H torsion
[ 10763 10752 10751 10750 ] final  136.98 input  -60.55 | X-H torsion
[ 11005 11000 10999 10996 ] final   74.94 input  -57.11 | X-H torsion

> <Gold.Protein.ActiveResidues>
 VAL166  LYS551  ARG553  GLY616  TRP617  ASP618  TYR619  PRO620  LYS621  CYS622 
 ASP623  PHE694  ASN695  SER759  ASP760  ASP761  ALA762  ILE779  LEU786  VAL792 
 PHE793  MET794  SER795  GLU796  ALA797  LYS798  CYS799  TRP800  GLU811  SER814 

> <Gold.Protein.RotatedAtoms>
  150.7058  134.4717  159.5428 H   0  0  0  0  0  0  0  0  0  0  0  0  # atno 6907 bound_to 6896
  152.2372  134.8262  160.0474 H   0  0  0  0  0  0  0  0  0  0  0  0  # atno 6908 bound_to 6896
  151.9056  133.3513  159.3883 H   0  0  0  0  0  0  0  0  0  0  0  0  # atno 6909 bound_to 6896
  145.1111  139.3452  143.4763 H   0  0  0  0  0  0  0  0  0  0  0  0  # atno 7974 bound_to 7965
  155.8481  140.3459  155.5675 H   0  0  0  0  0  0  0  0  0  0  0  0  # atno 8008 bound_to 7997
  155.8068  140.0893  157.1946 H   0  0  0  0  0  0  0  0  0  0  0  0  # atno 8009 bound_to 7997
  154.4007  140.1455  156.3326 H   0  0  0  0  0  0  0  0  0  0  0  0  # atno 8010 bound_to 7997
  139.9977  144.5709  150.7763 H   0  0  0  0  0  0  0  0  0  0  0  0  # atno 10167 bound_to 10162
  155.9986  130.4789  150.4820 H   0  0  0  0  0  0  0  0  0  0  0  0  # atno 10718 bound_to 10713
  153.8655  135.3062  155.3440 H   0  0  0  0  0  0  0  0  0  0  0  0  # atno 10763 bound_to 10752
  154.7829  135.4825  153.9886 H   0  0  0  0  0  0  0  0  0  0  0  0  # atno 10764 bound_to 10752
  153.1436  135.6829  153.9084 H   0  0  0  0  0  0  0  0  0  0  0  0  # atno 10765 bound_to 10752
  139.9367  134.7475  156.1209 H   0  0  0  0  0  0  0  0  0  0  0  0  # atno 11005 bound_to 11000
  146.3526  140.1030  142.8607 LP  0  0  0  0  0  0  0  0  0  0  0  0  # atno 17320 bound_to 7965
  145.0846  140.9244  143.4805 LP  0  0  0  0  0  0  0  0  0  0  0  0  # atno 17321 bound_to 7965
  140.7431  143.2841  151.3514 LP  0  0  0  0  0  0  0  0  0  0  0  0  # atno 17342 bound_to 10162
  139.6294  144.0750  152.2463 LP  0  0  0  0  0  0  0  0  0  0  0  0  # atno 17343 bound_to 10162
  157.2824  131.0609  151.2188 LP  0  0  0  0  0  0  0  0  0  0  0  0  # atno 17370 bound_to 10713
  157.3230  130.6947  149.6280 LP  0  0  0  0  0  0  0  0  0  0  0  0  # atno 17371 bound_to 10713
  141.0984  133.6686  156.2698 LP  0  0  0  0  0  0  0  0  0  0  0  0  # atno 17394 bound_to 11000
  140.6057  134.5510  157.5525 LP  0  0  0  0  0  0  0  0  0  0  0  0  # atno 17395 bound_to 11000

$$$$
