#       Name:                AV-unprocessed.smi:47
#       Creating user name   scv26
#       Creation time:       Thu Mar 26 16:30:34 2020


#       File generated by GOLD software.
#

@<TRIPOS>MOLECULE
AV-unprocessed.smi:47
    36    38     1
SMALL
NO_CHARGES


@<TRIPOS>ATOM
      1 ****        -4.5238  -0.6885  -1.6584 O.3            1 S1                 0.0000
      2 ****        -3.9965  -0.4474  -0.3712 C.3            1 S1                 0.0000
      3 ****        -3.5151   0.9984  -0.2044 C.3            1 S1                 0.0000
      4 ****        -2.4055   0.9517   0.7691 N.4            1 S1                 1.0000
      5 ****        -2.0613  -0.4655   1.0114 C.3            1 S1                 0.0000
      6 ****        -0.5626  -0.5186   1.0074 C.2            1 S1                 0.0000
      7 ****         0.1168  -1.2485   1.8980 N.pl3          1 S1                 0.0000
      8 ****         1.4411  -1.1295   1.6631 N.2            1 S1                 0.0000
      9 ****         1.4550  -0.3143   0.6098 C.2            1 S1                 0.0000
     10 ****         2.7211   0.1146  -0.0291 C.ar           1 S1                 0.0000
     11 ****         2.7144   0.9211  -1.1935 C.ar           1 S1                 0.0000
     12 ****         3.9155   1.3310  -1.8042 C.ar           1 S1                 0.0000
     13 ****         5.1515   0.9404  -1.2596 C.ar           1 S1                 0.0000
     14 ****         5.1807   0.1393  -0.1046 C.ar           1 S1                 0.0000
     15 ****         3.9770  -0.2683   0.5023 C.ar           1 S1                 0.0000
     16 ****         0.2391   0.1069   0.1468 N.2            1 S1                 0.0000
     17 ****        -2.7382  -1.2671  -0.1029 C.3            1 S1                 0.0000
     18 ****        -4.7524  -0.6757   0.3819 H              1 S1                 0.0000
     19 ****        -2.4523  -0.7579   1.9873 H              1 S1                 0.0000
     20 ****        -4.7961  -1.5924  -1.7119 H              1 S1                 0.0000
     21 ****        -3.1153   1.3830  -1.1439 H              1 S1                 0.0000
     22 ****        -4.3108   1.6688   0.1219 H              1 S1                 0.0000
     23 ****        -1.6048   1.4267   0.3758 H              1 S1                 0.0000
     24 ****         1.7807   1.2358  -1.6358 H              1 S1                 0.0000
     25 ****         3.8870   1.9456  -2.6920 H              1 S1                 0.0000
     26 ****         6.0739   1.2537  -1.7263 H              1 S1                 0.0000
     27 ****         6.1276  -0.1637   0.3176 H              1 S1                 0.0000
     28 ****         4.0314  -0.8832   1.3885 H              1 S1                 0.0000
     29 ****        -2.9376  -2.3030   0.1730 H              1 S1                 0.0000
     30 ****        -2.1102  -1.2713  -0.9960 H              1 S1                 0.0000
     31 ****        -2.6720   1.3929   1.6373 H              1 S1                 0.0000
     32 ****        -0.2595  -1.8164   2.6440 H              1 S1                 0.0000
     33 ****        -3.8227  -0.5073  -2.3481 LP             1 S1                 0.0000
     34 ****        -5.3097  -0.0908  -1.8170 LP             1 S1                 0.0000
     35 ****         2.2091  -1.5441   2.1512 LP             1 S1                 0.0000
     36 ****         0.0159   0.7111  -0.6182 LP             1 S1                 0.0000
@<TRIPOS>BOND
    1    1    2 1     
    2    1   20 1     
    3    2   18 1     
    4    2   17 1     
    5    2    3 1     
    6    3    4 1     
    7    3   21 1     
    8    3   22 1     
    9    4    5 1     
   10    4   23 1     
   11    4   31 1     
   12    5   19 1     
   13    5    6 1     
   14    5   17 1     
   15    6   16 2     
   16    6    7 1     
   17    7    8 1     
   18    7   32 1     
   19    8    9 2     
   20    9   10 1     
   21    9   16 1     
   22   10   15 ar    
   23   10   11 ar    
   24   11   12 ar    
   25   11   24 1     
   26   12   13 ar    
   27   12   25 1     
   28   13   14 ar    
   29   13   26 1     
   30   14   15 ar    
   31   14   27 1     
   32   15   28 1     
   33   17   29 1     
   34   17   30 1     
   35    1   33 1     
   36    1   34 1     
   37    8   35 1     
   38   16   36 1     
@<TRIPOS>SUBSTRUCTURE
      1 S1             1
@<TRIPOS>SET
LONE_PAIRS      STATIC     ATOMS    <user>   **** ""
4 33 34 35 36
DONOR_HYDROGENS      STATIC     ATOMS    <user>   **** ""
4 20 23 31 32
ATOM$BLUE        STATIC     ATOMS    COLORGROUP SYSTEM
4 33 34 35 36
ATOM$RED        STATIC     ATOMS    COLORGROUP SYSTEM
4 20 23 31 32
