AV-unprocessed.smi:2446|AV-procd|sdf|9645|dock8
  -GOLD-   2272013283D 1   1.00000     0.00000
 Structure written by MMmdl.
 40 41  0  0  0  0  0  0  0  0  2 V2000
  147.1351  139.3870  152.7078 C   0  0  0  0  0  0  0  0  0  0  0  0
  148.0909  140.0691  153.6717 C   0  0  0  0  0  0  0  0  0  0  0  0
  148.0280  141.4698  153.8372 C   0  0  0  0  0  0  0  0  0  0  0  0
  148.8676  142.0898  154.6927 N   0  3  0  0  0  0  0  0  0  0  0  0
  149.7860  141.4250  155.4238 C   0  0  0  0  0  0  0  0  0  0  0  0
  149.9003  140.0257  155.3051 C   0  0  0  0  0  0  0  0  0  0  0  0
  149.0522  139.3286  154.4066 C   0  0  0  0  0  0  0  0  0  0  0  0
  149.0912  137.9160  154.2375 N   0  0  0  0  0  0  0  0  0  0  0  0
  149.4467  136.9636  155.1220 C   0  0  0  0  0  0  0  0  0  0  0  0
  149.7741  137.1768  156.2870 O   0  0  0  0  0  0  0  0  0  0  0  0
  149.4301  135.7140  154.6227 N   0  0  0  0  0  0  0  0  0  0  0  0
  149.7561  134.4522  155.2966 C   0  0  2  0  0  0  0  0  0  0  0  0
  149.3253  133.2590  154.4225 C   0  0  0  0  0  0  0  0  0  0  0  0
  147.7960  133.1080  154.3577 C   0  0  0  0  0  0  0  0  0  0  0  0
  147.1816  133.0152  155.7631 C   0  0  0  0  0  0  0  0  0  0  0  0
  147.5676  134.2281  156.6350 C   0  0  1  0  0  0  0  0  0  0  0  0
  146.9395  134.1540  158.0420 C   0  0  0  0  0  0  0  0  0  0  0  0
  145.6088  134.1174  157.9665 F   0  0  0  0  0  0  0  0  0  0  0  0
  147.3658  133.0600  158.6735 F   0  0  0  0  0  0  0  0  0  0  0  0
  147.3019  135.2164  158.7608 F   0  0  0  0  0  0  0  0  0  0  0  0
  149.1056  134.3682  156.6962 C   0  0  0  0  0  0  0  0  0  0  0  0
  146.4414  140.1024  152.2652 H   0  0  0  0  0  0  0  0  0  0  0  0
  146.5491  138.6257  153.2238 H   0  0  0  0  0  0  0  0  0  0  0  0
  147.6878  138.9090  151.8986 H   0  0  0  0  0  0  0  0  0  0  0  0
  147.3334  142.1117  153.3148 H   0  0  0  0  0  0  0  0  0  0  0  0
  150.3950  142.0271  156.0824 H   0  0  0  0  0  0  0  0  0  0  0  0
  150.6285  139.5154  155.9162 H   0  0  0  0  0  0  0  0  0  0  0  0
  148.9100  137.5909  153.2991 H   0  0  0  0  0  0  0  0  0  0  0  0
  149.1405  135.6257  153.6591 H   0  0  0  0  0  0  0  0  0  0  0  0
  150.8398  134.3913  155.4099 H   0  0  0  0  0  0  0  0  0  0  0  0
  149.7343  133.3592  153.4162 H   0  0  0  0  0  0  0  0  0  0  0  0
  149.7542  132.3435  154.8322 H   0  0  0  0  0  0  0  0  0  0  0  0
  147.3622  133.9546  153.8243 H   0  0  0  0  0  0  0  0  0  0  0  0
  147.5377  132.2189  153.7818 H   0  0  0  0  0  0  0  0  0  0  0  0
  146.0968  132.9450  155.6773 H   0  0  0  0  0  0  0  0  0  0  0  0
  147.5120  132.0932  156.2435 H   0  0  0  0  0  0  0  0  0  0  0  0
  147.1682  135.1218  156.1531 H   0  0  0  0  0  0  0  0  0  0  0  0
  149.5214  133.5094  157.2244 H   0  0  0  0  0  0  0  0  0  0  0  0
  149.3775  135.2407  157.2901 H   0  0  0  0  0  0  0  0  0  0  0  0
  148.8014  143.1029  154.7951 H   0  0  0  0  0  0  0  0  0  0  0  0
  1  2  1  0  0  0  0
  1 22  1  0  0  0  0
  1 23  1  0  0  0  0
  1 24  1  0  0  0  0
  2  7  1  0  0  0  0
  2  3  2  0  0  0  0
  3  4  1  0  0  0  0
  3 25  1  0  0  0  0
  4  5  2  0  0  0  0
  4 40  1  0  0  0  0
  5  6  1  0  0  0  0
  5 26  1  0  0  0  0
  6  7  2  0  0  0  0
  6 27  1  0  0  0  0
  7  8  1  0  0  0  0
  8  9  1  0  0  0  0
  8 28  1  0  0  0  0
  9 10  2  0  0  0  0
  9 11  1  0  0  0  0
 11 12  1  0  0  0  0
 11 29  1  0  0  0  0
 12 21  1  0  0  0  0
 12 13  1  0  0  0  0
 12 30  1  0  0  0  0
 13 14  1  0  0  0  0
 13 31  1  0  0  0  0
 13 32  1  0  0  0  0
 14 15  1  0  0  0  0
 14 33  1  0  0  0  0
 14 34  1  0  0  0  0
 15 16  1  0  0  0  0
 15 35  1  0  0  0  0
 15 36  1  0  0  0  0
 16 17  1  0  0  0  0
 16 21  1  0  0  0  0
 16 37  1  0  0  0  0
 17 18  1  0  0  0  0
 17 19  1  0  0  0  0
 17 20  1  0  0  0  0
 21 38  1  0  0  0  0
 21 39  1  0  0  0  0
M  CHG  1   4   1
M  END
> <s_m_source_file>
AV-unprocessed.smi

> <i_m_source_file_index>
2446

> <i_lp_mmshare_version>
43012

> <i_f3d_flags>
0

> <s_epik_input>
W0NIM11jMVtjSF1uW2NIXVtjSF1jMVtOSF1DKD1PKVtOSF1bQ0BASF0yW0NIMl1bQ0gyXVtDSDJdW0NAQEhdKEMoRikoRilGKVtDSDJdMg==

> <s_epik_cmdline>
J2VwaWtfcHl0aG9uJywgJy1waCcsICc3LjAnLCAnLXRuJywgJzgnLCAnLW1hJywgJzIwMCcsICctbWV0YWxfYmluZGluZycsICctaW1hZScsICc8aW5maWxlLm1hZT4nLCAnLW9tYWUnLCAnPG91dGZpbGUubWFlPic=

> <r_epik_Ionization_Penalty>
0.736582

> <r_epik_Ionization_Penalty_Charging>
0.736562

> <r_epik_Ionization_Penalty_Neutral>
1.98379e-05

> <r_epik_State_Penalty>
0.762314

> <r_epik_Charging_Adjusted_Penalty>
1.49888

> <i_epik_Tot_Q>
1

> <i_epik_Tot_abs_Q>
1

> <r_epik_Metal_State_Penalty>
0.914579

> <b_epik_Metal_Only>
0

> <s_lp_Force_Field>
OPLS_2005

> <r_lp_Energy>
31.0639

> <b_lp_Chiralities_Consistent>
1

> <s_lp_Variant>
AV-unprocessed.smi:2446-5

> <Gold.Version>
5.8.1

> <Gold.Id.Protein>
6NUR|6NUR_protein|mol2

> <Gold.PLP.Fitness>
40.0642

> <Gold.PLP.PLP>
-28.7367

> <Gold.PLP.part.hbond>
-3.0323

> <Gold.PLP.part.metal>
0.0000

> <Gold.PLP.part.buried>
-2.6424

> <Gold.PLP.part.nonpolar>
-23.2521

> <Gold.PLP.part.repulsive>
0.3266

> <Gold.PLP.ligand.clash>
0.0000

> <Gold.PLP.ligand.torsion>
0.3470

> <Gold.PLP.Chemscore.Hbond>
4.0000

> <Gold.PLP.Chemscore.CHOScore>
0.0000

> <Gold.PLP.Chemscore.Metal>
0.0000

> <Gold.Chemscore.Hbonds>
donor molecule, donor type, donor heavy atom, donor atom, acceptor molecule, acceptor atom, score
      L1  H     4    40       P1  8028  2.00
      L1  H     8    28       P1  7948  1.00
      L1  H    11    29       P1  7948  1.00

> <Gold.PLP.Chemscore.Internal.Correction>
0.0215

> <Gold.Rescore>
     Score         DG    S(hbond)    S(metal)    S(lipo)     H(rot)  DE(clash)    DE(int)     intcor
     18.30     -19.35       2.63        0.00      65.28       1.00       0.02       1.03       ----

> <Gold.Chemscore.Fitness>
18.2977

> <Gold.Chemscore.DG>
-19.3522

> <Gold.Chemscore.ZeroCoef>
-5.4800

> <Gold.Chemscore.Hbond>
2.6331

> <Gold.Chemscore.Metal>
0.0000

> <Gold.Chemscore.Lipo>
65.2803

> <Gold.Chemscore.Internal_Hbond>
0.0000

> <Gold.Chemscore.DEClash>
0.0201

> <Gold.Chemscore.DEInternal>
1.0345

> <Gold.Chemscore.Rot>
1.0000

> <Gold.Chemscore.Internal.Correction>
   9.000000E+99

> <Gold.Chemscore.Hbonds>
donor molecule, donor type, donor heavy atom, donor atom, acceptor molecule, acceptor atom, score
      L1  H     4    40       P1  8028  0.99
      L1  H     8    28       P1  7948  0.96
      L1  H    11    29       P1  7948  0.68

> <Gold.Chemscore.Hbond.Weighted>
-8.7945

> <Gold.Chemscore.Metal.Weighted>
-0.0000

> <Gold.Chemscore.Lipo.Weighted>
-7.6378

> <Gold.Chemscore.Internal_Hbond.Weighted>
0.0000

> <Gold.Chemscore.DEClash.Weighted>
0.0201

> <Gold.Chemscore.DEInternal.Weighted>
1.0345

> <Gold.Chemscore.Rot.Weighted>
2.5600

> <Gold.Chemscore.Internal.Correction.Weighted>
   9.000000E+99

> <Gold.Protein.RotatedTorsions>
[ 6907 6896 6895 6894 ] final  -38.91 input  -60.11 | X-H torsion
[ 7974 7965 7964 7962 ] final -160.87 input  175.53 | X-H torsion
[ 8008 7997 7996 7995 ] final -138.22 input   59.86 | X-H torsion
[ 10167 10162 10161 10158 ] final   36.23 input  -65.29 | X-H torsion
[ 10718 10713 10712 10709 ] final   88.47 input   66.30 | X-H torsion
[ 10763 10752 10751 10750 ] final -125.62 input  -60.55 | X-H torsion
[ 11005 11000 10999 10996 ] final -176.57 input  -57.11 | X-H torsion

> <Gold.Protein.ActiveResidues>
 VAL166  LYS551  ARG553  GLY616  TRP617  ASP618  TYR619  PRO620  LYS621  CYS622 
 ASP623  PHE694  ASN695  SER759  ASP760  ASP761  ALA762  ILE779  LEU786  VAL792 
 PHE793  MET794  SER795  GLU796  ALA797  LYS798  CYS799  TRP800  GLU811  SER814 

> <Gold.Protein.RotatedAtoms>
  150.9967  134.9289  159.7930 H   0  0  0  0  0  0  0  0  0  0  0  0  # atno 6907 bound_to 6896
  152.5266  134.3209  159.9158 H   0  0  0  0  0  0  0  0  0  0  0  0  # atno 6908 bound_to 6896
  151.3215  133.3996  159.2689 H   0  0  0  0  0  0  0  0  0  0  0  0  # atno 6909 bound_to 6896
  144.7411  140.3479  143.6121 H   0  0  0  0  0  0  0  0  0  0  0  0  # atno 7974 bound_to 7965
  155.4247  140.0521  157.3023 H   0  0  0  0  0  0  0  0  0  0  0  0  # atno 8008 bound_to 7997
  154.4887  140.2111  155.9556 H   0  0  0  0  0  0  0  0  0  0  0  0  # atno 8009 bound_to 7997
  156.1311  140.3171  155.8356 H   0  0  0  0  0  0  0  0  0  0  0  0  # atno 8010 bound_to 7997
  140.4147  144.1544  150.6142 H   0  0  0  0  0  0  0  0  0  0  0  0  # atno 10167 bound_to 10162
  157.6949  131.0296  150.3279 H   0  0  0  0  0  0  0  0  0  0  0  0  # atno 10718 bound_to 10713
  154.8738  135.4023  154.3297 H   0  0  0  0  0  0  0  0  0  0  0  0  # atno 10763 bound_to 10752
  153.4113  135.7021  153.6363 H   0  0  0  0  0  0  0  0  0  0  0  0  # atno 10764 bound_to 10752
  153.5064  135.3716  155.2536 H   0  0  0  0  0  0  0  0  0  0  0  0  # atno 10765 bound_to 10752
  140.4506  134.6347  157.4799 H   0  0  0  0  0  0  0  0  0  0  0  0  # atno 11005 bound_to 11000
  145.7307  139.1735  143.2432 LP  0  0  0  0  0  0  0  0  0  0  0  0  # atno 17320 bound_to 7965
  146.1208  140.7311  142.9458 LP  0  0  0  0  0  0  0  0  0  0  0  0  # atno 17321 bound_to 7965
  140.4599  143.2453  151.9233 LP  0  0  0  0  0  0  0  0  0  0  0  0  # atno 17342 bound_to 10162
  139.4782  144.5477  151.8433 LP  0  0  0  0  0  0  0  0  0  0  0  0  # atno 17343 bound_to 10162
  156.3757  130.3871  149.7141 LP  0  0  0  0  0  0  0  0  0  0  0  0  # atno 17370 bound_to 10713
  156.4540  130.7920  151.2941 LP  0  0  0  0  0  0  0  0  0  0  0  0  # atno 17371 bound_to 10713
  140.0009  134.6837  155.9531 LP  0  0  0  0  0  0  0  0  0  0  0  0  # atno 17394 bound_to 11000
  141.1666  133.6537  156.4501 LP  0  0  0  0  0  0  0  0  0  0  0  0  # atno 17395 bound_to 11000

$$$$
