AV-unprocessed.smi:2563|AV-procd|sdf|10061|dock2
  -GOLD-   2272014103D 1   1.00000     0.00000
 Structure written by MMmdl.
 34 35  0  0  0  0  0  0  0  0  1 V2000
  151.6189  144.1708  157.7363 C   0  0  0  0  0  0  0  0  0  0  0  0
  150.5961  143.0520  157.9751 C   0  0  0  0  0  0  0  0  0  0  0  0
  151.2019  141.7215  157.9025 N   0  0  0  0  0  0  0  0  0  0  0  0
  150.6401  140.7508  156.9638 C   0  0  0  0  0  0  0  0  0  0  0  0
  149.7887  141.4150  155.8668 C   0  0  1  0  0  0  0  0  0  0  0  0
  150.0633  140.7872  154.4849 C   0  0  0  0  0  0  0  0  0  0  0  0
  149.2006  141.3870  153.4681 N   0  0  0  0  0  0  0  0  0  0  0  0
  147.7908  141.2838  153.8394 C   0  0  0  0  0  0  0  0  0  0  0  0
  147.5636  141.8838  155.2371 C   0  0  0  0  0  0  0  0  0  0  0  0
  148.4096  141.2268  156.1739 O   0  0  0  0  0  0  0  0  0  0  0  0
  152.3598  141.4206  158.6619 C   0  0  0  0  0  0  0  0  0  0  0  0
  152.7267  142.1717  159.8061 C   0  0  0  0  0  0  0  0  0  0  0  0
  153.8920  141.8019  160.4987 C   0  0  0  0  0  0  0  0  0  0  0  0
  154.6172  140.7049  160.0054 C   0  0  0  0  0  0  0  0  0  0  0  0
  154.2324  140.0164  158.9102 N   0  0  0  0  0  0  0  0  0  0  0  0
  153.1232  140.3725  158.2540 N   0  0  0  0  0  0  0  0  0  0  0  0
  151.1400  145.1483  157.7925 H   0  0  0  0  0  0  0  0  0  0  0  0
  152.0804  144.0842  156.7524 H   0  0  0  0  0  0  0  0  0  0  0  0
  152.4136  144.1488  158.4823 H   0  0  0  0  0  0  0  0  0  0  0  0
  150.0878  143.1976  158.9285 H   0  0  0  0  0  0  0  0  0  0  0  0
  149.8143  143.1212  157.2183 H   0  0  0  0  0  0  0  0  0  0  0  0
  151.4781  140.2412  156.4873 H   0  0  0  0  0  0  0  0  0  0  0  0
  150.0867  139.9618  157.4712 H   0  0  0  0  0  0  0  0  0  0  0  0
  150.0153  142.4823  155.8302 H   0  0  0  0  0  0  0  0  0  0  0  0
  151.1095  140.9263  154.2113 H   0  0  0  0  0  0  0  0  0  0  0  0
  149.8915  139.7110  154.5277 H   0  0  0  0  0  0  0  0  0  0  0  0
  149.3524  140.9250  152.5771 H   0  0  0  0  0  0  0  0  0  0  0  0
  147.1706  141.7973  153.1045 H   0  0  0  0  0  0  0  0  0  0  0  0
  147.4815  140.2378  153.8358 H   0  0  0  0  0  0  0  0  0  0  0  0
  147.7557  142.9579  155.2403 H   0  0  0  0  0  0  0  0  0  0  0  0
  146.5259  141.7453  155.5410 H   0  0  0  0  0  0  0  0  0  0  0  0
  152.1563  143.0162  160.1592 H   0  0  0  0  0  0  0  0  0  0  0  0
  154.2188  142.3412  161.3754 H   0  0  0  0  0  0  0  0  0  0  0  0
  155.5213  140.3741  160.4946 H   0  0  0  0  0  0  0  0  0  0  0  0
  1  2  1  0  0  0  0
  1 17  1  0  0  0  0
  1 18  1  0  0  0  0
  1 19  1  0  0  0  0
  2  3  1  0  0  0  0
  2 20  1  0  0  0  0
  2 21  1  0  0  0  0
  3  4  1  0  0  0  0
  3 11  1  0  0  0  0
  4  5  1  0  0  0  0
  4 22  1  0  0  0  0
  4 23  1  0  0  0  0
  5 10  1  0  0  0  0
  5  6  1  0  0  0  0
  5 24  1  0  0  0  0
  6  7  1  0  0  0  0
  6 25  1  0  0  0  0
  6 26  1  0  0  0  0
  7  8  1  0  0  0  0
  7 27  1  0  0  0  0
  8  9  1  0  0  0  0
  8 28  1  0  0  0  0
  8 29  1  0  0  0  0
  9 10  1  0  0  0  0
  9 30  1  0  0  0  0
  9 31  1  0  0  0  0
 11 16  1  0  0  0  0
 11 12  2  0  0  0  0
 12 13  1  0  0  0  0
 12 32  1  0  0  0  0
 13 14  2  0  0  0  0
 13 33  1  0  0  0  0
 14 15  1  0  0  0  0
 14 34  1  0  0  0  0
 15 16  2  0  0  0  0
M  END
> <s_m_source_file>
AV-unprocessed.smi

> <i_m_source_file_index>
2563

> <i_lp_mmshare_version>
43012

> <i_f3d_flags>
0

> <s_epik_input>
bjFuW2NIXVtjSF1bY0hdYzFOKFtDSDJdW0NIM10pW0NIMl1bQ0BASF0yW0NIMl1bTkhdW0NIMl1bQ0gyXU8y

> <s_epik_cmdline>
J2VwaWtfcHl0aG9uJywgJy1waCcsICc3LjAnLCAnLXRuJywgJzgnLCAnLW1hJywgJzIwMCcsICctbWV0YWxfYmluZGluZycsICctaW1hZScsICc8aW5maWxlLm1hZT4nLCAnLW9tYWUnLCAnPG91dGZpbGUubWFlPic=

> <r_lp_tautomer_probability>
1

> <r_epik_Ionization_Penalty>
2.34719

> <r_epik_Ionization_Penalty_Charging>
0

> <r_epik_Ionization_Penalty_Neutral>
2.34719

> <r_epik_State_Penalty>
2.60452

> <r_epik_Charging_Adjusted_Penalty>
2.60452

> <i_epik_Tot_Q>
0

> <i_epik_Tot_abs_Q>
0

> <r_epik_Metal_State_Penalty>
2.56937

> <b_epik_Metal_Only>
0

> <s_lp_Force_Field>
OPLS_2005

> <r_lp_Energy>
25.3459

> <b_lp_Chiralities_Consistent>
1

> <s_lp_Variant>
AV-unprocessed.smi:2563-6

> <Gold.Version>
5.8.1

> <Gold.Id.Protein>
6NUR|6NUR_protein|mol2

> <Gold.PLP.Fitness>
37.3650

> <Gold.PLP.PLP>
-34.9309

> <Gold.PLP.part.hbond>
-5.0000

> <Gold.PLP.part.metal>
0.0000

> <Gold.PLP.part.buried>
0.5638

> <Gold.PLP.part.nonpolar>
-29.8191

> <Gold.PLP.part.repulsive>
0.0862

> <Gold.PLP.ligand.clash>
0.0000

> <Gold.PLP.ligand.torsion>
1.1012

> <Gold.PLP.Chemscore.Hbond>
1.5376

> <Gold.PLP.Chemscore.CHOScore>
0.0000

> <Gold.PLP.Chemscore.Metal>
0.0000

> <Gold.Chemscore.Hbonds>
donor molecule, donor type, donor heavy atom, donor atom, acceptor molecule, acceptor atom, score
      L1  H     7    27       P1  7957  1.00
      P1  H  7997  8009       L1    15  0.52

> <Gold.PLP.Chemscore.Internal.Correction>
0.0237

> <Gold.Rescore>
     Score         DG    S(hbond)    S(metal)    S(lipo)     H(rot)  DE(clash)    DE(int)     intcor
     13.90     -14.92       1.00        0.00      81.96       1.36       0.13       0.89       ----

> <Gold.Chemscore.Fitness>
13.8950

> <Gold.Chemscore.DG>
-14.9165

> <Gold.Chemscore.ZeroCoef>
-5.4800

> <Gold.Chemscore.Hbond>
0.9979

> <Gold.Chemscore.Metal>
0.0000

> <Gold.Chemscore.Lipo>
81.9618

> <Gold.Chemscore.Internal_Hbond>
0.0000

> <Gold.Chemscore.DEClash>
0.1334

> <Gold.Chemscore.DEInternal>
0.8881

> <Gold.Chemscore.Rot>
1.3618

> <Gold.Chemscore.Internal.Correction>
   9.000000E+99

> <Gold.Chemscore.Hbonds>
donor molecule, donor type, donor heavy atom, donor atom, acceptor molecule, acceptor atom, score
      L1  H     7    27       P1  7957  1.00
      P1  H  7997  8009       L1    15  0.05

> <Gold.Chemscore.Hbond.Weighted>
-3.3331

> <Gold.Chemscore.Metal.Weighted>
-0.0000

> <Gold.Chemscore.Lipo.Weighted>
-9.5895

> <Gold.Chemscore.Internal_Hbond.Weighted>
0.0000

> <Gold.Chemscore.DEClash.Weighted>
0.1334

> <Gold.Chemscore.DEInternal.Weighted>
0.8881

> <Gold.Chemscore.Rot.Weighted>
3.4861

> <Gold.Chemscore.Internal.Correction.Weighted>
   9.000000E+99

> <Gold.Protein.RotatedTorsions>
[ 6907 6896 6895 6894 ] final  127.65 input  -60.11 | X-H torsion
[ 7974 7965 7964 7962 ] final -132.31 input  175.53 | X-H torsion
[ 8008 7997 7996 7995 ] final  107.38 input   59.86 | X-H torsion
[ 10167 10162 10161 10158 ] final  114.77 input  -65.29 | X-H torsion
[ 10718 10713 10712 10709 ] final  -20.45 input   66.30 | X-H torsion
[ 10763 10752 10751 10750 ] final   73.64 input  -60.55 | X-H torsion
[ 11005 11000 10999 10996 ] final -143.43 input  -57.11 | X-H torsion

> <Gold.Protein.ActiveResidues>
 VAL166  LYS551  ARG553  GLY616  TRP617  ASP618  TYR619  PRO620  LYS621  CYS622 
 ASP623  PHE694  ASN695  SER759  ASP760  ASP761  ALA762  ILE779  LEU786  VAL792 
 PHE793  MET794  SER795  GLU796  ALA797  LYS798  CYS799  TRP800  GLU811  SER814 

> <Gold.Protein.RotatedAtoms>
  152.3793  133.6523  159.6147 H   0  0  0  0  0  0  0  0  0  0  0  0  # atno 6907 bound_to 6896
  150.7728  133.9141  159.3387 H   0  0  0  0  0  0  0  0  0  0  0  0  # atno 6908 bound_to 6896
  151.6950  135.0941  160.0292 H   0  0  0  0  0  0  0  0  0  0  0  0  # atno 6909 bound_to 6896
  144.9297  140.7114  143.4913 H   0  0  0  0  0  0  0  0  0  0  0  0  # atno 7974 bound_to 7965
  156.1819  140.3096  155.9165 H   0  0  0  0  0  0  0  0  0  0  0  0  # atno 8008 bound_to 7997
  155.3365  140.0463  157.3061 H   0  0  0  0  0  0  0  0  0  0  0  0  # atno 8009 bound_to 7997
  154.5352  140.2244  155.8744 H   0  0  0  0  0  0  0  0  0  0  0  0  # atno 8010 bound_to 7997
  139.6364  144.7120  151.2325 H   0  0  0  0  0  0  0  0  0  0  0  0  # atno 10167 bound_to 10162
  156.5316  130.4656  149.6544 H   0  0  0  0  0  0  0  0  0  0  0  0  # atno 10718 bound_to 10713
  153.0535  135.5055  154.7924 H   0  0  0  0  0  0  0  0  0  0  0  0  # atno 10763 bound_to 10752
  154.6768  135.2962  154.9670 H   0  0  0  0  0  0  0  0  0  0  0  0  # atno 10764 bound_to 10752
  154.0470  135.6709  153.4849 H   0  0  0  0  0  0  0  0  0  0  0  0  # atno 10765 bound_to 10752
  140.8126  134.2727  157.4934 H   0  0  0  0  0  0  0  0  0  0  0  0  # atno 11005 bound_to 11000
  145.3161  139.1803  143.4613 LP  0  0  0  0  0  0  0  0  0  0  0  0  # atno 17320 bound_to 7965
  146.3242  140.3172  142.8631 LP  0  0  0  0  0  0  0  0  0  0  0  0  # atno 17321 bound_to 7965
  140.7468  143.6388  150.8354 LP  0  0  0  0  0  0  0  0  0  0  0  0  # atno 17342 bound_to 10162
  140.0019  143.5734  152.2872 LP  0  0  0  0  0  0  0  0  0  0  0  0  # atno 17343 bound_to 10162
  156.3054  130.7200  151.2081 LP  0  0  0  0  0  0  0  0  0  0  0  0  # atno 17370 bound_to 10713
  157.7420  131.0495  150.5052 LP  0  0  0  0  0  0  0  0  0  0  0  0  # atno 17371 bound_to 10713
  139.8713  134.9491  156.4016 LP  0  0  0  0  0  0  0  0  0  0  0  0  # atno 17394 bound_to 11000
  140.9182  133.7663  155.9874 LP  0  0  0  0  0  0  0  0  0  0  0  0  # atno 17395 bound_to 11000

$$$$
