AV-unprocessed.smi:1075|AV-procd|sdf|4696|dock3
  -GOLD-   22720 3213D 1   1.00000     0.00000
 Structure written by MMmdl.
 50 51  0  0  0  0  0  0  0  0  1 V2000
  147.8101  140.2849  153.7856 C   0  0  0  0  0  0  0  0  0  0  0  0
  149.1654  139.9955  154.3651 C   0  0  0  0  0  0  0  0  0  0  0  0
  149.8560  138.9656  153.9071 N   0  0  0  0  0  0  0  0  0  0  0  0
  151.0051  138.9824  154.6098 N   0  0  0  0  0  0  0  0  0  0  0  0
  152.0086  137.9685  154.3482 C   0  0  0  0  0  0  0  0  0  0  0  0
  151.0436  140.0281  155.5124 C   0  0  0  0  0  0  0  0  0  0  0  0
  152.2242  140.2618  156.4024 C   0  0  0  0  0  0  0  0  0  0  0  0
  149.8577  140.7086  155.3886 C   0  0  0  0  0  0  0  0  0  0  0  0
  149.3622  141.9382  156.1238 C   0  0  1  0  0  0  0  0  0  0  0  0
  147.8308  141.9355  156.2909 C   0  0  0  0  0  0  0  0  0  0  0  0
  150.1199  142.0772  157.4538 C   0  0  0  0  0  0  0  0  0  0  0  0
  150.0112  141.2210  158.3321 O   0  0  0  0  0  0  0  0  0  0  0  0
  150.8944  143.1718  157.5695 N   0  0  0  0  0  0  0  0  0  0  0  0
  151.7934  143.5524  158.6653 C   0  0  1  0  0  0  0  0  0  0  0  0
  152.7199  144.7036  158.2076 C   0  0  0  0  0  0  0  0  0  0  0  0
  150.9560  143.9461  159.9133 C   0  0  0  0  0  0  0  0  0  0  0  0
  151.7848  144.0408  161.2062 C   0  0  0  0  0  0  0  0  0  0  0  0
  152.5564  142.7410  161.4869 C   0  0  2  0  0  0  0  0  0  0  0  0
  153.3756  142.8393  162.7817 C   0  0  0  0  0  0  0  0  0  0  0  0
  153.4447  142.3875  160.2831 C   0  0  0  0  0  0  0  0  0  0  0  0
  152.6245  142.2842  158.9855 C   0  0  0  0  0  0  0  0  0  0  0  0
  147.7301  141.3298  153.4846 H   0  0  0  0  0  0  0  0  0  0  0  0
  147.0251  140.0873  154.5158 H   0  0  0  0  0  0  0  0  0  0  0  0
  147.6065  139.6735  152.9057 H   0  0  0  0  0  0  0  0  0  0  0  0
  152.8719  138.4254  153.8641 H   0  0  0  0  0  0  0  0  0  0  0  0
  151.6097  137.1890  153.6972 H   0  0  0  0  0  0  0  0  0  0  0  0
  152.3254  137.5130  155.2866 H   0  0  0  0  0  0  0  0  0  0  0  0
  152.3064  141.3105  156.6845 H   0  0  0  0  0  0  0  0  0  0  0  0
  153.1563  139.9871  155.9087 H   0  0  0  0  0  0  0  0  0  0  0  0
  152.1388  139.6731  157.3160 H   0  0  0  0  0  0  0  0  0  0  0  0
  149.6043  142.8332  155.5497 H   0  0  0  0  0  0  0  0  0  0  0  0
  147.4810  141.0830  156.8726 H   0  0  0  0  0  0  0  0  0  0  0  0
  147.3368  141.8955  155.3197 H   0  0  0  0  0  0  0  0  0  0  0  0
  147.4866  142.8406  156.7926 H   0  0  0  0  0  0  0  0  0  0  0  0
  150.8925  143.8004  156.7792 H   0  0  0  0  0  0  0  0  0  0  0  0
  153.4608  144.9564  158.9649 H   0  0  0  0  0  0  0  0  0  0  0  0
  152.1634  145.6172  157.9991 H   0  0  0  0  0  0  0  0  0  0  0  0
  153.2629  144.4363  157.3006 H   0  0  0  0  0  0  0  0  0  0  0  0
  150.4453  144.8954  159.7509 H   0  0  0  0  0  0  0  0  0  0  0  0
  150.1688  143.2057  160.0669 H   0  0  0  0  0  0  0  0  0  0  0  0
  152.4793  144.8789  161.1394 H   0  0  0  0  0  0  0  0  0  0  0  0
  151.1216  144.2642  162.0426 H   0  0  0  0  0  0  0  0  0  0  0  0
  151.8293  141.9380  161.6176 H   0  0  0  0  0  0  0  0  0  0  0  0
  154.1266  143.6274  162.7177 H   0  0  0  0  0  0  0  0  0  0  0  0
  153.8927  141.9026  162.9908 H   0  0  0  0  0  0  0  0  0  0  0  0
  152.7345  143.0589  163.6356 H   0  0  0  0  0  0  0  0  0  0  0  0
  154.2323  143.1328  160.1694 H   0  0  0  0  0  0  0  0  0  0  0  0
  153.9515  141.4389  160.4642 H   0  0  0  0  0  0  0  0  0  0  0  0
  151.9536  141.4286  159.0822 H   0  0  0  0  0  0  0  0  0  0  0  0
  153.2877  142.0479  158.1521 H   0  0  0  0  0  0  0  0  0  0  0  0
  1  2  1  0  0  0  0
  1 22  1  0  0  0  0
  1 23  1  0  0  0  0
  1 24  1  0  0  0  0
  2  8  1  0  0  0  0
  2  3  2  0  0  0  0
  3  4  1  0  0  0  0
  4  5  1  0  0  0  0
  4  6  1  0  0  0  0
  5 25  1  0  0  0  0
  5 26  1  0  0  0  0
  5 27  1  0  0  0  0
  6  7  1  0  0  0  0
  6  8  2  0  0  0  0
  7 28  1  0  0  0  0
  7 29  1  0  0  0  0
  7 30  1  0  0  0  0
  8  9  1  0  0  0  0
  9 10  1  0  0  0  0
  9 11  1  0  0  0  0
  9 31  1  0  0  0  0
 10 32  1  0  0  0  0
 10 33  1  0  0  0  0
 10 34  1  0  0  0  0
 11 12  2  0  0  0  0
 11 13  1  0  0  0  0
 13 14  1  0  0  0  0
 13 35  1  0  0  0  0
 14 21  1  0  0  0  0
 14 15  1  0  0  0  0
 14 16  1  0  0  0  0
 15 36  1  0  0  0  0
 15 37  1  0  0  0  0
 15 38  1  0  0  0  0
 16 17  1  0  0  0  0
 16 39  1  0  0  0  0
 16 40  1  0  0  0  0
 17 18  1  0  0  0  0
 17 41  1  0  0  0  0
 17 42  1  0  0  0  0
 18 19  1  0  0  0  0
 18 20  1  0  0  0  0
 18 43  1  0  0  0  0
 19 44  1  0  0  0  0
 19 45  1  0  0  0  0
 19 46  1  0  0  0  0
 20 21  1  0  0  0  0
 20 47  1  0  0  0  0
 20 48  1  0  0  0  0
 21 49  1  0  0  0  0
 21 50  1  0  0  0  0
M  END
> <s_m_source_file>
AV-unprocessed.smi

> <i_m_source_file_index>
1075

> <i_lp_mmshare_version>
43012

> <i_f3d_flags>
0

> <s_epik_input>
W0NIM11jMW5uKFtDSDNdKWMoW0NIM10pYzFbQ0BIXShbQ0gzXSlDKD1PKVtOSF1bQ0BAXTIoW0NIM10pW0NIMl1bQ0gyXVtDQEBIXShbQ0gzXSlbQ0gyXVtDSDJdMg==

> <s_epik_cmdline>
J2VwaWtfcHl0aG9uJywgJy1waCcsICc3LjAnLCAnLXRuJywgJzgnLCAnLW1hJywgJzIwMCcsICctbWV0YWxfYmluZGluZycsICctaW1hZScsICc8aW5maWxlLm1hZT4nLCAnLW9tYWUnLCAnPG91dGZpbGUubWFlPic=

> <r_lp_tautomer_probability>
1

> <r_epik_Ionization_Penalty>
0.00502928

> <r_epik_Ionization_Penalty_Charging>
0

> <r_epik_Ionization_Penalty_Neutral>
0.00502928

> <r_epik_State_Penalty>
0.0036576

> <r_epik_Charging_Adjusted_Penalty>
0.0036576

> <i_epik_Tot_Q>
0

> <i_epik_Tot_abs_Q>
0

> <r_epik_Metal_State_Penalty>
-0

> <b_epik_Metal_Only>
0

> <s_lp_Force_Field>
OPLS_2005

> <r_lp_Energy>
7.42101

> <b_lp_Chiralities_Consistent>
1

> <s_lp_Variant>
AV-unprocessed.smi:1075-4

> <Gold.Version>
5.8.1

> <Gold.Id.Protein>
6NUR|6NUR_protein|mol2

> <Gold.PLP.Fitness>
45.5504

> <Gold.PLP.PLP>
-48.2050

> <Gold.PLP.part.hbond>
-0.5540

> <Gold.PLP.part.metal>
0.0000

> <Gold.PLP.part.buried>
-0.4727

> <Gold.PLP.part.nonpolar>
-46.7617

> <Gold.PLP.part.repulsive>
0.8075

> <Gold.PLP.ligand.clash>
0.9490

> <Gold.PLP.ligand.torsion>
0.8989

> <Gold.PLP.Chemscore.Hbond>
0.0000

> <Gold.PLP.Chemscore.CHOScore>
0.0000

> <Gold.PLP.Chemscore.Metal>
0.0000

> <Gold.PLP.Chemscore.Internal.Correction>
0.0923

> <Gold.Rescore>
     Score         DG    S(hbond)    S(metal)    S(lipo)     H(rot)  DE(clash)    DE(int)     intcor
     13.00     -18.76       0.00        0.00     140.44       1.23       1.91       3.85       ----

> <Gold.Chemscore.Fitness>
12.9986

> <Gold.Chemscore.DG>
-18.7570

> <Gold.Chemscore.ZeroCoef>
-5.4800

> <Gold.Chemscore.Hbond>
0.0000

> <Gold.Chemscore.Metal>
0.0000

> <Gold.Chemscore.Lipo>
140.4366

> <Gold.Chemscore.Internal_Hbond>
0.0000

> <Gold.Chemscore.DEClash>
1.9118

> <Gold.Chemscore.DEInternal>
3.8467

> <Gold.Chemscore.Rot>
1.2321

> <Gold.Chemscore.Internal.Correction>
   9.000000E+99

> <Gold.Chemscore.Hbonds>
donor molecule, donor type, donor heavy atom, donor atom, acceptor molecule, acceptor atom, score
      L1  H    13    35       P1  8028  0.02

> <Gold.Chemscore.Hbond.Weighted>
-0.0000

> <Gold.Chemscore.Metal.Weighted>
-0.0000

> <Gold.Chemscore.Lipo.Weighted>
-16.4311

> <Gold.Chemscore.Internal_Hbond.Weighted>
0.0000

> <Gold.Chemscore.DEClash.Weighted>
1.9118

> <Gold.Chemscore.DEInternal.Weighted>
3.8467

> <Gold.Chemscore.Rot.Weighted>
3.1541

> <Gold.Chemscore.Internal.Correction.Weighted>
   9.000000E+99

> <Gold.Protein.RotatedTorsions>
[ 6907 6896 6895 6894 ] final  -20.24 input  -60.11 | X-H torsion
[ 7974 7965 7964 7962 ] final -173.95 input  175.53 | X-H torsion
[ 8008 7997 7996 7995 ] final   14.14 input   59.86 | X-H torsion
[ 10167 10162 10161 10158 ] final  -99.79 input  -65.29 | X-H torsion
[ 10718 10713 10712 10709 ] final  121.92 input   66.30 | X-H torsion
[ 10763 10752 10751 10750 ] final   -5.56 input  -60.55 | X-H torsion
[ 11005 11000 10999 10996 ] final  102.21 input  -57.11 | X-H torsion

> <Gold.Protein.ActiveResidues>
 VAL166  LYS551  ARG553  GLY616  TRP617  ASP618  TYR619  PRO620  LYS621  CYS622 
 ASP623  PHE694  ASN695  SER759  ASP760  ASP761  ALA762  ILE779  LEU786  VAL792 
 PHE793  MET794  SER795  GLU796  ALA797  LYS798  CYS799  TRP800  GLU811  SER814 

> <Gold.Protein.RotatedAtoms>
  151.2511  135.0622  159.9062 H   0  0  0  0  0  0  0  0  0  0  0  0  # atno 6907 bound_to 6896
  152.5380  134.0331  159.8044 H   0  0  0  0  0  0  0  0  0  0  0  0  # atno 6908 bound_to 6896
  151.0539  133.5551  159.2671 H   0  0  0  0  0  0  0  0  0  0  0  0  # atno 6909 bound_to 6896
  144.7134  140.1545  143.6381 H   0  0  0  0  0  0  0  0  0  0  0  0  # atno 7974 bound_to 7965
  154.8443  140.2919  155.5639 H   0  0  0  0  0  0  0  0  0  0  0  0  # atno 8008 bound_to 7997
  156.3013  140.2508  156.3323 H   0  0  0  0  0  0  0  0  0  0  0  0  # atno 8009 bound_to 7997
  154.9090  140.0389  157.1925 H   0  0  0  0  0  0  0  0  0  0  0  0  # atno 8010 bound_to 7997
  140.2587  143.3422  152.0646 H   0  0  0  0  0  0  0  0  0  0  0  0  # atno 10167 bound_to 10162
  157.5781  131.1077  150.8239 H   0  0  0  0  0  0  0  0  0  0  0  0  # atno 10718 bound_to 10713
  153.4002  135.7004  153.6431 H   0  0  0  0  0  0  0  0  0  0  0  0  # atno 10763 bound_to 10752
  153.4968  135.3661  155.2520 H   0  0  0  0  0  0  0  0  0  0  0  0  # atno 10764 bound_to 10752
  154.8710  135.4102  154.3336 H   0  0  0  0  0  0  0  0  0  0  0  0  # atno 10765 bound_to 10752
  139.8776  134.9215  156.5024 H   0  0  0  0  0  0  0  0  0  0  0  0  # atno 11005 bound_to 11000
  145.9086  139.2473  143.1451 LP  0  0  0  0  0  0  0  0  0  0  0  0  # atno 17320 bound_to 7965
  145.9739  140.8738  143.0148 LP  0  0  0  0  0  0  0  0  0  0  0  0  # atno 17321 bound_to 7965
  139.5023  144.6733  151.6190 LP  0  0  0  0  0  0  0  0  0  0  0  0  # atno 17342 bound_to 10162
  140.5983  143.9656  150.6369 LP  0  0  0  0  0  0  0  0  0  0  0  0  # atno 17343 bound_to 10162
  156.8693  130.5140  149.5298 LP  0  0  0  0  0  0  0  0  0  0  0  0  # atno 17370 bound_to 10713
  156.0826  130.5833  150.9591 LP  0  0  0  0  0  0  0  0  0  0  0  0  # atno 17371 bound_to 10713
  140.8580  133.8082  155.9235 LP  0  0  0  0  0  0  0  0  0  0  0  0  # atno 17394 bound_to 11000
  140.9078  134.2298  157.5004 LP  0  0  0  0  0  0  0  0  0  0  0  0  # atno 17395 bound_to 11000

$$$$
