AV-unprocessed.smi:2573|AV-procd|sdf|10112|dock10
  -GOLD-   2272014133D 1   1.00000     0.00000
 Structure written by MMmdl.
 38 39  0  0  0  0  0  0  0  0  1 V2000
  156.1262  140.5532  159.8551 C   0  0  0  0  0  0  0  0  0  0  0  0
  154.9061  139.9659  160.5777 C   0  0  0  0  0  0  0  0  0  0  0  0
  153.8625  141.0174  160.9975 C   0  0  0  0  0  0  0  0  0  0  0  0
  153.0873  141.5186  159.8631 N   0  0  0  0  0  0  0  0  0  0  0  0
  152.8128  140.8592  158.7124 C   0  0  0  0  0  0  0  0  0  0  0  0
  153.1687  139.7151  158.4311 O   0  0  0  0  0  0  0  0  0  0  0  0
  152.0722  141.6750  157.9261 N   0  0  0  0  0  0  0  0  0  0  0  0
  151.5425  141.3588  156.6006 C   0  0  0  0  0  0  0  0  0  0  0  0
  150.0005  141.3977  156.5823 C   0  0  2  0  0  0  0  0  0  0  0  0
  149.5267  140.2264  157.2174 O   0  0  0  0  0  0  0  0  0  0  0  0
  149.4437  141.4260  155.1433 C   0  0  0  0  0  0  0  0  0  0  0  0
  147.9341  141.1430  155.0309 C   0  0  0  0  0  0  0  0  0  0  0  0
  147.5460  141.3597  153.7744 F   0  0  0  0  0  0  0  0  0  0  0  0
  147.6516  139.8793  155.3459 F   0  0  0  0  0  0  0  0  0  0  0  0
  147.2491  141.9593  155.8318 F   0  0  0  0  0  0  0  0  0  0  0  0
  151.8540  142.8867  158.5983 C   0  0  0  0  0  0  0  0  0  0  0  0
  151.1420  144.0395  158.2231 C   0  0  0  0  0  0  0  0  0  0  0  0
  151.1120  145.1102  159.1473 C   0  0  0  0  0  0  0  0  0  0  0  0
  151.7763  145.0105  160.3975 C   0  0  0  0  0  0  0  0  0  0  0  0
  152.4828  143.8373  160.7510 C   0  0  0  0  0  0  0  0  0  0  0  0
  152.4961  142.7888  159.8150 C   0  0  0  0  0  0  0  0  0  0  0  0
  156.7947  139.7608  159.5183 H   0  0  0  0  0  0  0  0  0  0  0  0
  156.7003  141.2099  160.5088 H   0  0  0  0  0  0  0  0  0  0  0  0
  155.8249  141.1293  158.9798 H   0  0  0  0  0  0  0  0  0  0  0  0
  154.4256  139.2415  159.9199 H   0  0  0  0  0  0  0  0  0  0  0  0
  155.2391  139.4040  161.4509 H   0  0  0  0  0  0  0  0  0  0  0  0
  153.1970  140.5980  161.7537 H   0  0  0  0  0  0  0  0  0  0  0  0
  154.3631  141.8588  161.4777 H   0  0  0  0  0  0  0  0  0  0  0  0
  151.9432  142.0967  155.9049 H   0  0  0  0  0  0  0  0  0  0  0  0
  151.9178  140.3960  156.2485 H   0  0  0  0  0  0  0  0  0  0  0  0
  149.6425  142.2738  157.1246 H   0  0  0  0  0  0  0  0  0  0  0  0
  148.6472  140.3842  157.5260 H   0  0  0  0  0  0  0  0  0  0  0  0
  149.6254  142.4136  154.7174 H   0  0  0  0  0  0  0  0  0  0  0  0
  149.9985  140.7252  154.5177 H   0  0  0  0  0  0  0  0  0  0  0  0
  150.6364  144.1097  157.2715 H   0  0  0  0  0  0  0  0  0  0  0  0
  150.5767  146.0147  158.8985 H   0  0  0  0  0  0  0  0  0  0  0  0
  151.7414  145.8399  161.0886 H   0  0  0  0  0  0  0  0  0  0  0  0
  152.9890  143.7544  161.7014 H   0  0  0  0  0  0  0  0  0  0  0  0
  1  2  1  0  0  0  0
  1 22  1  0  0  0  0
  1 23  1  0  0  0  0
  1 24  1  0  0  0  0
  2  3  1  0  0  0  0
  2 25  1  0  0  0  0
  2 26  1  0  0  0  0
  3  4  1  0  0  0  0
  3 27  1  0  0  0  0
  3 28  1  0  0  0  0
  4 21  1  0  0  0  0
  4  5  1  0  0  0  0
  5  6  2  0  0  0  0
  5  7  1  0  0  0  0
  7  8  1  0  0  0  0
  7 16  1  0  0  0  0
  8  9  1  0  0  0  0
  8 29  1  0  0  0  0
  8 30  1  0  0  0  0
  9 10  1  0  0  0  0
  9 11  1  0  0  0  0
  9 31  1  0  0  0  0
 10 32  1  0  0  0  0
 11 12  1  0  0  0  0
 11 33  1  0  0  0  0
 11 34  1  0  0  0  0
 12 13  1  0  0  0  0
 12 14  1  0  0  0  0
 12 15  1  0  0  0  0
 16 21  2  0  0  0  0
 16 17  1  0  0  0  0
 17 18  2  0  0  0  0
 17 35  1  0  0  0  0
 18 19  1  0  0  0  0
 18 36  1  0  0  0  0
 19 20  2  0  0  0  0
 19 37  1  0  0  0  0
 20 21  1  0  0  0  0
 20 38  1  0  0  0  0
M  END
> <s_m_source_file>
AV-unprocessed.smi

> <i_m_source_file_index>
2573

> <i_lp_mmshare_version>
43012

> <i_f3d_flags>
0

> <s_epik_input>
W2NIXTFbY0hdW2NIXVtjSF1jKGMxMiluKFtDSDJdW0NIMl1bQ0gzXSljKD1PKW4yW0NIMl1bQ0BIXShbT0hdKVtDSDJdQyhGKShGKUY=

> <s_epik_cmdline>
J2VwaWtfcHl0aG9uJywgJy1waCcsICc3LjAnLCAnLXRuJywgJzgnLCAnLW1hJywgJzIwMCcsICctbWV0YWxfYmluZGluZycsICctaW1hZScsICc8aW5maWxlLm1hZT4nLCAnLW9tYWUnLCAnPG91dGZpbGUubWFlPic=

> <r_lp_tautomer_probability>
1

> <r_epik_Ionization_Penalty>
2.4024e-06

> <r_epik_Ionization_Penalty_Charging>
3.10219e-09

> <r_epik_Ionization_Penalty_Neutral>
2.3993e-06

> <r_epik_State_Penalty>
-0

> <r_epik_Charging_Adjusted_Penalty>
3.10219e-09

> <i_epik_Tot_Q>
0

> <i_epik_Tot_abs_Q>
0

> <r_epik_Metal_State_Penalty>
-0

> <b_epik_Metal_Only>
0

> <s_lp_Force_Field>
OPLS_2005

> <r_lp_Energy>
43.3878

> <b_lp_Chiralities_Consistent>
1

> <s_lp_Variant>
AV-unprocessed.smi:2573-1

> <Gold.Version>
5.8.1

> <Gold.Id.Protein>
6NUR|6NUR_protein|mol2

> <Gold.PLP.Fitness>
48.0689

> <Gold.PLP.PLP>
-46.3419

> <Gold.PLP.part.hbond>
-1.0000

> <Gold.PLP.part.metal>
0.0000

> <Gold.PLP.part.buried>
-6.2292

> <Gold.PLP.part.nonpolar>
-39.3849

> <Gold.PLP.part.repulsive>
0.0000

> <Gold.PLP.ligand.clash>
0.0000

> <Gold.PLP.ligand.torsion>
0.6570

> <Gold.PLP.Chemscore.Hbond>
1.0000

> <Gold.PLP.Chemscore.CHOScore>
0.0000

> <Gold.PLP.Chemscore.Metal>
0.0000

> <Gold.Chemscore.Hbonds>
donor molecule, donor type, donor heavy atom, donor atom, acceptor molecule, acceptor atom, score
      P1  H  7997  8010       L1     6  0.99

> <Gold.PLP.Chemscore.Internal.Correction>
0.0409

> <Gold.Rescore>
     Score         DG    S(hbond)    S(metal)    S(lipo)     H(rot)  DE(clash)    DE(int)     intcor
     12.12     -15.79       0.81        0.00     119.40       2.48       0.19       3.47       ----

> <Gold.Chemscore.Fitness>
12.1206

> <Gold.Chemscore.DG>
-15.7871

> <Gold.Chemscore.ZeroCoef>
-5.4800

> <Gold.Chemscore.Hbond>
0.8052

> <Gold.Chemscore.Metal>
0.0000

> <Gold.Chemscore.Lipo>
119.3982

> <Gold.Chemscore.Internal_Hbond>
0.0000

> <Gold.Chemscore.DEClash>
0.1943

> <Gold.Chemscore.DEInternal>
3.4722

> <Gold.Chemscore.Rot>
2.4812

> <Gold.Chemscore.Internal.Correction>
   9.000000E+99

> <Gold.Chemscore.Hbonds>
donor molecule, donor type, donor heavy atom, donor atom, acceptor molecule, acceptor atom, score
      P1  H  7997  8010       L1     6  0.32

> <Gold.Chemscore.Hbond.Weighted>
-2.6893

> <Gold.Chemscore.Metal.Weighted>
-0.0000

> <Gold.Chemscore.Lipo.Weighted>
-13.9696

> <Gold.Chemscore.Internal_Hbond.Weighted>
0.0000

> <Gold.Chemscore.DEClash.Weighted>
0.1943

> <Gold.Chemscore.DEInternal.Weighted>
3.4722

> <Gold.Chemscore.Rot.Weighted>
6.3518

> <Gold.Chemscore.Internal.Correction.Weighted>
   9.000000E+99

> <Gold.Protein.RotatedTorsions>
[ 6907 6896 6895 6894 ] final   16.94 input  -60.11 | X-H torsion
[ 7974 7965 7964 7962 ] final  -34.35 input  175.53 | X-H torsion
[ 8008 7997 7996 7995 ] final   39.28 input   59.86 | X-H torsion
[ 10167 10162 10161 10158 ] final  -97.08 input  -65.29 | X-H torsion
[ 10718 10713 10712 10709 ] final   29.44 input   66.30 | X-H torsion
[ 10763 10752 10751 10750 ] final   55.04 input  -60.55 | X-H torsion
[ 11005 11000 10999 10996 ] final -149.47 input  -57.11 | X-H torsion

> <Gold.Protein.ActiveResidues>
 VAL166  LYS551  ARG553  GLY616  TRP617  ASP618  TYR619  PRO620  LYS621  CYS622 
 ASP623  PHE694  ASN695  SER759  ASP760  ASP761  ALA762  ILE779  LEU786  VAL792 
 PHE793  MET794  SER795  GLU796  ALA797  LYS798  CYS799  TRP800  GLU811  SER814 

> <Gold.Protein.RotatedAtoms>
  151.8418  135.0587  160.0448 H   0  0  0  0  0  0  0  0  0  0  0  0  # atno 6907 bound_to 6896
  152.2803  133.5459  159.5502 H   0  0  0  0  0  0  0  0  0  0  0  0  # atno 6908 bound_to 6896
  150.7187  134.0490  159.3834 H   0  0  0  0  0  0  0  0  0  0  0  0  # atno 6909 bound_to 6896
  146.0836  140.6028  142.8897 H   0  0  0  0  0  0  0  0  0  0  0  0  # atno 7974 bound_to 7965
  155.2340  140.3340  155.4300 H   0  0  0  0  0  0  0  0  0  0  0  0  # atno 8008 bound_to 7997
  156.2283  140.1839  156.7352 H   0  0  0  0  0  0  0  0  0  0  0  0  # atno 8009 bound_to 7997
  154.5936  140.0634  156.9257 H   0  0  0  0  0  0  0  0  0  0  0  0  # atno 8010 bound_to 7997
  140.2871  143.3245  152.0383 H   0  0  0  0  0  0  0  0  0  0  0  0  # atno 10167 bound_to 10162
  157.2466  130.7094  149.6384 H   0  0  0  0  0  0  0  0  0  0  0  0  # atno 10718 bound_to 10713
  152.9812  135.5724  154.5003 H   0  0  0  0  0  0  0  0  0  0  0  0  # atno 10763 bound_to 10752
  154.4523  135.2779  155.1774 H   0  0  0  0  0  0  0  0  0  0  0  0  # atno 10764 bound_to 10752
  154.3397  135.6232  153.5644 H   0  0  0  0  0  0  0  0  0  0  0  0  # atno 10765 bound_to 10752
  140.7504  134.3413  157.5127 H   0  0  0  0  0  0  0  0  0  0  0  0  # atno 11005 bound_to 11000
  144.7310  140.4672  143.6938 LP  0  0  0  0  0  0  0  0  0  0  0  0  # atno 17320 bound_to 7965
  145.6171  139.1520  143.3043 LP  0  0  0  0  0  0  0  0  0  0  0  0  # atno 17321 bound_to 7965
  139.4947  144.6551  151.6590 LP  0  0  0  0  0  0  0  0  0  0  0  0  # atno 17342 bound_to 10162
  140.5763  144.0022  150.6243 LP  0  0  0  0  0  0  0  0  0  0  0  0  # atno 17343 bound_to 10162
  155.9668  130.4441  150.5448 LP  0  0  0  0  0  0  0  0  0  0  0  0  # atno 17370 bound_to 10713
  157.3323  131.0702  151.1851 LP  0  0  0  0  0  0  0  0  0  0  0  0  # atno 17371 bound_to 10713
  139.8789  134.9138  156.3092 LP  0  0  0  0  0  0  0  0  0  0  0  0  # atno 17394 bound_to 11000
  140.9756  133.7299  156.0597 LP  0  0  0  0  0  0  0  0  0  0  0  0  # atno 17395 bound_to 11000

$$$$
