AV-unprocessed.smi:2730|AV-procd|sdf|10529|dock9
  -GOLD-   2272014573D 1   1.00000     0.00000
 Structure written by MMmdl.
 43 44  0  0  0  0  0  0  0  0  1 V2000
  142.9565  141.5057  156.3280 C   0  0  0  0  0  0  0  0  0  0  0  0
  141.8709  142.1227  155.4341 C   0  0  0  0  0  0  0  0  0  0  0  0
  140.8562  141.0991  154.8918 C   0  0  1  0  0  0  0  0  0  0  0  0
  139.7808  141.7872  154.0338 C   0  0  0  0  0  0  0  0  0  0  0  0
  138.7039  140.8845  153.5956 C   0  0  0  0  0  0  0  0  0  0  0  0
  137.8581  140.1745  153.2508 N   0  0  0  0  0  0  0  0  0  0  0  0
  141.5498  140.0763  154.1086 N   0  0  0  0  0  0  0  0  0  0  0  0
  141.4088  138.7502  154.2546 C   0  0  0  0  0  0  0  0  0  0  0  0
  140.6488  138.2335  155.0740 O   0  0  0  0  0  0  0  0  0  0  0  0
  142.1993  138.0801  153.3979 N   0  0  0  0  0  0  0  0  0  0  0  0
  142.3443  136.6754  153.2543 C   0  0  0  0  0  0  0  0  0  0  0  0
  141.3940  135.7612  153.6203 N   0  0  0  0  0  0  0  0  0  0  0  0
  142.0304  134.6485  153.2806 C   0  0  0  0  0  0  0  0  0  0  0  0
  143.2425  134.8535  152.7541 N   0  0  0  0  0  0  0  0  0  0  0  0
  144.2445  133.9127  152.2773 C   0  0  0  0  0  0  0  0  0  0  0  0
  145.4894  134.6463  151.7383 C   0  0  0  0  0  0  0  0  0  0  0  0
  146.5433  133.6534  151.2211 C   0  0  0  0  0  0  0  0  0  0  0  0
  145.9512  132.7129  150.1593 C   0  0  0  0  0  0  0  0  0  0  0  0
  144.7122  131.9779  150.6957 C   0  0  0  0  0  0  0  0  0  0  0  0
  143.6552  132.9689  151.2103 C   0  0  0  0  0  0  0  0  0  0  0  0
  143.4699  136.1893  152.7348 N   0  0  0  0  0  0  0  0  0  0  0  0
  143.6146  142.2783  156.7255 H   0  0  0  0  0  0  0  0  0  0  0  0
  143.5764  140.7976  155.7776 H   0  0  0  0  0  0  0  0  0  0  0  0
  142.5155  140.9785  157.1745 H   0  0  0  0  0  0  0  0  0  0  0  0
  141.3381  142.8805  156.0093 H   0  0  0  0  0  0  0  0  0  0  0  0
  142.3427  142.6503  154.6042 H   0  0  0  0  0  0  0  0  0  0  0  0
  140.3626  140.6417  155.7513 H   0  0  0  0  0  0  0  0  0  0  0  0
  139.3091  142.5916  154.5988 H   0  0  0  0  0  0  0  0  0  0  0  0
  140.2261  142.2395  153.1473 H   0  0  0  0  0  0  0  0  0  0  0  0
  142.1983  140.4072  153.4091 H   0  0  0  0  0  0  0  0  0  0  0  0
  142.7697  138.6383  152.7804 H   0  0  0  0  0  0  0  0  0  0  0  0
  141.6055  133.6652  153.4192 H   0  0  0  0  0  0  0  0  0  0  0  0
  144.5581  133.3040  153.1278 H   0  0  0  0  0  0  0  0  0  0  0  0
  145.2056  135.3207  150.9292 H   0  0  0  0  0  0  0  0  0  0  0  0
  145.9240  135.2684  152.5215 H   0  0  0  0  0  0  0  0  0  0  0  0
  147.3922  134.1961  150.8042 H   0  0  0  0  0  0  0  0  0  0  0  0
  146.9311  133.0656  152.0541 H   0  0  0  0  0  0  0  0  0  0  0  0
  145.6802  133.2869  149.2722 H   0  0  0  0  0  0  0  0  0  0  0  0
  146.7036  131.9905  149.8414 H   0  0  0  0  0  0  0  0  0  0  0  0
  144.2845  131.3508  149.9131 H   0  0  0  0  0  0  0  0  0  0  0  0
  145.0069  131.3060  151.5028 H   0  0  0  0  0  0  0  0  0  0  0  0
  142.8077  132.4204  151.6234 H   0  0  0  0  0  0  0  0  0  0  0  0
  143.2684  133.5499  150.3720 H   0  0  0  0  0  0  0  0  0  0  0  0
  1  2  1  0  0  0  0
  1 22  1  0  0  0  0
  1 23  1  0  0  0  0
  1 24  1  0  0  0  0
  2  3  1  0  0  0  0
  2 25  1  0  0  0  0
  2 26  1  0  0  0  0
  3  4  1  0  0  0  0
  3  7  1  0  0  0  0
  3 27  1  0  0  0  0
  4  5  1  0  0  0  0
  4 28  1  0  0  0  0
  4 29  1  0  0  0  0
  5  6  3  0  0  0  0
  7  8  1  0  0  0  0
  7 30  1  0  0  0  0
  8  9  2  0  0  0  0
  8 10  1  0  0  0  0
 10 11  1  0  0  0  0
 10 31  1  0  0  0  0
 11 21  2  0  0  0  0
 11 12  1  0  0  0  0
 12 13  2  0  0  0  0
 13 14  1  0  0  0  0
 13 32  1  0  0  0  0
 14 15  1  0  0  0  0
 14 21  1  0  0  0  0
 15 20  1  0  0  0  0
 15 16  1  0  0  0  0
 15 33  1  0  0  0  0
 16 17  1  0  0  0  0
 16 34  1  0  0  0  0
 16 35  1  0  0  0  0
 17 18  1  0  0  0  0
 17 36  1  0  0  0  0
 17 37  1  0  0  0  0
 18 19  1  0  0  0  0
 18 38  1  0  0  0  0
 18 39  1  0  0  0  0
 19 20  1  0  0  0  0
 19 40  1  0  0  0  0
 19 41  1  0  0  0  0
 20 42  1  0  0  0  0
 20 43  1  0  0  0  0
M  END
> <s_m_source_file>
AV-unprocessed.smi

> <i_m_source_file_index>
2730

> <i_lp_mmshare_version>
43012

> <i_f3d_flags>
0

> <s_epik_input>
TiNDW0NIMl1bQ0BASF0oW0NIMl1bQ0gzXSlbTkhdQyg9TylbTkhdYzFuW2NIXW4objEpW0NIXTJbQ0gyXVtDSDJdW0NIMl1bQ0gyXVtDSDJdMg==

> <s_epik_cmdline>
J2VwaWtfcHl0aG9uJywgJy1waCcsICc3LjAnLCAnLXRuJywgJzgnLCAnLW1hJywgJzIwMCcsICctbWV0YWxfYmluZGluZycsICctaW1hZScsICc8aW5maWxlLm1hZT4nLCAnLW9tYWUnLCAnPG91dGZpbGUubWFlPic=

> <r_lp_tautomer_probability>
1

> <r_epik_Ionization_Penalty>
7.18854e-05

> <r_epik_Ionization_Penalty_Charging>
0

> <r_epik_Ionization_Penalty_Neutral>
7.18854e-05

> <r_epik_State_Penalty>
-0

> <r_epik_Charging_Adjusted_Penalty>
0

> <i_epik_Tot_Q>
0

> <i_epik_Tot_abs_Q>
0

> <r_epik_Metal_State_Penalty>
-0

> <b_epik_Metal_Only>
0

> <s_lp_Force_Field>
OPLS_2005

> <r_lp_Energy>
17.9717

> <b_lp_Chiralities_Consistent>
1

> <s_lp_Variant>
AV-unprocessed.smi:2730-2

> <Gold.Version>
5.8.1

> <Gold.Id.Protein>
6NUR|6NUR_protein|mol2

> <Gold.PLP.Fitness>
40.6267

> <Gold.PLP.PLP>
-32.5280

> <Gold.PLP.part.hbond>
-2.2168

> <Gold.PLP.part.metal>
0.0000

> <Gold.PLP.part.buried>
-6.7466

> <Gold.PLP.part.nonpolar>
-24.3616

> <Gold.PLP.part.repulsive>
0.3993

> <Gold.PLP.ligand.clash>
0.0000

> <Gold.PLP.ligand.torsion>
0.2889

> <Gold.PLP.Chemscore.Hbond>
1.9280

> <Gold.PLP.Chemscore.CHOScore>
0.9362

> <Gold.PLP.Chemscore.Metal>
0.0000

> <Gold.Chemscore.Hbonds>
donor molecule, donor type, donor heavy atom, donor atom, acceptor molecule, acceptor atom, score
      L1  H     7    30       P1 10175  1.00
      L1  H    10    31       P1 10175  0.91
      L1  C    13    32       P1 10957  0.91

> <Gold.PLP.Chemscore.Internal.Correction>
0.0838

> <Gold.Rescore>
     Score         DG    S(hbond)    S(metal)    S(lipo)     H(rot)  DE(clash)    DE(int)     intcor
     11.14     -12.47       1.80        0.00      48.31       1.82       0.01       1.32       ----

> <Gold.Chemscore.Fitness>
11.1396

> <Gold.Chemscore.DG>
-12.4708

> <Gold.Chemscore.ZeroCoef>
-5.4800

> <Gold.Chemscore.Hbond>
1.7994

> <Gold.Chemscore.Metal>
0.0000

> <Gold.Chemscore.Lipo>
48.3129

> <Gold.Chemscore.Internal_Hbond>
0.0000

> <Gold.Chemscore.DEClash>
0.0149

> <Gold.Chemscore.DEInternal>
1.3163

> <Gold.Chemscore.Rot>
1.8249

> <Gold.Chemscore.Internal.Correction>
   9.000000E+99

> <Gold.Chemscore.Hbonds>
donor molecule, donor type, donor heavy atom, donor atom, acceptor molecule, acceptor atom, score
      L1  H     7    30       P1 10175  0.25
      L1  H    10    31       P1 10175  0.85

> <Gold.Chemscore.Hbond.Weighted>
-6.0099

> <Gold.Chemscore.Metal.Weighted>
-0.0000

> <Gold.Chemscore.Lipo.Weighted>
-5.6526

> <Gold.Chemscore.Internal_Hbond.Weighted>
0.0000

> <Gold.Chemscore.DEClash.Weighted>
0.0149

> <Gold.Chemscore.DEInternal.Weighted>
1.3163

> <Gold.Chemscore.Rot.Weighted>
4.6718

> <Gold.Chemscore.Internal.Correction.Weighted>
   9.000000E+99

> <Gold.Protein.RotatedTorsions>
[ 6907 6896 6895 6894 ] final   20.90 input  -60.11 | X-H torsion
[ 7974 7965 7964 7962 ] final   -4.81 input  175.53 | X-H torsion
[ 8008 7997 7996 7995 ] final  -68.91 input   59.86 | X-H torsion
[ 10167 10162 10161 10158 ] final  175.56 input  -65.29 | X-H torsion
[ 10718 10713 10712 10709 ] final -146.84 input   66.30 | X-H torsion
[ 10763 10752 10751 10750 ] final   -1.49 input  -60.55 | X-H torsion
[ 11005 11000 10999 10996 ] final  150.88 input  -57.11 | X-H torsion

> <Gold.Protein.ActiveResidues>
 VAL166  LYS551  ARG553  GLY616  TRP617  ASP618  TYR619  PRO620  LYS621  CYS622 
 ASP623  PHE694  ASN695  SER759  ASP760  ASP761  ALA762  ILE779  LEU786  VAL792 
 PHE793  MET794  SER795  GLU796  ALA797  LYS798  CYS799  TRP800  GLU811  SER814 

> <Gold.Protein.RotatedAtoms>
  151.9036  135.0368  160.0508 H   0  0  0  0  0  0  0  0  0  0  0  0  # atno 6907 bound_to 6896
  152.2338  133.5075  159.5239 H   0  0  0  0  0  0  0  0  0  0  0  0  # atno 6908 bound_to 6896
  150.7033  134.1097  159.4038 H   0  0  0  0  0  0  0  0  0  0  0  0  # atno 6909 bound_to 6896
  146.2365  140.1927  142.8333 H   0  0  0  0  0  0  0  0  0  0  0  0  # atno 7974 bound_to 7965
  154.4901  140.0863  156.7576 H   0  0  0  0  0  0  0  0  0  0  0  0  # atno 8008 bound_to 7997
  155.4251  140.3447  155.4256 H   0  0  0  0  0  0  0  0  0  0  0  0  # atno 8009 bound_to 7997
  156.1318  140.1503  156.9042 H   0  0  0  0  0  0  0  0  0  0  0  0  # atno 8010 bound_to 7997
  139.5181  144.3017  152.0372 H   0  0  0  0  0  0  0  0  0  0  0  0  # atno 10167 bound_to 10162
  156.3999  130.7929  151.2138 H   0  0  0  0  0  0  0  0  0  0  0  0  # atno 10718 bound_to 10713
  153.3456  135.6983  153.6831 H   0  0  0  0  0  0  0  0  0  0  0  0  # atno 10763 bound_to 10752
  153.5578  135.3541  155.2787 H   0  0  0  0  0  0  0  0  0  0  0  0  # atno 10764 bound_to 10752
  154.8644  135.4242  154.2679 H   0  0  0  0  0  0  0  0  0  0  0  0  # atno 10765 bound_to 10752
  140.1170  134.8888  157.2018 H   0  0  0  0  0  0  0  0  0  0  0  0  # atno 11005 bound_to 11000
  144.9845  140.8490  143.5377 LP  0  0  0  0  0  0  0  0  0  0  0  0  # atno 17320 bound_to 7965
  145.1925  139.2294  143.5235 LP  0  0  0  0  0  0  0  0  0  0  0  0  # atno 17321 bound_to 7965
  140.2465  144.4214  150.6239 LP  0  0  0  0  0  0  0  0  0  0  0  0  # atno 17342 bound_to 10162
  140.6254  143.2181  151.6606 LP  0  0  0  0  0  0  0  0  0  0  0  0  # atno 17343 bound_to 10162
  157.7503  131.0290  150.4072 LP  0  0  0  0  0  0  0  0  0  0  0  0  # atno 17370 bound_to 10713
  156.4350  130.3980  149.6735 LP  0  0  0  0  0  0  0  0  0  0  0  0  # atno 17371 bound_to 10713
  140.3015  134.3126  155.7288 LP  0  0  0  0  0  0  0  0  0  0  0  0  # atno 17394 bound_to 11000
  141.2143  133.7595  156.9647 LP  0  0  0  0  0  0  0  0  0  0  0  0  # atno 17395 bound_to 11000

$$$$
