AV-unprocessed.smi:1679|AV-procd|sdf|6735|dock2
  -GOLD-   22720 7483D 1   1.00000     0.00000
 Structure written by MMmdl.
 44 45  0  0  0  0  0  0  0  0  2 V2000
  149.6442  142.2275  157.1218 C   0  0  0  0  0  0  0  0  0  0  0  0
  150.5891  142.7904  158.1934 C   0  0  2  0  0  0  0  0  0  0  0  0
  151.4837  143.9129  157.6303 C   0  0  0  0  0  0  0  0  0  0  0  0
  152.3833  144.5189  158.7179 C   0  0  0  0  0  0  0  0  0  0  0  0
  153.2238  143.4383  159.4140 C   0  0  0  0  0  0  0  0  0  0  0  0
  152.3365  142.3133  159.9753 C   0  0  0  0  0  0  0  0  0  0  0  0
  151.4370  141.6963  158.8881 C   0  0  2  0  0  0  0  0  0  0  0  0
  152.2934  141.0596  157.9487 O   0  0  0  0  0  0  0  0  0  0  0  0
  151.7114  139.9887  157.2220 C   0  0  0  0  0  0  0  0  0  0  0  0
  151.3571  138.8562  158.1986 C   0  0  0  0  0  0  0  0  0  0  0  0
  152.5537  138.2582  158.7839 N   0  0  0  0  0  0  0  0  0  0  0  0
  152.5600  137.3901  159.8080 C   0  0  0  0  0  0  0  0  0  0  0  0
  151.5314  136.9606  160.3311 O   0  0  0  0  0  0  0  0  0  0  0  0
  153.9365  136.9226  160.2996 C   0  0  0  0  0  0  0  0  0  0  0  0
  153.8442  136.1115  161.5245 N   0  0  0  0  0  0  0  0  0  0  0  0
  153.3046  136.7313  162.6653 C   0  0  0  0  0  0  0  0  0  0  0  0
  153.1454  136.0710  163.8276 C   0  0  0  0  0  0  0  0  0  0  0  0
  153.5507  134.6726  163.8868 C   0  0  0  0  0  0  0  0  0  0  0  0
  153.4001  134.0495  164.9359 O   0  0  0  0  0  0  0  0  0  0  0  0
  154.0834  134.1187  162.7586 N   0  5  0  0  0  0  0  0  0  0  0  0
  154.2423  134.8043  161.5838 C   0  0  0  0  0  0  0  0  0  0  0  0
  154.7310  134.2844  160.5807 O   0  0  0  0  0  0  0  0  0  0  0  0
  150.1995  141.7885  156.2934 H   0  0  0  0  0  0  0  0  0  0  0  0
  149.0080  143.0117  156.7111 H   0  0  0  0  0  0  0  0  0  0  0  0
  148.9933  141.4574  157.5358 H   0  0  0  0  0  0  0  0  0  0  0  0
  149.9548  143.2383  158.9597 H   0  0  0  0  0  0  0  0  0  0  0  0
  152.1029  143.5250  156.8212 H   0  0  0  0  0  0  0  0  0  0  0  0
  150.8670  144.6983  157.1927 H   0  0  0  0  0  0  0  0  0  0  0  0
  153.0371  145.2729  158.2789 H   0  0  0  0  0  0  0  0  0  0  0  0
  151.7676  145.0345  159.4558 H   0  0  0  0  0  0  0  0  0  0  0  0
  153.9401  143.0221  158.7041 H   0  0  0  0  0  0  0  0  0  0  0  0
  153.8106  143.8846  160.2170 H   0  0  0  0  0  0  0  0  0  0  0  0
  152.9595  141.5402  160.4259 H   0  0  0  0  0  0  0  0  0  0  0  0
  151.7143  142.7117  160.7775 H   0  0  0  0  0  0  0  0  0  0  0  0
  150.7790  140.9674  159.3652 H   0  0  0  0  0  0  0  0  0  0  0  0
  150.8105  140.3461  156.7219 H   0  0  0  0  0  0  0  0  0  0  0  0
  152.3857  139.6200  156.4486 H   0  0  0  0  0  0  0  0  0  0  0  0
  150.6816  139.2159  158.9767 H   0  0  0  0  0  0  0  0  0  0  0  0
  150.8221  138.0707  157.6643 H   0  0  0  0  0  0  0  0  0  0  0  0
  153.4428  138.5491  158.4048 H   0  0  0  0  0  0  0  0  0  0  0  0
  154.4216  136.3640  159.4976 H   0  0  0  0  0  0  0  0  0  0  0  0
  154.5811  137.7862  160.4725 H   0  0  0  0  0  0  0  0  0  0  0  0
  153.0235  137.7659  162.5358 H   0  0  0  0  0  0  0  0  0  0  0  0
  152.7235  136.5622  164.6918 H   0  0  0  0  0  0  0  0  0  0  0  0
  1  2  1  0  0  0  0
  1 23  1  0  0  0  0
  1 24  1  0  0  0  0
  1 25  1  0  0  0  0
  2  7  1  0  0  0  0
  2  3  1  0  0  0  0
  2 26  1  0  0  0  0
  3  4  1  0  0  0  0
  3 27  1  0  0  0  0
  3 28  1  0  0  0  0
  4  5  1  0  0  0  0
  4 29  1  0  0  0  0
  4 30  1  0  0  0  0
  5  6  1  0  0  0  0
  5 31  1  0  0  0  0
  5 32  1  0  0  0  0
  6  7  1  0  0  0  0
  6 33  1  0  0  0  0
  6 34  1  0  0  0  0
  7  8  1  0  0  0  0
  7 35  1  0  0  0  0
  8  9  1  0  0  0  0
  9 10  1  0  0  0  0
  9 36  1  0  0  0  0
  9 37  1  0  0  0  0
 10 11  1  0  0  0  0
 10 38  1  0  0  0  0
 10 39  1  0  0  0  0
 11 12  1  0  0  0  0
 11 40  1  0  0  0  0
 12 13  2  0  0  0  0
 12 14  1  0  0  0  0
 14 15  1  0  0  0  0
 14 41  1  0  0  0  0
 14 42  1  0  0  0  0
 15 21  1  0  0  0  0
 15 16  1  0  0  0  0
 16 17  2  0  0  0  0
 16 43  1  0  0  0  0
 17 18  1  0  0  0  0
 17 44  1  0  0  0  0
 18 19  2  0  0  0  0
 18 20  1  0  0  0  0
 20 21  1  0  0  0  0
 21 22  2  0  0  0  0
M  CHG  1  20  -1
M  END
> <s_m_source_file>
AV-unprocessed.smi

> <i_m_source_file_index>
1679

> <i_lp_mmshare_version>
43012

> <i_f3d_flags>
0

> <s_epik_input>
W0NIM11bQ0BASF0xW0NIMl1bQ0gyXVtDSDJdW0NIMl1bQ0BIXTFPW0NIMl1bQ0gyXVtOSF1DKD1PKVtDSDJdbjJbY0hdW2NIXWMoPU8pW25IXWMyPU8=

> <s_epik_cmdline>
J2VwaWtfcHl0aG9uJywgJy1waCcsICc3LjAnLCAnLXRuJywgJzgnLCAnLW1hJywgJzIwMCcsICctbWV0YWxfYmluZGluZycsICctaW1hZScsICc8aW5maWxlLm1hZT4nLCAnLW9tYWUnLCAnPG91dGZpbGUubWFlPic=

> <r_lp_tautomer_probability>
0.999537

> <r_epik_Ionization_Penalty>
3.07454

> <r_epik_Ionization_Penalty_Charging>
2.80088e-08

> <r_epik_Ionization_Penalty_Neutral>
3.07454

> <r_epik_State_Penalty>
3.07357

> <r_epik_Charging_Adjusted_Penalty>
3.07357

> <i_epik_Tot_Q>
-1

> <i_epik_Tot_abs_Q>
1

> <r_epik_Metal_State_Penalty>
0.45948

> <b_epik_Metal_Only>
1

> <s_lp_Force_Field>
OPLS_2005

> <r_lp_Energy>
19.9019

> <b_lp_Chiralities_Consistent>
1

> <s_lp_Variant>
AV-unprocessed.smi:1679-7

> <Gold.Version>
5.8.1

> <Gold.Id.Protein>
6NUR|6NUR_protein|mol2

> <Gold.PLP.Fitness>
40.5846

> <Gold.PLP.PLP>
-38.2610

> <Gold.PLP.part.hbond>
-1.3667

> <Gold.PLP.part.metal>
0.0000

> <Gold.PLP.part.buried>
-2.0124

> <Gold.PLP.part.nonpolar>
-34.9589

> <Gold.PLP.part.repulsive>
0.1833

> <Gold.PLP.ligand.clash>
0.0000

> <Gold.PLP.ligand.torsion>
0.4140

> <Gold.PLP.Chemscore.Hbond>
1.0000

> <Gold.PLP.Chemscore.CHOScore>
0.0000

> <Gold.PLP.Chemscore.Metal>
0.0000

> <Gold.Chemscore.Hbonds>
donor molecule, donor type, donor heavy atom, donor atom, acceptor molecule, acceptor atom, score
      P1  H  6896  6909       L1    13  1.00

> <Gold.PLP.Chemscore.Internal.Correction>
0.1515

> <Gold.Rescore>
     Score         DG    S(hbond)    S(metal)    S(lipo)     H(rot)  DE(clash)    DE(int)     intcor
     12.30     -14.29       1.00        0.00     100.30       2.45       0.24       1.75       ----

> <Gold.Chemscore.Fitness>
12.2951

> <Gold.Chemscore.DG>
-14.2850

> <Gold.Chemscore.ZeroCoef>
-5.4800

> <Gold.Chemscore.Hbond>
0.9998

> <Gold.Chemscore.Metal>
0.0000

> <Gold.Chemscore.Lipo>
100.3007

> <Gold.Chemscore.Internal_Hbond>
0.0000

> <Gold.Chemscore.DEClash>
0.2413

> <Gold.Chemscore.DEInternal>
1.7486

> <Gold.Chemscore.Rot>
2.4490

> <Gold.Chemscore.Internal.Correction>
   9.000000E+99

> <Gold.Chemscore.Hbonds>
donor molecule, donor type, donor heavy atom, donor atom, acceptor molecule, acceptor atom, score
      P1  H  6896  6909       L1    13  0.45

> <Gold.Chemscore.Hbond.Weighted>
-3.3392

> <Gold.Chemscore.Metal.Weighted>
-0.0000

> <Gold.Chemscore.Lipo.Weighted>
-11.7352

> <Gold.Chemscore.Internal_Hbond.Weighted>
0.0000

> <Gold.Chemscore.DEClash.Weighted>
0.2413

> <Gold.Chemscore.DEInternal.Weighted>
1.7486

> <Gold.Chemscore.Rot.Weighted>
6.2694

> <Gold.Chemscore.Internal.Correction.Weighted>
   9.000000E+99

> <Gold.Protein.RotatedTorsions>
[ 6907 6896 6895 6894 ] final  122.49 input  -60.11 | X-H torsion
[ 7974 7965 7964 7962 ] final -171.74 input  175.53 | X-H torsion
[ 8008 7997 7996 7995 ] final  -41.20 input   59.86 | X-H torsion
[ 10167 10162 10161 10158 ] final  120.05 input  -65.29 | X-H torsion
[ 10718 10713 10712 10709 ] final  157.62 input   66.30 | X-H torsion
[ 10763 10752 10751 10750 ] final  -62.29 input  -60.55 | X-H torsion
[ 11005 11000 10999 10996 ] final  -19.42 input  -57.11 | X-H torsion

> <Gold.Protein.ActiveResidues>
 VAL166  LYS551  ARG553  GLY616  TRP617  ASP618  TYR619  PRO620  LYS621  CYS622 
 ASP623  PHE694  ASN695  SER759  ASP760  ASP761  ALA762  ILE779  LEU786  VAL792 
 PHE793  MET794  SER795  GLU796  ALA797  LYS798  CYS799  TRP800  GLU811  SER814 

> <Gold.Protein.RotatedAtoms>
  152.4239  133.7162  159.6506 H   0  0  0  0  0  0  0  0  0  0  0  0  # atno 6907 bound_to 6896
  150.8115  133.8403  159.3186 H   0  0  0  0  0  0  0  0  0  0  0  0  # atno 6908 bound_to 6896
  151.6111  135.1042  160.0133 H   0  0  0  0  0  0  0  0  0  0  0  0  # atno 6909 bound_to 6896
  144.7153  140.1877  143.6352 H   0  0  0  0  0  0  0  0  0  0  0  0  # atno 7974 bound_to 7965
  154.4006  140.1505  156.3152 H   0  0  0  0  0  0  0  0  0  0  0  0  # atno 8008 bound_to 7997
  155.8580  140.3455  155.5715 H   0  0  0  0  0  0  0  0  0  0  0  0  # atno 8009 bound_to 7997
  155.7912  140.0857  157.1998 H   0  0  0  0  0  0  0  0  0  0  0  0  # atno 8010 bound_to 7997
  139.6007  144.7055  151.3070 H   0  0  0  0  0  0  0  0  0  0  0  0  # atno 10167 bound_to 10162
  157.1889  131.0650  151.2090 H   0  0  0  0  0  0  0  0  0  0  0  0  # atno 10718 bound_to 10713
  154.2976  135.6241  153.5411 H   0  0  0  0  0  0  0  0  0  0  0  0  # atno 10763 bound_to 10752
  152.9844  135.5670  154.5320 H   0  0  0  0  0  0  0  0  0  0  0  0  # atno 10764 bound_to 10752
  154.4944  135.2869  155.1447 H   0  0  0  0  0  0  0  0  0  0  0  0  # atno 10765 bound_to 10752
  140.8365  133.7958  155.9814 H   0  0  0  0  0  0  0  0  0  0  0  0  # atno 11005 bound_to 11000
  145.8797  139.2316  143.1612 LP  0  0  0  0  0  0  0  0  0  0  0  0  # atno 17320 bound_to 7965
  146.0006  140.8523  143.0020 LP  0  0  0  0  0  0  0  0  0  0  0  0  # atno 17321 bound_to 7965
  140.7247  143.7038  150.7824 LP  0  0  0  0  0  0  0  0  0  0  0  0  # atno 17342 bound_to 10162
  140.0613  143.5152  152.2626 LP  0  0  0  0  0  0  0  0  0  0  0  0  # atno 17343 bound_to 10162
  157.3879  130.7266  149.6677 LP  0  0  0  0  0  0  0  0  0  0  0  0  # atno 17370 bound_to 10713
  155.9714  130.4154  150.4181 LP  0  0  0  0  0  0  0  0  0  0  0  0  # atno 17371 bound_to 10713
  140.8942  134.2458  157.5078 LP  0  0  0  0  0  0  0  0  0  0  0  0  # atno 17394 bound_to 11000
  139.8704  134.9676  156.4602 LP  0  0  0  0  0  0  0  0  0  0  0  0  # atno 17395 bound_to 11000

$$$$
