#       Name:                AV-unprocessed.smi:1269
#       Creating user name   scv26
#       Creation time:       Fri Mar 27 04:46:05 2020


#       File generated by GOLD software.
#

@<TRIPOS>MOLECULE
AV-unprocessed.smi:1269
    51    52     1
SMALL
NO_CHARGES


@<TRIPOS>ATOM
      1 ****        -6.8073   2.4513   1.2939 C.3            1 S1                 0.0000
      2 ****        -5.5874   2.9419   0.7490 O.3            1 S1                 0.0000
      3 ****        -4.4497   2.1748   0.8943 C.ar           1 S1                 0.0000
      4 ****        -3.2417   2.6499   0.3470 C.ar           1 S1                 0.0000
      5 ****        -2.0763   1.8726   0.4871 C.ar           1 S1                 0.0000
      6 ****        -2.1540   0.6395   1.1793 C.ar           1 S1                 0.0000
      7 ****        -1.0630  -0.2507   1.3836 N.am           1 S1                 0.0000
      8 ****         0.2472  -0.0601   1.1525 C.2            1 S1                 0.0000
      9 ****         0.7578   0.9789   0.7369 O.2            1 S1                 0.0000
     10 ****         0.9529  -1.1669   1.4294 N.am           1 S1                 0.0000
     11 ****         2.4046  -1.3151   1.3090 C.3            1 S1                 0.0000
     12 ****         2.9059  -2.2432   2.4239 C.3            1 S1                 0.0000
     13 ****         2.8042  -1.8495  -0.0862 C.3            1 S1                 0.0000
     14 ****         2.3567  -0.9716  -1.1971 N.4            1 S1                 1.0000
     15 ****         3.2187   0.2184  -1.3965 C.3            1 S1                 0.0000
     16 ****         2.6360   1.1138  -2.5022 C.3            1 S1                 0.0000
     17 ****         2.5104   0.3633  -3.7043 O.3            1 S1                 0.0000
     18 ****         1.6295  -0.7433  -3.5536 C.3            1 S1                 0.0000
     19 ****         2.1730  -1.6967  -2.4756 C.3            1 S1                 0.0000
     20 ****        -3.4132   0.2534   1.6849 C.ar           1 S1                 0.0000
     21 ****        -4.5341   0.9928   1.5525 N.ar           1 S1                 0.0000
     22 ****        -7.6043   3.1681   1.0965 H              1 S1                 0.0000
     23 ****        -6.7386   2.3228   2.3751 H              1 S1                 0.0000
     24 ****        -7.0952   1.5032   0.8375 H              1 S1                 0.0000
     25 ****        -3.2102   3.5947  -0.1754 H              1 S1                 0.0000
     26 ****        -1.1610   2.2395   0.0520 H              1 S1                 0.0000
     27 ****        -1.3145  -1.1480   1.7724 H              1 S1                 0.0000
     28 ****         0.4472  -1.9717   1.7703 H              1 S1                 0.0000
     29 ****         2.8777  -0.3456   1.4711 H              1 S1                 0.0000
     30 ****         3.9906  -2.3493   2.3875 H              1 S1                 0.0000
     31 ****         2.4717  -3.2401   2.3389 H              1 S1                 0.0000
     32 ****         2.6485  -1.8508   3.4083 H              1 S1                 0.0000
     33 ****         3.8833  -1.9974  -0.1498 H              1 S1                 0.0000
     34 ****         2.3565  -2.8368  -0.2102 H              1 S1                 0.0000
     35 ****         3.2996   0.7897  -0.4722 H              1 S1                 0.0000
     36 ****         4.2275  -0.0982  -1.6656 H              1 S1                 0.0000
     37 ****         1.6662   1.5174  -2.2061 H              1 S1                 0.0000
     38 ****         3.2934   1.9642  -2.6833 H              1 S1                 0.0000
     39 ****         0.6289  -0.3930  -3.2943 H              1 S1                 0.0000
     40 ****         1.5476  -1.2628  -4.5085 H              1 S1                 0.0000
     41 ****         3.1244  -2.1245  -2.7955 H              1 S1                 0.0000
     42 ****         1.4770  -2.5248  -2.3368 H              1 S1                 0.0000
     43 ****        -3.5276  -0.6814   2.2141 H              1 S1                 0.0000
     44 ****         1.4431  -0.6288  -0.9352 H              1 S1                 0.0000
     45 ****        -5.4053   3.8258   1.1798 LP             1 S1                 0.0000
     46 ****        -5.7329   3.0727  -0.2317 LP             1 S1                 0.0000
     47 ****         0.1843   1.7745   0.5415 LP             1 S1                 0.0000
     48 ****         1.7463   1.0280   0.5945 LP             1 S1                 0.0000
     49 ****         3.4130   0.0235  -3.9682 LP             1 S1                 0.0000
     50 ****         2.1564   0.9619  -4.4228 LP             1 S1                 0.0000
     51 ****        -5.4046   0.6770   1.9302 LP             1 S1                 0.0000
@<TRIPOS>BOND
    1    1    2 1     
    2    1   22 1     
    3    1   23 1     
    4    1   24 1     
    5    2    3 1     
    6    3   21 ar    
    7    3    4 ar    
    8    4    5 ar    
    9    4   25 1     
   10    5    6 ar    
   11    5   26 1     
   12    6    7 1     
   13    6   20 ar    
   14    7    8 am    
   15    7   27 1     
   16    8    9 2     
   17    8   10 am    
   18   10   11 1     
   19   10   28 1     
   20   11   12 1     
   21   11   13 1     
   22   11   29 1     
   23   12   30 1     
   24   12   31 1     
   25   12   32 1     
   26   13   14 1     
   27   13   33 1     
   28   13   34 1     
   29   14   19 1     
   30   14   15 1     
   31   14   44 1     
   32   15   16 1     
   33   15   35 1     
   34   15   36 1     
   35   16   17 1     
   36   16   37 1     
   37   16   38 1     
   38   17   18 1     
   39   18   19 1     
   40   18   39 1     
   41   18   40 1     
   42   19   41 1     
   43   19   42 1     
   44   20   21 ar    
   45   20   43 1     
   46    2   45 1     
   47    2   46 1     
   48    9   47 1     
   49    9   48 1     
   50   17   49 1     
   51   17   50 1     
   52   21   51 1     
@<TRIPOS>SUBSTRUCTURE
      1 S1             1
@<TRIPOS>SET
LONE_PAIRS      STATIC     ATOMS    <user>   **** ""
7 45 46 47 48 49 50 51
DONOR_HYDROGENS      STATIC     ATOMS    <user>   **** ""
3 27 28 44
ATOM$BLUE        STATIC     ATOMS    COLORGROUP SYSTEM
7 45 46 47 48 49 50 51
ATOM$RED        STATIC     ATOMS    COLORGROUP SYSTEM
3 27 28 44
