AV-unprocessed.smi:2217|AV-procd|sdf|8968|dock5
  -GOLD-   2272012183D 1   1.00000     0.00000
 Structure written by MMmdl.
 45 48  0  0  0  0  0  0  0  0  1 V2000
  151.4043  129.9328  155.5278 C   0  0  0  0  0  0  0  0  0  0  0  0
  150.9548  131.3464  155.2226 C   0  0  0  0  0  0  0  0  0  0  0  0
  150.0956  131.6176  154.1416 C   0  0  0  0  0  0  0  0  0  0  0  0
  149.7049  132.9491  153.9026 C   0  0  0  0  0  0  0  0  0  0  0  0
  150.1790  133.9796  154.7455 C   0  0  0  0  0  0  0  0  0  0  0  0
  149.7089  135.2827  154.4054 N   0  0  0  0  0  0  0  0  0  0  0  0
  149.4280  136.3602  155.1692 C   0  0  0  0  0  0  0  0  0  0  0  0
  149.5685  136.3263  156.3904 O   0  0  0  0  0  0  0  0  0  0  0  0
  148.9966  137.4518  154.5195 N   0  0  0  0  0  0  0  0  0  0  0  0
  148.7123  138.7392  155.1396 C   0  0  2  0  0  0  0  0  0  0  0  0
  148.1909  139.7668  154.1354 C   0  0  1  0  0  0  0  0  0  0  0  0
  146.8860  140.4493  153.9299 C   0  0  0  0  0  0  0  0  0  0  0  0
  147.4222  141.8959  153.7680 C   0  0  0  0  0  0  0  0  0  0  0  0
  148.8190  141.8468  154.1461 O   0  0  0  0  0  0  0  0  0  0  0  0
  148.8899  140.7579  155.0444 C   0  0  2  0  0  0  0  0  0  0  0  0
  149.9728  139.6793  155.2515 C   0  0  0  0  0  0  0  0  0  0  0  0
  150.7084  139.6833  156.5988 C   0  0  0  0  0  0  0  0  0  0  0  0
  152.2146  139.6280  156.3326 C   0  0  0  0  0  0  0  0  0  0  0  0
  152.3387  139.0452  154.9323 C   0  0  0  0  0  0  0  0  0  0  0  0
  151.1063  139.5776  154.2091 C   0  0  0  0  0  0  0  0  0  0  0  0
  151.0041  133.7042  155.7879 N   0  0  0  0  0  0  0  0  0  0  0  0
  151.3790  132.4282  156.0172 C   0  0  0  0  0  0  0  0  0  0  0  0
  151.4012  129.3200  154.6259 H   0  0  0  0  0  0  0  0  0  0  0  0
  150.7360  129.4756  156.2576 H   0  0  0  0  0  0  0  0  0  0  0  0
  152.4151  129.9285  155.9366 H   0  0  0  0  0  0  0  0  0  0  0  0
  149.7393  130.8214  153.5042 H   0  0  0  0  0  0  0  0  0  0  0  0
  149.0450  133.1723  153.0766 H   0  0  0  0  0  0  0  0  0  0  0  0
  149.5134  135.4091  153.4232 H   0  0  0  0  0  0  0  0  0  0  0  0
  148.9025  137.3961  153.5148 H   0  0  0  0  0  0  0  0  0  0  0  0
  148.1098  138.6767  156.0508 H   0  0  0  0  0  0  0  0  0  0  0  0
  148.6984  139.6515  153.1725 H   0  0  0  0  0  0  0  0  0  0  0  0
  146.3581  140.0964  153.0435 H   0  0  0  0  0  0  0  0  0  0  0  0
  146.2327  140.3505  154.7978 H   0  0  0  0  0  0  0  0  0  0  0  0
  147.3345  142.2507  152.7408 H   0  0  0  0  0  0  0  0  0  0  0  0
  146.8771  142.5862  154.4132 H   0  0  0  0  0  0  0  0  0  0  0  0
  148.3422  140.9806  155.9674 H   0  0  0  0  0  0  0  0  0  0  0  0
  150.4591  140.5592  157.1983 H   0  0  0  0  0  0  0  0  0  0  0  0
  150.4157  138.8145  157.1886 H   0  0  0  0  0  0  0  0  0  0  0  0
  152.6232  140.6394  156.3420 H   0  0  0  0  0  0  0  0  0  0  0  0
  152.7534  139.0451  157.0802 H   0  0  0  0  0  0  0  0  0  0  0  0
  153.2715  139.3198  154.4397 H   0  0  0  0  0  0  0  0  0  0  0  0
  152.2922  137.9564  154.9815 H   0  0  0  0  0  0  0  0  0  0  0  0
  150.8621  138.9451  153.3554 H   0  0  0  0  0  0  0  0  0  0  0  0
  151.3274  140.5675  153.8077 H   0  0  0  0  0  0  0  0  0  0  0  0
  152.0358  132.2690  156.8600 H   0  0  0  0  0  0  0  0  0  0  0  0
  1  2  1  0  0  0  0
  1 23  1  0  0  0  0
  1 24  1  0  0  0  0
  1 25  1  0  0  0  0
  2 22  1  0  0  0  0
  2  3  2  0  0  0  0
  3  4  1  0  0  0  0
  3 26  1  0  0  0  0
  4  5  2  0  0  0  0
  4 27  1  0  0  0  0
  5  6  1  0  0  0  0
  5 21  1  0  0  0  0
  6  7  1  0  0  0  0
  6 28  1  0  0  0  0
  7  8  2  0  0  0  0
  7  9  1  0  0  0  0
  9 10  1  0  0  0  0
  9 29  1  0  0  0  0
 10 16  1  0  0  0  0
 10 11  1  0  0  0  0
 10 30  1  0  0  0  0
 11 15  1  0  0  0  0
 11 12  1  0  0  0  0
 11 31  1  0  0  0  0
 12 13  1  0  0  0  0
 12 32  1  0  0  0  0
 12 33  1  0  0  0  0
 13 14  1  0  0  0  0
 13 34  1  0  0  0  0
 13 35  1  0  0  0  0
 14 15  1  0  0  0  0
 15 16  1  0  0  0  0
 15 36  1  0  0  0  0
 16 20  1  0  0  0  0
 16 17  1  0  0  0  0
 17 18  1  0  0  0  0
 17 37  1  0  0  0  0
 17 38  1  0  0  0  0
 18 19  1  0  0  0  0
 18 39  1  0  0  0  0
 18 40  1  0  0  0  0
 19 20  1  0  0  0  0
 19 41  1  0  0  0  0
 19 42  1  0  0  0  0
 20 43  1  0  0  0  0
 20 44  1  0  0  0  0
 21 22  2  0  0  0  0
 22 45  1  0  0  0  0
M  END
> <s_m_source_file>
AV-unprocessed.smi

> <i_m_source_file_index>
2217

> <i_lp_mmshare_version>
43012

> <i_f3d_flags>
0

> <s_epik_input>
W0NIM11jMVtjSF1bY0hdYyhuW2NIXTEpW05IXUMoPU8pW05IXVtDQEBIXTJbQ0BASF0oW0NIMl1bQ0gyXU8zKVtDQEhdM0MyNFtDSDJdW0NIMl1bQ0gyXVtDSDJdNA==

> <s_epik_cmdline>
J2VwaWtfcHl0aG9uJywgJy1waCcsICc3LjAnLCAnLXRuJywgJzgnLCAnLW1hJywgJzIwMCcsICctbWV0YWxfYmluZGluZycsICctaW1hZScsICc8aW5maWxlLm1hZT4nLCAnLW9tYWUnLCAnPG91dGZpbGUubWFlPic=

> <r_lp_tautomer_probability>
1

> <r_epik_Ionization_Penalty>
6.14796e-05

> <r_epik_Ionization_Penalty_Charging>
0

> <r_epik_Ionization_Penalty_Neutral>
6.14796e-05

> <r_epik_State_Penalty>
-0

> <r_epik_Charging_Adjusted_Penalty>
0

> <i_epik_Tot_Q>
0

> <i_epik_Tot_abs_Q>
0

> <r_epik_Metal_State_Penalty>
-0

> <b_epik_Metal_Only>
0

> <s_lp_Force_Field>
OPLS_2005

> <r_lp_Energy>
79.4862

> <b_lp_Chiralities_Consistent>
1

> <s_lp_Variant>
AV-unprocessed.smi:2217-1

> <Gold.Version>
5.8.1

> <Gold.Id.Protein>
6NUR|6NUR_protein|mol2

> <Gold.PLP.Fitness>
40.7421

> <Gold.PLP.PLP>
-34.0091

> <Gold.PLP.part.hbond>
-3.0000

> <Gold.PLP.part.metal>
0.0000

> <Gold.PLP.part.buried>
-2.3866

> <Gold.PLP.part.nonpolar>
-28.5753

> <Gold.PLP.part.repulsive>
0.2423

> <Gold.PLP.ligand.clash>
0.0000

> <Gold.PLP.ligand.torsion>
0.3980

> <Gold.PLP.Chemscore.Hbond>
2.4159

> <Gold.PLP.Chemscore.CHOScore>
0.0000

> <Gold.PLP.Chemscore.Metal>
0.0000

> <Gold.Chemscore.Hbonds>
donor molecule, donor type, donor heavy atom, donor atom, acceptor molecule, acceptor atom, score
      L1  H     6    28       P1  7948  0.70
      L1  H     9    29       P1  7948  0.94
      P1  H  8011  8017       L1    14  0.36

> <Gold.PLP.Chemscore.Internal.Correction>
0.2814

> <Gold.Rescore>
     Score         DG    S(hbond)    S(metal)    S(lipo)     H(rot)  DE(clash)    DE(int)     intcor
     16.20     -18.09       1.56        0.00      85.16       1.00       1.38       0.50       ----

> <Gold.Chemscore.Fitness>
16.1988

> <Gold.Chemscore.DG>
-18.0867

> <Gold.Chemscore.ZeroCoef>
-5.4800

> <Gold.Chemscore.Hbond>
1.5577

> <Gold.Chemscore.Metal>
0.0000

> <Gold.Chemscore.Lipo>
85.1611

> <Gold.Chemscore.Internal_Hbond>
0.0000

> <Gold.Chemscore.DEClash>
1.3835

> <Gold.Chemscore.DEInternal>
0.5044

> <Gold.Chemscore.Rot>
1.0000

> <Gold.Chemscore.Internal.Correction>
   9.000000E+99

> <Gold.Chemscore.Hbonds>
donor molecule, donor type, donor heavy atom, donor atom, acceptor molecule, acceptor atom, score
      L1  H     6    28       P1  7948  0.07
      L1  H     9    29       P1  7948  0.88
      P1  H  8011  8017       L1    14  0.12

> <Gold.Chemscore.Hbond.Weighted>
-5.2028

> <Gold.Chemscore.Metal.Weighted>
-0.0000

> <Gold.Chemscore.Lipo.Weighted>
-9.9639

> <Gold.Chemscore.Internal_Hbond.Weighted>
0.0000

> <Gold.Chemscore.DEClash.Weighted>
1.3835

> <Gold.Chemscore.DEInternal.Weighted>
0.5044

> <Gold.Chemscore.Rot.Weighted>
2.5600

> <Gold.Chemscore.Internal.Correction.Weighted>
   9.000000E+99

> <Gold.Protein.RotatedTorsions>
[ 6907 6896 6895 6894 ] final  -56.83 input  -60.11 | X-H torsion
[ 7974 7965 7964 7962 ] final -113.02 input  175.53 | X-H torsion
[ 8008 7997 7996 7995 ] final  161.91 input   59.86 | X-H torsion
[ 10167 10162 10161 10158 ] final  -92.02 input  -65.29 | X-H torsion
[ 10718 10713 10712 10709 ] final   74.48 input   66.30 | X-H torsion
[ 10763 10752 10751 10750 ] final -157.47 input  -60.55 | X-H torsion
[ 11005 11000 10999 10996 ] final -154.34 input  -57.11 | X-H torsion

> <Gold.Protein.ActiveResidues>
 VAL166  LYS551  ARG553  GLY616  TRP617  ASP618  TYR619  PRO620  LYS621  CYS622 
 ASP623  PHE694  ASN695  SER759  ASP760  ASP761  ALA762  ILE779  LEU786  VAL792 
 PHE793  MET794  SER795  GLU796  ALA797  LYS798  CYS799  TRP800  GLU811  SER814 

> <Gold.Protein.RotatedAtoms>
  150.8136  134.7304  159.6709 H   0  0  0  0  0  0  0  0  0  0  0  0  # atno 6907 bound_to 6896
  152.4255  134.5873  159.9974 H   0  0  0  0  0  0  0  0  0  0  0  0  # atno 6908 bound_to 6896
  151.6076  133.3313  159.3096 H   0  0  0  0  0  0  0  0  0  0  0  0  # atno 6909 bound_to 6896
  145.1370  140.8757  143.3724 H   0  0  0  0  0  0  0  0  0  0  0  0  # atno 7974 bound_to 7965
  156.2069  140.1764  156.7780 H   0  0  0  0  0  0  0  0  0  0  0  0  # atno 8008 bound_to 7997
  154.5667  140.0689  156.8933 H   0  0  0  0  0  0  0  0  0  0  0  0  # atno 8009 bound_to 7997
  155.2747  140.3345  155.4265 H   0  0  0  0  0  0  0  0  0  0  0  0  # atno 8010 bound_to 7997
  140.3390  143.2953  151.9857 H   0  0  0  0  0  0  0  0  0  0  0  0  # atno 10167 bound_to 10162
  157.6594  130.9679  150.1216 H   0  0  0  0  0  0  0  0  0  0  0  0  # atno 10718 bound_to 10713
  154.7633  135.3124  154.8335 H   0  0  0  0  0  0  0  0  0  0  0  0  # atno 10763 bound_to 10752
  153.9090  135.6808  153.4756 H   0  0  0  0  0  0  0  0  0  0  0  0  # atno 10764 bound_to 10752
  153.1236  135.4811  154.9168 H   0  0  0  0  0  0  0  0  0  0  0  0  # atno 10765 bound_to 10752
  140.6984  134.3964  157.5212 H   0  0  0  0  0  0  0  0  0  0  0  0  # atno 11005 bound_to 11000
  145.0573  139.3133  143.5898 LP  0  0  0  0  0  0  0  0  0  0  0  0  # atno 17320 bound_to 7965
  146.3509  140.0003  142.8677 LP  0  0  0  0  0  0  0  0  0  0  0  0  # atno 17321 bound_to 7965
  139.4843  144.6173  151.7323 LP  0  0  0  0  0  0  0  0  0  0  0  0  # atno 17342 bound_to 10162
  140.5327  144.0705  150.6059 LP  0  0  0  0  0  0  0  0  0  0  0  0  # atno 17343 bound_to 10162
  156.2086  130.3665  149.8698 LP  0  0  0  0  0  0  0  0  0  0  0  0  # atno 17370 bound_to 10713
  156.6583  130.8771  151.3543 LP  0  0  0  0  0  0  0  0  0  0  0  0  # atno 17371 bound_to 10713
  139.8903  134.8807  156.2374 LP  0  0  0  0  0  0  0  0  0  0  0  0  # atno 17394 bound_to 11000
  141.0184  133.7055  156.1227 LP  0  0  0  0  0  0  0  0  0  0  0  0  # atno 17395 bound_to 11000

$$$$
