#       Name:                AV-unprocessed.smi:1473
#       Creating user name   scv26
#       Creation time:       Fri Mar 27 06:05:32 2020


#       File generated by GOLD software.
#

@<TRIPOS>MOLECULE
AV-unprocessed.smi:1473
    39    40     1
SMALL
NO_CHARGES


@<TRIPOS>ATOM
      1 ****        -3.8164   4.3256  -1.3230 N.3            1 S1                 0.0000
      2 ****        -2.1101   4.4884  -1.4475 S.o2           1 S1                 0.0000
      3 ****        -1.7540   4.7064  -2.8576 O.2            1 S1                 0.0000
      4 ****        -1.6395   5.3910  -0.3863 O.2            1 S1                 0.0000
      5 ****        -1.6645   2.8824  -1.0215 N.pl3          1 S1                 0.0000
      6 ****        -0.2594   2.4863  -1.0358 C.3            1 S1                 0.0000
      7 ****        -0.0921   0.9842  -1.1297 C.ar           1 S1                 0.0000
      8 ****        -0.3761   0.3077  -2.3316 C.ar           1 S1                 0.0000
      9 ****        -0.2199  -1.0903  -2.3619 C.ar           1 S1                 0.0000
     10 ****         0.1894  -1.8118  -1.2974 N.ar           1 S1                 0.0000
     11 ****         0.4702  -1.1698  -0.1358 C.ar           1 S1                 0.0000
     12 ****         0.8983  -1.9397   0.9678 N.3            1 S1                 0.0000
     13 ****         0.7865  -3.3944   0.8753 C.3            1 S1                 0.0000
     14 ****         1.0136  -4.0383   2.2536 C.3            1 S1                 0.0000
     15 ****         2.2679  -3.6167   2.7784 O.3            1 S1                 0.0000
     16 ****         2.3159  -2.2059   2.9642 C.3            1 S1                 0.0000
     17 ****         2.1311  -1.4941   1.6128 C.3            1 S1                 0.0000
     18 ****         0.3343   0.2343  -0.0147 C.ar           1 S1                 0.0000
     19 ****        -4.2849   4.4550  -2.2194 H              1 S1                 0.0000
     20 ****        -4.2061   4.8946  -0.5718 H              1 S1                 0.0000
     21 ****        -2.3236   2.1613  -1.3138 H              1 S1                 0.0000
     22 ****         0.2341   2.9447  -1.8935 H              1 S1                 0.0000
     23 ****         0.2313   2.8750  -0.1428 H              1 S1                 0.0000
     24 ****        -0.7094   0.8445  -3.2078 H              1 S1                 0.0000
     25 ****        -0.4307  -1.6447  -3.2643 H              1 S1                 0.0000
     26 ****        -0.1998  -3.6756   0.5039 H              1 S1                 0.0000
     27 ****         1.5233  -3.7683   0.1632 H              1 S1                 0.0000
     28 ****         0.2107  -3.7742   2.9438 H              1 S1                 0.0000
     29 ****         1.0122  -5.1248   2.1651 H              1 S1                 0.0000
     30 ****         1.5475  -1.8957   3.6743 H              1 S1                 0.0000
     31 ****         3.2781  -1.9376   3.4006 H              1 S1                 0.0000
     32 ****         2.9724  -1.7178   0.9555 H              1 S1                 0.0000
     33 ****         2.1360  -0.4177   1.7778 H              1 S1                 0.0000
     34 ****         0.5350   0.7358   0.9203 H              1 S1                 0.0000
     35 ****        -4.0003   3.3780  -1.0618 LP             1 S1                 0.0000
     36 ****         0.2843  -2.8051  -1.3639 LP             1 S1                 0.0000
     37 ****         0.1635  -1.7104   1.6062 LP             1 S1                 0.0000
     38 ****         2.9914  -3.8842   2.1421 LP             1 S1                 0.0000
     39 ****         2.4169  -4.0646   3.6600 LP             1 S1                 0.0000
@<TRIPOS>BOND
    1    1    2 1     
    2    1   19 1     
    3    1   20 1     
    4    2    3 2     
    5    2    4 2     
    6    2    5 1     
    7    5    6 1     
    8    5   21 1     
    9    6    7 1     
   10    6   22 1     
   11    6   23 1     
   12    7   18 ar    
   13    7    8 ar    
   14    8    9 ar    
   15    8   24 1     
   16    9   10 ar    
   17    9   25 1     
   18   10   11 ar    
   19   11   12 1     
   20   11   18 ar    
   21   12   17 1     
   22   12   13 1     
   23   13   14 1     
   24   13   26 1     
   25   13   27 1     
   26   14   15 1     
   27   14   28 1     
   28   14   29 1     
   29   15   16 1     
   30   16   17 1     
   31   16   30 1     
   32   16   31 1     
   33   17   32 1     
   34   17   33 1     
   35   18   34 1     
   36    1   35 1     
   37   10   36 1     
   38   12   37 1     
   39   15   38 1     
   40   15   39 1     
@<TRIPOS>SUBSTRUCTURE
      1 S1             1
@<TRIPOS>SET
LONE_PAIRS      STATIC     ATOMS    <user>   **** ""
7 35 3 4 36 37 38 39
DONOR_HYDROGENS      STATIC     ATOMS    <user>   **** ""
3 19 20 21
ATOM$BLUE        STATIC     ATOMS    COLORGROUP SYSTEM
7 35 3 4 36 37 38 39
ATOM$RED        STATIC     ATOMS    COLORGROUP SYSTEM
3 19 20 21
