AV-unprocessed.smi:2261|AV-procd|sdf|9136|dock8
  -GOLD-   2272012343D 1   1.00000     0.00000
 Structure written by MMmdl.
 41 42  0  0  0  0  0  0  0  0  1 V2000
  148.6734  136.0739  158.3241 C   0  0  0  0  0  0  0  0  0  0  0  0
  148.4318  134.6382  157.8336 C   0  0  0  0  0  0  0  0  0  0  0  0
  147.7431  133.7925  158.9184 C   0  0  0  0  0  0  0  0  0  0  0  0
  147.6670  134.5988  156.5048 C   0  0  0  0  0  0  0  0  0  0  0  0
  148.2909  133.4228  155.7796 C   0  0  1  0  0  0  0  0  0  0  0  0
  148.1224  133.5379  154.3327 N   0  0  0  0  0  0  0  0  0  0  0  0
  147.3478  132.7469  153.5754 C   0  0  0  0  0  0  0  0  0  0  0  0
  146.6733  131.8211  154.0251 O   0  0  0  0  0  0  0  0  0  0  0  0
  147.3289  133.0484  152.0771 C   0  0  0  0  0  0  0  0  0  0  0  0
  145.9278  132.8673  151.5228 C   0  0  0  0  0  0  0  0  0  0  0  0
  144.8308  133.5547  152.0827 C   0  0  0  0  0  0  0  0  0  0  0  0
  143.5505  133.3504  151.5337 C   0  0  0  0  0  0  0  0  0  0  0  0
  143.4211  132.4654  150.4446 C   0  0  0  0  0  0  0  0  0  0  0  0
  144.4638  131.8025  149.8997 N   0  0  0  0  0  0  0  0  0  0  0  0
  145.6883  132.0033  150.4327 C   0  0  0  0  0  0  0  0  0  0  0  0
  149.7614  133.4861  156.2486 C   0  0  0  0  0  0  0  0  0  0  0  0
  150.4032  132.0936  156.3540 C   0  0  0  0  0  0  0  0  0  0  0  0
  150.6525  134.4364  155.4214 C   0  0  0  0  0  0  0  0  0  0  0  0
  149.6960  134.0341  157.5642 O   0  0  0  0  0  0  0  0  0  0  0  0
  147.7319  136.5859  158.5245 H   0  0  0  0  0  0  0  0  0  0  0  0
  149.2195  136.6585  157.5830 H   0  0  0  0  0  0  0  0  0  0  0  0
  149.2599  136.0829  159.2433 H   0  0  0  0  0  0  0  0  0  0  0  0
  146.7604  134.1940  159.1675 H   0  0  0  0  0  0  0  0  0  0  0  0
  148.3340  133.7719  159.8348 H   0  0  0  0  0  0  0  0  0  0  0  0
  147.6068  132.7604  158.5945 H   0  0  0  0  0  0  0  0  0  0  0  0
  146.5889  134.4937  156.6323 H   0  0  0  0  0  0  0  0  0  0  0  0
  147.8400  135.5176  155.9419 H   0  0  0  0  0  0  0  0  0  0  0  0
  147.8172  132.5095  156.1452 H   0  0  0  0  0  0  0  0  0  0  0  0
  148.6386  134.2737  153.8731 H   0  0  0  0  0  0  0  0  0  0  0  0
  147.6767  134.0657  151.8913 H   0  0  0  0  0  0  0  0  0  0  0  0
  148.0201  132.3807  151.5610 H   0  0  0  0  0  0  0  0  0  0  0  0
  144.9658  134.2246  152.9193 H   0  0  0  0  0  0  0  0  0  0  0  0
  142.6877  133.8590  151.9374 H   0  0  0  0  0  0  0  0  0  0  0  0
  142.4539  132.2856  149.9992 H   0  0  0  0  0  0  0  0  0  0  0  0
  146.5008  131.4569  149.9763 H   0  0  0  0  0  0  0  0  0  0  0  0
  150.4924  131.6226  155.3750 H   0  0  0  0  0  0  0  0  0  0  0  0
  149.8124  131.4328  156.9892 H   0  0  0  0  0  0  0  0  0  0  0  0
  151.4033  132.1534  156.7838 H   0  0  0  0  0  0  0  0  0  0  0  0
  150.7967  134.0689  154.4049 H   0  0  0  0  0  0  0  0  0  0  0  0
  151.6398  134.5354  155.8731 H   0  0  0  0  0  0  0  0  0  0  0  0
  150.2235  135.4366  155.3569 H   0  0  0  0  0  0  0  0  0  0  0  0
  1  2  1  0  0  0  0
  1 20  1  0  0  0  0
  1 21  1  0  0  0  0
  1 22  1  0  0  0  0
  2 19  1  0  0  0  0
  2  3  1  0  0  0  0
  2  4  1  0  0  0  0
  3 23  1  0  0  0  0
  3 24  1  0  0  0  0
  3 25  1  0  0  0  0
  4  5  1  0  0  0  0
  4 26  1  0  0  0  0
  4 27  1  0  0  0  0
  5  6  1  0  0  0  0
  5 16  1  0  0  0  0
  5 28  1  0  0  0  0
  6  7  1  0  0  0  0
  6 29  1  0  0  0  0
  7  8  2  0  0  0  0
  7  9  1  0  0  0  0
  9 10  1  0  0  0  0
  9 30  1  0  0  0  0
  9 31  1  0  0  0  0
 10 15  1  0  0  0  0
 10 11  2  0  0  0  0
 11 12  1  0  0  0  0
 11 32  1  0  0  0  0
 12 13  2  0  0  0  0
 12 33  1  0  0  0  0
 13 14  1  0  0  0  0
 13 34  1  0  0  0  0
 14 15  2  0  0  0  0
 15 35  1  0  0  0  0
 16 17  1  0  0  0  0
 16 18  1  0  0  0  0
 16 19  1  0  0  0  0
 17 36  1  0  0  0  0
 17 37  1  0  0  0  0
 17 38  1  0  0  0  0
 18 39  1  0  0  0  0
 18 40  1  0  0  0  0
 18 41  1  0  0  0  0
M  END
> <s_m_source_file>
AV-unprocessed.smi

> <i_m_source_file_index>
2261

> <i_lp_mmshare_version>
43012

> <i_f3d_flags>
0

> <s_epik_input>
W0NIM11DMShbQ0gzXSlbQ0gyXVtDQEhdKEMoTzEpKFtDSDNdKVtDSDNdKVtOSF1DKD1PKVtDSDJdYzJbY0hdW2NIXVtjSF1uW2NIXTI=

> <s_epik_cmdline>
J2VwaWtfcHl0aG9uJywgJy1waCcsICc3LjAnLCAnLXRuJywgJzgnLCAnLW1hJywgJzIwMCcsICctbWV0YWxfYmluZGluZycsICctaW1hZScsICc8aW5maWxlLm1hZT4nLCAnLW9tYWUnLCAnPG91dGZpbGUubWFlPic=

> <r_epik_Ionization_Penalty>
0.00420617

> <r_epik_Ionization_Penalty_Charging>
0

> <r_epik_Ionization_Penalty_Neutral>
0.00420617

> <r_epik_State_Penalty>
0.0030219

> <r_epik_Charging_Adjusted_Penalty>
0.0030219

> <i_epik_Tot_Q>
0

> <i_epik_Tot_abs_Q>
0

> <r_epik_Metal_State_Penalty>
-0

> <b_epik_Metal_Only>
0

> <s_lp_Force_Field>
OPLS_2005

> <r_lp_Energy>
17.0757

> <b_lp_Chiralities_Consistent>
1

> <s_lp_Variant>
AV-unprocessed.smi:2261-1

> <Gold.Version>
5.8.1

> <Gold.Id.Protein>
6NUR|6NUR_protein|mol2

> <Gold.PLP.Fitness>
35.5092

> <Gold.PLP.PLP>
-25.7410

> <Gold.PLP.part.hbond>
-1.8148

> <Gold.PLP.part.metal>
0.0000

> <Gold.PLP.part.buried>
-4.7656

> <Gold.PLP.part.nonpolar>
-20.5505

> <Gold.PLP.part.repulsive>
0.2664

> <Gold.PLP.ligand.clash>
0.0000

> <Gold.PLP.ligand.torsion>
0.4383

> <Gold.PLP.Chemscore.Hbond>
1.0751

> <Gold.PLP.Chemscore.CHOScore>
2.4689

> <Gold.PLP.Chemscore.Metal>
0.0000

> <Gold.Chemscore.Hbonds>
donor molecule, donor type, donor heavy atom, donor atom, acceptor molecule, acceptor atom, score
      P1  H  6896  6909       L1    19  0.99
      P1  H 10785 10796       L1    14  0.07
      L1  C    13    34       P1 10186  0.58
      L1  C    13    34       P1 10952  0.92
      L1  C    15    35       P1 10747  0.95

> <Gold.PLP.Chemscore.Internal.Correction>
0.0129

> <Gold.Rescore>
     Score         DG    S(hbond)    S(metal)    S(lipo)     H(rot)  DE(clash)    DE(int)     intcor
     13.07     -13.52       0.99        0.00      68.63       1.28       0.04       0.41       ----

> <Gold.Chemscore.Fitness>
13.0741

> <Gold.Chemscore.DG>
-13.5151

> <Gold.Chemscore.ZeroCoef>
-5.4800

> <Gold.Chemscore.Hbond>
0.9859

> <Gold.Chemscore.Metal>
0.0000

> <Gold.Chemscore.Lipo>
68.6288

> <Gold.Chemscore.Internal_Hbond>
0.0000

> <Gold.Chemscore.DEClash>
0.0354

> <Gold.Chemscore.DEInternal>
0.4056

> <Gold.Chemscore.Rot>
1.2842

> <Gold.Chemscore.Internal.Correction>
   9.000000E+99

> <Gold.Chemscore.Hbonds>
donor molecule, donor type, donor heavy atom, donor atom, acceptor molecule, acceptor atom, score
      P1  H  6896  6909       L1    19  0.74
      P1  H 10785 10796       L1    14  0.02

> <Gold.Chemscore.Hbond.Weighted>
-3.2930

> <Gold.Chemscore.Metal.Weighted>
-0.0000

> <Gold.Chemscore.Lipo.Weighted>
-8.0296

> <Gold.Chemscore.Internal_Hbond.Weighted>
0.0000

> <Gold.Chemscore.DEClash.Weighted>
0.0354

> <Gold.Chemscore.DEInternal.Weighted>
0.4056

> <Gold.Chemscore.Rot.Weighted>
3.2875

> <Gold.Chemscore.Internal.Correction.Weighted>
   9.000000E+99

> <Gold.Protein.RotatedTorsions>
[ 6907 6896 6895 6894 ] final   -0.91 input  -60.11 | X-H torsion
[ 7974 7965 7964 7962 ] final   60.89 input  175.53 | X-H torsion
[ 8008 7997 7996 7995 ] final  112.79 input   59.86 | X-H torsion
[ 10167 10162 10161 10158 ] final  -45.48 input  -65.29 | X-H torsion
[ 10718 10713 10712 10709 ] final   78.73 input   66.30 | X-H torsion
[ 10763 10752 10751 10750 ] final   -1.33 input  -60.55 | X-H torsion
[ 11005 11000 10999 10996 ] final  -62.80 input  -57.11 | X-H torsion

> <Gold.Protein.ActiveResidues>
 VAL166  LYS551  ARG553  GLY616  TRP617  ASP618  TYR619  PRO620  LYS621  CYS622 
 ASP623  PHE694  ASN695  SER759  ASP760  ASP761  ALA762  ILE779  LEU786  VAL792 
 PHE793  MET794  SER795  GLU796  ALA797  LYS798  CYS799  TRP800  GLU811  SER814 

> <Gold.Protein.RotatedAtoms>
  151.5547  135.1067  159.9957 H   0  0  0  0  0  0  0  0  0  0  0  0  # atno 6907 bound_to 6896
  152.4475  133.7560  159.6731 H   0  0  0  0  0  0  0  0  0  0  0  0  # atno 6908 bound_to 6896
  150.8394  133.7893  159.3091 H   0  0  0  0  0  0  0  0  0  0  0  0  # atno 6909 bound_to 6896
  145.8909  139.3510  143.0650 H   0  0  0  0  0  0  0  0  0  0  0  0  # atno 7974 bound_to 7965
  156.2216  140.2992  155.9965 H   0  0  0  0  0  0  0  0  0  0  0  0  # atno 8008 bound_to 7997
  155.2467  140.0424  157.2999 H   0  0  0  0  0  0  0  0  0  0  0  0  # atno 8009 bound_to 7997
  154.5849  140.2385  155.8009 H   0  0  0  0  0  0  0  0  0  0  0  0  # atno 8010 bound_to 7997
  140.6856  143.2877  151.3645 H   0  0  0  0  0  0  0  0  0  0  0  0  # atno 10167 bound_to 10162
  157.6754  130.9881  150.1828 H   0  0  0  0  0  0  0  0  0  0  0  0  # atno 10718 bound_to 10713
  153.3435  135.6982  153.6848 H   0  0  0  0  0  0  0  0  0  0  0  0  # atno 10763 bound_to 10752
  153.5603  135.3536  155.2797 H   0  0  0  0  0  0  0  0  0  0  0  0  # atno 10764 bound_to 10752
  154.8641  135.4248  154.2653 H   0  0  0  0  0  0  0  0  0  0  0  0  # atno 10765 bound_to 10752
  141.1372  133.6644  156.5583 H   0  0  0  0  0  0  0  0  0  0  0  0  # atno 11005 bound_to 11000
  145.8910  140.9304  143.0552 LP  0  0  0  0  0  0  0  0  0  0  0  0  # atno 17320 bound_to 7965
  144.6730  140.0905  143.7465 LP  0  0  0  0  0  0  0  0  0  0  0  0  # atno 17321 bound_to 7965
  139.6212  144.0903  152.2393 LP  0  0  0  0  0  0  0  0  0  0  0  0  # atno 17342 bound_to 10162
  140.0348  144.6053  150.7458 LP  0  0  0  0  0  0  0  0  0  0  0  0  # atno 17343 bound_to 10162
  156.2557  130.3705  149.8184 LP  0  0  0  0  0  0  0  0  0  0  0  0  # atno 17370 bound_to 10713
  156.5944  130.8520  151.3416 LP  0  0  0  0  0  0  0  0  0  0  0  0  # atno 17371 bound_to 10713
  140.4009  134.7358  157.4779 LP  0  0  0  0  0  0  0  0  0  0  0  0  # atno 17394 bound_to 11000
  140.0497  134.6148  155.8877 LP  0  0  0  0  0  0  0  0  0  0  0  0  # atno 17395 bound_to 11000

$$$$
