AV-unprocessed.smi:2245|AV-procd|sdf|9076|dock1
  -GOLD-   2272012283D 1   1.00000     0.00000
 Structure written by MMmdl.
 44 45  0  0  0  0  0  0  0  0  1 V2000
  153.6788  141.1050  159.9394 C   0  0  0  0  0  0  0  0  0  0  0  0
  152.8207  142.2728  159.4996 C   0  0  0  0  0  0  0  0  0  0  0  0
  152.8300  143.4868  160.2127 C   0  0  0  0  0  0  0  0  0  0  0  0
  152.0068  144.5337  159.7538 C   0  0  0  0  0  0  0  0  0  0  0  0
  151.9623  145.8627  160.4778 C   0  0  0  0  0  0  0  0  0  0  0  0
  151.2126  144.4243  158.6675 N   0  0  0  0  0  0  0  0  0  0  0  0
  151.1957  143.2597  157.9729 C   0  0  0  0  0  0  0  0  0  0  0  0
  150.3859  143.0374  156.8281 N   0  0  0  0  0  0  0  0  0  0  0  0
  149.8339  141.8839  156.4129 C   0  0  0  0  0  0  0  0  0  0  0  0
  149.8649  140.8161  157.0257 O   0  0  0  0  0  0  0  0  0  0  0  0
  149.2315  142.0365  155.2260 N   0  0  0  0  0  0  0  0  0  0  0  0
  148.5824  140.9661  154.4795 C   0  0  0  0  0  0  0  0  0  0  0  0
  147.0605  141.1775  154.4402 C   0  0  2  0  0  0  0  0  0  0  0  0
  146.5962  142.3544  153.5792 C   0  0  0  0  0  0  0  0  0  0  0  0
  145.5183  143.0518  154.4162 C   0  0  0  0  0  0  0  0  0  0  0  0
  145.1710  142.0836  155.4508 N   0  0  0  0  0  0  0  0  0  0  0  0
  144.5222  142.6782  156.6175 C   0  0  0  0  0  0  0  0  0  0  0  0
  143.0524  143.0630  156.3601 C   0  0  0  0  0  0  0  0  0  0  0  0
  142.4529  142.0545  155.7284 F   0  0  0  0  0  0  0  0  0  0  0  0
  142.3990  143.2872  157.4998 F   0  0  0  0  0  0  0  0  0  0  0  0
  142.9816  144.1483  155.5886 F   0  0  0  0  0  0  0  0  0  0  0  0
  146.4467  141.4796  155.8055 C   0  0  0  0  0  0  0  0  0  0  0  0
  151.9928  142.1608  158.3646 C   0  0  0  0  0  0  0  0  0  0  0  0
  154.2172  141.3325  160.8599 H   0  0  0  0  0  0  0  0  0  0  0  0
  154.4089  140.8614  159.1674 H   0  0  0  0  0  0  0  0  0  0  0  0
  153.0586  140.2259  160.1162 H   0  0  0  0  0  0  0  0  0  0  0  0
  153.4491  143.6121  161.0889 H   0  0  0  0  0  0  0  0  0  0  0  0
  152.8022  145.9646  161.1655 H   0  0  0  0  0  0  0  0  0  0  0  0
  151.0385  145.9483  161.0503 H   0  0  0  0  0  0  0  0  0  0  0  0
  152.0044  146.6890  159.7673 H   0  0  0  0  0  0  0  0  0  0  0  0
  150.2471  143.8408  156.2336 H   0  0  0  0  0  0  0  0  0  0  0  0
  149.2467  142.9489  154.7946 H   0  0  0  0  0  0  0  0  0  0  0  0
  148.9687  140.9359  153.4591 H   0  0  0  0  0  0  0  0  0  0  0  0
  148.8262  140.0085  154.9415 H   0  0  0  0  0  0  0  0  0  0  0  0
  146.5901  140.2685  154.0602 H   0  0  0  0  0  0  0  0  0  0  0  0
  147.4066  143.0497  153.3564 H   0  0  0  0  0  0  0  0  0  0  0  0
  146.1950  141.9996  152.6293 H   0  0  0  0  0  0  0  0  0  0  0  0
  145.9324  143.9534  154.8710 H   0  0  0  0  0  0  0  0  0  0  0  0
  144.6536  143.3365  153.8165 H   0  0  0  0  0  0  0  0  0  0  0  0
  144.5433  141.9406  157.4210 H   0  0  0  0  0  0  0  0  0  0  0  0
  145.0885  143.5404  156.9719 H   0  0  0  0  0  0  0  0  0  0  0  0
  146.3189  140.5836  156.4141 H   0  0  0  0  0  0  0  0  0  0  0  0
  147.0633  142.1908  156.3584 H   0  0  0  0  0  0  0  0  0  0  0  0
  151.9687  141.2374  157.8038 H   0  0  0  0  0  0  0  0  0  0  0  0
  1  2  1  0  0  0  0
  1 24  1  0  0  0  0
  1 25  1  0  0  0  0
  1 26  1  0  0  0  0
  2 23  1  0  0  0  0
  2  3  2  0  0  0  0
  3  4  1  0  0  0  0
  3 27  1  0  0  0  0
  4  5  1  0  0  0  0
  4  6  2  0  0  0  0
  5 28  1  0  0  0  0
  5 29  1  0  0  0  0
  5 30  1  0  0  0  0
  6  7  1  0  0  0  0
  7  8  1  0  0  0  0
  7 23  2  0  0  0  0
  8  9  1  0  0  0  0
  8 31  1  0  0  0  0
  9 10  2  0  0  0  0
  9 11  1  0  0  0  0
 11 12  1  0  0  0  0
 11 32  1  0  0  0  0
 12 13  1  0  0  0  0
 12 33  1  0  0  0  0
 12 34  1  0  0  0  0
 13 22  1  0  0  0  0
 13 14  1  0  0  0  0
 13 35  1  0  0  0  0
 14 15  1  0  0  0  0
 14 36  1  0  0  0  0
 14 37  1  0  0  0  0
 15 16  1  0  0  0  0
 15 38  1  0  0  0  0
 15 39  1  0  0  0  0
 16 17  1  0  0  0  0
 16 22  1  0  0  0  0
 17 18  1  0  0  0  0
 17 40  1  0  0  0  0
 17 41  1  0  0  0  0
 18 19  1  0  0  0  0
 18 20  1  0  0  0  0
 18 21  1  0  0  0  0
 22 42  1  0  0  0  0
 22 43  1  0  0  0  0
 23 44  1  0  0  0  0
M  END
> <s_m_source_file>
AV-unprocessed.smi

> <i_m_source_file_index>
2245

> <i_lp_mmshare_version>
43012

> <i_f3d_flags>
0

> <s_epik_input>
W0NIM11jMVtjSF1jKFtDSDNdKW5jKFtjSF0xKVtOSF1DKD1PKVtOSF1bQ0gyXVtDQEBIXTJbQ0gyXVtDSDJdTihbQ0gyXTIpW0NIMl1DKEYpKEYpRg==

> <s_epik_cmdline>
J2VwaWtfcHl0aG9uJywgJy1waCcsICc3LjAnLCAnLXRuJywgJzgnLCAnLW1hJywgJzIwMCcsICctbWV0YWxfYmluZGluZycsICctaW1hZScsICc8aW5maWxlLm1hZT4nLCAnLW9tYWUnLCAnPG91dGZpbGUubWFlPic=

> <r_epik_Ionization_Penalty>
0.252219

> <r_epik_Ionization_Penalty_Charging>
0

> <r_epik_Ionization_Penalty_Neutral>
0.252219

> <r_epik_State_Penalty>
0.24335

> <r_epik_Charging_Adjusted_Penalty>
0.24335

> <i_epik_Tot_Q>
0

> <i_epik_Tot_abs_Q>
0

> <r_epik_Metal_State_Penalty>
0.243337

> <b_epik_Metal_Only>
0

> <s_lp_Force_Field>
OPLS_2005

> <r_lp_Energy>
29.2312

> <b_lp_Chiralities_Consistent>
1

> <s_lp_Variant>
AV-unprocessed.smi:2245-1

> <Gold.Version>
5.8.1

> <Gold.Id.Protein>
6NUR|6NUR_protein|mol2

> <Gold.PLP.Fitness>
44.2335

> <Gold.PLP.PLP>
-41.5124

> <Gold.PLP.part.hbond>
-2.0000

> <Gold.PLP.part.metal>
0.0000

> <Gold.PLP.part.buried>
-7.6912

> <Gold.PLP.part.nonpolar>
-33.5478

> <Gold.PLP.part.repulsive>
0.5419

> <Gold.PLP.ligand.clash>
0.0000

> <Gold.PLP.ligand.torsion>
0.5431

> <Gold.PLP.Chemscore.Hbond>
1.0915

> <Gold.PLP.Chemscore.CHOScore>
0.0000

> <Gold.PLP.Chemscore.Metal>
0.0000

> <Gold.Chemscore.Hbonds>
donor molecule, donor type, donor heavy atom, donor atom, acceptor molecule, acceptor atom, score
      L1  H     8    31       P1  8028  0.74
      L1  H    11    32       P1  8028  0.58

> <Gold.PLP.Chemscore.Internal.Correction>
0.5328

> <Gold.Rescore>
     Score         DG    S(hbond)    S(metal)    S(lipo)     H(rot)  DE(clash)    DE(int)     intcor
     14.58     -16.78       1.13        0.00      98.88       1.58       0.12       2.08       ----

> <Gold.Chemscore.Fitness>
14.5801

> <Gold.Chemscore.DG>
-16.7811

> <Gold.Chemscore.ZeroCoef>
-5.4800

> <Gold.Chemscore.Hbond>
1.1329

> <Gold.Chemscore.Metal>
0.0000

> <Gold.Chemscore.Lipo>
98.8774

> <Gold.Chemscore.Internal_Hbond>
0.0000

> <Gold.Chemscore.DEClash>
0.1160

> <Gold.Chemscore.DEInternal>
2.0849

> <Gold.Chemscore.Rot>
1.5826

> <Gold.Chemscore.Internal.Correction>
   9.000000E+99

> <Gold.Chemscore.Hbonds>
donor molecule, donor type, donor heavy atom, donor atom, acceptor molecule, acceptor atom, score
      L1  H     8    31       P1  8028  0.74
      L1  H    11    32       P1  8028  0.56

> <Gold.Chemscore.Hbond.Weighted>
-3.7839

> <Gold.Chemscore.Metal.Weighted>
-0.0000

> <Gold.Chemscore.Lipo.Weighted>
-11.5687

> <Gold.Chemscore.Internal_Hbond.Weighted>
0.0000

> <Gold.Chemscore.DEClash.Weighted>
0.1160

> <Gold.Chemscore.DEInternal.Weighted>
2.0849

> <Gold.Chemscore.Rot.Weighted>
4.0515

> <Gold.Chemscore.Internal.Correction.Weighted>
   9.000000E+99

> <Gold.Protein.RotatedTorsions>
[ 6907 6896 6895 6894 ] final  -12.38 input  -60.11 | X-H torsion
[ 7974 7965 7964 7962 ] final   87.23 input  175.53 | X-H torsion
[ 8008 7997 7996 7995 ] final  142.16 input   59.86 | X-H torsion
[ 10167 10162 10161 10158 ] final    8.09 input  -65.29 | X-H torsion
[ 10718 10713 10712 10709 ] final  151.23 input   66.30 | X-H torsion
[ 10763 10752 10751 10750 ] final  -92.92 input  -60.55 | X-H torsion
[ 11005 11000 10999 10996 ] final  137.70 input  -57.11 | X-H torsion

> <Gold.Protein.ActiveResidues>
 VAL166  LYS551  ARG553  GLY616  TRP617  ASP618  TYR619  PRO620  LYS621  CYS622 
 ASP623  PHE694  ASN695  SER759  ASP760  ASP761  ALA762  ILE779  LEU786  VAL792 
 PHE793  MET794  SER795  GLU796  ALA797  LYS798  CYS799  TRP800  GLU811  SER814 

> <Gold.Protein.RotatedAtoms>
  151.3714  135.0923  159.9466 H   0  0  0  0  0  0  0  0  0  0  0  0  # atno 6907 bound_to 6896
  152.5134  133.9161  159.7522 H   0  0  0  0  0  0  0  0  0  0  0  0  # atno 6908 bound_to 6896
  150.9575  133.6426  159.2789 H   0  0  0  0  0  0  0  0  0  0  0  0  # atno 6909 bound_to 6896
  145.5618  139.2304  143.2455 H   0  0  0  0  0  0  0  0  0  0  0  0  # atno 7974 bound_to 7965
  156.2954  140.2296  156.4682 H   0  0  0  0  0  0  0  0  0  0  0  0  # atno 8008 bound_to 7997
  154.7958  140.0451  157.1256 H   0  0  0  0  0  0  0  0  0  0  0  0  # atno 8009 bound_to 7997
  154.9591  140.3052  155.5042 H   0  0  0  0  0  0  0  0  0  0  0  0  # atno 8010 bound_to 7997
  140.6334  143.7941  150.7327 H   0  0  0  0  0  0  0  0  0  0  0  0  # atno 10167 bound_to 10162
  157.2733  131.0821  151.1584 H   0  0  0  0  0  0  0  0  0  0  0  0  # atno 10718 bound_to 10713
  154.6908  135.5213  153.8390 H   0  0  0  0  0  0  0  0  0  0  0  0  # atno 10763 bound_to 10752
  153.0631  135.6575  154.0426 H   0  0  0  0  0  0  0  0  0  0  0  0  # atno 10764 bound_to 10752
  154.0300  135.2986  155.3349 H   0  0  0  0  0  0  0  0  0  0  0  0  # atno 10765 bound_to 10752
  140.0132  134.9430  157.0322 H   0  0  0  0  0  0  0  0  0  0  0  0  # atno 11005 bound_to 11000
  146.1846  140.6443  142.9173 LP  0  0  0  0  0  0  0  0  0  0  0  0  # atno 17320 bound_to 7965
  144.7479  140.5116  143.6822 LP  0  0  0  0  0  0  0  0  0  0  0  0  # atno 17321 bound_to 7965
  140.1557  143.4319  152.2101 LP  0  0  0  0  0  0  0  0  0  0  0  0  # atno 17342 bound_to 10162
  139.5547  144.7364  151.4331 LP  0  0  0  0  0  0  0  0  0  0  0  0  # atno 17343 bound_to 10162
  157.3047  130.6860  149.6183 LP  0  0  0  0  0  0  0  0  0  0  0  0  # atno 17370 bound_to 10713
  155.9663  130.4381  150.5205 LP  0  0  0  0  0  0  0  0  0  0  0  0  # atno 17371 bound_to 10713
  140.4517  134.1575  155.7182 LP  0  0  0  0  0  0  0  0  0  0  0  0  # atno 17394 bound_to 11000
  141.1725  133.8580  157.1525 LP  0  0  0  0  0  0  0  0  0  0  0  0  # atno 17395 bound_to 11000

$$$$
