#       Name:                AV-unprocessed.smi:3331
#       Creating user name   scv26
#       Creation time:       Fri Mar 27 19:18:57 2020


#       File generated by GOLD software.
#

@<TRIPOS>MOLECULE
AV-unprocessed.smi:3331
    50    51     1
SMALL
NO_CHARGES


@<TRIPOS>ATOM
      1 ****        -2.7896  -0.8601   3.8928 C.3            1 S1                 0.0000
      2 ****        -2.2596  -0.3949   2.5294 C.3            1 S1                 0.0000
      3 ****        -3.0083   0.8629   2.0320 C.3            1 S1                 0.0000
      4 ****        -2.6012   1.2812   0.6010 C.3            1 S1                 0.0000
      5 ****        -1.2396   1.9985   0.5693 C.3            1 S1                 0.0000
      6 ****        -2.6560   0.0568  -0.3389 C.3            1 S1                 0.0000
      7 ****        -1.8106  -1.0192   0.1994 N.am           1 S1                 0.0000
      8 ****        -0.6353  -1.4570  -0.3205 C.2            1 S1                 0.0000
      9 ****         0.0101  -2.3662   0.2050 O.2            1 S1                 0.0000
     10 ****        -0.0697  -0.8154  -1.6036 C.3            1 S1                 0.0000
     11 ****        -0.6828  -1.4774  -2.8517 C.3            1 S1                 0.0000
     12 ****         1.4074  -0.9193  -1.6208 N.4            1 S1                 1.0000
     13 ****         2.1040  -0.0107  -2.5566 C.3            1 S1                 0.0000
     14 ****         3.6227  -0.0248  -2.3219 C.3            1 S1                 0.0000
     15 ****         3.9801   0.5360  -1.0307 N.pl3          1 S1                 0.0000
     16 ****         4.3317   1.8346  -0.7276 C.2            1 S1                 0.0000
     17 ****         4.5674   1.8883   0.6162 C.2            1 S1                 0.0000
     18 ****         4.3325   0.5553   1.0551 C.2            1 S1                 0.0000
     19 ****         3.9787  -0.2512   0.0672 N.2            1 S1                 0.0000
     20 ****        -2.3420  -1.5189   1.4751 C.3            1 S1                 0.0000
     21 ****        -3.8409  -1.1436   3.8343 H              1 S1                 0.0000
     22 ****        -2.6982  -0.0707   4.6393 H              1 S1                 0.0000
     23 ****        -2.2321  -1.7235   4.2571 H              1 S1                 0.0000
     24 ****        -1.2083  -0.1351   2.6623 H              1 S1                 0.0000
     25 ****        -4.0794   0.6554   2.0373 H              1 S1                 0.0000
     26 ****        -2.8612   1.6919   2.7255 H              1 S1                 0.0000
     27 ****        -3.3399   2.0019   0.2481 H              1 S1                 0.0000
     28 ****        -0.4280   1.3530   0.9049 H              1 S1                 0.0000
     29 ****        -1.2472   2.8780   1.2134 H              1 S1                 0.0000
     30 ****        -0.9997   2.3358  -0.4391 H              1 S1                 0.0000
     31 ****        -3.6831  -0.3075  -0.3961 H              1 S1                 0.0000
     32 ****        -2.4149   0.3463  -1.3596 H              1 S1                 0.0000
     33 ****        -0.2959   0.2493  -1.5959 H              1 S1                 0.0000
     34 ****        -1.7726  -1.4462  -2.8298 H              1 S1                 0.0000
     35 ****        -0.3866  -2.5242  -2.9315 H              1 S1                 0.0000
     36 ****        -0.3691  -0.9738  -3.7659 H              1 S1                 0.0000
     37 ****         1.7321  -0.6904  -0.6914 H              1 S1                 0.0000
     38 ****         1.8894  -0.3162  -3.5806 H              1 S1                 0.0000
     39 ****         1.7262   1.0062  -2.4400 H              1 S1                 0.0000
     40 ****         4.0176  -1.0395  -2.3943 H              1 S1                 0.0000
     41 ****         4.1217   0.5600  -3.0955 H              1 S1                 0.0000
     42 ****         4.3827   2.6040  -1.4840 H              1 S1                 0.0000
     43 ****         4.8638   2.7488   1.1978 H              1 S1                 0.0000
     44 ****         4.4063   0.1531   2.0549 H              1 S1                 0.0000
     45 ****        -1.8142  -2.4030   1.8353 H              1 S1                 0.0000
     46 ****        -3.3775  -1.8337   1.3379 H              1 S1                 0.0000
     47 ****         1.6702  -1.8749  -1.8157 H              1 S1                 0.0000
     48 ****        -0.3290  -2.8032   1.0381 LP             1 S1                 0.0000
     49 ****         0.8727  -2.6668  -0.2017 LP             1 S1                 0.0000
     50 ****         3.7594  -1.2254   0.1214 LP             1 S1                 0.0000
@<TRIPOS>BOND
    1    1    2 1     
    2    1   21 1     
    3    1   22 1     
    4    1   23 1     
    5    2   20 1     
    6    2    3 1     
    7    2   24 1     
    8    3    4 1     
    9    3   25 1     
   10    3   26 1     
   11    4    5 1     
   12    4    6 1     
   13    4   27 1     
   14    5   28 1     
   15    5   29 1     
   16    5   30 1     
   17    6    7 1     
   18    6   31 1     
   19    6   32 1     
   20    7    8 am    
   21    7   20 1     
   22    8    9 2     
   23    8   10 1     
   24   10   11 1     
   25   10   12 1     
   26   10   33 1     
   27   11   34 1     
   28   11   35 1     
   29   11   36 1     
   30   12   13 1     
   31   12   37 1     
   32   12   47 1     
   33   13   14 1     
   34   13   38 1     
   35   13   39 1     
   36   14   15 1     
   37   14   40 1     
   38   14   41 1     
   39   15   19 1     
   40   15   16 1     
   41   16   17 2     
   42   16   42 1     
   43   17   18 1     
   44   17   43 1     
   45   18   19 2     
   46   18   44 1     
   47   20   45 1     
   48   20   46 1     
   49    9   48 1     
   50    9   49 1     
   51   19   50 1     
@<TRIPOS>SUBSTRUCTURE
      1 S1             1
@<TRIPOS>SET
LONE_PAIRS      STATIC     ATOMS    <user>   **** ""
3 48 49 50
DONOR_HYDROGENS      STATIC     ATOMS    <user>   **** ""
2 37 47
ATOM$BLUE        STATIC     ATOMS    COLORGROUP SYSTEM
3 48 49 50
ATOM$RED        STATIC     ATOMS    COLORGROUP SYSTEM
2 37 47
