AV-unprocessed.smi:490|AV-procd|sdf|2705|dock5
  -GOLD-   2262023143D 1   1.00000     0.00000
 Structure written by MMmdl.
 50 52  0  0  0  0  0  0  0  0  2 V2000
  152.1329  144.8686  159.4049 C   0  0  0  0  0  0  0  0  0  0  0  0
  152.3958  143.3757  159.3063 C   0  0  0  0  0  0  0  0  0  0  0  0
  153.0493  142.7261  160.3734 C   0  0  0  0  0  0  0  0  0  0  0  0
  153.3110  141.3462  160.3139 C   0  0  0  0  0  0  0  0  0  0  0  0
  152.9119  140.5977  159.1901 C   0  0  0  0  0  0  0  0  0  0  0  0
  153.2028  139.1094  159.1385 C   0  0  0  0  0  0  0  0  0  0  0  0
  152.2396  141.2357  158.1226 C   0  0  0  0  0  0  0  0  0  0  0  0
  151.8419  140.4896  157.0425 O   0  0  0  0  0  0  0  0  0  0  0  0
  150.4490  140.2117  157.0291 C   0  0  0  0  0  0  0  0  0  0  0  0
  149.9547  140.1762  155.5750 C   0  0  2  0  0  0  0  0  0  0  0  0
  151.0360  139.8128  154.7394 O   0  0  0  0  0  0  0  0  0  0  0  0
  149.4018  141.5438  155.1265 C   0  0  0  0  0  0  0  0  0  0  0  0
  147.9386  141.5474  154.9633 N   0  0  0  0  0  0  0  0  0  0  0  0
  147.1715  141.0551  153.9479 C   0  0  0  0  0  0  0  0  0  0  0  0
  147.6522  140.3709  152.7107 C   0  0  0  0  0  0  0  0  0  0  0  0
  146.5952  139.8256  151.9532 O   0  0  0  0  0  0  0  0  0  0  0  0
  145.8697  141.2924  154.2728 N   0  3  0  0  0  0  0  0  0  0  0  0
  145.8013  141.9457  155.5036 C   0  0  0  0  0  0  0  0  0  0  0  0
  144.7059  142.3897  156.2377 C   0  0  0  0  0  0  0  0  0  0  0  0
  144.9827  143.0260  157.4653 C   0  0  0  0  0  0  0  0  0  0  0  0
  146.3060  143.1999  157.9197 C   0  0  0  0  0  0  0  0  0  0  0  0
  147.4086  142.7435  157.1674 C   0  0  0  0  0  0  0  0  0  0  0  0
  147.1271  142.1146  155.9542 C   0  0  0  0  0  0  0  0  0  0  0  0
  151.9972  142.6323  158.1669 C   0  0  0  0  0  0  0  0  0  0  0  0
  151.3132  143.3294  156.9985 C   0  0  0  0  0  0  0  0  0  0  0  0
  152.3788  145.2503  160.3963 H   0  0  0  0  0  0  0  0  0  0  0  0
  151.0820  145.0885  159.2161 H   0  0  0  0  0  0  0  0  0  0  0  0
  152.7379  145.4107  158.6778 H   0  0  0  0  0  0  0  0  0  0  0  0
  153.3585  143.2856  161.2442 H   0  0  0  0  0  0  0  0  0  0  0  0
  153.8182  140.8645  161.1369 H   0  0  0  0  0  0  0  0  0  0  0  0
  153.5986  138.8278  158.1623 H   0  0  0  0  0  0  0  0  0  0  0  0
  152.2915  138.5392  159.3187 H   0  0  0  0  0  0  0  0  0  0  0  0
  153.9378  138.8238  159.8917 H   0  0  0  0  0  0  0  0  0  0  0  0
  150.2915  139.2354  157.4906 H   0  0  0  0  0  0  0  0  0  0  0  0
  149.8845  140.9344  157.6207 H   0  0  0  0  0  0  0  0  0  0  0  0
  149.1685  139.4268  155.4768 H   0  0  0  0  0  0  0  0  0  0  0  0
  151.0119  138.8775  154.6074 H   0  0  0  0  0  0  0  0  0  0  0  0
  149.6391  142.3013  155.8744 H   0  0  0  0  0  0  0  0  0  0  0  0
  149.8723  141.8789  154.2020 H   0  0  0  0  0  0  0  0  0  0  0  0
  148.2010  141.0816  152.0921 H   0  0  0  0  0  0  0  0  0  0  0  0
  148.3477  139.5761  152.9798 H   0  0  0  0  0  0  0  0  0  0  0  0
  145.7931  140.2617  152.1979 H   0  0  0  0  0  0  0  0  0  0  0  0
  143.6914  142.2576  155.8912 H   0  0  0  0  0  0  0  0  0  0  0  0
  144.1636  143.3882  158.0699 H   0  0  0  0  0  0  0  0  0  0  0  0
  146.4794  143.6938  158.8650 H   0  0  0  0  0  0  0  0  0  0  0  0
  148.4168  142.8859  157.5259 H   0  0  0  0  0  0  0  0  0  0  0  0
  151.3128  142.7170  156.0971 H   0  0  0  0  0  0  0  0  0  0  0  0
  151.8208  144.2608  156.7480 H   0  0  0  0  0  0  0  0  0  0  0  0
  150.2782  143.5589  157.2521 H   0  0  0  0  0  0  0  0  0  0  0  0
  145.0858  141.0225  153.6927 H   0  0  0  0  0  0  0  0  0  0  0  0
  1  2  1  0  0  0  0
  1 26  1  0  0  0  0
  1 27  1  0  0  0  0
  1 28  1  0  0  0  0
  2 24  1  0  0  0  0
  2  3  2  0  0  0  0
  3  4  1  0  0  0  0
  3 29  1  0  0  0  0
  4  5  2  0  0  0  0
  4 30  1  0  0  0  0
  5  6  1  0  0  0  0
  5  7  1  0  0  0  0
  6 31  1  0  0  0  0
  6 32  1  0  0  0  0
  6 33  1  0  0  0  0
  7  8  1  0  0  0  0
  7 24  2  0  0  0  0
  8  9  1  0  0  0  0
  9 10  1  0  0  0  0
  9 34  1  0  0  0  0
  9 35  1  0  0  0  0
 10 11  1  0  0  0  0
 10 12  1  0  0  0  0
 10 36  1  0  0  0  0
 11 37  1  0  0  0  0
 12 13  1  0  0  0  0
 12 38  1  0  0  0  0
 12 39  1  0  0  0  0
 13 23  1  0  0  0  0
 13 14  1  0  0  0  0
 14 15  1  0  0  0  0
 14 17  2  0  0  0  0
 15 16  1  0  0  0  0
 15 40  1  0  0  0  0
 15 41  1  0  0  0  0
 16 42  1  0  0  0  0
 17 18  1  0  0  0  0
 17 50  1  0  0  0  0
 18 23  2  0  0  0  0
 18 19  1  0  0  0  0
 19 20  2  0  0  0  0
 19 43  1  0  0  0  0
 20 21  1  0  0  0  0
 20 44  1  0  0  0  0
 21 22  2  0  0  0  0
 21 45  1  0  0  0  0
 22 23  1  0  0  0  0
 22 46  1  0  0  0  0
 24 25  1  0  0  0  0
 25 47  1  0  0  0  0
 25 48  1  0  0  0  0
 25 49  1  0  0  0  0
M  CHG  1  17   1
M  END
> <s_m_source_file>
AV-unprocessed.smi

> <i_m_source_file_index>
490

> <i_lp_mmshare_version>
43012

> <i_f3d_flags>
0

> <s_epik_input>
W0NIM11jMVtjSF1bY0hdYyhbQ0gzXSljKGMxW0NIM10pT1tDSDJdW0NASF0oW09IXSlbQ0gyXW4oYyhuMilbQ0gyXVtPSF0pYyhjMjMpW2NIXVtjSF1bY0hdW2NIXTM=

> <s_epik_cmdline>
J2VwaWtfcHl0aG9uJywgJy1waCcsICc3LjAnLCAnLXRuJywgJzgnLCAnLW1hJywgJzIwMCcsICctbWV0YWxfYmluZGluZycsICctaW1hZScsICc8aW5maWxlLm1hZT4nLCAnLW9tYWUnLCAnPG91dGZpbGUubWFlPic=

> <r_lp_tautomer_probability>
1

> <r_epik_Ionization_Penalty>
1.43125

> <r_epik_Ionization_Penalty_Charging>
1.43039

> <r_epik_Ionization_Penalty_Neutral>
0.000858184

> <r_epik_State_Penalty>
1.51493

> <r_epik_Charging_Adjusted_Penalty>
2.94531

> <i_epik_Tot_Q>
1

> <i_epik_Tot_abs_Q>
1

> <r_epik_Metal_State_Penalty>
5.5599

> <b_epik_Metal_Only>
0

> <s_lp_Force_Field>
OPLS_2005

> <r_lp_Energy>
24.6054

> <b_lp_Chiralities_Consistent>
1

> <s_lp_Variant>
AV-unprocessed.smi:490-3

> <Gold.Version>
5.8.1

> <Gold.Id.Protein>
6NUR|6NUR_protein|mol2

> <Gold.PLP.Fitness>
52.9767

> <Gold.PLP.PLP>
-44.6050

> <Gold.PLP.part.hbond>
-3.4946

> <Gold.PLP.part.metal>
0.0000

> <Gold.PLP.part.buried>
-2.8272

> <Gold.PLP.part.nonpolar>
-38.2694

> <Gold.PLP.part.repulsive>
0.0000

> <Gold.PLP.ligand.clash>
0.0000

> <Gold.PLP.ligand.torsion>
1.8786

> <Gold.PLP.Chemscore.Hbond>
4.0000

> <Gold.PLP.Chemscore.CHOScore>
0.0000

> <Gold.PLP.Chemscore.Metal>
0.0000

> <Gold.Chemscore.Hbonds>
donor molecule, donor type, donor heavy atom, donor atom, acceptor molecule, acceptor atom, score
      L1  H    16    42       P1 10175  0.76
      L1  H    17    50       P1 10175  2.00
      P1  H  7989  7998       L1    11  1.00

> <Gold.PLP.Chemscore.Internal.Correction>
0.1290

> <Gold.Rescore>
     Score         DG    S(hbond)    S(metal)    S(lipo)     H(rot)  DE(clash)    DE(int)     intcor
     18.63     -21.68       2.91        0.00     121.43       3.02       1.25       1.81       ----

> <Gold.Chemscore.Fitness>
18.6250

> <Gold.Chemscore.DG>
-21.6844

> <Gold.Chemscore.ZeroCoef>
-5.4800

> <Gold.Chemscore.Hbond>
2.9110

> <Gold.Chemscore.Metal>
0.0000

> <Gold.Chemscore.Lipo>
121.4318

> <Gold.Chemscore.Internal_Hbond>
0.0000

> <Gold.Chemscore.DEClash>
1.2528

> <Gold.Chemscore.DEInternal>
1.8067

> <Gold.Chemscore.Rot>
3.0180

> <Gold.Chemscore.Internal.Correction>
   9.000000E+99

> <Gold.Chemscore.Hbonds>
donor molecule, donor type, donor heavy atom, donor atom, acceptor molecule, acceptor atom, score
      L1  H    16    42       P1 10175  0.37
      L1  H    17    50       P1 10175  0.74
      P1  H  7989  7998       L1    11  0.97

> <Gold.Chemscore.Hbond.Weighted>
-9.7229

> <Gold.Chemscore.Metal.Weighted>
-0.0000

> <Gold.Chemscore.Lipo.Weighted>
-14.2075

> <Gold.Chemscore.Internal_Hbond.Weighted>
0.0000

> <Gold.Chemscore.DEClash.Weighted>
1.2528

> <Gold.Chemscore.DEInternal.Weighted>
1.8067

> <Gold.Chemscore.Rot.Weighted>
7.7260

> <Gold.Chemscore.Internal.Correction.Weighted>
   9.000000E+99

> <Gold.Protein.RotatedTorsions>
[ 6907 6896 6895 6894 ] final   24.62 input  -60.11 | X-H torsion
[ 7974 7965 7964 7962 ] final -122.69 input  175.53 | X-H torsion
[ 8008 7997 7996 7995 ] final  -23.01 input   59.86 | X-H torsion
[ 10167 10162 10161 10158 ] final  -23.35 input  -65.29 | X-H torsion
[ 10718 10713 10712 10709 ] final   -8.43 input   66.30 | X-H torsion
[ 10763 10752 10751 10750 ] final   13.73 input  -60.55 | X-H torsion
[ 11005 11000 10999 10996 ] final   20.33 input  -57.11 | X-H torsion

> <Gold.Protein.ActiveResidues>
 VAL166  LYS551  ARG553  GLY616  TRP617  ASP618  TYR619  PRO620  LYS621  CYS622 
 ASP623  PHE694  ASN695  SER759  ASP760  ASP761  ALA762  ILE779  LEU786  VAL792 
 PHE793  MET794  SER795  GLU796  ALA797  LYS798  CYS799  TRP800  GLU811  SER814 

> <Gold.Protein.RotatedAtoms>
  151.9602  135.0127  160.0546 H   0  0  0  0  0  0  0  0  0  0  0  0  # atno 6907 bound_to 6896
  152.1875  133.4745  159.4999 H   0  0  0  0  0  0  0  0  0  0  0  0  # atno 6908 bound_to 6896
  150.6929  134.1672  159.4241 H   0  0  0  0  0  0  0  0  0  0  0  0  # atno 6909 bound_to 6896
  145.0268  140.8034  143.4348 H   0  0  0  0  0  0  0  0  0  0  0  0  # atno 7974 bound_to 7965
  154.4610  140.1992  156.0245 H   0  0  0  0  0  0  0  0  0  0  0  0  # atno 8008 bound_to 7997
  156.0840  140.3267  155.7701 H   0  0  0  0  0  0  0  0  0  0  0  0  # atno 8009 bound_to 7997
  155.5066  140.0558  157.2921 H   0  0  0  0  0  0  0  0  0  0  0  0  # atno 8010 bound_to 7997
  140.7288  143.4451  151.0599 H   0  0  0  0  0  0  0  0  0  0  0  0  # atno 10167 bound_to 10162
  156.7027  130.5098  149.5913 H   0  0  0  0  0  0  0  0  0  0  0  0  # atno 10718 bound_to 10713
  153.1692  135.6809  153.8632 H   0  0  0  0  0  0  0  0  0  0  0  0  # atno 10763 bound_to 10752
  153.8002  135.3157  155.3390 H   0  0  0  0  0  0  0  0  0  0  0  0  # atno 10764 bound_to 10752
  154.7986  135.4792  154.0312 H   0  0  0  0  0  0  0  0  0  0  0  0  # atno 10765 bound_to 10752
  140.4038  134.1690  155.7664 H   0  0  0  0  0  0  0  0  0  0  0  0  # atno 11005 bound_to 11000
  145.1823  139.2345  143.5286 LP  0  0  0  0  0  0  0  0  0  0  0  0  # atno 17320 bound_to 7965
  146.3493  140.1600  142.8591 LP  0  0  0  0  0  0  0  0  0  0  0  0  # atno 17321 bound_to 7965
  139.8122  143.7935  152.3172 LP  0  0  0  0  0  0  0  0  0  0  0  0  # atno 17342 bound_to 10162
  139.7989  144.7382  150.9852 LP  0  0  0  0  0  0  0  0  0  0  0  0  # atno 17343 bound_to 10162
  156.1717  130.6441  151.0845 LP  0  0  0  0  0  0  0  0  0  0  0  0  # atno 17370 bound_to 10713
  157.6966  131.0791  150.6948 LP  0  0  0  0  0  0  0  0  0  0  0  0  # atno 17371 bound_to 10713
  141.1847  133.8339  157.1131 LP  0  0  0  0  0  0  0  0  0  0  0  0  # atno 17394 bound_to 11000
  140.0317  134.9898  157.0793 LP  0  0  0  0  0  0  0  0  0  0  0  0  # atno 17395 bound_to 11000

$$$$
