#       Name:                AV-unprocessed.smi:289
#       Creating user name   scv26
#       Creation time:       Thu Mar 26 22:05:00 2020


#       File generated by GOLD software.
#

@<TRIPOS>MOLECULE
AV-unprocessed.smi:289
    63    66     1
SMALL
NO_CHARGES


@<TRIPOS>ATOM
      1 ****        -1.2694   0.9817  -1.3896 O.2            1 S1                 0.0000
      2 ****        -0.5195   0.0069  -1.3062 C.2            1 S1                 0.0000
      3 ****         0.9968   0.2410  -1.1381 C.3            1 S1                 0.0000
      4 ****         1.3692   1.6696  -1.0291 N.am           1 S1                 0.0000
      5 ****         1.6475   2.3915  -2.2156 C.2            1 S1                 0.0000
      6 ****         1.6113   1.8455  -3.3193 O.2            1 S1                 0.0000
      7 ****         1.9533   3.8048  -2.0332 C.2            1 S1                 0.0000
      8 ****         2.1879   4.5787  -3.1065 F              1 S1                 0.0000
      9 ****         1.9877   4.3557  -0.8024 C.2            1 S1                 0.0000
     10 ****         1.7573   3.6310   0.3557 N.am           1 S1                 0.0000
     11 ****         1.7204   4.2743   1.7341 C.3            1 S1                 0.0000
     12 ****         2.4782   5.6056   1.8315 C.3            1 S1                 0.0000
     13 ****         1.3771   6.6497   1.6656 C.3            1 S1                 0.0000
     14 ****         0.0896   5.8369   1.4923 C.3            1 S1                 0.0000
     15 ****         0.3967   4.5665   2.0501 O.3            1 S1                 0.0000
     16 ****         1.3907   2.2700   0.2529 C.2            1 S1                 0.0000
     17 ****         1.0936   1.6201   1.2579 O.2            1 S1                 0.0000
     18 ****        -0.9859  -1.2645  -1.3563 N.am           1 S1                 0.0000
     19 ****        -0.1797  -2.4849  -1.2106 C.3            1 S1                 0.0000
     20 ****        -0.5920  -3.2081   0.0882 C.3            1 S1                 0.0000
     21 ****        -2.0358  -3.5068   0.0448 N.am           1 S1                 0.0000
     22 ****        -2.5882  -4.7455   0.0110 C.2            1 S1                 0.0000
     23 ****        -3.7532  -4.9428  -0.3353 O.2            1 S1                 0.0000
     24 ****        -1.7742  -5.9115   0.4167 C.2            1 S1                 0.0000
     25 ****        -1.7281  -7.1784  -0.0997 C.2            1 S1                 0.0000
     26 ****        -0.8152  -7.9138   0.7056 C.2            1 S1                 0.0000
     27 ****        -0.3878  -7.0504   1.6728 C.2            1 S1                 0.0000
     28 ****        -0.9727  -5.8314   1.5199 O.3            1 S1                 0.0000
     29 ****        -2.8404  -2.2881  -0.1428 C.3            1 S1                 0.0000
     30 ****        -2.4164  -1.5860  -1.4466 C.3            1 S1                 0.0000
     31 ****         1.3443  -0.3049  -0.2598 H              1 S1                 0.0000
     32 ****         1.5177  -0.2271  -1.9748 H              1 S1                 0.0000
     33 ****         2.1927   5.4130  -0.7466 H              1 S1                 0.0000
     34 ****         2.1404   3.5298   2.4124 H              1 S1                 0.0000
     35 ****         2.9052   5.6806   2.8323 H              1 S1                 0.0000
     36 ****         3.2993   5.6789   1.1189 H              1 S1                 0.0000
     37 ****         1.3184   7.2724   2.5591 H              1 S1                 0.0000
     38 ****         1.5525   7.3065   0.8132 H              1 S1                 0.0000
     39 ****        -0.7641   6.2938   1.9932 H              1 S1                 0.0000
     40 ****        -0.1621   5.7244   0.4368 H              1 S1                 0.0000
     41 ****        -0.3589  -3.1330  -2.0698 H              1 S1                 0.0000
     42 ****         0.8940  -2.3073  -1.2039 H              1 S1                 0.0000
     43 ****         0.0351  -4.0917   0.1859 H              1 S1                 0.0000
     44 ****        -0.3793  -2.5836   0.9571 H              1 S1                 0.0000
     45 ****        -2.2831  -7.5320  -0.9563 H              1 S1                 0.0000
     46 ****        -0.5170  -8.9462   0.5965 H              1 S1                 0.0000
     47 ****         0.2905  -7.1356   2.5090 H              1 S1                 0.0000
     48 ****        -3.9125  -2.4879  -0.1656 H              1 S1                 0.0000
     49 ****        -2.6821  -1.6243   0.7087 H              1 S1                 0.0000
     50 ****        -3.0407  -0.7065  -1.6077 H              1 S1                 0.0000
     51 ****        -2.5908  -2.2377  -2.3042 H              1 S1                 0.0000
     52 ****        -0.8929   1.9072  -1.3481 LP             1 S1                 0.0000
     53 ****        -2.2542   0.8470  -1.4988 LP             1 S1                 0.0000
     54 ****         1.3822   0.8747  -3.3896 LP             1 S1                 0.0000
     55 ****         1.8111   2.3731  -4.1450 LP             1 S1                 0.0000
     56 ****         0.2817   4.5937   3.0430 LP             1 S1                 0.0000
     57 ****        -0.2075   3.8698   1.6635 LP             1 S1                 0.0000
     58 ****         0.8339   0.6582   1.1725 LP             1 S1                 0.0000
     59 ****         1.1124   2.0550   2.1581 LP             1 S1                 0.0000
     60 ****        -4.3315  -4.1732  -0.6060 LP             1 S1                 0.0000
     61 ****        -4.1210  -5.8726  -0.3459 LP             1 S1                 0.0000
     62 ****        -1.5196  -5.6087   2.3269 LP             1 S1                 0.0000
     63 ****        -0.2736  -5.1288   1.3868 LP             1 S1                 0.0000
@<TRIPOS>BOND
    1    1    2 2     
    2    2    3 1     
    3    2   18 am    
    4    3    4 1     
    5    3   31 1     
    6    3   32 1     
    7    4   16 am    
    8    4    5 am    
    9    5    6 2     
   10    5    7 1     
   11    7    8 1     
   12    7    9 2     
   13    9   10 1     
   14    9   33 1     
   15   10   11 1     
   16   10   16 am    
   17   11   15 1     
   18   11   12 1     
   19   11   34 1     
   20   12   13 1     
   21   12   35 1     
   22   12   36 1     
   23   13   14 1     
   24   13   37 1     
   25   13   38 1     
   26   14   15 1     
   27   14   39 1     
   28   14   40 1     
   29   16   17 2     
   30   18   30 1     
   31   18   19 1     
   32   19   20 1     
   33   19   41 1     
   34   19   42 1     
   35   20   21 1     
   36   20   43 1     
   37   20   44 1     
   38   21   22 am    
   39   21   29 1     
   40   22   23 2     
   41   22   24 1     
   42   24   28 1     
   43   24   25 2     
   44   25   26 1     
   45   25   45 1     
   46   26   27 2     
   47   26   46 1     
   48   27   28 1     
   49   27   47 1     
   50   29   30 1     
   51   29   48 1     
   52   29   49 1     
   53   30   50 1     
   54   30   51 1     
   55    1   52 1     
   56    1   53 1     
   57    6   54 1     
   58    6   55 1     
   59   15   56 1     
   60   15   57 1     
   61   17   58 1     
   62   17   59 1     
   63   23   60 1     
   64   23   61 1     
   65   28   62 1     
   66   28   63 1     
@<TRIPOS>SUBSTRUCTURE
      1 S1             1
@<TRIPOS>SET
LONE_PAIRS      STATIC     ATOMS    <user>   **** ""
12 52 53 54 55 56 57 58 59 60 61 62 63
ATOM$BLUE        STATIC     ATOMS    COLORGROUP SYSTEM
12 52 53 54 55 56 57 58 59 60 61 62 63
