AV-unprocessed.smi:512|AV-procd|sdf|2768|dock7
  -GOLD-   2262023233D 1   1.00000     0.00000
 Structure written by MMmdl.
 49 51  0  0  0  0  0  0  0  0  2 V2000
  152.4006  138.8832  154.5973 C   0  0  0  0  0  0  0  0  0  0  0  0
  151.0688  138.1304  154.5587 C   0  0  0  0  0  0  0  0  0  0  0  0
  151.2428  136.8762  155.1924 O   0  0  0  0  0  0  0  0  0  0  0  0
  150.0217  136.1896  155.4149 C   0  0  0  0  0  0  0  0  0  0  0  0
  150.3193  134.7031  155.6547 C   0  0  0  0  0  0  0  0  0  0  0  0
  149.1778  134.0168  156.2563 N   0  0  0  0  0  0  0  0  0  0  0  0
  148.4101  133.0233  155.7333 C   0  0  0  0  0  0  0  0  0  0  0  0
  148.6727  132.4721  154.4801 N   0  0  0  0  0  0  0  0  0  0  0  0
  148.8068  131.0442  154.2022 C   0  0  0  0  0  0  0  0  0  0  0  0
  147.5577  130.4913  153.4909 C   0  0  0  0  0  0  0  0  0  0  0  0
  147.2744  131.2475  152.2476 N   0  3  0  0  0  0  0  0  0  0  0  0
  146.0875  130.7380  151.5286 C   0  0  0  0  0  0  0  0  0  0  0  0
  147.2096  132.7074  152.4939 C   0  0  0  0  0  0  0  0  0  0  0  0
  148.4743  133.1891  153.2246 C   0  0  0  0  0  0  0  0  0  0  0  0
  147.3772  132.6538  156.4953 N   0  0  0  0  0  0  0  0  0  0  0  0
  147.5083  133.4662  157.6119 C   0  0  0  0  0  0  0  0  0  0  0  0
  148.5775  134.2928  157.4851 C   0  0  0  0  0  0  0  0  0  0  0  0
  148.9321  135.2853  158.5080 C   0  0  0  0  0  0  0  0  0  0  0  0
  149.8820  136.0579  158.4020 O   0  0  0  0  0  0  0  0  0  0  0  0
  148.1024  135.2636  159.5792 N   0  0  0  0  0  0  0  0  0  0  0  0
  147.0180  134.4527  159.7751 C   0  0  0  0  0  0  0  0  0  0  0  0
  146.3598  134.5453  160.8110 O   0  0  0  0  0  0  0  0  0  0  0  0
  146.7075  133.5539  158.7863 N   0  0  0  0  0  0  0  0  0  0  0  0
  145.5542  132.6654  158.9394 C   0  0  0  0  0  0  0  0  0  0  0  0
  148.3063  135.9226  160.3164 H   0  0  0  0  0  0  0  0  0  0  0  0
  152.3124  139.8577  154.1168 H   0  0  0  0  0  0  0  0  0  0  0  0
  153.1805  138.3238  154.0801 H   0  0  0  0  0  0  0  0  0  0  0  0
  152.7289  139.0441  155.6243 H   0  0  0  0  0  0  0  0  0  0  0  0
  150.2968  138.7074  155.0696 H   0  0  0  0  0  0  0  0  0  0  0  0
  150.7498  137.9896  153.5249 H   0  0  0  0  0  0  0  0  0  0  0  0
  149.5067  136.6112  156.2791 H   0  0  0  0  0  0  0  0  0  0  0  0
  149.3635  136.3050  154.5524 H   0  0  0  0  0  0  0  0  0  0  0  0
  150.5868  134.2326  154.7121 H   0  0  0  0  0  0  0  0  0  0  0  0
  151.1917  134.5829  156.2953 H   0  0  0  0  0  0  0  0  0  0  0  0
  149.6989  130.8760  153.5974 H   0  0  0  0  0  0  0  0  0  0  0  0
  148.9483  130.4965  155.1337 H   0  0  0  0  0  0  0  0  0  0  0  0
  147.7019  129.4363  153.2546 H   0  0  0  0  0  0  0  0  0  0  0  0
  146.6957  130.5541  154.1576 H   0  0  0  0  0  0  0  0  0  0  0  0
  145.1836  130.8641  152.1259 H   0  0  0  0  0  0  0  0  0  0  0  0
  146.2026  129.6780  151.3004 H   0  0  0  0  0  0  0  0  0  0  0  0
  145.9517  131.2690  150.5858 H   0  0  0  0  0  0  0  0  0  0  0  0
  147.1056  133.2355  151.5455 H   0  0  0  0  0  0  0  0  0  0  0  0
  146.3245  132.9396  153.0889 H   0  0  0  0  0  0  0  0  0  0  0  0
  148.4049  134.2592  153.4239 H   0  0  0  0  0  0  0  0  0  0  0  0
  149.3533  133.0509  152.5936 H   0  0  0  0  0  0  0  0  0  0  0  0
  145.7313  131.9515  159.7447 H   0  0  0  0  0  0  0  0  0  0  0  0
  145.3413  132.0959  158.0349 H   0  0  0  0  0  0  0  0  0  0  0  0
  144.6547  133.2341  159.1795 H   0  0  0  0  0  0  0  0  0  0  0  0
  148.0669  131.0990  151.6391 H   0  0  0  0  0  0  0  0  0  0  0  0
  1  2  1  0  0  0  0
  1 26  1  0  0  0  0
  1 27  1  0  0  0  0
  1 28  1  0  0  0  0
  2  3  1  0  0  0  0
  2 29  1  0  0  0  0
  2 30  1  0  0  0  0
  3  4  1  0  0  0  0
  4  5  1  0  0  0  0
  4 31  1  0  0  0  0
  4 32  1  0  0  0  0
  5  6  1  0  0  0  0
  5 33  1  0  0  0  0
  5 34  1  0  0  0  0
  6 17  1  0  0  0  0
  6  7  1  0  0  0  0
  7  8  1  0  0  0  0
  7 15  2  0  0  0  0
  8 14  1  0  0  0  0
  8  9  1  0  0  0  0
  9 10  1  0  0  0  0
  9 35  1  0  0  0  0
  9 36  1  0  0  0  0
 10 11  1  0  0  0  0
 10 37  1  0  0  0  0
 10 38  1  0  0  0  0
 11 12  1  0  0  0  0
 11 13  1  0  0  0  0
 11 49  1  0  0  0  0
 12 39  1  0  0  0  0
 12 40  1  0  0  0  0
 12 41  1  0  0  0  0
 13 14  1  0  0  0  0
 13 42  1  0  0  0  0
 13 43  1  0  0  0  0
 14 44  1  0  0  0  0
 14 45  1  0  0  0  0
 15 16  1  0  0  0  0
 16 23  1  0  0  0  0
 16 17  2  0  0  0  0
 17 18  1  0  0  0  0
 18 19  2  0  0  0  0
 18 20  1  0  0  0  0
 20 25  1  0  0  0  0
 20 21  1  0  0  0  0
 21 22  2  0  0  0  0
 21 23  1  0  0  0  0
 23 24  1  0  0  0  0
 24 46  1  0  0  0  0
 24 47  1  0  0  0  0
 24 48  1  0  0  0  0
M  CHG  1  11   1
M  END
> <s_m_source_file>
AV-unprocessed.smi

> <i_m_source_file_index>
512

> <i_lp_mmshare_version>
43012

> <i_f3d_flags>
0

> <s_epik_input>
W0NIM11uMWMoPU8pW25IXWMoPU8pYyhjMTIpbihbQ0gyXVtDSDJdT1tDSDJdW0NIM10pYyhuMilOM1tDSDJdW0NIMl1OKFtDSDNdKVtDSDJdW0NIMl0z

> <s_epik_cmdline>
J2VwaWtfcHl0aG9uJywgJy1waCcsICc3LjAnLCAnLXRuJywgJzgnLCAnLW1hJywgJzIwMCcsICctbWV0YWxfYmluZGluZycsICctaW1hZScsICc8aW5maWxlLm1hZT4nLCAnLW9tYWUnLCAnPG91dGZpbGUubWFlPic=

> <r_epik_Ionization_Penalty>
0.06478

> <r_epik_Ionization_Penalty_Charging>
0.0647782

> <r_epik_Ionization_Penalty_Neutral>
1.82007e-06

> <r_epik_State_Penalty>
0.0564218

> <r_epik_Charging_Adjusted_Penalty>
0.1212

> <i_epik_Tot_Q>
1

> <i_epik_Tot_abs_Q>
1

> <r_epik_Metal_State_Penalty>
0.0827594

> <b_epik_Metal_Only>
0

> <s_lp_Force_Field>
OPLS_2005

> <r_lp_Energy>
46.3907

> <b_lp_Chiralities_Consistent>
1

> <s_lp_Variant>
AV-unprocessed.smi:512-1

> <Gold.Version>
5.8.1

> <Gold.Id.Protein>
6NUR|6NUR_protein|mol2

> <Gold.PLP.Fitness>
34.7179

> <Gold.PLP.PLP>
-28.8718

> <Gold.PLP.part.hbond>
-3.0000

> <Gold.PLP.part.metal>
0.0000

> <Gold.PLP.part.buried>
-1.9118

> <Gold.PLP.part.nonpolar>
-24.3689

> <Gold.PLP.part.repulsive>
0.1970

> <Gold.PLP.ligand.clash>
0.0000

> <Gold.PLP.ligand.torsion>
1.3243

> <Gold.PLP.Chemscore.Hbond>
2.6120

> <Gold.PLP.Chemscore.CHOScore>
0.0000

> <Gold.PLP.Chemscore.Metal>
0.0000

> <Gold.Chemscore.Hbonds>
donor molecule, donor type, donor heavy atom, donor atom, acceptor molecule, acceptor atom, score
      L1  H    11    49       P1 10747  1.00
      P1  H  6896  6908       L1    19  0.46
      P1  H 10752 10765       L1     3  0.54

> <Gold.PLP.Chemscore.Internal.Correction>
0.6587

> <Gold.Rescore>
     Score         DG    S(hbond)    S(metal)    S(lipo)     H(rot)  DE(clash)    DE(int)     intcor
     13.85     -15.37       2.06        0.00      61.88       1.66       0.15       1.36       ----

> <Gold.Chemscore.Fitness>
13.8504

> <Gold.Chemscore.DG>
-15.3696

> <Gold.Chemscore.ZeroCoef>
-5.4800

> <Gold.Chemscore.Hbond>
2.0641

> <Gold.Chemscore.Metal>
0.0000

> <Gold.Chemscore.Lipo>
61.8776

> <Gold.Chemscore.Internal_Hbond>
0.0000

> <Gold.Chemscore.DEClash>
0.1550

> <Gold.Chemscore.DEInternal>
1.3642

> <Gold.Chemscore.Rot>
1.6579

> <Gold.Chemscore.Internal.Correction>
   9.000000E+99

> <Gold.Chemscore.Hbonds>
donor molecule, donor type, donor heavy atom, donor atom, acceptor molecule, acceptor atom, score
      L1  H    11    49       P1 10747  1.00
      P1  H  6896  6908       L1    19  0.05
      P1  H 10752 10765       L1     3  0.47

> <Gold.Chemscore.Hbond.Weighted>
-6.8941

> <Gold.Chemscore.Metal.Weighted>
-0.0000

> <Gold.Chemscore.Lipo.Weighted>
-7.2397

> <Gold.Chemscore.Internal_Hbond.Weighted>
0.0000

> <Gold.Chemscore.DEClash.Weighted>
0.1550

> <Gold.Chemscore.DEInternal.Weighted>
1.3642

> <Gold.Chemscore.Rot.Weighted>
4.2442

> <Gold.Chemscore.Internal.Correction.Weighted>
   9.000000E+99

> <Gold.Protein.RotatedTorsions>
[ 6907 6896 6895 6894 ] final -151.11 input  -60.11 | X-H torsion
[ 7974 7965 7964 7962 ] final   58.27 input  175.53 | X-H torsion
[ 8008 7997 7996 7995 ] final  -15.45 input   59.86 | X-H torsion
[ 10167 10162 10161 10158 ] final  -58.07 input  -65.29 | X-H torsion
[ 10718 10713 10712 10709 ] final -135.40 input   66.30 | X-H torsion
[ 10763 10752 10751 10750 ] final -170.24 input  -60.55 | X-H torsion
[ 11005 11000 10999 10996 ] final   14.49 input  -57.11 | X-H torsion

> <Gold.Protein.ActiveResidues>
 VAL166  LYS551  ARG553  GLY616  TRP617  ASP618  TYR619  PRO620  LYS621  CYS622 
 ASP623  PHE694  ASN695  SER759  ASP760  ASP761  ALA762  ILE779  LEU786  VAL792 
 PHE793  MET794  SER795  GLU796  ALA797  LYS798  CYS799  TRP800  GLU811  SER814 

> <Gold.Protein.RotatedAtoms>
  151.2084  133.4570  159.2597 H   0  0  0  0  0  0  0  0  0  0  0  0  # atno 6907 bound_to 6896
  151.1001  134.9967  159.8454 H   0  0  0  0  0  0  0  0  0  0  0  0  # atno 6908 bound_to 6896
  152.5442  134.2011  159.8765 H   0  0  0  0  0  0  0  0  0  0  0  0  # atno 6909 bound_to 6896
  145.9200  139.3722  143.0484 H   0  0  0  0  0  0  0  0  0  0  0  0  # atno 7974 bound_to 7965
  154.5129  140.2196  155.9121 H   0  0  0  0  0  0  0  0  0  0  0  0  # atno 8008 bound_to 7997
  156.1574  140.3149  155.8715 H   0  0  0  0  0  0  0  0  0  0  0  0  # atno 8009 bound_to 7997
  155.3820  140.0473  157.3034 H   0  0  0  0  0  0  0  0  0  0  0  0  # atno 8010 bound_to 7997
  140.6220  143.2423  151.5458 H   0  0  0  0  0  0  0  0  0  0  0  0  # atno 10167 bound_to 10162
  156.2658  130.7236  151.1186 H   0  0  0  0  0  0  0  0  0  0  0  0  # atno 10718 bound_to 10713
  154.6436  135.2902  155.0073 H   0  0  0  0  0  0  0  0  0  0  0  0  # atno 10763 bound_to 10752
  154.1191  135.6551  153.4903 H   0  0  0  0  0  0  0  0  0  0  0  0  # atno 10764 bound_to 10752
  153.0339  135.5283  154.7314 H   0  0  0  0  0  0  0  0  0  0  0  0  # atno 10765 bound_to 10752
  140.4690  134.1050  155.7729 H   0  0  0  0  0  0  0  0  0  0  0  0  # atno 11005 bound_to 11000
  145.8562  140.9501  143.0724 LP  0  0  0  0  0  0  0  0  0  0  0  0  # atno 17320 bound_to 7965
  144.6752  140.0471  143.7479 LP  0  0  0  0  0  0  0  0  0  0  0  0  # atno 17321 bound_to 7965
  139.5446  144.2554  152.1418 LP  0  0  0  0  0  0  0  0  0  0  0  0  # atno 17342 bound_to 10162
  140.1777  144.4875  150.6545 LP  0  0  0  0  0  0  0  0  0  0  0  0  # atno 17343 bound_to 10162
  157.7267  131.0644  150.5899 LP  0  0  0  0  0  0  0  0  0  0  0  0  # atno 17370 bound_to 10713
  156.5991  130.4349  149.5904 LP  0  0  0  0  0  0  0  0  0  0  0  0  # atno 17371 bound_to 10713
  141.1586  133.8836  157.1910 LP  0  0  0  0  0  0  0  0  0  0  0  0  # atno 17394 bound_to 11000
  139.9897  135.0069  156.9946 LP  0  0  0  0  0  0  0  0  0  0  0  0  # atno 17395 bound_to 11000

$$$$
