AV-unprocessed.smi:529|AV-procd|sdf|2840|dock2
  -GOLD-   2262023333D 1   1.00000     0.00000
 Structure written by MMmdl.
 30 31  0  0  0  0  0  0  0  0  1 V2000
  149.6238  138.4016  153.8145 N   0  0  0  0  0  0  0  0  0  0  0  0
  148.7535  139.3478  153.8687 C   0  0  0  0  0  0  0  0  0  0  0  0
  147.0464  139.2949  153.2193 S   0  0  0  0  0  0  0  0  0  0  0  0
  146.7860  140.9275  153.7952 C   0  0  0  0  0  0  0  0  0  0  0  0
  147.8663  141.4278  154.3925 C   0  0  0  0  0  0  0  0  0  0  0  0
  148.9693  140.6003  154.4485 N   0  0  0  0  0  0  0  0  0  0  0  0
  150.2145  140.9980  155.1065 C   0  0  0  0  0  0  0  0  0  0  0  0
  150.0520  141.2769  156.6071 C   0  0  0  0  0  0  0  0  0  0  0  0
  148.9374  141.3274  157.1291 O   0  0  0  0  0  0  0  0  0  0  0  0
  151.1901  141.4689  157.2908 N   0  0  0  0  0  0  0  0  0  0  0  0
  151.2709  141.7495  158.7217 C   0  0  0  0  0  0  0  0  0  0  0  0
  151.9290  143.1172  159.0016 C   0  0  0  0  0  0  0  0  0  0  0  0
  153.0099  142.8612  160.0532 C   0  0  0  0  0  0  0  0  0  0  0  0
  153.4440  141.4205  159.8041 C   0  0  0  0  0  0  0  0  0  0  0  0
  152.1477  140.7011  159.4309 C   0  0  0  0  0  0  0  0  0  0  0  0
  149.2359  137.5945  153.3485 H   0  0  0  0  0  0  0  0  0  0  0  0
  145.8374  141.4250  153.6584 H   0  0  0  0  0  0  0  0  0  0  0  0
  147.9575  142.4098  154.8334 H   0  0  0  0  0  0  0  0  0  0  0  0
  150.9788  140.2332  154.9600 H   0  0  0  0  0  0  0  0  0  0  0  0
  150.5997  141.9004  154.6297 H   0  0  0  0  0  0  0  0  0  0  0  0
  152.0632  141.4160  156.7863 H   0  0  0  0  0  0  0  0  0  0  0  0
  150.2681  141.7176  159.1518 H   0  0  0  0  0  0  0  0  0  0  0  0
  152.3998  143.5107  158.0992 H   0  0  0  0  0  0  0  0  0  0  0  0
  151.2043  143.8607  159.3347 H   0  0  0  0  0  0  0  0  0  0  0  0
  153.8371  143.5684  159.9859 H   0  0  0  0  0  0  0  0  0  0  0  0
  152.5790  142.9460  161.0517 H   0  0  0  0  0  0  0  0  0  0  0  0
  154.1395  141.3864  158.9644 H   0  0  0  0  0  0  0  0  0  0  0  0
  153.9390  140.9743  160.6668 H   0  0  0  0  0  0  0  0  0  0  0  0
  151.6470  140.3735  160.3429 H   0  0  0  0  0  0  0  0  0  0  0  0
  152.3309  139.8092  158.8301 H   0  0  0  0  0  0  0  0  0  0  0  0
  1  2  2  0  0  0  0
  1 16  1  0  0  0  0
  2  6  1  0  0  0  0
  2  3  1  0  0  0  0
  3  4  1  0  0  0  0
  4  5  2  0  0  0  0
  4 17  1  0  0  0  0
  5  6  1  0  0  0  0
  5 18  1  0  0  0  0
  6  7  1  0  0  0  0
  7  8  1  0  0  0  0
  7 19  1  0  0  0  0
  7 20  1  0  0  0  0
  8  9  2  0  0  0  0
  8 10  1  0  0  0  0
 10 11  1  0  0  0  0
 10 21  1  0  0  0  0
 11 15  1  0  0  0  0
 11 12  1  0  0  0  0
 11 22  1  0  0  0  0
 12 13  1  0  0  0  0
 12 23  1  0  0  0  0
 12 24  1  0  0  0  0
 13 14  1  0  0  0  0
 13 25  1  0  0  0  0
 13 26  1  0  0  0  0
 14 15  1  0  0  0  0
 14 27  1  0  0  0  0
 14 28  1  0  0  0  0
 15 29  1  0  0  0  0
 15 30  1  0  0  0  0
M  END
> <s_m_source_file>
AV-unprocessed.smi

> <i_m_source_file_index>
529

> <i_lp_mmshare_version>
43012

> <i_f3d_flags>
0

> <s_epik_input>
W0hdL049YzFcc1tjSF1bY0hdbjFbQ0gyXUMoPU8pW05IXVtDSF0yW0NIMl1bQ0gyXVtDSDJdW0NIMl0y

> <s_epik_cmdline>
J2VwaWtfcHl0aG9uJywgJy1waCcsICc3LjAnLCAnLXRuJywgJzgnLCAnLW1hJywgJzIwMCcsICctbWV0YWxfYmluZGluZycsICctaW1hZScsICc8aW5maWxlLm1hZT4nLCAnLW9tYWUnLCAnPG91dGZpbGUubWFlPic=

> <r_epik_Ionization_Penalty>
2.18041

> <r_epik_Ionization_Penalty_Charging>
2.18041

> <r_epik_Ionization_Penalty_Neutral>
1.25369e-07

> <r_epik_State_Penalty>
2.33404

> <r_epik_Charging_Adjusted_Penalty>
4.51444

> <i_epik_Tot_Q>
0

> <i_epik_Tot_abs_Q>
0

> <r_epik_Metal_State_Penalty>
2.33404

> <b_epik_Metal_Only>
0

> <s_lp_Force_Field>
OPLS_2005

> <r_lp_Energy>
15.3577

> <b_lp_Chiralities_Consistent>
1

> <s_lp_Variant>
AV-unprocessed.smi:529-2

> <Gold.Version>
5.8.1

> <Gold.Id.Protein>
6NUR|6NUR_protein|mol2

> <Gold.PLP.Fitness>
38.6481

> <Gold.PLP.PLP>
-30.8152

> <Gold.PLP.part.hbond>
-1.9800

> <Gold.PLP.part.metal>
0.0000

> <Gold.PLP.part.buried>
0.1035

> <Gold.PLP.part.nonpolar>
-29.2854

> <Gold.PLP.part.repulsive>
0.1482

> <Gold.PLP.ligand.clash>
0.0000

> <Gold.PLP.ligand.torsion>
0.0905

> <Gold.PLP.Chemscore.Hbond>
0.9425

> <Gold.PLP.Chemscore.CHOScore>
1.7245

> <Gold.PLP.Chemscore.Metal>
0.0000

> <Gold.Chemscore.Hbonds>
donor molecule, donor type, donor heavy atom, donor atom, acceptor molecule, acceptor atom, score
      L1  H     1    16       P1  7948  1.00
      L1  C     4    17       P1 10175  0.75
      L1  C     5    18       P1  8028  0.83

> <Gold.PLP.Chemscore.Internal.Correction>
0.0129

> <Gold.Rescore>
     Score         DG    S(hbond)    S(metal)    S(lipo)     H(rot)  DE(clash)    DE(int)     intcor
     11.41     -13.49       0.93        0.00      76.03       1.56       0.80       1.28       ----

> <Gold.Chemscore.Fitness>
11.4059

> <Gold.Chemscore.DG>
-13.4913

> <Gold.Chemscore.ZeroCoef>
-5.4800

> <Gold.Chemscore.Hbond>
0.9335

> <Gold.Chemscore.Metal>
0.0000

> <Gold.Chemscore.Lipo>
76.0342

> <Gold.Chemscore.Internal_Hbond>
0.0000

> <Gold.Chemscore.DEClash>
0.8013

> <Gold.Chemscore.DEInternal>
1.2841

> <Gold.Chemscore.Rot>
1.5635

> <Gold.Chemscore.Internal.Correction>
   9.000000E+99

> <Gold.Chemscore.Hbonds>
donor molecule, donor type, donor heavy atom, donor atom, acceptor molecule, acceptor atom, score
      L1  H     1    16       P1  7948  0.93

> <Gold.Chemscore.Hbond.Weighted>
-3.1178

> <Gold.Chemscore.Metal.Weighted>
-0.0000

> <Gold.Chemscore.Lipo.Weighted>
-8.8960

> <Gold.Chemscore.Internal_Hbond.Weighted>
0.0000

> <Gold.Chemscore.DEClash.Weighted>
0.8013

> <Gold.Chemscore.DEInternal.Weighted>
1.2841

> <Gold.Chemscore.Rot.Weighted>
4.0025

> <Gold.Chemscore.Internal.Correction.Weighted>
   9.000000E+99

> <Gold.Protein.RotatedTorsions>
[ 6907 6896 6895 6894 ] final   51.56 input  -60.11 | X-H torsion
[ 7974 7965 7964 7962 ] final   63.63 input  175.53 | X-H torsion
[ 8008 7997 7996 7995 ] final -163.57 input   59.86 | X-H torsion
[ 10167 10162 10161 10158 ] final   40.84 input  -65.29 | X-H torsion
[ 10718 10713 10712 10709 ] final  -56.56 input   66.30 | X-H torsion
[ 10763 10752 10751 10750 ] final -159.80 input  -60.55 | X-H torsion
[ 11005 11000 10999 10996 ] final   95.87 input  -57.11 | X-H torsion

> <Gold.Protein.ActiveResidues>
 VAL166  LYS551  ARG553  GLY616  TRP617  ASP618  TYR619  PRO620  LYS621  CYS622 
 ASP623  PHE694  ASN695  SER759  ASP760  ASP761  ALA762  ILE779  LEU786  VAL792 
 PHE793  MET794  SER795  GLU796  ALA797  LYS798  CYS799  TRP800  GLU811  SER814 

> <Gold.Protein.RotatedAtoms>
  152.3140  134.7462  160.0329 H   0  0  0  0  0  0  0  0  0  0  0  0  # atno 6907 bound_to 6896
  151.7933  133.3356  159.3513 H   0  0  0  0  0  0  0  0  0  0  0  0  # atno 6908 bound_to 6896
  150.7335  134.5752  159.5955 H   0  0  0  0  0  0  0  0  0  0  0  0  # atno 6909 bound_to 6896
  145.8596  139.3306  143.0826 H   0  0  0  0  0  0  0  0  0  0  0  0  # atno 7974 bound_to 7965
  155.8232  140.0922  157.1836 H   0  0  0  0  0  0  0  0  0  0  0  0  # atno 8008 bound_to 7997
  154.3979  140.1433  156.3585 H   0  0  0  0  0  0  0  0  0  0  0  0  # atno 8009 bound_to 7997
  155.8244  140.3445  155.5536 H   0  0  0  0  0  0  0  0  0  0  0  0  # atno 8010 bound_to 7997
  140.3702  144.2114  150.6133 H   0  0  0  0  0  0  0  0  0  0  0  0  # atno 10167 bound_to 10162
  156.1279  130.4161  150.0322 H   0  0  0  0  0  0  0  0  0  0  0  0  # atno 10718 bound_to 10713
  154.7444  135.3076  154.8670 H   0  0  0  0  0  0  0  0  0  0  0  0  # atno 10763 bound_to 10752
  153.9475  135.6767  153.4748 H   0  0  0  0  0  0  0  0  0  0  0  0  # atno 10764 bound_to 10752
  153.1042  135.4897  154.8846 H   0  0  0  0  0  0  0  0  0  0  0  0  # atno 10765 bound_to 10752
  139.8785  134.8921  156.4075 H   0  0  0  0  0  0  0  0  0  0  0  0  # atno 11005 bound_to 11000
  145.9263  140.9080  143.0379 LP  0  0  0  0  0  0  0  0  0  0  0  0  # atno 17320 bound_to 7965
  144.6727  140.1357  143.7440 LP  0  0  0  0  0  0  0  0  0  0  0  0  # atno 17321 bound_to 7965
  140.5040  143.2309  151.8635 LP  0  0  0  0  0  0  0  0  0  0  0  0  # atno 17342 bound_to 10162
  139.4804  144.5026  151.9040 LP  0  0  0  0  0  0  0  0  0  0  0  0  # atno 17343 bound_to 10162
  156.8243  130.9370  151.3640 LP  0  0  0  0  0  0  0  0  0  0  0  0  # atno 17370 bound_to 10713
  157.6459  130.8844  149.9537 LP  0  0  0  0  0  0  0  0  0  0  0  0  # atno 17371 bound_to 10713
  140.9224  133.7636  155.9922 LP  0  0  0  0  0  0  0  0  0  0  0  0  # atno 17394 bound_to 11000
  140.8425  134.3050  157.5308 LP  0  0  0  0  0  0  0  0  0  0  0  0  # atno 17395 bound_to 11000

$$$$
