#       Name:                AV-unprocessed.smi:282
#       Creating user name   scv26
#       Creation time:       Thu Mar 26 21:42:28 2020


#       File generated by GOLD software.
#

@<TRIPOS>MOLECULE
AV-unprocessed.smi:282
    73    77     1
SMALL
NO_CHARGES


@<TRIPOS>ATOM
      1 ****        -3.1755   2.3169  -2.5489 C.3            1 S1                 0.0000
      2 ****        -2.3100   1.3871  -1.6867 C.3            1 S1                 0.0000
      3 ****        -2.8094   1.2286  -0.2252 C.3            1 S1                 0.0000
      4 ****        -4.2097   0.5709  -0.2046 C.3            1 S1                 0.0000
      5 ****        -4.6885   0.2945   1.1741 N.4            1 S1                 1.0000
      6 ****        -6.0600  -0.2777   1.2225 C.3            1 S1                 0.0000
      7 ****        -6.0850  -1.7650   0.8176 C.3            1 S1                 0.0000
      8 ****        -5.0981  -2.5853   1.6600 C.3            1 S1                 0.0000
      9 ****        -3.6926  -1.9711   1.5898 C.3            1 S1                 0.0000
     10 ****        -3.7215  -0.4819   1.9974 C.3            1 S1                 0.0000
     11 ****        -2.3312   0.1720   1.9653 C.3            1 S1                 0.0000
     12 ****        -1.8809   0.4443   0.6031 N.3            1 S1                 0.0000
     13 ****        -0.5825   0.8280   0.6272 C.ar           1 S1                 0.0000
     14 ****        -0.2586   2.1432   0.7418 N.ar           1 S1                 0.0000
     15 ****         1.0256   2.5114   0.7847 C.ar           1 S1                 0.0000
     16 ****         2.1160   1.7431   0.7354 N.ar           1 S1                 0.0000
     17 ****         1.7922   0.4225   0.6302 C.ar           1 S1                 0.0000
     18 ****         0.4766  -0.1158   0.5798 C.ar           1 S1                 0.0000
     19 ****         0.5279  -1.5003   0.4931 N.2            1 S1                 0.0000
     20 ****         1.8056  -1.7669   0.4926 C.2            1 S1                 0.0000
     21 ****         2.6389  -0.6705   0.5497 N.pl3          1 S1                 0.0000
     22 ****         4.0959  -0.6836   0.5639 C.3            1 S1                 0.0000
     23 ****         4.7780  -0.6532  -0.8414 C.3            1 S1                 0.0000
     24 ****         4.2801  -1.8741  -1.6656 C.3            1 S1                 0.0000
     25 ****         4.9167  -2.0047  -2.9215 O.3            1 S1                 0.0000
     26 ****         4.4634   0.6585  -1.6065 C.3            1 S1                 0.0000
     27 ****         5.1534   1.8863  -0.9836 C.3            1 S1                 0.0000
     28 ****         6.5578   1.6734  -0.9182 O.3            1 S1                 0.0000
     29 ****         6.9116   0.5749  -0.0872 C.3            1 S1                 0.0000
     30 ****         6.3163  -0.7272  -0.6552 C.3            1 S1                 0.0000
     31 ****        -2.7132   2.4763  -3.5233 H              1 S1                 0.0000
     32 ****        -3.2956   3.2927  -2.0775 H              1 S1                 0.0000
     33 ****        -4.1669   1.9015  -2.7276 H              1 S1                 0.0000
     34 ****        -2.2415   0.4084  -2.1632 H              1 S1                 0.0000
     35 ****        -1.3002   1.7953  -1.7052 H              1 S1                 0.0000
     36 ****        -2.8939   2.2194   0.2242 H              1 S1                 0.0000
     37 ****        -4.9364   1.2226  -0.6893 H              1 S1                 0.0000
     38 ****        -4.1857  -0.3541  -0.7810 H              1 S1                 0.0000
     39 ****        -6.4381  -0.1738   2.2404 H              1 S1                 0.0000
     40 ****        -6.7304   0.3027   0.5872 H              1 S1                 0.0000
     41 ****        -7.0927  -2.1631   0.9389 H              1 S1                 0.0000
     42 ****        -5.8434  -1.8723  -0.2403 H              1 S1                 0.0000
     43 ****        -5.4351  -2.6108   2.6971 H              1 S1                 0.0000
     44 ****        -5.0754  -3.6194   1.3145 H              1 S1                 0.0000
     45 ****        -3.0209  -2.5231   2.2481 H              1 S1                 0.0000
     46 ****        -3.2901  -2.0842   0.5826 H              1 S1                 0.0000
     47 ****        -4.0718  -0.4366   3.0297 H              1 S1                 0.0000
     48 ****        -2.3640   1.1154   2.5129 H              1 S1                 0.0000
     49 ****        -1.6143  -0.4647   2.4868 H              1 S1                 0.0000
     50 ****         1.2059   3.5728   0.8723 H              1 S1                 0.0000
     51 ****         2.1795  -2.7794   0.4401 H              1 S1                 0.0000
     52 ****         4.4240   0.1484   1.1849 H              1 S1                 0.0000
     53 ****         4.4077  -1.5813   1.0998 H              1 S1                 0.0000
     54 ****         4.4410  -2.7983  -1.1096 H              1 S1                 0.0000
     55 ****         3.2102  -1.8022  -1.8594 H              1 S1                 0.0000
     56 ****         4.7379  -1.2288  -3.4307 H              1 S1                 0.0000
     57 ****         4.8132   0.5791  -2.6361 H              1 S1                 0.0000
     58 ****         3.3887   0.8233  -1.6766 H              1 S1                 0.0000
     59 ****         4.9640   2.7667  -1.5977 H              1 S1                 0.0000
     60 ****         4.7640   2.1112   0.0089 H              1 S1                 0.0000
     61 ****         7.9987   0.5003  -0.0583 H              1 S1                 0.0000
     62 ****         6.5881   0.7562   0.9380 H              1 S1                 0.0000
     63 ****         6.5832  -1.5693  -0.0157 H              1 S1                 0.0000
     64 ****         6.8053  -0.9130  -1.6116 H              1 S1                 0.0000
     65 ****        -4.7527   1.2021   1.6126 H              1 S1                 0.0000
     66 ****        -1.9069  -0.4072   0.0795 LP             1 S1                 0.0000
     67 ****        -0.9798   2.8340   0.7939 LP             1 S1                 0.0000
     68 ****         3.0525   2.0920   0.7711 LP             1 S1                 0.0000
     69 ****        -0.2361  -2.1435   0.4428 LP             1 S1                 0.0000
     70 ****         4.5620  -2.8095  -3.3973 LP             1 S1                 0.0000
     71 ****         5.9033  -2.1025  -2.7910 LP             1 S1                 0.0000
     72 ****         6.9895   2.4996  -0.5563 LP             1 S1                 0.0000
     73 ****         6.8974   1.4973  -1.8421 LP             1 S1                 0.0000
@<TRIPOS>BOND
    1    1    2 1     
    2    1   31 1     
    3    1   32 1     
    4    1   33 1     
    5    2    3 1     
    6    2   34 1     
    7    2   35 1     
    8    3   12 1     
    9    3    4 1     
   10    3   36 1     
   11    4    5 1     
   12    4   37 1     
   13    4   38 1     
   14    5   10 1     
   15    5    6 1     
   16    5   65 1     
   17    6    7 1     
   18    6   39 1     
   19    6   40 1     
   20    7    8 1     
   21    7   41 1     
   22    7   42 1     
   23    8    9 1     
   24    8   43 1     
   25    8   44 1     
   26    9   10 1     
   27    9   45 1     
   28    9   46 1     
   29   10   11 1     
   30   10   47 1     
   31   11   12 1     
   32   11   48 1     
   33   11   49 1     
   34   12   13 1     
   35   13   18 ar    
   36   13   14 ar    
   37   14   15 ar    
   38   15   16 ar    
   39   15   50 1     
   40   16   17 ar    
   41   17   21 1     
   42   17   18 ar    
   43   18   19 1     
   44   19   20 2     
   45   20   21 1     
   46   20   51 1     
   47   21   22 1     
   48   22   23 1     
   49   22   52 1     
   50   22   53 1     
   51   23   30 1     
   52   23   24 1     
   53   23   26 1     
   54   24   25 1     
   55   24   54 1     
   56   24   55 1     
   57   25   56 1     
   58   26   27 1     
   59   26   57 1     
   60   26   58 1     
   61   27   28 1     
   62   27   59 1     
   63   27   60 1     
   64   28   29 1     
   65   29   30 1     
   66   29   61 1     
   67   29   62 1     
   68   30   63 1     
   69   30   64 1     
   70   12   66 1     
   71   14   67 1     
   72   16   68 1     
   73   19   69 1     
   74   25   70 1     
   75   25   71 1     
   76   28   72 1     
   77   28   73 1     
@<TRIPOS>SUBSTRUCTURE
      1 S1             1
@<TRIPOS>SET
LONE_PAIRS      STATIC     ATOMS    <user>   **** ""
8 66 67 68 69 70 71 72 73
DONOR_HYDROGENS      STATIC     ATOMS    <user>   **** ""
2 65 56
ATOM$BLUE        STATIC     ATOMS    COLORGROUP SYSTEM
8 66 67 68 69 70 71 72 73
ATOM$RED        STATIC     ATOMS    COLORGROUP SYSTEM
2 65 56
