AV-unprocessed.smi:598|AV-procd|sdf|3021|dock2
  -GOLD-   2262023533D 1   1.00000     0.00000
 Structure written by MMmdl.
 43 44  0  0  0  0  0  0  0  0  3 V2000
  146.2022  133.1223  150.5251 C   0  0  0  0  0  0  0  0  0  0  0  0
  146.6411  133.9659  151.7355 C   0  0  2  0  0  0  0  0  0  0  0  0
  147.4049  133.0787  152.7403 C   0  0  0  0  0  0  0  0  0  0  0  0
  147.8863  133.8694  153.9643 C   0  0  0  0  0  0  0  0  0  0  0  0
  146.7154  134.5833  154.6565 C   0  0  0  0  0  0  0  0  0  0  0  0
  145.9361  135.4857  153.6820 C   0  0  1  0  0  0  0  0  0  0  0  0
  146.7619  136.6356  153.3068 N   0  0  0  0  0  0  0  0  0  0  0  0
  146.5987  137.9006  153.7240 C   0  0  0  0  0  0  0  0  0  0  0  0
  145.7382  138.2422  154.5359 O   0  0  0  0  0  0  0  0  0  0  0  0
  147.5590  138.9351  153.1244 C   0  0  0  0  0  0  0  0  0  0  0  0
  148.5236  139.4330  154.1180 N   0  0  0  0  0  0  0  0  0  0  0  0
  149.7674  138.7730  154.1678 C   0  0  0  0  0  0  0  0  0  0  0  0
  150.7445  139.1469  155.0162 C   0  0  0  0  0  0  0  0  0  0  0  0
  152.0185  138.4627  155.0435 N   0  3  0  0  0  0  0  0  0  0  0  0
  152.1200  137.3857  154.4654 O   0  0  0  0  0  0  0  0  0  0  0  0
  152.9583  138.9772  155.6430 O   0  5  0  0  0  0  0  0  0  0  0  0
  150.4783  140.2671  155.8977 C   0  0  0  0  0  0  0  0  0  0  0  0
  149.2919  140.9051  155.8529 C   0  0  0  0  0  0  0  0  0  0  0  0
  148.2320  140.4999  154.9232 C   0  0  0  0  0  0  0  0  0  0  0  0
  147.1511  141.0864  154.8714 O   0  0  0  0  0  0  0  0  0  0  0  0
  145.4567  134.6877  152.4374 C   0  0  1  0  0  0  0  0  0  0  0  0
  144.6284  135.5651  151.4764 C   0  0  0  0  0  0  0  0  0  0  0  0
  145.4493  132.3854  150.8065 H   0  0  0  0  0  0  0  0  0  0  0  0
  147.0484  132.5844  150.0968 H   0  0  0  0  0  0  0  0  0  0  0  0
  145.7873  133.7409  149.7297 H   0  0  0  0  0  0  0  0  0  0  0  0
  147.3337  134.7231  151.3652 H   0  0  0  0  0  0  0  0  0  0  0  0
  146.7619  132.2611  153.0698 H   0  0  0  0  0  0  0  0  0  0  0  0
  148.2625  132.6147  152.2518 H   0  0  0  0  0  0  0  0  0  0  0  0
  148.3778  133.1976  154.6687 H   0  0  0  0  0  0  0  0  0  0  0  0
  148.6389  134.5972  153.6589 H   0  0  0  0  0  0  0  0  0  0  0  0
  146.0387  133.8365  155.0735 H   0  0  0  0  0  0  0  0  0  0  0  0
  147.0805  135.1665  155.5029 H   0  0  0  0  0  0  0  0  0  0  0  0
  145.0545  135.8424  154.2174 H   0  0  0  0  0  0  0  0  0  0  0  0
  147.5035  136.4542  152.6463 H   0  0  0  0  0  0  0  0  0  0  0  0
  148.0571  138.4875  152.2632 H   0  0  0  0  0  0  0  0  0  0  0  0
  146.9912  139.7747  152.7192 H   0  0  0  0  0  0  0  0  0  0  0  0
  149.8673  137.9576  153.4655 H   0  0  0  0  0  0  0  0  0  0  0  0
  151.2283  140.6038  156.5980 H   0  0  0  0  0  0  0  0  0  0  0  0
  149.1154  141.7383  156.5173 H   0  0  0  0  0  0  0  0  0  0  0  0
  144.7802  133.9144  152.8051 H   0  0  0  0  0  0  0  0  0  0  0  0
  145.2530  136.2850  150.9466 H   0  0  0  0  0  0  0  0  0  0  0  0
  143.8635  136.1223  152.0180 H   0  0  0  0  0  0  0  0  0  0  0  0
  144.1099  134.9640  150.7299 H   0  0  0  0  0  0  0  0  0  0  0  0
  1  2  1  0  0  0  0
  1 23  1  0  0  0  0
  1 24  1  0  0  0  0
  1 25  1  0  0  0  0
  2 21  1  0  0  0  0
  2  3  1  0  0  0  0
  2 26  1  0  0  0  0
  3  4  1  0  0  0  0
  3 27  1  0  0  0  0
  3 28  1  0  0  0  0
  4  5  1  0  0  0  0
  4 29  1  0  0  0  0
  4 30  1  0  0  0  0
  5  6  1  0  0  0  0
  5 31  1  0  0  0  0
  5 32  1  0  0  0  0
  6  7  1  0  0  0  0
  6 21  1  0  0  0  0
  6 33  1  0  0  0  0
  7  8  1  0  0  0  0
  7 34  1  0  0  0  0
  8  9  2  0  0  0  0
  8 10  1  0  0  0  0
 10 11  1  0  0  0  0
 10 35  1  0  0  0  0
 10 36  1  0  0  0  0
 11 19  1  0  0  0  0
 11 12  1  0  0  0  0
 12 13  2  0  0  0  0
 12 37  1  0  0  0  0
 13 14  1  0  0  0  0
 13 17  1  0  0  0  0
 14 15  2  0  0  0  0
 14 16  1  0  0  0  0
 17 18  2  0  0  0  0
 17 38  1  0  0  0  0
 18 19  1  0  0  0  0
 18 39  1  0  0  0  0
 19 20  2  0  0  0  0
 21 22  1  0  0  0  0
 21 40  1  0  0  0  0
 22 41  1  0  0  0  0
 22 42  1  0  0  0  0
 22 43  1  0  0  0  0
M  CHG  1  14   1
M  CHG  1  16  -1
M  END
> <s_m_source_file>
AV-unprocessed.smi

> <i_m_source_file_index>
598

> <i_lp_mmshare_version>
43012

> <i_f3d_flags>
0

> <s_epik_input>
W0NIM11bQ0BASF0xW0NIMl1bQ0gyXVtDSDJdW0NASF0oW0NASF0xW0NIM10pW05IXUMoPU8pW0NIMl1uMltjSF1jKFtOK10oPU8pW08tXSlbY0hdW2NIXWMyPU8=

> <s_epik_cmdline>
J2VwaWtfcHl0aG9uJywgJy1waCcsICc3LjAnLCAnLXRuJywgJzgnLCAnLW1hJywgJzIwMCcsICctbWV0YWxfYmluZGluZycsICctaW1hZScsICc8aW5maWxlLm1hZT4nLCAnLW9tYWUnLCAnPG91dGZpbGUubWFlPic=

> <r_lp_tautomer_probability>
1

> <r_epik_Ionization_Penalty>
1.91291e-08

> <r_epik_Ionization_Penalty_Charging>
8.21931e-11

> <r_epik_Ionization_Penalty_Neutral>
1.90469e-08

> <r_epik_State_Penalty>
-0

> <r_epik_Charging_Adjusted_Penalty>
8.21931e-11

> <i_epik_Tot_Q>
0

> <i_epik_Tot_abs_Q>
2

> <r_epik_Metal_State_Penalty>
-0

> <b_epik_Metal_Only>
0

> <s_lp_Force_Field>
OPLS_2005

> <r_lp_Energy>
23.6598

> <b_lp_Chiralities_Consistent>
1

> <s_lp_Variant>
AV-unprocessed.smi:598-1

> <Gold.Version>
5.8.1

> <Gold.Id.Protein>
6NUR|6NUR_protein|mol2

> <Gold.PLP.Fitness>
44.4634

> <Gold.PLP.PLP>
-34.5432

> <Gold.PLP.part.hbond>
-3.0000

> <Gold.PLP.part.metal>
0.0000

> <Gold.PLP.part.buried>
-0.8738

> <Gold.PLP.part.nonpolar>
-30.7740

> <Gold.PLP.part.repulsive>
0.3228

> <Gold.PLP.ligand.clash>
0.0000

> <Gold.PLP.ligand.torsion>
0.6558

> <Gold.PLP.Chemscore.Hbond>
2.7360

> <Gold.PLP.Chemscore.CHOScore>
1.0000

> <Gold.PLP.Chemscore.Metal>
0.0000

> <Gold.Chemscore.Hbonds>
donor molecule, donor type, donor heavy atom, donor atom, acceptor molecule, acceptor atom, score
      L1  H     7    34       P1  7948  1.00
      P1  H  7997  8009       L1    16  1.00
      P1  H 10752 10764       L1    15  0.67
      L1  C    12    37       P1  7948  1.00

> <Gold.PLP.Chemscore.Internal.Correction>
0.0237

> <Gold.Rescore>
     Score         DG    S(hbond)    S(metal)    S(lipo)     H(rot)  DE(clash)    DE(int)     intcor
     18.10     -18.90       2.71        0.00      70.95       1.54       0.25       0.55       ----

> <Gold.Chemscore.Fitness>
18.0995

> <Gold.Chemscore.DG>
-18.8985

> <Gold.Chemscore.ZeroCoef>
-5.4800

> <Gold.Chemscore.Hbond>
2.7121

> <Gold.Chemscore.Metal>
0.0000

> <Gold.Chemscore.Lipo>
70.9471

> <Gold.Chemscore.Internal_Hbond>
0.0000

> <Gold.Chemscore.DEClash>
0.2534

> <Gold.Chemscore.DEInternal>
0.5456

> <Gold.Chemscore.Rot>
1.5393

> <Gold.Chemscore.Internal.Correction>
   9.000000E+99

> <Gold.Chemscore.Hbonds>
donor molecule, donor type, donor heavy atom, donor atom, acceptor molecule, acceptor atom, score
      L1  H     7    34       P1  7948  1.00
      P1  H  7997  8009       L1    16  1.00
      P1  H 10752 10764       L1    15  0.66

> <Gold.Chemscore.Hbond.Weighted>
-9.0584

> <Gold.Chemscore.Metal.Weighted>
-0.0000

> <Gold.Chemscore.Lipo.Weighted>
-8.3008

> <Gold.Chemscore.Internal_Hbond.Weighted>
0.0000

> <Gold.Chemscore.DEClash.Weighted>
0.2534

> <Gold.Chemscore.DEInternal.Weighted>
0.5456

> <Gold.Chemscore.Rot.Weighted>
3.9407

> <Gold.Chemscore.Internal.Correction.Weighted>
   9.000000E+99

> <Gold.Protein.RotatedTorsions>
[ 6907 6896 6895 6894 ] final -120.17 input  -60.11 | X-H torsion
[ 7974 7965 7964 7962 ] final -108.24 input  175.53 | X-H torsion
[ 8008 7997 7996 7995 ] final -153.68 input   59.86 | X-H torsion
[ 10167 10162 10161 10158 ] final  144.70 input  -65.29 | X-H torsion
[ 10718 10713 10712 10709 ] final -159.08 input   66.30 | X-H torsion
[ 10763 10752 10751 10750 ] final -100.14 input  -60.55 | X-H torsion
[ 11005 11000 10999 10996 ] final  171.15 input  -57.11 | X-H torsion

> <Gold.Protein.ActiveResidues>
 VAL166  LYS551  ARG553  GLY616  TRP617  ASP618  TYR619  PRO620  LYS621  CYS622 
 ASP623  PHE694  ASN695  SER759  ASP760  ASP761  ALA762  ILE779  LEU786  VAL792 
 PHE793  MET794  SER795  GLU796  ALA797  LYS798  CYS799  TRP800  GLU811  SER814 

> <Gold.Protein.RotatedAtoms>
  150.8369  133.7998  159.3075 H   0  0  0  0  0  0  0  0  0  0  0  0  # atno 6907 bound_to 6896
  151.5711  135.1061  160.0005 H   0  0  0  0  0  0  0  0  0  0  0  0  # atno 6908 bound_to 6896
  152.4440  133.7459  159.6723 H   0  0  0  0  0  0  0  0  0  0  0  0  # atno 6909 bound_to 6896
  145.1953  140.9033  143.3401 H   0  0  0  0  0  0  0  0  0  0  0  0  # atno 7974 bound_to 7965
  155.6746  140.0737  157.2507 H   0  0  0  0  0  0  0  0  0  0  0  0  # atno 8008 bound_to 7997
  154.4117  140.1693  156.1967 H   0  0  0  0  0  0  0  0  0  0  0  0  # atno 8009 bound_to 7997
  155.9587  140.3371  155.6475 H   0  0  0  0  0  0  0  0  0  0  0  0  # atno 8010 bound_to 7997
  139.4941  144.5953  151.6595 H   0  0  0  0  0  0  0  0  0  0  0  0  # atno 10167 bound_to 10162
  156.5631  130.8656  151.2815 H   0  0  0  0  0  0  0  0  0  0  0  0  # atno 10718 bound_to 10713
  154.7555  135.4946  153.9367 H   0  0  0  0  0  0  0  0  0  0  0  0  # atno 10763 bound_to 10752
  153.1191  135.6727  153.9374 H   0  0  0  0  0  0  0  0  0  0  0  0  # atno 10764 bound_to 10752
  153.9111  135.3099  155.3427 H   0  0  0  0  0  0  0  0  0  0  0  0  # atno 10765 bound_to 10752
  140.3159  134.7478  157.4027 H   0  0  0  0  0  0  0  0  0  0  0  0  # atno 11005 bound_to 11000
  145.0001  139.3607  143.6172 LP  0  0  0  0  0  0  0  0  0  0  0  0  # atno 17320 bound_to 7965
  146.3428  139.9220  142.8765 LP  0  0  0  0  0  0  0  0  0  0  0  0  # atno 17321 bound_to 7965
  140.5590  144.0300  150.6161 LP  0  0  0  0  0  0  0  0  0  0  0  0  # atno 17342 bound_to 10162
  140.3380  143.3037  152.0618 LP  0  0  0  0  0  0  0  0  0  0  0  0  # atno 17343 bound_to 10162
  157.7364  130.9778  150.2135 LP  0  0  0  0  0  0  0  0  0  0  0  0  # atno 17370 bound_to 10713
  156.2781  130.3730  149.7963 LP  0  0  0  0  0  0  0  0  0  0  0  0  # atno 17371 bound_to 10713
  140.0984  134.5506  155.8376 LP  0  0  0  0  0  0  0  0  0  0  0  0  # atno 17394 bound_to 11000
  141.2097  133.6687  156.6461 LP  0  0  0  0  0  0  0  0  0  0  0  0  # atno 17395 bound_to 11000

$$$$
