#       Name:                AV-unprocessed.smi:2583
#       Creating user name   scv26
#       Creation time:       Fri Mar 27 14:15:03 2020


#       File generated by GOLD software.
#

@<TRIPOS>MOLECULE
AV-unprocessed.smi:2583
    58    60     1
SMALL
NO_CHARGES


@<TRIPOS>ATOM
      1 ****        -5.9472   6.1711  -0.1571 C.3            1 S1                 0.0000
      2 ****        -5.9979   4.6659   0.0016 C.ar           1 S1                 0.0000
      3 ****        -7.1938   4.0122   0.3637 C.ar           1 S1                 0.0000
      4 ****        -7.2930   2.6733   0.5017 N.ar           1 S1                 0.0000
      5 ****        -6.1855   1.9319   0.2869 C.ar           1 S1                 0.0000
      6 ****        -4.9330   2.4797  -0.0618 C.ar           1 S1                 0.0000
      7 ****        -3.8474   1.5890  -0.2773 N.am           1 S1                 0.0000
      8 ****        -2.5325   1.8471  -0.1737 C.2            1 S1                 0.0000
      9 ****        -2.0451   2.9220   0.1759 O.2            1 S1                 0.0000
     10 ****        -1.7968   0.7672  -0.4759 N.am           1 S1                 0.0000
     11 ****        -0.3381   0.7126  -0.4355 C.3            1 S1                 0.0000
     12 ****         0.1810  -0.3619  -1.3984 C.3            1 S1                 0.0000
     13 ****         1.7128  -0.4912  -1.3217 C.3            1 S1                 0.0000
     14 ****         2.1782  -0.7869   0.0659 N.4            1 S1                 1.0000
     15 ****         3.6542  -1.0291   0.2110 C.3            1 S1                 0.0000
     16 ****         4.3298  -1.7775  -0.9663 C.3            1 S1                 0.0000
     17 ****         3.9158  -3.2597  -1.0394 C.3            1 S1                 0.0000
     18 ****         4.2142  -3.9587   0.2342 N.4            1 S1                 1.0000
     19 ****         3.9138  -5.4052   0.1673 C.3            1 S1                 0.0000
     20 ****         3.5692  -3.2990   1.3961 C.3            1 S1                 0.0000
     21 ****         3.9893  -1.8208   1.4983 C.3            1 S1                 0.0000
     22 ****         1.6888   0.2603   1.0102 C.3            1 S1                 0.0000
     23 ****         0.1582   0.3915   0.9818 C.3            1 S1                 0.0000
     24 ****        -4.8464   3.8838  -0.2187 C.ar           1 S1                 0.0000
     25 ****        -6.8558   6.6401   0.2216 H              1 S1                 0.0000
     26 ****        -5.8381   6.4348  -1.2094 H              1 S1                 0.0000
     27 ****        -5.0986   6.5824   0.3902 H              1 S1                 0.0000
     28 ****        -8.0984   4.5751   0.5407 H              1 S1                 0.0000
     29 ****        -6.3033   0.8644   0.4035 H              1 S1                 0.0000
     30 ****        -4.1034   0.6326  -0.4747 H              1 S1                 0.0000
     31 ****        -2.2806  -0.0753  -0.7512 H              1 S1                 0.0000
     32 ****         0.0673   1.6770  -0.7488 H              1 S1                 0.0000
     33 ****        -0.2760  -1.3245  -1.1633 H              1 S1                 0.0000
     34 ****        -0.1158  -0.1213  -2.4201 H              1 S1                 0.0000
     35 ****         1.9898  -1.2895  -2.0074 H              1 S1                 0.0000
     36 ****         2.1890   0.4227  -1.6803 H              1 S1                 0.0000
     37 ****         4.1291  -0.0485   0.2737 H              1 S1                 0.0000
     38 ****         4.1695  -1.2765  -1.9204 H              1 S1                 0.0000
     39 ****         5.4106  -1.7369  -0.8214 H              1 S1                 0.0000
     40 ****         2.8530  -3.3531  -1.2659 H              1 S1                 0.0000
     41 ****         4.4556  -3.7462  -1.8529 H              1 S1                 0.0000
     42 ****         2.8476  -5.5780   0.0140 H              1 S1                 0.0000
     43 ****         4.2122  -5.9038   1.0901 H              1 S1                 0.0000
     44 ****         4.4577  -5.8740  -0.6534 H              1 S1                 0.0000
     45 ****         2.4845  -3.3802   1.3109 H              1 S1                 0.0000
     46 ****         3.8540  -3.8205   2.3107 H              1 S1                 0.0000
     47 ****         5.0665  -1.7779   1.6668 H              1 S1                 0.0000
     48 ****         3.5482  -1.3729   2.3865 H              1 S1                 0.0000
     49 ****         1.9864   0.0394   2.0330 H              1 S1                 0.0000
     50 ****         2.1450   1.2188   0.7565 H              1 S1                 0.0000
     51 ****        -0.1533   1.1741   1.6750 H              1 S1                 0.0000
     52 ****        -0.2950  -0.5353   1.3375 H              1 S1                 0.0000
     53 ****        -3.9290   4.3677  -0.5170 H              1 S1                 0.0000
     54 ****         1.7226  -1.6494   0.3275 H              1 S1                 0.0000
     55 ****         5.2116  -3.8834   0.3774 H              1 S1                 0.0000
     56 ****        -8.1598   2.2439   0.7552 LP             1 S1                 0.0000
     57 ****        -2.6423   3.6892   0.4100 LP             1 S1                 0.0000
     58 ****        -1.0520   3.0280   0.2259 LP             1 S1                 0.0000
@<TRIPOS>BOND
    1    1    2 1     
    2    1   25 1     
    3    1   26 1     
    4    1   27 1     
    5    2   24 ar    
    6    2    3 ar    
    7    3    4 ar    
    8    3   28 1     
    9    4    5 ar    
   10    5    6 ar    
   11    5   29 1     
   12    6    7 1     
   13    6   24 ar    
   14    7    8 am    
   15    7   30 1     
   16    8    9 2     
   17    8   10 am    
   18   10   11 1     
   19   10   31 1     
   20   11   23 1     
   21   11   12 1     
   22   11   32 1     
   23   12   13 1     
   24   12   33 1     
   25   12   34 1     
   26   13   14 1     
   27   13   35 1     
   28   13   36 1     
   29   14   15 1     
   30   14   22 1     
   31   14   54 1     
   32   15   21 1     
   33   15   16 1     
   34   15   37 1     
   35   16   17 1     
   36   16   38 1     
   37   16   39 1     
   38   17   18 1     
   39   17   40 1     
   40   17   41 1     
   41   18   19 1     
   42   18   20 1     
   43   18   55 1     
   44   19   42 1     
   45   19   43 1     
   46   19   44 1     
   47   20   21 1     
   48   20   45 1     
   49   20   46 1     
   50   21   47 1     
   51   21   48 1     
   52   22   23 1     
   53   22   49 1     
   54   22   50 1     
   55   23   51 1     
   56   23   52 1     
   57   24   53 1     
   58    4   56 1     
   59    9   57 1     
   60    9   58 1     
@<TRIPOS>SUBSTRUCTURE
      1 S1             1
@<TRIPOS>SET
LONE_PAIRS      STATIC     ATOMS    <user>   **** ""
3 56 57 58
DONOR_HYDROGENS      STATIC     ATOMS    <user>   **** ""
4 30 31 54 55
ATOM$BLUE        STATIC     ATOMS    COLORGROUP SYSTEM
3 56 57 58
ATOM$RED        STATIC     ATOMS    COLORGROUP SYSTEM
4 30 31 54 55
