AV-unprocessed.smi:1484|AV-procd|sdf|5993|dock8
  -GOLD-   22720 6 83D 1   1.00000     0.00000
 Structure written by MMmdl.
 37 38  0  0  0  0  0  0  0  0  2 V2000
  146.9127  137.6375  154.0376 C   0  0  0  0  0  0  0  0  0  0  0  0
  147.6553  138.8460  154.6250 C   0  0  2  0  0  0  0  0  0  0  0  0
  146.9341  140.1657  154.2911 C   0  0  0  0  0  0  0  0  0  0  0  0
  147.6753  141.3784  154.8753 C   0  0  0  0  0  0  0  0  0  0  0  0
  149.1369  141.4240  154.3972 C   0  0  0  0  0  0  0  0  0  0  0  0
  149.8888  140.1136  154.6994 C   0  0  1  0  0  0  0  0  0  0  0  0
  150.1253  139.9867  156.1364 N   0  0  0  0  0  0  0  0  0  0  0  0
  151.3241  139.8473  156.7224 C   0  0  0  0  0  0  0  0  0  0  0  0
  152.3807  139.8085  156.0897 O   0  0  0  0  0  0  0  0  0  0  0  0
  151.3009  139.7289  158.2547 C   0  0  0  0  0  0  0  0  0  0  0  0
  151.9405  140.8507  158.9578 N   0  0  0  0  0  0  0  0  0  0  0  0
  153.1461  140.4745  159.6915 N   0  5  0  0  0  0  0  0  0  0  0  0
  153.8159  141.4244  160.3966 C   0  0  0  0  0  0  0  0  0  0  0  0
  154.8275  141.1798  161.0499 O   0  0  0  0  0  0  0  0  0  0  0  0
  153.3070  142.7855  160.3657 C   0  0  0  0  0  0  0  0  0  0  0  0
  152.2035  143.1084  159.6629 C   0  0  0  0  0  0  0  0  0  0  0  0
  151.4507  142.1220  158.8973 C   0  0  0  0  0  0  0  0  0  0  0  0
  150.4463  142.4117  158.2469 O   0  0  0  0  0  0  0  0  0  0  0  0
  149.1208  138.8941  154.1439 C   0  0  0  0  0  0  0  0  0  0  0  0
  146.8709  137.6876  152.9491 H   0  0  0  0  0  0  0  0  0  0  0  0
  145.8885  137.5880  154.4082 H   0  0  0  0  0  0  0  0  0  0  0  0
  147.4064  136.7042  154.3095 H   0  0  0  0  0  0  0  0  0  0  0  0
  147.6578  138.7288  155.7095 H   0  0  0  0  0  0  0  0  0  0  0  0
  146.8517  140.2782  153.2092 H   0  0  0  0  0  0  0  0  0  0  0  0
  145.9144  140.1418  154.6771 H   0  0  0  0  0  0  0  0  0  0  0  0
  147.1643  142.2978  154.5887 H   0  0  0  0  0  0  0  0  0  0  0  0
  147.6433  141.3371  155.9648 H   0  0  0  0  0  0  0  0  0  0  0  0
  149.1518  141.6029  153.3213 H   0  0  0  0  0  0  0  0  0  0  0  0
  149.6541  142.2703  154.8516 H   0  0  0  0  0  0  0  0  0  0  0  0
  150.8587  140.1678  154.2015 H   0  0  0  0  0  0  0  0  0  0  0  0
  149.3114  140.0079  156.7333 H   0  0  0  0  0  0  0  0  0  0  0  0
  150.2621  139.6304  158.5758 H   0  0  0  0  0  0  0  0  0  0  0  0
  151.7816  138.7912  158.5388 H   0  0  0  0  0  0  0  0  0  0  0  0
  153.8265  143.5553  160.9172 H   0  0  0  0  0  0  0  0  0  0  0  0
  151.8623  144.1327  159.6677 H   0  0  0  0  0  0  0  0  0  0  0  0
  149.6354  137.9714  154.4154 H   0  0  0  0  0  0  0  0  0  0  0  0
  149.1376  138.9355  153.0541 H   0  0  0  0  0  0  0  0  0  0  0  0
  1  2  1  0  0  0  0
  1 20  1  0  0  0  0
  1 21  1  0  0  0  0
  1 22  1  0  0  0  0
  2 19  1  0  0  0  0
  2  3  1  0  0  0  0
  2 23  1  0  0  0  0
  3  4  1  0  0  0  0
  3 24  1  0  0  0  0
  3 25  1  0  0  0  0
  4  5  1  0  0  0  0
  4 26  1  0  0  0  0
  4 27  1  0  0  0  0
  5  6  1  0  0  0  0
  5 28  1  0  0  0  0
  5 29  1  0  0  0  0
  6  7  1  0  0  0  0
  6 19  1  0  0  0  0
  6 30  1  0  0  0  0
  7  8  1  0  0  0  0
  7 31  1  0  0  0  0
  8  9  2  0  0  0  0
  8 10  1  0  0  0  0
 10 32  1  0  0  0  0
 10 33  1  0  0  0  0
 10 11  1  0  0  0  0
 11 12  1  0  0  0  0
 11 17  1  0  0  0  0
 12 13  1  0  0  0  0
 13 14  2  0  0  0  0
 13 15  1  0  0  0  0
 15 34  1  0  0  0  0
 15 16  2  0  0  0  0
 16 35  1  0  0  0  0
 16 17  1  0  0  0  0
 17 18  2  0  0  0  0
 19 36  1  0  0  0  0
 19 37  1  0  0  0  0
M  CHG  1  12  -1
M  END
> <s_m_source_file>
AV-unprocessed.smi

> <i_m_source_file_index>
1484

> <i_lp_mmshare_version>
43012

> <i_f3d_flags>
0

> <s_epik_input>
W0NIM11bQ0BASF0xW0NIMl1bQ0gyXVtDSDJdW0NASF0oW0NIMl0xKVtOSF1DKD1PKVtDSDJdbjJbbkhdYyg9TylbY0hdW2NIXWMyPU8=

> <s_epik_cmdline>
J2VwaWtfcHl0aG9uJywgJy1waCcsICc3LjAnLCAnLXRuJywgJzgnLCAnLW1hJywgJzIwMCcsICctbWV0YWxfYmluZGluZycsICctaW1hZScsICc8aW5maWxlLm1hZT4nLCAnLW9tYWUnLCAnPG91dGZpbGUubWFlPic=

> <r_lp_tautomer_probability>
1

> <r_epik_Ionization_Penalty>
0.101352

> <r_epik_Ionization_Penalty_Charging>
0.101352

> <r_epik_Ionization_Penalty_Neutral>
1.90469e-08

> <r_epik_State_Penalty>
0.0358555

> <r_epik_Charging_Adjusted_Penalty>
0.137208

> <i_epik_Tot_Q>
-1

> <i_epik_Tot_abs_Q>
1

> <r_epik_Metal_State_Penalty>
0.0358555

> <b_epik_Metal_Only>
0

> <s_lp_Force_Field>
OPLS_2005

> <r_lp_Energy>
23.9764

> <b_lp_Chiralities_Consistent>
1

> <s_lp_Variant>
AV-unprocessed.smi:1484-1

> <Gold.Version>
5.8.1

> <Gold.Id.Protein>
6NUR|6NUR_protein|mol2

> <Gold.PLP.Fitness>
36.3199

> <Gold.PLP.PLP>
-33.4698

> <Gold.PLP.part.hbond>
-2.0000

> <Gold.PLP.part.metal>
0.0000

> <Gold.PLP.part.buried>
-2.0026

> <Gold.PLP.part.nonpolar>
-28.1182

> <Gold.PLP.part.repulsive>
0.1373

> <Gold.PLP.ligand.clash>
0.0000

> <Gold.PLP.ligand.torsion>
0.0790

> <Gold.PLP.Chemscore.Hbond>
1.0000

> <Gold.PLP.Chemscore.CHOScore>
0.0000

> <Gold.PLP.Chemscore.Metal>
0.0000

> <Gold.Chemscore.Hbonds>
donor molecule, donor type, donor heavy atom, donor atom, acceptor molecule, acceptor atom, score
      P1  H  7997  8009       L1     9  1.00

> <Gold.PLP.Chemscore.Internal.Correction>
0.0080

> <Gold.Rescore>
     Score         DG    S(hbond)    S(metal)    S(lipo)     H(rot)  DE(clash)    DE(int)     intcor
     11.81     -11.97       0.97        0.00      64.03       1.65       0.02       0.14       ----

> <Gold.Chemscore.Fitness>
11.8149

> <Gold.Chemscore.DG>
-11.9660

> <Gold.Chemscore.ZeroCoef>
-5.4800

> <Gold.Chemscore.Hbond>
0.9675

> <Gold.Chemscore.Metal>
0.0000

> <Gold.Chemscore.Lipo>
64.0263

> <Gold.Chemscore.Internal_Hbond>
0.0000

> <Gold.Chemscore.DEClash>
0.0159

> <Gold.Chemscore.DEInternal>
0.1352

> <Gold.Chemscore.Rot>
1.6549

> <Gold.Chemscore.Internal.Correction>
   9.000000E+99

> <Gold.Chemscore.Hbonds>
donor molecule, donor type, donor heavy atom, donor atom, acceptor molecule, acceptor atom, score
      P1  H  7997  8009       L1     9  0.97

> <Gold.Chemscore.Hbond.Weighted>
-3.2314

> <Gold.Chemscore.Metal.Weighted>
-0.0000

> <Gold.Chemscore.Lipo.Weighted>
-7.4911

> <Gold.Chemscore.Internal_Hbond.Weighted>
0.0000

> <Gold.Chemscore.DEClash.Weighted>
0.0159

> <Gold.Chemscore.DEInternal.Weighted>
0.1352

> <Gold.Chemscore.Rot.Weighted>
4.2364

> <Gold.Chemscore.Internal.Correction.Weighted>
   9.000000E+99

> <Gold.Protein.RotatedTorsions>
[ 6907 6896 6895 6894 ] final  115.71 input  -60.11 | X-H torsion
[ 7974 7965 7964 7962 ] final  -20.51 input  175.53 | X-H torsion
[ 8008 7997 7996 7995 ] final -153.42 input   59.86 | X-H torsion
[ 10167 10162 10161 10158 ] final -119.29 input  -65.29 | X-H torsion
[ 10718 10713 10712 10709 ] final  118.54 input   66.30 | X-H torsion
[ 10763 10752 10751 10750 ] final  127.69 input  -60.55 | X-H torsion
[ 11005 11000 10999 10996 ] final   95.94 input  -57.11 | X-H torsion

> <Gold.Protein.ActiveResidues>
 VAL166  LYS551  ARG553  GLY616  TRP617  ASP618  TYR619  PRO620  LYS621  CYS622 
 ASP623  PHE694  ASN695  SER759  ASP760  ASP761  ALA762  ILE779  LEU786  VAL792 
 PHE793  MET794  SER795  GLU796  ALA797  LYS798  CYS799  TRP800  GLU811  SER814 

> <Gold.Protein.RotatedAtoms>
  152.4724  133.8061  159.6978 H   0  0  0  0  0  0  0  0  0  0  0  0  # atno 6907 bound_to 6896
  150.8721  133.7481  159.2964 H   0  0  0  0  0  0  0  0  0  0  0  0  # atno 6908 bound_to 6896
  151.5012  135.1065  159.9881 H   0  0  0  0  0  0  0  0  0  0  0  0  # atno 6909 bound_to 6896
  146.1784  140.4211  142.8504 H   0  0  0  0  0  0  0  0  0  0  0  0  # atno 7974 bound_to 7965
  155.6705  140.0733  157.2521 H   0  0  0  0  0  0  0  0  0  0  0  0  # atno 8008 bound_to 7997
  154.4124  140.1700  156.1926 H   0  0  0  0  0  0  0  0  0  0  0  0  # atno 8009 bound_to 7997
  155.9620  140.3369  155.6502 H   0  0  0  0  0  0  0  0  0  0  0  0  # atno 8010 bound_to 7997
  140.0483  143.5085  152.2095 H   0  0  0  0  0  0  0  0  0  0  0  0  # atno 10167 bound_to 10162
  157.6023  131.1049  150.7770 H   0  0  0  0  0  0  0  0  0  0  0  0  # atno 10718 bound_to 10713
  153.7135  135.3264  155.3251 H   0  0  0  0  0  0  0  0  0  0  0  0  # atno 10763 bound_to 10752
  154.8378  135.4482  154.1290 H   0  0  0  0  0  0  0  0  0  0  0  0  # atno 10764 bound_to 10752
  153.2390  135.6969  153.7883 H   0  0  0  0  0  0  0  0  0  0  0  0  # atno 10765 bound_to 10752
  139.8785  134.8925  156.4085 H   0  0  0  0  0  0  0  0  0  0  0  0  # atno 11005 bound_to 11000
  144.8274  140.6651  143.6313 LP  0  0  0  0  0  0  0  0  0  0  0  0  # atno 17320 bound_to 7965
  145.4146  139.1574  143.4107 LP  0  0  0  0  0  0  0  0  0  0  0  0  # atno 17321 bound_to 7965
  139.5970  144.7570  151.3263 LP  0  0  0  0  0  0  0  0  0  0  0  0  # atno 17342 bound_to 10162
  140.7229  143.7086  150.7787 LP  0  0  0  0  0  0  0  0  0  0  0  0  # atno 17343 bound_to 10162
  156.8166  130.4970  149.5348 LP  0  0  0  0  0  0  0  0  0  0  0  0  # atno 17370 bound_to 10713
  156.1100  130.6033  151.0032 LP  0  0  0  0  0  0  0  0  0  0  0  0  # atno 17371 bound_to 10713
  140.9217  133.7640  155.9915 LP  0  0  0  0  0  0  0  0  0  0  0  0  # atno 17394 bound_to 11000
  140.8432  134.3042  157.5305 LP  0  0  0  0  0  0  0  0  0  0  0  0  # atno 17395 bound_to 11000

$$$$
