#       Name:                AV-unprocessed.smi:739
#       Creating user name   scv26
#       Creation time:       Fri Mar 27 00:53:34 2020


#       File generated by GOLD software.
#

@<TRIPOS>MOLECULE
AV-unprocessed.smi:739
    35    37     1
SMALL
NO_CHARGES


@<TRIPOS>ATOM
      1 ****        -1.6676   2.9630   1.4319 O.3            1 S1                 0.0000
      2 ****        -1.1748   1.6431   1.3268 C.3            1 S1                 0.0000
      3 ****         0.3529   1.6804   1.5298 C.3            1 S1                 0.0000
      4 ****         0.9268   0.3495   1.6183 N.pl3          1 S1                 0.0000
      5 ****         1.0031  -0.4275   2.7157 C.2            1 S1                 0.0000
      6 ****         1.5562  -1.6286   2.5746 N.2            1 S1                 0.0000
      7 ****         1.8793  -1.6316   1.2285 C.ar           1 S1                 0.0000
      8 ****         2.4944  -2.6264   0.4355 C.ar           1 S1                 0.0000
      9 ****         2.7240  -2.4051  -0.9384 C.ar           1 S1                 0.0000
     10 ****         3.3138  -3.3697  -1.6838 F              1 S1                 0.0000
     11 ****         2.3431  -1.1866  -1.5389 C.ar           1 S1                 0.0000
     12 ****         2.5655  -0.9822  -2.8589 F              1 S1                 0.0000
     13 ****         1.7304  -0.1802  -0.7685 C.ar           1 S1                 0.0000
     14 ****         1.5020  -0.4060   0.6015 C.ar           1 S1                 0.0000
     15 ****        -1.5675   0.9852   0.0107 C.ar           1 S1                 0.0000
     16 ****        -2.0499  -0.3417   0.0028 C.ar           1 S1                 0.0000
     17 ****        -2.3850  -0.9685  -1.2131 C.ar           1 S1                 0.0000
     18 ****        -2.2417  -0.2719  -2.4281 C.ar           1 S1                 0.0000
     19 ****        -2.5632  -0.8749  -3.5970 F              1 S1                 0.0000
     20 ****        -1.7628   1.0521  -2.4269 C.ar           1 S1                 0.0000
     21 ****        -1.4260   1.6791  -1.2116 C.ar           1 S1                 0.0000
     22 ****        -2.6120   2.9328   1.4088 H              1 S1                 0.0000
     23 ****        -1.6262   1.0811   2.1458 H              1 S1                 0.0000
     24 ****         0.8408   2.2245   0.7200 H              1 S1                 0.0000
     25 ****         0.5961   2.2111   2.4515 H              1 S1                 0.0000
     26 ****         0.6256  -0.0941   3.6714 H              1 S1                 0.0000
     27 ****         2.7896  -3.5633   0.8842 H              1 S1                 0.0000
     28 ****         1.4359   0.7518  -1.2272 H              1 S1                 0.0000
     29 ****        -2.1545  -0.8876   0.9289 H              1 S1                 0.0000
     30 ****        -2.7493  -1.9853  -1.2139 H              1 S1                 0.0000
     31 ****        -1.6504   1.5862  -3.3588 H              1 S1                 0.0000
     32 ****        -1.0491   2.6914  -1.2220 H              1 S1                 0.0000
     33 ****        -1.3287   3.5116   0.6676 LP             1 S1                 0.0000
     34 ****        -1.3639   3.3689   2.2939 LP             1 S1                 0.0000
     35 ****         1.7007  -2.3419   3.2604 LP             1 S1                 0.0000
@<TRIPOS>BOND
    1    1    2 1     
    2    1   22 1     
    3    2    3 1     
    4    2   15 1     
    5    2   23 1     
    6    3    4 1     
    7    3   24 1     
    8    3   25 1     
    9    4   14 1     
   10    4    5 1     
   11    5    6 2     
   12    5   26 1     
   13    6    7 1     
   14    7   14 ar    
   15    7    8 ar    
   16    8    9 ar    
   17    8   27 1     
   18    9   10 1     
   19    9   11 ar    
   20   11   12 1     
   21   11   13 ar    
   22   13   14 ar    
   23   13   28 1     
   24   15   21 ar    
   25   15   16 ar    
   26   16   17 ar    
   27   16   29 1     
   28   17   18 ar    
   29   17   30 1     
   30   18   19 1     
   31   18   20 ar    
   32   20   21 ar    
   33   20   31 1     
   34   21   32 1     
   35    1   33 1     
   36    1   34 1     
   37    6   35 1     
@<TRIPOS>SUBSTRUCTURE
      1 S1             1
@<TRIPOS>SET
LONE_PAIRS      STATIC     ATOMS    <user>   **** ""
3 33 34 35
DONOR_HYDROGENS      STATIC     ATOMS    <user>   **** ""
1 22
ATOM$BLUE        STATIC     ATOMS    COLORGROUP SYSTEM
3 33 34 35
ATOM$RED        STATIC     ATOMS    COLORGROUP SYSTEM
1 22
