AV-unprocessed.smi:2763|AV-procd|sdf|10638|dock9
  -GOLD-   2272015 83D 1   1.00000     0.00000
 Structure written by MMmdl.
 37 38  0  0  0  0  0  0  0  0  1 V2000
  150.6943  140.6530  157.0728 O   0  0  0  0  0  0  0  0  0  0  0  0
  150.2795  141.7445  156.6815 C   0  0  0  0  0  0  0  0  0  0  0  0
  149.6445  141.9185  155.5134 N   0  0  0  0  0  0  0  0  0  0  0  0
  149.3530  140.8614  154.5524 C   0  0  0  0  0  0  0  0  0  0  0  0
  147.9964  141.0838  153.8625 C   0  0  0  0  0  0  0  0  0  0  0  0
  147.0070  141.8711  154.7361 C   0  0  2  0  0  0  0  0  0  0  0  0
  146.5383  141.0547  155.9564 C   0  0  0  0  0  0  0  0  0  0  0  0
  145.4973  141.8399  156.7626 C   0  0  0  0  0  0  0  0  0  0  0  0
  144.3631  142.2942  155.8378 C   0  0  0  0  0  0  0  0  0  0  0  0
  144.9338  143.0412  154.6219 C   0  0  0  0  0  0  0  0  0  0  0  0
  145.8722  142.2133  153.9417 O   0  0  0  0  0  0  0  0  0  0  0  0
  150.3988  142.9070  157.3468 N   0  0  0  0  0  0  0  0  0  0  0  0
  150.9809  143.1345  158.6221 C   0  0  0  0  0  0  0  0  0  0  0  0
  151.9117  142.1549  159.0371 C   0  0  0  0  0  0  0  0  0  0  0  0
  152.5487  142.2889  160.2860 C   0  0  0  0  0  0  0  0  0  0  0  0
  152.2376  143.4018  161.0871 C   0  0  0  0  0  0  0  0  0  0  0  0
  152.8252  143.5736  162.2949 F   0  0  0  0  0  0  0  0  0  0  0  0
  151.3003  144.3319  160.6009 C   0  0  0  0  0  0  0  0  0  0  0  0
  150.6889  144.2044  159.4040 N   0  0  0  0  0  0  0  0  0  0  0  0
  149.3391  142.8493  155.2701 H   0  0  0  0  0  0  0  0  0  0  0  0
  150.1527  140.7929  153.8129 H   0  0  0  0  0  0  0  0  0  0  0  0
  149.3480  139.9134  155.0908 H   0  0  0  0  0  0  0  0  0  0  0  0
  148.1440  141.6049  152.9155 H   0  0  0  0  0  0  0  0  0  0  0  0
  147.5582  140.1160  153.6149 H   0  0  0  0  0  0  0  0  0  0  0  0
  147.4940  142.7858  155.0794 H   0  0  0  0  0  0  0  0  0  0  0  0
  146.1056  140.1100  155.6242 H   0  0  0  0  0  0  0  0  0  0  0  0
  147.3873  140.8029  156.5927 H   0  0  0  0  0  0  0  0  0  0  0  0
  145.1055  141.2294  157.5766 H   0  0  0  0  0  0  0  0  0  0  0  0
  145.9685  142.7101  157.2212 H   0  0  0  0  0  0  0  0  0  0  0  0
  143.7967  141.4261  155.4981 H   0  0  0  0  0  0  0  0  0  0  0  0
  143.6646  142.9320  156.3802 H   0  0  0  0  0  0  0  0  0  0  0  0
  144.1313  143.3042  153.9325 H   0  0  0  0  0  0  0  0  0  0  0  0
  145.4100  143.9748  154.9256 H   0  0  0  0  0  0  0  0  0  0  0  0
  150.0208  143.7242  156.8910 H   0  0  0  0  0  0  0  0  0  0  0  0
  152.1386  141.3067  158.4075 H   0  0  0  0  0  0  0  0  0  0  0  0
  153.2628  141.5513  160.6216 H   0  0  0  0  0  0  0  0  0  0  0  0
  151.0343  145.2002  161.1856 H   0  0  0  0  0  0  0  0  0  0  0  0
  1  2  2  0  0  0  0
  2  3  1  0  0  0  0
  2 12  1  0  0  0  0
  3  4  1  0  0  0  0
  3 20  1  0  0  0  0
  4  5  1  0  0  0  0
  4 21  1  0  0  0  0
  4 22  1  0  0  0  0
  5  6  1  0  0  0  0
  5 23  1  0  0  0  0
  5 24  1  0  0  0  0
  6 11  1  0  0  0  0
  6  7  1  0  0  0  0
  6 25  1  0  0  0  0
  7  8  1  0  0  0  0
  7 26  1  0  0  0  0
  7 27  1  0  0  0  0
  8  9  1  0  0  0  0
  8 28  1  0  0  0  0
  8 29  1  0  0  0  0
  9 10  1  0  0  0  0
  9 30  1  0  0  0  0
  9 31  1  0  0  0  0
 10 11  1  0  0  0  0
 10 32  1  0  0  0  0
 10 33  1  0  0  0  0
 12 13  1  0  0  0  0
 12 34  1  0  0  0  0
 13 19  1  0  0  0  0
 13 14  2  0  0  0  0
 14 15  1  0  0  0  0
 14 35  1  0  0  0  0
 15 16  2  0  0  0  0
 15 36  1  0  0  0  0
 16 17  1  0  0  0  0
 16 18  1  0  0  0  0
 18 19  2  0  0  0  0
 18 37  1  0  0  0  0
M  END
> <s_m_source_file>
AV-unprocessed.smi

> <i_m_source_file_index>
2763

> <i_lp_mmshare_version>
43012

> <i_f3d_flags>
0

> <s_epik_input>
bjFbY0hdYyhGKVtjSF1bY0hdYzFbTkhdQyg9TylbTkhdW0NIMl1bQ0gyXVtDQEBIXTJbQ0gyXVtDSDJdW0NIMl1bQ0gyXU8y

> <s_epik_cmdline>
J2VwaWtfcHl0aG9uJywgJy1waCcsICc3LjAnLCAnLXRuJywgJzgnLCAnLW1hJywgJzIwMCcsICctbWV0YWxfYmluZGluZycsICctaW1hZScsICc8aW5maWxlLm1hZT4nLCAnLW9tYWUnLCAnPG91dGZpbGUubWFlPic=

> <r_lp_tautomer_probability>
1

> <r_epik_Ionization_Penalty>
3.67849e-05

> <r_epik_Ionization_Penalty_Charging>
0

> <r_epik_Ionization_Penalty_Neutral>
3.67849e-05

> <r_epik_State_Penalty>
-0

> <r_epik_Charging_Adjusted_Penalty>
0

> <i_epik_Tot_Q>
0

> <i_epik_Tot_abs_Q>
0

> <r_epik_Metal_State_Penalty>
-0

> <b_epik_Metal_Only>
0

> <s_lp_Force_Field>
OPLS_2005

> <r_lp_Energy>
12.1233

> <b_lp_Chiralities_Consistent>
1

> <s_lp_Variant>
AV-unprocessed.smi:2763-1

> <Gold.Version>
5.8.1

> <Gold.Id.Protein>
6NUR|6NUR_protein|mol2

> <Gold.PLP.Fitness>
44.9793

> <Gold.PLP.PLP>
-40.0590

> <Gold.PLP.part.hbond>
-2.0000

> <Gold.PLP.part.metal>
0.0000

> <Gold.PLP.part.buried>
-6.2940

> <Gold.PLP.part.nonpolar>
-33.1328

> <Gold.PLP.part.repulsive>
0.5178

> <Gold.PLP.ligand.clash>
0.0000

> <Gold.PLP.ligand.torsion>
0.5308

> <Gold.PLP.Chemscore.Hbond>
1.9920

> <Gold.PLP.Chemscore.CHOScore>
0.0000

> <Gold.PLP.Chemscore.Metal>
0.0000

> <Gold.Chemscore.Hbonds>
donor molecule, donor type, donor heavy atom, donor atom, acceptor molecule, acceptor atom, score
      L1  H     3    20       P1  8028  1.00
      L1  H    12    34       P1  8028  1.00

> <Gold.PLP.Chemscore.Internal.Correction>
0.0059

> <Gold.Rescore>
     Score         DG    S(hbond)    S(metal)    S(lipo)     H(rot)  DE(clash)    DE(int)     intcor
     14.84     -16.91       1.93        0.00      76.35       1.54       0.08       1.99       ----

> <Gold.Chemscore.Fitness>
14.8445

> <Gold.Chemscore.DG>
-16.9145

> <Gold.Chemscore.ZeroCoef>
-5.4800

> <Gold.Chemscore.Hbond>
1.9281

> <Gold.Chemscore.Metal>
0.0000

> <Gold.Chemscore.Lipo>
76.3503

> <Gold.Chemscore.Internal_Hbond>
0.0000

> <Gold.Chemscore.DEClash>
0.0840

> <Gold.Chemscore.DEInternal>
1.9860

> <Gold.Chemscore.Rot>
1.5384

> <Gold.Chemscore.Internal.Correction>
   9.000000E+99

> <Gold.Chemscore.Hbonds>
donor molecule, donor type, donor heavy atom, donor atom, acceptor molecule, acceptor atom, score
      L1  H     3    20       P1  8028  0.97
      L1  H    12    34       P1  8028  0.98

> <Gold.Chemscore.Hbond.Weighted>
-6.4397

> <Gold.Chemscore.Metal.Weighted>
-0.0000

> <Gold.Chemscore.Lipo.Weighted>
-8.9330

> <Gold.Chemscore.Internal_Hbond.Weighted>
0.0000

> <Gold.Chemscore.DEClash.Weighted>
0.0840

> <Gold.Chemscore.DEInternal.Weighted>
1.9860

> <Gold.Chemscore.Rot.Weighted>
3.9382

> <Gold.Chemscore.Internal.Correction.Weighted>
   9.000000E+99

> <Gold.Protein.RotatedTorsions>
[ 6907 6896 6895 6894 ] final  139.59 input  -60.11 | X-H torsion
[ 7974 7965 7964 7962 ] final  -47.29 input  175.53 | X-H torsion
[ 8008 7997 7996 7995 ] final  156.41 input   59.86 | X-H torsion
[ 10167 10162 10161 10158 ] final   73.69 input  -65.29 | X-H torsion
[ 10718 10713 10712 10709 ] final -130.19 input   66.30 | X-H torsion
[ 10763 10752 10751 10750 ] final  178.64 input  -60.55 | X-H torsion
[ 11005 11000 10999 10996 ] final  128.41 input  -57.11 | X-H torsion

> <Gold.Protein.ActiveResidues>
 VAL166  LYS551  ARG553  GLY616  TRP617  ASP618  TYR619  PRO620  LYS621  CYS622 
 ASP623  PHE694  ASN695  SER759  ASP760  ASP761  ALA762  ILE779  LEU786  VAL792 
 PHE793  MET794  SER795  GLU796  ALA797  LYS798  CYS799  TRP800  GLU811  SER814 

> <Gold.Protein.RotatedAtoms>
  152.2532  133.5232  159.5337 H   0  0  0  0  0  0  0  0  0  0  0  0  # atno 6907 bound_to 6896
  150.7100  134.0932  159.3948 H   0  0  0  0  0  0  0  0  0  0  0  0  # atno 6908 bound_to 6896
  151.8851  135.0438  160.0543 H   0  0  0  0  0  0  0  0  0  0  0  0  # atno 6909 bound_to 6896
  145.9632  140.7459  142.9447 H   0  0  0  0  0  0  0  0  0  0  0  0  # atno 7974 bound_to 7965
  156.2424  140.1913  156.6950 H   0  0  0  0  0  0  0  0  0  0  0  0  # atno 8008 bound_to 7997
  154.6223  140.0607  156.9657 H   0  0  0  0  0  0  0  0  0  0  0  0  # atno 8009 bound_to 7997
  155.1841  140.3279  155.4372 H   0  0  0  0  0  0  0  0  0  0  0  0  # atno 8010 bound_to 7997
  140.0217  144.5535  150.7576 H   0  0  0  0  0  0  0  0  0  0  0  0  # atno 10167 bound_to 10162
  156.2120  130.6924  151.0660 H   0  0  0  0  0  0  0  0  0  0  0  0  # atno 10718 bound_to 10713
  154.5103  135.2788  155.1348 H   0  0  0  0  0  0  0  0  0  0  0  0  # atno 10763 bound_to 10752
  154.2946  135.6260  153.5403 H   0  0  0  0  0  0  0  0  0  0  0  0  # atno 10764 bound_to 10752
  152.9917  135.5682  154.5567 H   0  0  0  0  0  0  0  0  0  0  0  0  # atno 10765 bound_to 10752
  139.9559  134.9613  156.8997 H   0  0  0  0  0  0  0  0  0  0  0  0  # atno 11005 bound_to 11000
  144.6819  140.2625  143.7317 LP  0  0  0  0  0  0  0  0  0  0  0  0  # atno 17320 bound_to 7965
  145.8011  139.1965  143.2047 LP  0  0  0  0  0  0  0  0  0  0  0  0  # atno 17321 bound_to 7965
  140.7339  143.2723  151.3850 LP  0  0  0  0  0  0  0  0  0  0  0  0  # atno 17342 bound_to 10162
  139.6135  144.1050  152.2322 LP  0  0  0  0  0  0  0  0  0  0  0  0  # atno 17343 bound_to 10162
  157.7043  131.0763  150.6718 LP  0  0  0  0  0  0  0  0  0  0  0  0  # atno 17370 bound_to 10713
  156.6778  130.4558  149.5637 LP  0  0  0  0  0  0  0  0  0  0  0  0  # atno 17371 bound_to 10713
  140.5611  134.0534  155.7399 LP  0  0  0  0  0  0  0  0  0  0  0  0  # atno 17394 bound_to 11000
  141.1230  133.9430  157.2692 LP  0  0  0  0  0  0  0  0  0  0  0  0  # atno 17395 bound_to 11000

$$$$
