AV-unprocessed.smi:1554|AV-procd|sdf|6247|dock7
  -GOLD-   22720 6433D 1   1.00000     0.00000
 Structure written by MMmdl.
 48 50  0  0  0  0  0  0  0  0  2 V2000
  155.1796  140.8877  164.0172 C   0  0  0  0  0  0  0  0  0  0  0  0
  154.4249  141.1851  162.7334 C   0  0  0  0  0  0  0  0  0  0  0  0
  153.6332  142.3530  162.6565 C   0  0  0  0  0  0  0  0  0  0  0  0
  152.9190  142.6678  161.4797 C   0  0  0  0  0  0  0  0  0  0  0  0
  152.0973  143.7430  161.1876 N   0  0  0  0  0  0  0  0  0  0  0  0
  151.7339  143.4712  159.9379 C   0  0  0  0  0  0  0  0  0  0  0  0
  152.2250  142.3463  159.3835 N   0  0  0  0  0  0  0  0  0  0  0  0
  151.9714  141.8542  158.0412 C   0  0  0  0  0  0  0  0  0  0  0  0
  150.7473  142.5264  157.3898 C   0  0  1  0  0  0  0  0  0  0  0  0
  151.1391  143.7558  156.8086 O   0  0  0  0  0  0  0  0  0  0  0  0
  150.1175  141.6392  156.2983 C   0  0  0  0  0  0  0  0  0  0  0  0
  148.7555  142.0984  155.9131 N   0  3  2  0  0  0  0  0  0  0  0  0
  147.7180  141.9141  156.9605 C   0  0  0  0  0  0  0  0  0  0  0  0
  147.2288  140.4538  157.0225 C   0  0  0  0  0  0  0  0  0  0  0  0
  146.7842  140.0367  155.7374 O   0  0  0  0  0  0  0  0  0  0  0  0
  147.8157  140.0922  154.7580 C   0  0  1  0  0  0  0  0  0  0  0  0
  147.2563  139.5362  153.4438 C   0  0  0  0  0  0  0  0  0  0  0  0
  148.2868  141.5540  154.6154 C   0  0  0  0  0  0  0  0  0  0  0  0
  153.0189  141.7749  160.3727 C   0  0  0  0  0  0  0  0  0  0  0  0
  153.8028  140.6092  160.4375 C   0  0  0  0  0  0  0  0  0  0  0  0
  154.5098  140.3099  161.6209 C   0  0  0  0  0  0  0  0  0  0  0  0
  155.3532  139.0487  161.6808 C   0  0  0  0  0  0  0  0  0  0  0  0
  154.9727  141.6353  164.7836 H   0  0  0  0  0  0  0  0  0  0  0  0
  156.2544  140.8840  163.8345 H   0  0  0  0  0  0  0  0  0  0  0  0
  154.8924  139.9139  164.4149 H   0  0  0  0  0  0  0  0  0  0  0  0
  153.5690  143.0199  163.5036 H   0  0  0  0  0  0  0  0  0  0  0  0
  151.0743  144.1294  159.3912 H   0  0  0  0  0  0  0  0  0  0  0  0
  152.8650  142.0098  157.4356 H   0  0  0  0  0  0  0  0  0  0  0  0
  151.8206  140.7754  158.0994 H   0  0  0  0  0  0  0  0  0  0  0  0
  150.0164  142.7409  158.1690 H   0  0  0  0  0  0  0  0  0  0  0  0
  150.3643  144.2607  156.6130 H   0  0  0  0  0  0  0  0  0  0  0  0
  150.7727  141.6499  155.4258 H   0  0  0  0  0  0  0  0  0  0  0  0
  150.0793  140.6014  156.6293 H   0  0  0  0  0  0  0  0  0  0  0  0
  148.0773  142.2385  157.9364 H   0  0  0  0  0  0  0  0  0  0  0  0
  146.8746  142.5614  156.7170 H   0  0  0  0  0  0  0  0  0  0  0  0
  148.0100  139.7845  157.3845 H   0  0  0  0  0  0  0  0  0  0  0  0
  146.3975  140.3703  157.7226 H   0  0  0  0  0  0  0  0  0  0  0  0
  148.6469  139.4586  155.0722 H   0  0  0  0  0  0  0  0  0  0  0  0
  148.0127  139.5498  152.6586 H   0  0  0  0  0  0  0  0  0  0  0  0
  146.4037  140.1212  153.0976 H   0  0  0  0  0  0  0  0  0  0  0  0
  146.9246  138.5049  153.5665 H   0  0  0  0  0  0  0  0  0  0  0  0
  147.4574  142.1718  154.2680 H   0  0  0  0  0  0  0  0  0  0  0  0
  149.0682  141.6412  153.8595 H   0  0  0  0  0  0  0  0  0  0  0  0
  153.8611  139.9513  159.5834 H   0  0  0  0  0  0  0  0  0  0  0  0
  155.3189  138.5022  160.7380 H   0  0  0  0  0  0  0  0  0  0  0  0
  154.9905  138.3844  162.4656 H   0  0  0  0  0  0  0  0  0  0  0  0
  156.3950  139.2944  161.8875 H   0  0  0  0  0  0  0  0  0  0  0  0
  148.8510  143.0949  155.7741 H   0  0  0  0  0  0  0  0  0  0  0  0
  1  2  1  0  0  0  0
  1 23  1  0  0  0  0
  1 24  1  0  0  0  0
  1 25  1  0  0  0  0
  2 21  1  0  0  0  0
  2  3  2  0  0  0  0
  3  4  1  0  0  0  0
  3 26  1  0  0  0  0
  4 19  2  0  0  0  0
  4  5  1  0  0  0  0
  5  6  2  0  0  0  0
  6  7  1  0  0  0  0
  6 27  1  0  0  0  0
  7  8  1  0  0  0  0
  7 19  1  0  0  0  0
  8  9  1  0  0  0  0
  8 28  1  0  0  0  0
  8 29  1  0  0  0  0
  9 10  1  0  0  0  0
  9 11  1  0  0  0  0
  9 30  1  0  0  0  0
 10 31  1  0  0  0  0
 11 12  1  0  0  0  0
 11 32  1  0  0  0  0
 11 33  1  0  0  0  0
 12 18  1  0  0  0  0
 12 13  1  0  0  0  0
 12 48  1  0  0  0  0
 13 14  1  0  0  0  0
 13 34  1  0  0  0  0
 13 35  1  0  0  0  0
 14 15  1  0  0  0  0
 14 36  1  0  0  0  0
 14 37  1  0  0  0  0
 15 16  1  0  0  0  0
 16 17  1  0  0  0  0
 16 18  1  0  0  0  0
 16 38  1  0  0  0  0
 17 39  1  0  0  0  0
 17 40  1  0  0  0  0
 17 41  1  0  0  0  0
 18 42  1  0  0  0  0
 18 43  1  0  0  0  0
 19 20  1  0  0  0  0
 20 21  2  0  0  0  0
 20 44  1  0  0  0  0
 21 22  1  0  0  0  0
 22 45  1  0  0  0  0
 22 46  1  0  0  0  0
 22 47  1  0  0  0  0
M  CHG  1  12   1
M  END
> <s_m_source_file>
AV-unprocessed.smi

> <i_m_source_file_index>
1554

> <i_lp_mmshare_version>
43012

> <i_f3d_flags>
0

> <s_epik_input>
W0NIM11jKFtjSF0xKWMoW0NIM10pW2NIXWMoYzEyKW4oW2NIXW4yKVtDSDJdW0NASF0oW09IXSlbQ0gyXU4zW0NIMl1bQ0gyXU9bQ0BASF0oW0NIM10pW0NIMl0z

> <s_epik_cmdline>
J2VwaWtfcHl0aG9uJywgJy1waCcsICc3LjAnLCAnLXRuJywgJzgnLCAnLW1hJywgJzIwMCcsICctbWV0YWxfYmluZGluZycsICctaW1hZScsICc8aW5maWxlLm1hZT4nLCAnLW9tYWUnLCAnPG91dGZpbGUubWFlPic=

> <r_epik_Ionization_Penalty>
0.695251

> <r_epik_Ionization_Penalty_Charging>
0.608065

> <r_epik_Ionization_Penalty_Neutral>
0.0871863

> <r_epik_State_Penalty>
0.731955

> <r_epik_Charging_Adjusted_Penalty>
1.34002

> <i_epik_Tot_Q>
1

> <i_epik_Tot_abs_Q>
1

> <r_epik_Metal_State_Penalty>
0.652186

> <b_epik_Metal_Only>
0

> <s_lp_Force_Field>
OPLS_2005

> <r_lp_Energy>
22.6642

> <b_lp_Chiralities_Consistent>
1

> <s_lp_Variant>
AV-unprocessed.smi:1554-8

> <Gold.Version>
5.8.1

> <Gold.Id.Protein>
6NUR|6NUR_protein|mol2

> <Gold.PLP.Fitness>
50.9368

> <Gold.PLP.PLP>
-43.2612

> <Gold.PLP.part.hbond>
-2.0000

> <Gold.PLP.part.metal>
0.0000

> <Gold.PLP.part.buried>
-2.8757

> <Gold.PLP.part.nonpolar>
-37.8680

> <Gold.PLP.part.repulsive>
0.2387

> <Gold.PLP.ligand.clash>
0.0000

> <Gold.PLP.ligand.torsion>
0.6799

> <Gold.PLP.Chemscore.Hbond>
3.0000

> <Gold.PLP.Chemscore.CHOScore>
0.0000

> <Gold.PLP.Chemscore.Metal>
0.0000

> <Gold.Chemscore.Hbonds>
donor molecule, donor type, donor heavy atom, donor atom, acceptor molecule, acceptor atom, score
      L1  H    10    31       P1  8028  1.00
      L1  H    12    48       P1  8028  2.00

> <Gold.PLP.Chemscore.Internal.Correction>
0.0354

> <Gold.Rescore>
     Score         DG    S(hbond)    S(metal)    S(lipo)     H(rot)  DE(clash)    DE(int)     intcor
     19.28     -20.18       1.99        0.00     113.71       2.05       0.17       0.72       ----

> <Gold.Chemscore.Fitness>
19.2829

> <Gold.Chemscore.DG>
-20.1767

> <Gold.Chemscore.ZeroCoef>
-5.4800

> <Gold.Chemscore.Hbond>
1.9916

> <Gold.Chemscore.Metal>
0.0000

> <Gold.Chemscore.Lipo>
113.7116

> <Gold.Chemscore.Internal_Hbond>
0.0000

> <Gold.Chemscore.DEClash>
0.1743

> <Gold.Chemscore.DEInternal>
0.7195

> <Gold.Chemscore.Rot>
2.0546

> <Gold.Chemscore.Internal.Correction>
   9.000000E+99

> <Gold.Chemscore.Hbonds>
donor molecule, donor type, donor heavy atom, donor atom, acceptor molecule, acceptor atom, score
      L1  H    10    31       P1  8028  0.98
      L1  H    12    48       P1  8028  0.99

> <Gold.Chemscore.Hbond.Weighted>
-6.6521

> <Gold.Chemscore.Metal.Weighted>
-0.0000

> <Gold.Chemscore.Lipo.Weighted>
-13.3043

> <Gold.Chemscore.Internal_Hbond.Weighted>
0.0000

> <Gold.Chemscore.DEClash.Weighted>
0.1743

> <Gold.Chemscore.DEInternal.Weighted>
0.7195

> <Gold.Chemscore.Rot.Weighted>
5.2597

> <Gold.Chemscore.Internal.Correction.Weighted>
   9.000000E+99

> <Gold.Protein.RotatedTorsions>
[ 6907 6896 6895 6894 ] final   -2.18 input  -60.11 | X-H torsion
[ 7974 7965 7964 7962 ] final   87.77 input  175.53 | X-H torsion
[ 8008 7997 7996 7995 ] final -101.62 input   59.86 | X-H torsion
[ 10167 10162 10161 10158 ] final   17.45 input  -65.29 | X-H torsion
[ 10718 10713 10712 10709 ] final  -16.35 input   66.30 | X-H torsion
[ 10763 10752 10751 10750 ] final  118.50 input  -60.55 | X-H torsion
[ 11005 11000 10999 10996 ] final -154.73 input  -57.11 | X-H torsion

> <Gold.Protein.ActiveResidues>
 VAL166  LYS551  ARG553  GLY616  TRP617  ASP618  TYR619  PRO620  LYS621  CYS622 
 ASP623  PHE694  ASN695  SER759  ASP760  ASP761  ALA762  ILE779  LEU786  VAL792 
 PHE793  MET794  SER795  GLU796  ALA797  LYS798  CYS799  TRP800  GLU811  SER814 

> <Gold.Protein.RotatedAtoms>
  151.5341  135.1068  159.9909 H   0  0  0  0  0  0  0  0  0  0  0  0  # atno 6907 bound_to 6896
  152.4565  133.7730  159.6819 H   0  0  0  0  0  0  0  0  0  0  0  0  # atno 6908 bound_to 6896
  150.8511  133.7720  159.3050 H   0  0  0  0  0  0  0  0  0  0  0  0  # atno 6909 bound_to 6896
  145.5545  139.2298  143.2494 H   0  0  0  0  0  0  0  0  0  0  0  0  # atno 7974 bound_to 7965
  154.8452  140.0433  157.1567 H   0  0  0  0  0  0  0  0  0  0  0  0  # atno 8008 bound_to 7997
  154.9003  140.2999  155.5301 H   0  0  0  0  0  0  0  0  0  0  0  0  # atno 8009 bound_to 7997
  156.2994  140.2377  156.4030 H   0  0  0  0  0  0  0  0  0  0  0  0  # atno 8010 bound_to 7997
  140.5725  143.9134  150.6724 H   0  0  0  0  0  0  0  0  0  0  0  0  # atno 10167 bound_to 10162
  156.5888  130.4793  149.6288 H   0  0  0  0  0  0  0  0  0  0  0  0  # atno 10718 bound_to 10713
  153.5686  135.3506  155.2828 H   0  0  0  0  0  0  0  0  0  0  0  0  # atno 10763 bound_to 10752
  154.8685  135.4154  154.2750 H   0  0  0  0  0  0  0  0  0  0  0  0  # atno 10764 bound_to 10752
  153.3511  135.7055  153.6857 H   0  0  0  0  0  0  0  0  0  0  0  0  # atno 10765 bound_to 10752
  140.6941  134.4009  157.5216 H   0  0  0  0  0  0  0  0  0  0  0  0  # atno 11005 bound_to 11000
  146.1894  140.6369  142.9153 LP  0  0  0  0  0  0  0  0  0  0  0  0  # atno 17320 bound_to 7965
  144.7513  140.5197  143.6800 LP  0  0  0  0  0  0  0  0  0  0  0  0  # atno 17321 bound_to 7965
  140.2613  143.3522  152.1320 LP  0  0  0  0  0  0  0  0  0  0  0  0  # atno 17342 bound_to 10162
  139.5125  144.6918  151.5740 LP  0  0  0  0  0  0  0  0  0  0  0  0  # atno 17343 bound_to 10162
  156.2568  130.6939  151.1694 LP  0  0  0  0  0  0  0  0  0  0  0  0  # atno 17370 bound_to 10713
  157.7309  131.0613  150.5706 LP  0  0  0  0  0  0  0  0  0  0  0  0  # atno 17371 bound_to 10713
  139.8915  134.8778  156.2317 LP  0  0  0  0  0  0  0  0  0  0  0  0  # atno 17394 bound_to 11000
  141.0217  133.7037  156.1279 LP  0  0  0  0  0  0  0  0  0  0  0  0  # atno 17395 bound_to 11000

$$$$
