AV-unprocessed.smi:218|AV-procd|sdf|1665|dock1
  -GOLD-   2262020 63D 1   1.00000     0.00000
 Structure written by MMmdl.
 54 57  0  0  0  0  0  0  0  0  1 V2000
  152.5010  143.1528  161.1538 C   0  0  0  0  0  0  0  0  0  0  0  0
  152.4244  142.8198  159.6588 C   0  0  0  0  0  0  0  0  0  0  0  0
  152.2313  144.0915  158.8148 C   0  0  0  0  0  0  0  0  0  0  0  0
  151.3152  141.9356  159.4864 O   0  0  0  0  0  0  0  0  0  0  0  0
  150.9637  141.5002  158.2230 C   0  0  0  0  0  0  0  0  0  0  0  0
  150.9696  140.1135  157.9690 C   0  0  0  0  0  0  0  0  0  0  0  0
  150.6222  139.6553  156.6823 C   0  0  0  0  0  0  0  0  0  0  0  0
  150.6078  138.1747  156.3704 C   0  0  0  0  0  0  0  0  0  0  0  0
  149.2766  137.6860  156.0414 N   0  0  0  0  0  0  0  0  0  0  0  0
  149.0854  136.3788  155.7638 C   0  0  0  0  0  0  0  0  0  0  0  0
  149.9834  135.4401  156.1619 N   0  0  0  0  0  0  0  0  0  0  0  0
  149.7727  134.1523  155.8743 C   0  0  0  0  0  0  0  0  0  0  0  0
  148.7535  133.6025  155.2116 N   0  0  0  0  0  0  0  0  0  0  0  0
  147.8463  134.5393  154.8093 C   0  0  0  0  0  0  0  0  0  0  0  0
  147.9421  135.9395  155.0472 C   0  0  0  0  0  0  0  0  0  0  0  0
  146.8445  136.5878  154.4971 N   0  0  0  0  0  0  0  0  0  0  0  0
  146.1428  135.6231  153.9665 C   0  0  0  0  0  0  0  0  0  0  0  0
  146.6706  134.3588  154.1054 N   0  0  0  0  0  0  0  0  0  0  0  0
  146.0786  133.0781  153.6009 C   0  0  1  0  0  0  0  0  0  0  0  0
  144.8758  133.3288  152.9356 O   0  0  0  0  0  0  0  0  0  0  0  0
  144.7498  132.5131  151.7653 C   0  0  1  0  0  0  0  0  0  0  0  0
  144.7374  133.4392  150.5314 C   0  0  0  0  0  0  0  0  0  0  0  0
  145.8677  134.2836  150.5579 O   0  0  0  0  0  0  0  0  0  0  0  0
  145.9502  131.5519  151.8456 C   0  0  1  0  0  0  0  0  0  0  0  0
  146.4255  131.0455  150.6119 O   0  0  0  0  0  0  0  0  0  0  0  0
  146.9937  132.3347  152.6235 C   0  0  1  0  0  0  0  0  0  0  0  0
  147.7663  133.1993  151.8071 O   0  0  0  0  0  0  0  0  0  0  0  0
  150.2734  140.6017  155.6984 C   0  0  0  0  0  0  0  0  0  0  0  0
  150.2962  141.9662  156.0458 C   0  0  0  0  0  0  0  0  0  0  0  0
  150.6341  142.4120  157.2744 N   0  0  0  0  0  0  0  0  0  0  0  0
  145.8686  132.4957  154.4992 H   0  0  0  0  0  0  0  0  0  0  0  0
  143.8223  131.9401  151.8038 H   0  0  0  0  0  0  0  0  0  0  0  0
  145.6525  130.6955  152.4528 H   0  0  0  0  0  0  0  0  0  0  0  0
  147.6708  131.6811  153.1744 H   0  0  0  0  0  0  0  0  0  0  0  0
  153.3398  143.8161  161.3662 H   0  0  0  0  0  0  0  0  0  0  0  0
  152.6359  142.2486  161.7481 H   0  0  0  0  0  0  0  0  0  0  0  0
  151.5903  143.6443  161.4976 H   0  0  0  0  0  0  0  0  0  0  0  0
  153.3621  142.3316  159.3895 H   0  0  0  0  0  0  0  0  0  0  0  0
  153.0533  144.7907  158.9698 H   0  0  0  0  0  0  0  0  0  0  0  0
  151.3054  144.6021  159.0802 H   0  0  0  0  0  0  0  0  0  0  0  0
  152.1909  143.8682  157.7490 H   0  0  0  0  0  0  0  0  0  0  0  0
  151.2364  139.4155  158.7493 H   0  0  0  0  0  0  0  0  0  0  0  0
  151.2846  137.9787  155.5376 H   0  0  0  0  0  0  0  0  0  0  0  0
  150.9937  137.6303  157.2335 H   0  0  0  0  0  0  0  0  0  0  0  0
  148.5402  138.3767  156.0182 H   0  0  0  0  0  0  0  0  0  0  0  0
  150.5284  133.4639  156.2230 H   0  0  0  0  0  0  0  0  0  0  0  0
  145.2096  135.8081  153.4547 H   0  0  0  0  0  0  0  0  0  0  0  0
  144.7060  132.8794  149.5978 H   0  0  0  0  0  0  0  0  0  0  0  0
  143.8621  134.0880  150.5436 H   0  0  0  0  0  0  0  0  0  0  0  0
  146.0108  134.6141  149.6837 H   0  0  0  0  0  0  0  0  0  0  0  0
  147.3693  131.0057  150.6471 H   0  0  0  0  0  0  0  0  0  0  0  0
  148.2887  132.6688  151.2250 H   0  0  0  0  0  0  0  0  0  0  0  0
  149.9941  140.2922  154.7019 H   0  0  0  0  0  0  0  0  0  0  0  0
  150.0358  142.7200  155.3177 H   0  0  0  0  0  0  0  0  0  0  0  0
  1  2  1  0  0  0  0
  1 35  1  0  0  0  0
  1 36  1  0  0  0  0
  1 37  1  0  0  0  0
  2  3  1  0  0  0  0
  2  4  1  0  0  0  0
  2 38  1  0  0  0  0
  3 39  1  0  0  0  0
  3 40  1  0  0  0  0
  3 41  1  0  0  0  0
  4  5  1  0  0  0  0
  5 30  1  0  0  0  0
  5  6  2  0  0  0  0
  6  7  1  0  0  0  0
  6 42  1  0  0  0  0
  7  8  1  0  0  0  0
  7 28  2  0  0  0  0
  8  9  1  0  0  0  0
  8 43  1  0  0  0  0
  8 44  1  0  0  0  0
  9 10  1  0  0  0  0
  9 45  1  0  0  0  0
 10 15  1  0  0  0  0
 10 11  2  0  0  0  0
 11 12  1  0  0  0  0
 12 13  2  0  0  0  0
 12 46  1  0  0  0  0
 13 14  1  0  0  0  0
 14 18  1  0  0  0  0
 14 15  2  0  0  0  0
 15 16  1  0  0  0  0
 16 17  2  0  0  0  0
 17 18  1  0  0  0  0
 17 47  1  0  0  0  0
 18 19  1  0  0  0  0
 19 31  1  0  0  0  0
 19 26  1  0  0  0  0
 19 20  1  0  0  0  0
 20 21  1  0  0  0  0
 21 32  1  0  0  0  0
 21 22  1  0  0  0  0
 21 24  1  0  0  0  0
 22 23  1  0  0  0  0
 22 48  1  0  0  0  0
 22 49  1  0  0  0  0
 23 50  1  0  0  0  0
 24 33  1  0  0  0  0
 24 25  1  0  0  0  0
 24 26  1  0  0  0  0
 25 51  1  0  0  0  0
 26 34  1  0  0  0  0
 26 27  1  0  0  0  0
 27 52  1  0  0  0  0
 28 29  1  0  0  0  0
 28 53  1  0  0  0  0
 29 30  2  0  0  0  0
 29 54  1  0  0  0  0
M  END
> <s_m_source_file>
AV-unprocessed.smi

> <i_m_source_file_index>
218

> <i_lp_mmshare_version>
43012

> <i_f3d_flags>
0

> <s_epik_input>
W0NIM11bQ0hdKFtDSDNdKU9jMVtjSF1jKFtjSF1bY0hdbjEpW0NIMl1bTkhdYyhuW2NIXW4yKWMoYzIzKW5bY0hdbjNbQ0BASF00T1tDQEhdKFtDSDJdW09IXSlbQ0BASF0oW09IXSlbQ0BIXTRbT0hd

> <s_epik_cmdline>
J2VwaWtfcHl0aG9uJywgJy1waCcsICc3LjAnLCAnLXRuJywgJzgnLCAnLW1hJywgJzIwMCcsICctbWV0YWxfYmluZGluZycsICctaW1hZScsICc8aW5maWxlLm1hZT4nLCAnLW9tYWUnLCAnPG91dGZpbGUubWFlPic=

> <r_lp_tautomer_probability>
1

> <r_epik_Ionization_Penalty>
0.00457014

> <r_epik_Ionization_Penalty_Charging>
0

> <r_epik_Ionization_Penalty_Neutral>
0.00457014

> <r_epik_State_Penalty>
-0

> <r_epik_Charging_Adjusted_Penalty>
0

> <i_epik_Tot_Q>
0

> <i_epik_Tot_abs_Q>
0

> <r_epik_Metal_State_Penalty>
-0

> <b_epik_Metal_Only>
0

> <s_epik_Chemistry_Notes>
This compound contains an acetal/aminal-like group ( X-CH(R)-Y where X, Y are N, S, or O) that may be acid/base labile, releasing an aldehyde.

> <s_lp_Force_Field>
OPLS_2005

> <r_lp_Energy>
50.2222

> <b_lp_Chiralities_Consistent>
1

> <s_lp_Variant>
AV-unprocessed.smi:218-4

> <Gold.Version>
5.8.1

> <Gold.Id.Protein>
6NUR|6NUR_protein|mol2

> <Gold.PLP.Fitness>
53.1390

> <Gold.PLP.PLP>
-41.2267

> <Gold.PLP.part.hbond>
-3.3127

> <Gold.PLP.part.metal>
0.0000

> <Gold.PLP.part.buried>
-6.2233

> <Gold.PLP.part.nonpolar>
-32.1772

> <Gold.PLP.part.repulsive>
0.3810

> <Gold.PLP.ligand.clash>
0.0000

> <Gold.PLP.ligand.torsion>
0.1231

> <Gold.PLP.Chemscore.Hbond>
3.0000

> <Gold.PLP.Chemscore.CHOScore>
0.9976

> <Gold.PLP.Chemscore.Metal>
0.0000

> <Gold.Chemscore.Hbonds>
donor molecule, donor type, donor heavy atom, donor atom, acceptor molecule, acceptor atom, score
      L1  H    23    50       P1  7921  0.94
      L1  H    25    51       P1 10747  1.00
      L1  H    27    52       P1 10747  0.71
      L1  C    29    54       P1  8028  0.98

> <Gold.PLP.Chemscore.Internal.Correction>
0.1658

> <Gold.Rescore>
     Score         DG    S(hbond)    S(metal)    S(lipo)     H(rot)  DE(clash)    DE(int)     intcor
     11.02     -13.39       2.80        0.00      95.04       4.90       0.15       2.21       ----

> <Gold.Chemscore.Fitness>
11.0238

> <Gold.Chemscore.DG>
-13.3857

> <Gold.Chemscore.ZeroCoef>
-5.4800

> <Gold.Chemscore.Hbond>
2.7956

> <Gold.Chemscore.Metal>
0.0000

> <Gold.Chemscore.Lipo>
95.0425

> <Gold.Chemscore.Internal_Hbond>
0.0000

> <Gold.Chemscore.DEClash>
0.1473

> <Gold.Chemscore.DEInternal>
2.2145

> <Gold.Chemscore.Rot>
4.9029

> <Gold.Chemscore.Internal.Correction>
   9.000000E+99

> <Gold.Chemscore.Hbonds>
donor molecule, donor type, donor heavy atom, donor atom, acceptor molecule, acceptor atom, score
      L1  H    23    50       P1  7921  0.50
      L1  H    25    51       P1 10747  1.00
      L1  H    27    52       P1 10747  0.70

> <Gold.Chemscore.Hbond.Weighted>
-9.3373

> <Gold.Chemscore.Metal.Weighted>
-0.0000

> <Gold.Chemscore.Lipo.Weighted>
-11.1200

> <Gold.Chemscore.Internal_Hbond.Weighted>
0.0000

> <Gold.Chemscore.DEClash.Weighted>
0.1473

> <Gold.Chemscore.DEInternal.Weighted>
2.2145

> <Gold.Chemscore.Rot.Weighted>
12.5515

> <Gold.Chemscore.Internal.Correction.Weighted>
   9.000000E+99

> <Gold.Protein.RotatedTorsions>
[ 6907 6896 6895 6894 ] final   29.50 input  -60.11 | X-H torsion
[ 7974 7965 7964 7962 ] final  -96.80 input  175.53 | X-H torsion
[ 8008 7997 7996 7995 ] final  -99.74 input   59.86 | X-H torsion
[ 10167 10162 10161 10158 ] final   -0.03 input  -65.29 | X-H torsion
[ 10718 10713 10712 10709 ] final   56.61 input   66.30 | X-H torsion
[ 10763 10752 10751 10750 ] final  -93.53 input  -60.55 | X-H torsion
[ 11005 11000 10999 10996 ] final   73.57 input  -57.11 | X-H torsion

> <Gold.Protein.ActiveResidues>
 VAL166  LYS551  ARG553  GLY616  TRP617  ASP618  TYR619  PRO620  LYS621  CYS622 
 ASP623  PHE694  ASN695  SER759  ASP760  ASP761  ALA762  ILE779  LEU786  VAL792 
 PHE793  MET794  SER795  GLU796  ALA797  LYS798  CYS799  TRP800  GLU811  SER814 

> <Gold.Protein.RotatedAtoms>
  152.0324  134.9760  160.0572 H   0  0  0  0  0  0  0  0  0  0  0  0  # atno 6907 bound_to 6896
  152.1231  133.4360  159.4693 H   0  0  0  0  0  0  0  0  0  0  0  0  # atno 6908 bound_to 6896
  150.6850  134.2429  159.4523 H   0  0  0  0  0  0  0  0  0  0  0  0  # atno 6909 bound_to 6896
  145.3421  140.9461  143.2602 H   0  0  0  0  0  0  0  0  0  0  0  0  # atno 7974 bound_to 7965
  154.8190  140.0445  157.1397 H   0  0  0  0  0  0  0  0  0  0  0  0  # atno 8008 bound_to 7997
  154.9281  140.3036  155.5162 H   0  0  0  0  0  0  0  0  0  0  0  0  # atno 8009 bound_to 7997
  156.2978  140.2328  156.4338 H   0  0  0  0  0  0  0  0  0  0  0  0  # atno 8010 bound_to 7997
  140.6750  143.6943  150.8003 H   0  0  0  0  0  0  0  0  0  0  0  0  # atno 10167 bound_to 10162
  157.5446  130.8721  149.8872 H   0  0  0  0  0  0  0  0  0  0  0  0  # atno 10718 bound_to 10713
  154.6968  135.5191  153.8469 H   0  0  0  0  0  0  0  0  0  0  0  0  # atno 10763 bound_to 10752
  153.0673  135.6589  154.0335 H   0  0  0  0  0  0  0  0  0  0  0  0  # atno 10764 bound_to 10752
  154.0200  135.2994  155.3361 H   0  0  0  0  0  0  0  0  0  0  0  0  # atno 10765 bound_to 10752
  139.9433  134.7358  156.1042 H   0  0  0  0  0  0  0  0  0  0  0  0  # atno 11005 bound_to 11000
  144.8782  139.4941  143.6735 LP  0  0  0  0  0  0  0  0  0  0  0  0  # atno 17320 bound_to 7965
  146.3003  139.7406  142.9096 LP  0  0  0  0  0  0  0  0  0  0  0  0  # atno 17321 bound_to 7965
  140.0634  143.5132  152.2616 LP  0  0  0  0  0  0  0  0  0  0  0  0  # atno 17342 bound_to 10162
  139.6037  144.7590  151.3112 LP  0  0  0  0  0  0  0  0  0  0  0  0  # atno 17343 bound_to 10162
  156.0524  130.3715  150.1169 LP  0  0  0  0  0  0  0  0  0  0  0  0  # atno 17370 bound_to 10713
  156.9346  130.9725  151.3527 LP  0  0  0  0  0  0  0  0  0  0  0  0  # atno 17371 bound_to 10713
  141.1076  133.6654  156.2900 LP  0  0  0  0  0  0  0  0  0  0  0  0  # atno 17394 bound_to 11000
  140.5896  134.5664  157.5497 LP  0  0  0  0  0  0  0  0  0  0  0  0  # atno 17395 bound_to 11000

$$$$
