AV-unprocessed.smi:1053|AV-procd|sdf|4622|dock1
  -GOLD-   22720 3123D 1   1.00000     0.00000
 Structure written by MMmdl.
 37 38  0  0  0  0  0  0  0  0  1 V2000
  148.5125  140.5686  153.2124 C   0  0  0  0  0  0  0  0  0  0  0  0
  149.2069  140.9275  154.5339 C   0  0  0  0  0  0  0  0  0  0  0  0
  150.4364  140.1850  154.8061 N   0  0  0  0  0  0  0  0  0  0  0  0
  150.4445  138.8658  154.1784 C   0  0  0  0  0  0  0  0  0  0  0  0
  151.7282  138.0849  154.5045 C   0  0  0  0  0  0  0  0  0  0  0  0
  151.8775  137.9841  155.9163 O   0  0  0  0  0  0  0  0  0  0  0  0
  151.9394  139.2543  156.5611 C   0  0  2  0  0  0  0  0  0  0  0  0
  152.1071  139.0234  158.0684 C   0  0  0  0  0  0  0  0  0  0  0  0
  153.2397  139.7657  158.6006 N   0  0  0  0  0  0  0  0  0  0  0  0
  153.1254  140.8688  159.4243 C   0  0  0  0  0  0  0  0  0  0  0  0
  153.5535  140.6981  160.6772 N   0  0  0  0  0  0  0  0  0  0  0  0
  153.4554  141.7575  161.5090 C   0  0  0  0  0  0  0  0  0  0  0  0
  152.9269  142.9915  161.0815 C   0  0  0  0  0  0  0  0  0  0  0  0
  152.5052  143.0589  159.7348 C   0  0  0  0  0  0  0  0  0  0  0  0
  151.9158  144.3253  159.1328 C   0  0  0  0  0  0  0  0  0  0  0  0
  151.9439  145.3382  159.9998 F   0  0  0  0  0  0  0  0  0  0  0  0
  152.6119  144.6758  158.0510 F   0  0  0  0  0  0  0  0  0  0  0  0
  150.6490  144.1079  158.7784 F   0  0  0  0  0  0  0  0  0  0  0  0
  152.6081  141.9904  158.9110 N   0  0  0  0  0  0  0  0  0  0  0  0
  150.6442  140.0269  156.2419 C   0  0  0  0  0  0  0  0  0  0  0  0
  147.6662  141.2314  153.0327 H   0  0  0  0  0  0  0  0  0  0  0  0
  148.1277  139.5491  153.2174 H   0  0  0  0  0  0  0  0  0  0  0  0
  149.1959  140.6693  152.3688 H   0  0  0  0  0  0  0  0  0  0  0  0
  149.4397  141.9926  154.5015 H   0  0  0  0  0  0  0  0  0  0  0  0
  148.5055  140.7998  155.3595 H   0  0  0  0  0  0  0  0  0  0  0  0
  149.5790  138.2913  154.5122 H   0  0  0  0  0  0  0  0  0  0  0  0
  150.3599  138.9598  153.0963 H   0  0  0  0  0  0  0  0  0  0  0  0
  151.6818  137.0825  154.0785 H   0  0  0  0  0  0  0  0  0  0  0  0
  152.6013  138.5772  154.0732 H   0  0  0  0  0  0  0  0  0  0  0  0
  152.7966  139.8146  156.1826 H   0  0  0  0  0  0  0  0  0  0  0  0
  151.2067  139.3479  158.5911 H   0  0  0  0  0  0  0  0  0  0  0  0
  152.2356  137.9606  158.2777 H   0  0  0  0  0  0  0  0  0  0  0  0
  154.1679  139.4049  158.4340 H   0  0  0  0  0  0  0  0  0  0  0  0
  153.8013  141.6198  162.5226 H   0  0  0  0  0  0  0  0  0  0  0  0
  152.8527  143.8331  161.7540 H   0  0  0  0  0  0  0  0  0  0  0  0
  150.6853  141.0081  156.7166 H   0  0  0  0  0  0  0  0  0  0  0  0
  149.7928  139.5046  156.6818 H   0  0  0  0  0  0  0  0  0  0  0  0
  1  2  1  0  0  0  0
  1 21  1  0  0  0  0
  1 22  1  0  0  0  0
  1 23  1  0  0  0  0
  2  3  1  0  0  0  0
  2 24  1  0  0  0  0
  2 25  1  0  0  0  0
  3 20  1  0  0  0  0
  3  4  1  0  0  0  0
  4  5  1  0  0  0  0
  4 26  1  0  0  0  0
  4 27  1  0  0  0  0
  5  6  1  0  0  0  0
  5 28  1  0  0  0  0
  5 29  1  0  0  0  0
  6  7  1  0  0  0  0
  7  8  1  0  0  0  0
  7 20  1  0  0  0  0
  7 30  1  0  0  0  0
  8  9  1  0  0  0  0
  8 31  1  0  0  0  0
  8 32  1  0  0  0  0
  9 10  1  0  0  0  0
  9 33  1  0  0  0  0
 10 19  1  0  0  0  0
 10 11  2  0  0  0  0
 11 12  1  0  0  0  0
 12 13  2  0  0  0  0
 12 34  1  0  0  0  0
 13 14  1  0  0  0  0
 13 35  1  0  0  0  0
 14 15  1  0  0  0  0
 14 19  2  0  0  0  0
 15 16  1  0  0  0  0
 15 17  1  0  0  0  0
 15 18  1  0  0  0  0
 20 36  1  0  0  0  0
 20 37  1  0  0  0  0
M  END
> <s_m_source_file>
AV-unprocessed.smi

> <i_m_source_file_index>
1053

> <i_lp_mmshare_version>
43012

> <i_f3d_flags>
0

> <s_epik_input>
W0NIM11bQ0gyXU4xW0NIMl1bQ0gyXU9bQ0BIXShbQ0gyXTEpW0NIMl1bTkhdYzJuW2NIXVtjSF1jKG4yKUMoRikoRilG

> <s_epik_cmdline>
J2VwaWtfcHl0aG9uJywgJy1waCcsICc3LjAnLCAnLXRuJywgJzgnLCAnLW1hJywgJzIwMCcsICctbWV0YWxfYmluZGluZycsICctaW1hZScsICc8aW5maWxlLm1hZT4nLCAnLW9tYWUnLCAnPG91dGZpbGUubWFlPic=

> <r_lp_tautomer_probability>
1

> <r_epik_Ionization_Penalty>
0.797829

> <r_epik_Ionization_Penalty_Charging>
0

> <r_epik_Ionization_Penalty_Neutral>
0.797829

> <r_epik_State_Penalty>
0.828842

> <r_epik_Charging_Adjusted_Penalty>
0.828842

> <i_epik_Tot_Q>
0

> <i_epik_Tot_abs_Q>
0

> <r_epik_Metal_State_Penalty>
0.828842

> <b_epik_Metal_Only>
0

> <s_lp_Force_Field>
OPLS_2005

> <r_lp_Energy>
15.9196

> <b_lp_Chiralities_Consistent>
1

> <s_lp_Variant>
AV-unprocessed.smi:1053-6

> <Gold.Version>
5.8.1

> <Gold.Id.Protein>
6NUR|6NUR_protein|mol2

> <Gold.PLP.Fitness>
44.5184

> <Gold.PLP.PLP>
-46.4233

> <Gold.PLP.part.hbond>
-1.0000

> <Gold.PLP.part.metal>
0.0000

> <Gold.PLP.part.buried>
-2.6927

> <Gold.PLP.part.nonpolar>
-44.2759

> <Gold.PLP.part.repulsive>
0.6697

> <Gold.PLP.ligand.clash>
0.0000

> <Gold.PLP.ligand.torsion>
1.8682

> <Gold.PLP.Chemscore.Hbond>
0.6000

> <Gold.PLP.Chemscore.CHOScore>
0.0000

> <Gold.PLP.Chemscore.Metal>
0.0000

> <Gold.Chemscore.Hbonds>
donor molecule, donor type, donor heavy atom, donor atom, acceptor molecule, acceptor atom, score
      P1  H  7989  7998       L1     3  0.60

> <Gold.PLP.Chemscore.Internal.Correction>
0.0316

> <Gold.Rescore>
     Score         DG    S(hbond)    S(metal)    S(lipo)     H(rot)  DE(clash)    DE(int)     intcor
     10.88     -12.50       0.00        0.00      93.27       1.52       0.11       1.51       ----

> <Gold.Chemscore.Fitness>
10.8831

> <Gold.Chemscore.DG>
-12.4990

> <Gold.Chemscore.ZeroCoef>
-5.4800

> <Gold.Chemscore.Hbond>
0.0000

> <Gold.Chemscore.Metal>
0.0000

> <Gold.Chemscore.Lipo>
93.2662

> <Gold.Chemscore.Internal_Hbond>
0.0000

> <Gold.Chemscore.DEClash>
0.1100

> <Gold.Chemscore.DEInternal>
1.5059

> <Gold.Chemscore.Rot>
1.5208

> <Gold.Chemscore.Internal.Correction>
   9.000000E+99

> <Gold.Chemscore.Hbonds>
donor molecule, donor type, donor heavy atom, donor atom, acceptor molecule, acceptor atom, score
      P1  H  7989  7998       L1     3  0.01

> <Gold.Chemscore.Hbond.Weighted>
-0.0000

> <Gold.Chemscore.Metal.Weighted>
-0.0000

> <Gold.Chemscore.Lipo.Weighted>
-10.9121

> <Gold.Chemscore.Internal_Hbond.Weighted>
0.0000

> <Gold.Chemscore.DEClash.Weighted>
0.1100

> <Gold.Chemscore.DEInternal.Weighted>
1.5059

> <Gold.Chemscore.Rot.Weighted>
3.8932

> <Gold.Chemscore.Internal.Correction.Weighted>
   9.000000E+99

> <Gold.Protein.RotatedTorsions>
[ 6907 6896 6895 6894 ] final  -11.20 input  -60.11 | X-H torsion
[ 7974 7965 7964 7962 ] final -150.28 input  175.53 | X-H torsion
[ 8008 7997 7996 7995 ] final   -7.17 input   59.86 | X-H torsion
[ 10167 10162 10161 10158 ] final   47.65 input  -65.29 | X-H torsion
[ 10718 10713 10712 10709 ] final  -40.75 input   66.30 | X-H torsion
[ 10763 10752 10751 10750 ] final  -92.62 input  -60.55 | X-H torsion
[ 11005 11000 10999 10996 ] final    7.48 input  -57.11 | X-H torsion

> <Gold.Protein.ActiveResidues>
 VAL166  LYS551  ARG553  GLY616  TRP617  ASP618  TYR619  PRO620  LYS621  CYS622 
 ASP623  PHE694  ASN695  SER759  ASP760  ASP761  ALA762  ILE779  LEU786  VAL792 
 PHE793  MET794  SER795  GLU796  ALA797  LYS798  CYS799  TRP800  GLU811  SER814 

> <Gold.Protein.RotatedAtoms>
  151.3900  135.0954  159.9522 H   0  0  0  0  0  0  0  0  0  0  0  0  # atno 6907 bound_to 6896
  152.5083  133.8989  159.7441 H   0  0  0  0  0  0  0  0  0  0  0  0  # atno 6908 bound_to 6896
  150.9441  133.6568  159.2813 H   0  0  0  0  0  0  0  0  0  0  0  0  # atno 6909 bound_to 6896
  144.7917  140.4953  143.5768 H   0  0  0  0  0  0  0  0  0  0  0  0  # atno 7974 bound_to 7965
  154.5864  140.2414  155.7981 H   0  0  0  0  0  0  0  0  0  0  0  0  # atno 8008 bound_to 7997
  156.2216  140.2995  155.9922 H   0  0  0  0  0  0  0  0  0  0  0  0  # atno 8009 bound_to 7997
  155.2450  140.0408  157.2970 H   0  0  0  0  0  0  0  0  0  0  0  0  # atno 8010 bound_to 7997
  140.3014  144.2929  150.6218 H   0  0  0  0  0  0  0  0  0  0  0  0  # atno 10167 bound_to 10162
  156.2779  130.4214  149.8368 H   0  0  0  0  0  0  0  0  0  0  0  0  # atno 10718 bound_to 10713
  154.6878  135.5224  153.8351 H   0  0  0  0  0  0  0  0  0  0  0  0  # atno 10763 bound_to 10752
  153.0610  135.6568  154.0472 H   0  0  0  0  0  0  0  0  0  0  0  0  # atno 10764 bound_to 10752
  154.0350  135.2982  155.3343 H   0  0  0  0  0  0  0  0  0  0  0  0  # atno 10765 bound_to 10752
  140.5477  134.0313  155.7926 H   0  0  0  0  0  0  0  0  0  0  0  0  # atno 11005 bound_to 11000
  145.5778  139.1487  143.3252 LP  0  0  0  0  0  0  0  0  0  0  0  0  # atno 17320 bound_to 7965
  146.2171  140.5909  142.9033 LP  0  0  0  0  0  0  0  0  0  0  0  0  # atno 17321 bound_to 7965
  140.5647  143.2187  151.7703 LP  0  0  0  0  0  0  0  0  0  0  0  0  # atno 17342 bound_to 10162
  139.4914  144.4300  151.9883 LP  0  0  0  0  0  0  0  0  0  0  0  0  # atno 17343 bound_to 10162
  156.5826  130.8472  151.3387 LP  0  0  0  0  0  0  0  0  0  0  0  0  # atno 17370 bound_to 10713
  157.7305  130.9686  150.1836 LP  0  0  0  0  0  0  0  0  0  0  0  0  # atno 17371 bound_to 10713
  141.1190  133.9493  157.2767 LP  0  0  0  0  0  0  0  0  0  0  0  0  # atno 17394 bound_to 11000
  139.9471  135.0182  156.8885 LP  0  0  0  0  0  0  0  0  0  0  0  0  # atno 17395 bound_to 11000

$$$$
