AV-unprocessed.smi:817|AV-procd|sdf|3829|dock10
  -GOLD-   22720 1273D 1   1.00000     0.00000
 Structure written by MMmdl.
 48 49  0  0  0  0  0  0  0  0  2 V2000
  148.2266  132.7188  152.7737 C   0  0  0  0  0  0  0  0  0  0  0  0
  146.9318  133.1511  152.0698 C   0  0  1  0  0  0  0  0  0  0  0  0
  146.3581  132.0074  151.2153 C   0  0  0  0  0  0  0  0  0  0  0  0
  145.0358  132.4050  150.5457 C   0  0  0  0  0  0  0  0  0  0  0  0
  143.9991  132.8993  151.5722 C   0  0  0  0  0  0  0  0  0  0  0  0
  144.5108  134.0699  152.4626 C   0  0  1  0  0  0  0  0  0  0  0  0
  144.7369  135.3407  151.5853 C   0  0  0  0  0  0  0  0  0  0  0  0
  145.8933  136.1245  152.0254 N   0  0  0  0  0  0  0  0  0  0  0  0
  145.8857  137.2871  152.6994 C   0  0  0  0  0  0  0  0  0  0  0  0
  144.8291  137.8132  153.0392 O   0  0  0  0  0  0  0  0  0  0  0  0
  147.1132  137.7748  152.9670 N   0  0  0  0  0  0  0  0  0  0  0  0
  147.4725  138.9765  153.6352 C   0  0  0  0  0  0  0  0  0  0  0  0
  148.8318  139.1648  153.9596 C   0  0  0  0  0  0  0  0  0  0  0  0
  149.2267  140.3514  154.6054 C   0  0  0  0  0  0  0  0  0  0  0  0
  148.2417  141.3138  154.8978 C   0  0  0  0  0  0  0  0  0  0  0  0
  146.9387  141.1568  154.5837 N   0  0  0  0  0  0  0  0  0  0  0  0
  146.5662  140.0153  153.9653 C   0  0  0  0  0  0  0  0  0  0  0  0
  143.5078  134.4106  153.5426 N   0  3  0  0  0  0  0  0  0  0  0  0
  144.0229  135.2644  154.6457 C   0  0  0  0  0  0  0  0  0  0  0  0
  142.1843  134.9091  153.0849 C   0  0  0  0  0  0  0  0  0  0  0  0
  145.8756  133.6300  153.0900 C   0  0  0  0  0  0  0  0  0  0  0  0
  148.0540  131.8779  153.4462 H   0  0  0  0  0  0  0  0  0  0  0  0
  148.6450  133.5352  153.3630 H   0  0  0  0  0  0  0  0  0  0  0  0
  148.9836  132.4148  152.0501 H   0  0  0  0  0  0  0  0  0  0  0  0
  147.2007  133.9754  151.4105 H   0  0  0  0  0  0  0  0  0  0  0  0
  147.0799  131.7112  150.4528 H   0  0  0  0  0  0  0  0  0  0  0  0
  146.1942  131.1281  151.8398 H   0  0  0  0  0  0  0  0  0  0  0  0
  145.2185  133.1712  149.7923 H   0  0  0  0  0  0  0  0  0  0  0  0
  144.6318  131.5484  150.0053 H   0  0  0  0  0  0  0  0  0  0  0  0
  143.0989  133.1901  151.0306 H   0  0  0  0  0  0  0  0  0  0  0  0
  143.7140  132.0538  152.1988 H   0  0  0  0  0  0  0  0  0  0  0  0
  144.8782  135.0880  150.5364 H   0  0  0  0  0  0  0  0  0  0  0  0
  143.8505  135.9746  151.5954 H   0  0  0  0  0  0  0  0  0  0  0  0
  146.8009  135.7531  151.7850 H   0  0  0  0  0  0  0  0  0  0  0  0
  147.8881  137.1890  152.6929 H   0  0  0  0  0  0  0  0  0  0  0  0
  149.5656  138.4089  153.7200 H   0  0  0  0  0  0  0  0  0  0  0  0
  150.2603  140.5203  154.8693 H   0  0  0  0  0  0  0  0  0  0  0  0
  148.5083  142.2362  155.3924 H   0  0  0  0  0  0  0  0  0  0  0  0
  145.5176  139.9627  153.7200 H   0  0  0  0  0  0  0  0  0  0  0  0
  144.2018  136.2864  154.3109 H   0  0  0  0  0  0  0  0  0  0  0  0
  144.9407  134.8791  155.0851 H   0  0  0  0  0  0  0  0  0  0  0  0
  143.2939  135.3113  155.4554 H   0  0  0  0  0  0  0  0  0  0  0  0
  142.2823  135.7816  152.4390 H   0  0  0  0  0  0  0  0  0  0  0  0
  141.5636  135.1966  153.9343 H   0  0  0  0  0  0  0  0  0  0  0  0
  141.6242  134.1379  152.5571 H   0  0  0  0  0  0  0  0  0  0  0  0
  145.7272  132.7875  153.7646 H   0  0  0  0  0  0  0  0  0  0  0  0
  146.2893  134.4340  153.6999 H   0  0  0  0  0  0  0  0  0  0  0  0
  143.3009  133.5247  153.9819 H   0  0  0  0  0  0  0  0  0  0  0  0
  1  2  1  0  0  0  0
  1 22  1  0  0  0  0
  1 23  1  0  0  0  0
  1 24  1  0  0  0  0
  2 21  1  0  0  0  0
  2  3  1  0  0  0  0
  2 25  1  0  0  0  0
  3  4  1  0  0  0  0
  3 26  1  0  0  0  0
  3 27  1  0  0  0  0
  4  5  1  0  0  0  0
  4 28  1  0  0  0  0
  4 29  1  0  0  0  0
  5  6  1  0  0  0  0
  5 30  1  0  0  0  0
  5 31  1  0  0  0  0
  6  7  1  0  0  0  0
  6 18  1  0  0  0  0
  6 21  1  0  0  0  0
  7  8  1  0  0  0  0
  7 32  1  0  0  0  0
  7 33  1  0  0  0  0
  8  9  1  0  0  0  0
  8 34  1  0  0  0  0
  9 10  2  0  0  0  0
  9 11  1  0  0  0  0
 11 12  1  0  0  0  0
 11 35  1  0  0  0  0
 12 17  1  0  0  0  0
 12 13  2  0  0  0  0
 13 14  1  0  0  0  0
 13 36  1  0  0  0  0
 14 15  2  0  0  0  0
 14 37  1  0  0  0  0
 15 16  1  0  0  0  0
 15 38  1  0  0  0  0
 16 17  2  0  0  0  0
 17 39  1  0  0  0  0
 18 19  1  0  0  0  0
 18 20  1  0  0  0  0
 18 48  1  0  0  0  0
 19 40  1  0  0  0  0
 19 41  1  0  0  0  0
 19 42  1  0  0  0  0
 20 43  1  0  0  0  0
 20 44  1  0  0  0  0
 20 45  1  0  0  0  0
 21 46  1  0  0  0  0
 21 47  1  0  0  0  0
M  CHG  1  18   1
M  END
> <s_m_source_file>
AV-unprocessed.smi

> <i_m_source_file_index>
817

> <i_lp_mmshare_version>
43012

> <i_f3d_flags>
0

> <s_epik_input>
W0NIM11bQ0BASF0oW0NIMl0xKVtDSDJdW0NIMl1bQ0gyXVtDQF0xKE4oW0NIM10pW0NIM10pW0NIMl1bTkhdQyg9TylbTkhdYzJbY0hdW2NIXVtjSF1uW2NIXTI=

> <s_epik_cmdline>
J2VwaWtfcHl0aG9uJywgJy1waCcsICc3LjAnLCAnLXRuJywgJzgnLCAnLW1hJywgJzIwMCcsICctbWV0YWxfYmluZGluZycsICctaW1hZScsICc8aW5maWxlLm1hZT4nLCAnLW9tYWUnLCAnPG91dGZpbGUubWFlPic=

> <r_lp_tautomer_probability>
1

> <r_epik_Ionization_Penalty>
0.00584939

> <r_epik_Ionization_Penalty_Charging>
0.00160539

> <r_epik_Ionization_Penalty_Neutral>
0.004244

> <r_epik_State_Penalty>
-0

> <r_epik_Charging_Adjusted_Penalty>
0.00160539

> <i_epik_Tot_Q>
1

> <i_epik_Tot_abs_Q>
1

> <r_epik_Metal_State_Penalty>
-0

> <b_epik_Metal_Only>
0

> <s_lp_Force_Field>
OPLS_2005

> <r_lp_Energy>
49.3624

> <b_lp_Chiralities_Consistent>
1

> <s_lp_Variant>
AV-unprocessed.smi:817-2

> <Gold.Version>
5.8.1

> <Gold.Id.Protein>
6NUR|6NUR_protein|mol2

> <Gold.PLP.Fitness>
45.5998

> <Gold.PLP.PLP>
-31.8181

> <Gold.PLP.part.hbond>
-2.9958

> <Gold.PLP.part.metal>
0.0000

> <Gold.PLP.part.buried>
-2.6731

> <Gold.PLP.part.nonpolar>
-28.7274

> <Gold.PLP.part.repulsive>
1.5069

> <Gold.PLP.ligand.clash>
1.3633

> <Gold.PLP.ligand.torsion>
0.9736

> <Gold.PLP.Chemscore.Hbond>
3.6599

> <Gold.PLP.Chemscore.CHOScore>
2.0000

> <Gold.PLP.Chemscore.Metal>
0.0000

> <Gold.Chemscore.Hbonds>
donor molecule, donor type, donor heavy atom, donor atom, acceptor molecule, acceptor atom, score
      L1  H     8    34       P1  7948  0.55
      L1  H    11    35       P1  7948  1.00
      L1  H    18    48       P1 10957  1.98
      L1  C    15    38       P1  8028  1.00
      L1  C    17    39       P1 10175  1.00

> <Gold.PLP.Chemscore.Internal.Correction>
0.1125

> <Gold.Rescore>
     Score         DG    S(hbond)    S(metal)    S(lipo)     H(rot)  DE(clash)    DE(int)     intcor
     17.08     -20.32       2.65        0.00      82.72       1.44       0.94       2.30       ----

> <Gold.Chemscore.Fitness>
17.0802

> <Gold.Chemscore.DG>
-20.3178

> <Gold.Chemscore.ZeroCoef>
-5.4800

> <Gold.Chemscore.Hbond>
2.6488

> <Gold.Chemscore.Metal>
0.0000

> <Gold.Chemscore.Lipo>
82.7216

> <Gold.Chemscore.Internal_Hbond>
0.0000

> <Gold.Chemscore.DEClash>
0.9352

> <Gold.Chemscore.DEInternal>
2.3025

> <Gold.Chemscore.Rot>
1.4405

> <Gold.Chemscore.Internal.Correction>
   9.000000E+99

> <Gold.Chemscore.Hbonds>
donor molecule, donor type, donor heavy atom, donor atom, acceptor molecule, acceptor atom, score
      L1  H     8    34       P1  7948  0.55
      L1  H    11    35       P1  7948  1.00
      L1  H    18    48       P1 10957  0.92

> <Gold.Chemscore.Hbond.Weighted>
-8.8471

> <Gold.Chemscore.Metal.Weighted>
-0.0000

> <Gold.Chemscore.Lipo.Weighted>
-9.6784

> <Gold.Chemscore.Internal_Hbond.Weighted>
0.0000

> <Gold.Chemscore.DEClash.Weighted>
0.9352

> <Gold.Chemscore.DEInternal.Weighted>
2.3025

> <Gold.Chemscore.Rot.Weighted>
3.6878

> <Gold.Chemscore.Internal.Correction.Weighted>
   9.000000E+99

> <Gold.Protein.RotatedTorsions>
[ 6907 6896 6895 6894 ] final  -24.32 input  -60.11 | X-H torsion
[ 7974 7965 7964 7962 ] final   61.43 input  175.53 | X-H torsion
[ 8008 7997 7996 7995 ] final -110.37 input   59.86 | X-H torsion
[ 10167 10162 10161 10158 ] final  -33.47 input  -65.29 | X-H torsion
[ 10718 10713 10712 10709 ] final   -4.63 input   66.30 | X-H torsion
[ 10763 10752 10751 10750 ] final   82.40 input  -60.55 | X-H torsion
[ 11005 11000 10999 10996 ] final  114.23 input  -57.11 | X-H torsion

> <Gold.Protein.ActiveResidues>
 VAL166  LYS551  ARG553  GLY616  TRP617  ASP618  TYR619  PRO620  LYS621  CYS622 
 ASP623  PHE694  ASN695  SER759  ASP760  ASP761  ALA762  ILE779  LEU786  VAL792 
 PHE793  MET794  SER795  GLU796  ALA797  LYS798  CYS799  TRP800  GLU811  SER814 

> <Gold.Protein.RotatedAtoms>
  151.1912  135.0403  159.8833 H   0  0  0  0  0  0  0  0  0  0  0  0  # atno 6907 bound_to 6896
  152.5439  134.0954  159.8305 H   0  0  0  0  0  0  0  0  0  0  0  0  # atno 6908 bound_to 6896
  151.1083  133.5145  159.2639 H   0  0  0  0  0  0  0  0  0  0  0  0  # atno 6909 bound_to 6896
  145.8849  139.3469  143.0684 H   0  0  0  0  0  0  0  0  0  0  0  0  # atno 7974 bound_to 7965
  154.9735  140.0397  157.2245 H   0  0  0  0  0  0  0  0  0  0  0  0  # atno 8008 bound_to 7997
  154.7779  140.2813  155.6064 H   0  0  0  0  0  0  0  0  0  0  0  0  # atno 8009 bound_to 7997
  156.2931  140.2597  156.2598 H   0  0  0  0  0  0  0  0  0  0  0  0  # atno 8010 bound_to 7997
  140.7204  143.3618  151.1949 H   0  0  0  0  0  0  0  0  0  0  0  0  # atno 10167 bound_to 10162
  156.7585  130.5262  149.5790 H   0  0  0  0  0  0  0  0  0  0  0  0  # atno 10718 bound_to 10713
  153.1199  135.4730  154.9178 H   0  0  0  0  0  0  0  0  0  0  0  0  # atno 10763 bound_to 10752
  154.7565  135.3120  154.8461 H   0  0  0  0  0  0  0  0  0  0  0  0  # atno 10764 bound_to 10752
  153.9029  135.6873  153.4808 H   0  0  0  0  0  0  0  0  0  0  0  0  # atno 10765 bound_to 10752
  139.8975  134.9564  156.6861 H   0  0  0  0  0  0  0  0  0  0  0  0  # atno 11005 bound_to 11000
  145.8979  140.9262  143.0518 LP  0  0  0  0  0  0  0  0  0  0  0  0  # atno 17320 bound_to 7965
  144.6728  140.0993  143.7461 LP  0  0  0  0  0  0  0  0  0  0  0  0  # atno 17321 bound_to 7965
  139.7171  143.9283  152.2971 LP  0  0  0  0  0  0  0  0  0  0  0  0  # atno 17342 bound_to 10162
  139.9027  144.6902  150.8647 LP  0  0  0  0  0  0  0  0  0  0  0  0  # atno 17343 bound_to 10162
  156.1355  130.6208  151.0394 LP  0  0  0  0  0  0  0  0  0  0  0  0  # atno 17370 bound_to 10713
  157.6745  131.0853  150.7528 LP  0  0  0  0  0  0  0  0  0  0  0  0  # atno 17371 bound_to 10713
  140.7261  133.9099  155.8179 LP  0  0  0  0  0  0  0  0  0  0  0  0  # atno 17394 bound_to 11000
  141.0189  134.0916  157.4141 LP  0  0  0  0  0  0  0  0  0  0  0  0  # atno 17395 bound_to 11000

$$$$
