#       Name:                AV-unprocessed.smi:10
#       Creating user name   scv26
#       Creation time:       Thu Mar 26 15:17:20 2020


#       File generated by GOLD software.
#

@<TRIPOS>MOLECULE
AV-unprocessed.smi:10
    40    42     1
SMALL
NO_CHARGES


@<TRIPOS>ATOM
      1 ****        -2.8199   5.0227   0.3873 C.3            1 S1                 0.0000
      2 ****        -2.3866   3.9760  -0.5151 N.pl3          1 S1                 0.0000
      3 ****        -2.3897   4.0036  -1.8611 C.2            1 S1                 0.0000
      4 ****        -1.9356   2.8987  -2.4502 N.2            1 S1                 0.0000
      5 ****        -1.6151   2.0930  -1.3633 C.2            1 S1                 0.0000
      6 ****        -1.0602   0.7210  -1.3103 C.2            1 S1                 0.0000
      7 ****        -0.7853   0.0810  -2.3257 O.2            1 S1                 0.0000
      8 ****        -0.8927   0.2598  -0.0348 N.am           1 S1                 0.0000
      9 ****        -0.3632  -1.0896   0.2163 C.3            1 S1                 0.0000
     10 ****         1.1767  -1.1434   0.1131 C.3            1 S1                 0.0000
     11 ****         1.7212  -0.6842   1.3352 O.3            1 S1                 0.0000
     12 ****         1.6812  -2.5663  -0.1472 C.3            1 S1                 0.0000
     13 ****         1.4507  -3.6919   0.8742 C.3            1 S1                 0.0000
     14 ****         2.7896  -4.2953   0.4363 C.3            1 S1                 0.0000
     15 ****         3.1791  -2.9078  -0.0853 C.3            1 S1                 0.0000
     16 ****        -1.2066   1.0443   1.1158 C.2            1 S1                 0.0000
     17 ****        -1.6956   2.2571   1.1003 N.2            1 S1                 0.0000
     18 ****        -1.8795   2.7263  -0.1811 C.2            1 S1                 0.0000
     19 ****        -3.1176   5.9079  -0.1755 H              1 S1                 0.0000
     20 ****        -2.0046   5.2877   1.0609 H              1 S1                 0.0000
     21 ****        -3.6695   4.6721   0.9736 H              1 S1                 0.0000
     22 ****        -2.7353   4.8572  -2.4257 H              1 S1                 0.0000
     23 ****        -0.6978  -1.4899   1.1758 H              1 S1                 0.0000
     24 ****        -0.7971  -1.7677  -0.5211 H              1 S1                 0.0000
     25 ****         1.5289  -0.4897  -0.6858 H              1 S1                 0.0000
     26 ****         2.6637  -0.7120   1.2715 H              1 S1                 0.0000
     27 ****         1.3055  -2.9130  -1.1127 H              1 S1                 0.0000
     28 ****         1.4655  -3.3458   1.9088 H              1 S1                 0.0000
     29 ****         0.5800  -4.3170   0.6735 H              1 S1                 0.0000
     30 ****         3.4107  -4.6679   1.2513 H              1 S1                 0.0000
     31 ****         2.6809  -5.0323  -0.3609 H              1 S1                 0.0000
     32 ****         3.6854  -2.9098  -1.0509 H              1 S1                 0.0000
     33 ****         3.7305  -2.3253   0.6542 H              1 S1                 0.0000
     34 ****        -0.9974   0.5389   2.0602 H              1 S1                 0.0000
     35 ****        -1.8476   2.6994  -3.4262 LP             1 S1                 0.0000
     36 ****        -0.9353   0.4858  -3.2278 LP             1 S1                 0.0000
     37 ****        -0.4120  -0.8434  -2.2483 LP             1 S1                 0.0000
     38 ****         1.4158  -1.2732   2.0833 LP             1 S1                 0.0000
     39 ****         1.4219   0.2545   1.5066 LP             1 S1                 0.0000
     40 ****        -1.9109   2.7827   1.9233 LP             1 S1                 0.0000
@<TRIPOS>BOND
    1    1    2 1     
    2    1   19 1     
    3    1   20 1     
    4    1   21 1     
    5    2   18 1     
    6    2    3 1     
    7    3    4 2     
    8    3   22 1     
    9    4    5 1     
   10    5   18 2     
   11    5    6 1     
   12    6    7 2     
   13    6    8 am    
   14    8    9 1     
   15    8   16 1     
   16    9   10 1     
   17    9   23 1     
   18    9   24 1     
   19   10   11 1     
   20   10   12 1     
   21   10   25 1     
   22   11   26 1     
   23   12   15 1     
   24   12   13 1     
   25   12   27 1     
   26   13   14 1     
   27   13   28 1     
   28   13   29 1     
   29   14   15 1     
   30   14   30 1     
   31   14   31 1     
   32   15   32 1     
   33   15   33 1     
   34   16   17 2     
   35   16   34 1     
   36   17   18 1     
   37    4   35 1     
   38    7   36 1     
   39    7   37 1     
   40   11   38 1     
   41   11   39 1     
   42   17   40 1     
@<TRIPOS>SUBSTRUCTURE
      1 S1             1
@<TRIPOS>SET
LONE_PAIRS      STATIC     ATOMS    <user>   **** ""
6 35 36 37 38 39 40
DONOR_HYDROGENS      STATIC     ATOMS    <user>   **** ""
1 26
ATOM$BLUE        STATIC     ATOMS    COLORGROUP SYSTEM
6 35 36 37 38 39 40
ATOM$RED        STATIC     ATOMS    COLORGROUP SYSTEM
1 26
