AV-unprocessed.smi:61|AV-procd|sdf|597|dock6
  -GOLD-   2262016493D 1   1.00000     0.00000
 Structure written by MMmdl.
 28 29  0  0  0  0  0  0  0  0  1 V2000
  149.4506  142.2063  154.9282 N   0  0  0  0  0  0  0  0  0  0  0  0
  150.3886  141.6087  155.7335 C   0  0  0  0  0  0  0  0  0  0  0  0
  150.7370  140.3607  155.4192 N   0  0  0  0  0  0  0  0  0  0  0  0
  151.6602  139.7755  156.2113 C   0  0  0  0  0  0  0  0  0  0  0  0
  152.2273  140.4464  157.3137 C   0  0  0  0  0  0  0  0  0  0  0  0
  151.7838  141.7683  157.5563 C   0  0  0  0  0  0  0  0  0  0  0  0
  152.2954  142.5104  158.6421 N   0  0  0  0  0  0  0  0  0  0  0  0
  153.1117  141.7859  159.6111 C   0  0  0  0  0  0  0  0  0  0  0  0
  152.7800  142.3811  160.9821 C   0  0  0  0  0  0  0  0  0  0  0  0
  152.2170  143.7584  160.6500 C   0  0  0  0  0  0  0  0  0  0  0  0
  151.4856  143.5186  159.3247 C   0  0  1  0  0  0  0  0  0  0  0  0
  151.2976  144.8060  158.4963 C   0  0  0  0  0  0  0  0  0  0  0  0
  150.1728  145.5211  158.9614 O   0  0  0  0  0  0  0  0  0  0  0  0
  150.8561  142.3378  156.7482 N   0  0  0  0  0  0  0  0  0  0  0  0
  149.1454  143.1507  155.1141 H   0  0  0  0  0  0  0  0  0  0  0  0
  149.0331  141.6952  154.1644 H   0  0  0  0  0  0  0  0  0  0  0  0
  151.9501  138.7653  155.9637 H   0  0  0  0  0  0  0  0  0  0  0  0
  152.9693  139.9649  157.9331 H   0  0  0  0  0  0  0  0  0  0  0  0
  152.9230  140.7114  159.5994 H   0  0  0  0  0  0  0  0  0  0  0  0
  154.1625  141.9473  159.3683 H   0  0  0  0  0  0  0  0  0  0  0  0
  152.0099  141.7794  161.4668 H   0  0  0  0  0  0  0  0  0  0  0  0
  153.6432  142.4216  161.6468 H   0  0  0  0  0  0  0  0  0  0  0  0
  151.5629  144.1487  161.4302 H   0  0  0  0  0  0  0  0  0  0  0  0
  153.0369  144.4649  160.5122 H   0  0  0  0  0  0  0  0  0  0  0  0
  150.5109  143.0782  159.5412 H   0  0  0  0  0  0  0  0  0  0  0  0
  152.1813  145.4421  158.5594 H   0  0  0  0  0  0  0  0  0  0  0  0
  151.1406  144.5844  157.4412 H   0  0  0  0  0  0  0  0  0  0  0  0
  149.5051  145.4969  158.2932 H   0  0  0  0  0  0  0  0  0  0  0  0
  1  2  1  0  0  0  0
  1 15  1  0  0  0  0
  1 16  1  0  0  0  0
  2 14  1  0  0  0  0
  2  3  2  0  0  0  0
  3  4  1  0  0  0  0
  4  5  2  0  0  0  0
  4 17  1  0  0  0  0
  5  6  1  0  0  0  0
  5 18  1  0  0  0  0
  6  7  1  0  0  0  0
  6 14  2  0  0  0  0
  7 11  1  0  0  0  0
  7  8  1  0  0  0  0
  8  9  1  0  0  0  0
  8 19  1  0  0  0  0
  8 20  1  0  0  0  0
  9 10  1  0  0  0  0
  9 21  1  0  0  0  0
  9 22  1  0  0  0  0
 10 11  1  0  0  0  0
 10 23  1  0  0  0  0
 10 24  1  0  0  0  0
 11 12  1  0  0  0  0
 11 25  1  0  0  0  0
 12 13  1  0  0  0  0
 12 26  1  0  0  0  0
 12 27  1  0  0  0  0
 13 28  1  0  0  0  0
M  END
> <s_m_source_file>
AV-unprocessed.smi

> <i_m_source_file_index>
61

> <i_lp_mmshare_version>
43012

> <i_f3d_flags>
0

> <s_epik_input>
W05IMl1jMW5bY0hdW2NIXWMobjEpTjJbQ0gyXVtDSDJdW0NIMl1bQ0BIXTJbQ0gyXVtPSF0=

> <s_epik_cmdline>
J2VwaWtfcHl0aG9uJywgJy1waCcsICc3LjAnLCAnLXRuJywgJzgnLCAnLW1hJywgJzIwMCcsICctbWV0YWxfYmluZGluZycsICctaW1hZScsICc8aW5maWxlLm1hZT4nLCAnLW9tYWUnLCAnPG91dGZpbGUubWFlPic=

> <r_lp_tautomer_probability>
1

> <r_epik_Ionization_Penalty>
0.76024

> <r_epik_Ionization_Penalty_Charging>
0

> <r_epik_Ionization_Penalty_Neutral>
0.76024

> <r_epik_State_Penalty>
0.587668

> <r_epik_Charging_Adjusted_Penalty>
0.587668

> <i_epik_Tot_Q>
0

> <i_epik_Tot_abs_Q>
0

> <r_epik_Metal_State_Penalty>
0.307814

> <b_epik_Metal_Only>
0

> <s_lp_Force_Field>
OPLS_2005

> <r_lp_Energy>
20.8196

> <b_lp_Chiralities_Consistent>
1

> <s_lp_Variant>
AV-unprocessed.smi:61-3

> <Gold.Version>
5.8.1

> <Gold.Id.Protein>
6NUR|6NUR_protein|mol2

> <Gold.PLP.Fitness>
36.3147

> <Gold.PLP.PLP>
-29.6049

> <Gold.PLP.part.hbond>
-4.1225

> <Gold.PLP.part.metal>
0.0000

> <Gold.PLP.part.buried>
-3.1985

> <Gold.PLP.part.nonpolar>
-21.4458

> <Gold.PLP.part.repulsive>
0.3940

> <Gold.PLP.ligand.clash>
0.0000

> <Gold.PLP.ligand.torsion>
0.6795

> <Gold.PLP.Chemscore.Hbond>
2.5712

> <Gold.PLP.Chemscore.CHOScore>
0.0000

> <Gold.PLP.Chemscore.Metal>
0.0000

> <Gold.Chemscore.Hbonds>
donor molecule, donor type, donor heavy atom, donor atom, acceptor molecule, acceptor atom, score
      L1  H     1    15       P1  8028  1.00
      L1  H    13    28       P1  8029  1.00
      P1  H  7989  7998       L1     3  0.48

> <Gold.PLP.Chemscore.Internal.Correction>
0.3552

> <Gold.Rescore>
     Score         DG    S(hbond)    S(metal)    S(lipo)     H(rot)  DE(clash)    DE(int)     intcor
     13.25     -15.17       2.02        0.00      67.88       1.96       0.47       1.46       ----

> <Gold.Chemscore.Fitness>
13.2480

> <Gold.Chemscore.DG>
-15.1738

> <Gold.Chemscore.ZeroCoef>
-5.4800

> <Gold.Chemscore.Hbond>
2.0237

> <Gold.Chemscore.Metal>
0.0000

> <Gold.Chemscore.Lipo>
67.8835

> <Gold.Chemscore.Internal_Hbond>
0.0000

> <Gold.Chemscore.DEClash>
0.4660

> <Gold.Chemscore.DEInternal>
1.4598

> <Gold.Chemscore.Rot>
1.9561

> <Gold.Chemscore.Internal.Correction>
   9.000000E+99

> <Gold.Chemscore.Hbonds>
donor molecule, donor type, donor heavy atom, donor atom, acceptor molecule, acceptor atom, score
      L1  H     1    15       P1  8028  1.00
      L1  H    13    28       P1  8029  0.69
      P1  H  7989  7998       L1     3  0.04

> <Gold.Chemscore.Hbond.Weighted>
-6.7591

> <Gold.Chemscore.Metal.Weighted>
-0.0000

> <Gold.Chemscore.Lipo.Weighted>
-7.9424

> <Gold.Chemscore.Internal_Hbond.Weighted>
0.0000

> <Gold.Chemscore.DEClash.Weighted>
0.4660

> <Gold.Chemscore.DEInternal.Weighted>
1.4598

> <Gold.Chemscore.Rot.Weighted>
5.0077

> <Gold.Chemscore.Internal.Correction.Weighted>
   9.000000E+99

> <Gold.Protein.RotatedTorsions>
[ 6907 6896 6895 6894 ] final  -43.85 input  -60.11 | X-H torsion
[ 7974 7965 7964 7962 ] final  155.31 input  175.53 | X-H torsion
[ 8008 7997 7996 7995 ] final  -40.21 input   59.86 | X-H torsion
[ 10167 10162 10161 10158 ] final  -52.73 input  -65.29 | X-H torsion
[ 10718 10713 10712 10709 ] final  171.41 input   66.30 | X-H torsion
[ 10763 10752 10751 10750 ] final  146.01 input  -60.55 | X-H torsion
[ 11005 11000 10999 10996 ] final -167.44 input  -57.11 | X-H torsion

> <Gold.Protein.ActiveResidues>
 VAL166  LYS551  ARG553  GLY616  TRP617  ASP618  TYR619  PRO620  LYS621  CYS622 
 ASP623  PHE694  ASN695  SER759  ASP760  ASP761  ALA762  ILE779  LEU786  VAL792 
 PHE793  MET794  SER795  GLU796  ALA797  LYS798  CYS799  TRP800  GLU811  SER814 

> <Gold.Protein.RotatedAtoms>
  150.9393  134.8803  159.7601 H   0  0  0  0  0  0  0  0  0  0  0  0  # atno 6907 bound_to 6896
  152.5073  134.3965  159.9412 H   0  0  0  0  0  0  0  0  0  0  0  0  # atno 6908 bound_to 6896
  151.3987  133.3724  159.2764 H   0  0  0  0  0  0  0  0  0  0  0  0  # atno 6909 bound_to 6896
  144.8033  139.7051  143.6173 H   0  0  0  0  0  0  0  0  0  0  0  0  # atno 7974 bound_to 7965
  154.4014  140.1531  156.2989 H   0  0  0  0  0  0  0  0  0  0  0  0  # atno 8008 bound_to 7997
  155.8718  140.3448  155.5805 H   0  0  0  0  0  0  0  0  0  0  0  0  # atno 8009 bound_to 7997
  155.7766  140.0837  157.2071 H   0  0  0  0  0  0  0  0  0  0  0  0  # atno 8010 bound_to 7997
  140.6522  143.2574  151.4691 H   0  0  0  0  0  0  0  0  0  0  0  0  # atno 10167 bound_to 10162
  156.9939  131.0156  151.2849 H   0  0  0  0  0  0  0  0  0  0  0  0  # atno 10718 bound_to 10713
  154.0149  135.2911  155.3388 H   0  0  0  0  0  0  0  0  0  0  0  0  # atno 10763 bound_to 10752
  154.7081  135.5161  153.8628 H   0  0  0  0  0  0  0  0  0  0  0  0  # atno 10764 bound_to 10752
  153.0706  135.6646  154.0377 H   0  0  0  0  0  0  0  0  0  0  0  0  # atno 10765 bound_to 10752
  140.5532  134.5407  157.5127 H   0  0  0  0  0  0  0  0  0  0  0  0  # atno 11005 bound_to 11000
  146.2319  139.5830  142.9549 LP  0  0  0  0  0  0  0  0  0  0  0  0  # atno 17320 bound_to 7965
  145.5500  141.0414  143.2283 LP  0  0  0  0  0  0  0  0  0  0  0  0  # atno 17321 bound_to 7965
  139.5738  144.1865  152.1875 LP  0  0  0  0  0  0  0  0  0  0  0  0  # atno 17342 bound_to 10162
  140.1170  144.5407  150.6888 LP  0  0  0  0  0  0  0  0  0  0  0  0  # atno 17343 bound_to 10162
  157.5439  130.8138  149.8062 LP  0  0  0  0  0  0  0  0  0  0  0  0  # atno 17370 bound_to 10713
  156.0197  130.3800  150.2001 LP  0  0  0  0  0  0  0  0  0  0  0  0  # atno 17371 bound_to 10713
  139.9444  134.7728  156.0597 LP  0  0  0  0  0  0  0  0  0  0  0  0  # atno 17394 bound_to 11000
  141.1159  133.6628  156.3093 LP  0  0  0  0  0  0  0  0  0  0  0  0  # atno 17395 bound_to 11000

$$$$
