AV-unprocessed.smi:720|AV-procd|sdf|3500|dock3
  -GOLD-   22720 0493D 1   1.00000     0.00000
 Structure written by MMmdl.
 46 48  0  0  0  0  0  0  0  0  1 V2000
  151.7631  141.9033  159.2269 C   0  0  0  0  0  0  0  0  0  0  0  0
  151.7744  142.6023  157.9468 N   0  0  0  0  0  0  0  0  0  0  0  0
  151.7366  144.0340  158.2157 C   0  0  0  0  0  0  0  0  0  0  0  0
  150.6218  142.2455  157.1170 C   0  0  0  0  0  0  0  0  0  0  0  0
  150.9638  141.2782  155.9635 C   0  0  0  0  0  0  0  0  0  0  0  0
  149.8049  140.8590  155.1943 N   0  0  0  0  0  0  0  0  0  0  0  0
  148.7541  141.6295  154.7373 C   0  0  0  0  0  0  0  0  0  0  0  0
  147.9096  140.8077  154.0473 C   0  0  0  0  0  0  0  0  0  0  0  0
  148.5499  139.5356  154.1345 C   0  0  0  0  0  0  0  0  0  0  0  0
  148.0772  138.3226  153.5731 N   0  0  0  0  0  0  0  0  0  0  0  0
  146.8599  137.7584  153.6957 C   0  0  0  0  0  0  0  0  0  0  0  0
  145.9179  138.2489  154.3148 O   0  0  0  0  0  0  0  0  0  0  0  0
  146.7422  136.5686  153.0793 N   0  0  0  0  0  0  0  0  0  0  0  0
  145.5652  135.6986  153.0182 C   0  0  1  0  0  0  0  0  0  0  0  0
  144.3959  136.3086  152.2082 C   0  0  0  0  0  0  0  0  0  0  0  0
  144.1441  135.2497  151.1195 C   0  0  2  0  0  0  0  0  0  0  0  0
  143.5553  133.9785  151.7620 C   0  0  0  0  0  0  0  0  0  0  0  0
  144.7646  133.3789  152.5065 C   0  0  0  0  0  0  0  0  0  0  0  0
  145.8744  134.4090  152.2264 C   0  0  1  0  0  0  0  0  0  0  0  0
  145.5626  134.8086  150.7871 C   0  0  0  0  0  0  0  0  0  0  0  0
  149.6910  139.5717  154.8002 N   0  0  0  0  0  0  0  0  0  0  0  0
  151.8999  140.8320  159.0951 H   0  0  0  0  0  0  0  0  0  0  0  0
  150.8282  142.0691  159.7642 H   0  0  0  0  0  0  0  0  0  0  0  0
  152.5828  142.2491  159.8578 H   0  0  0  0  0  0  0  0  0  0  0  0
  151.7805  144.6030  157.2864 H   0  0  0  0  0  0  0  0  0  0  0  0
  152.5915  144.3341  158.8227 H   0  0  0  0  0  0  0  0  0  0  0  0
  150.8253  144.3148  158.7459 H   0  0  0  0  0  0  0  0  0  0  0  0
  149.8015  141.8669  157.7288 H   0  0  0  0  0  0  0  0  0  0  0  0
  150.2540  143.1630  156.6556 H   0  0  0  0  0  0  0  0  0  0  0  0
  151.6400  141.7785  155.2696 H   0  0  0  0  0  0  0  0  0  0  0  0
  151.5008  140.4042  156.3364 H   0  0  0  0  0  0  0  0  0  0  0  0
  148.6934  142.6880  154.9424 H   0  0  0  0  0  0  0  0  0  0  0  0
  146.9873  141.0887  153.5616 H   0  0  0  0  0  0  0  0  0  0  0  0
  148.7608  137.7941  153.0516 H   0  0  0  0  0  0  0  0  0  0  0  0
  147.5663  136.2231  152.6091 H   0  0  0  0  0  0  0  0  0  0  0  0
  145.2556  135.4477  154.0346 H   0  0  0  0  0  0  0  0  0  0  0  0
  143.5139  136.4852  152.8252 H   0  0  0  0  0  0  0  0  0  0  0  0
  144.6751  137.2598  151.7522 H   0  0  0  0  0  0  0  0  0  0  0  0
  143.5661  135.6218  150.2731 H   0  0  0  0  0  0  0  0  0  0  0  0
  142.7246  134.2035  152.4318 H   0  0  0  0  0  0  0  0  0  0  0  0
  143.1934  133.2872  150.9999 H   0  0  0  0  0  0  0  0  0  0  0  0
  144.5758  133.2441  153.5722 H   0  0  0  0  0  0  0  0  0  0  0  0
  145.0266  132.4059  152.0889 H   0  0  0  0  0  0  0  0  0  0  0  0
  146.8783  134.0150  152.3896 H   0  0  0  0  0  0  0  0  0  0  0  0
  145.6032  133.9725  150.0867 H   0  0  0  0  0  0  0  0  0  0  0  0
  146.1918  135.6188  150.4141 H   0  0  0  0  0  0  0  0  0  0  0  0
  1  2  1  0  0  0  0
  1 22  1  0  0  0  0
  1 23  1  0  0  0  0
  1 24  1  0  0  0  0
  2  3  1  0  0  0  0
  2  4  1  0  0  0  0
  3 25  1  0  0  0  0
  3 26  1  0  0  0  0
  3 27  1  0  0  0  0
  4  5  1  0  0  0  0
  4 28  1  0  0  0  0
  4 29  1  0  0  0  0
  5  6  1  0  0  0  0
  5 30  1  0  0  0  0
  5 31  1  0  0  0  0
  6 21  1  0  0  0  0
  6  7  1  0  0  0  0
  7  8  2  0  0  0  0
  7 32  1  0  0  0  0
  8  9  1  0  0  0  0
  8 33  1  0  0  0  0
  9 10  1  0  0  0  0
  9 21  2  0  0  0  0
 10 11  1  0  0  0  0
 10 34  1  0  0  0  0
 11 12  2  0  0  0  0
 11 13  1  0  0  0  0
 13 14  1  0  0  0  0
 13 35  1  0  0  0  0
 14 19  1  0  0  0  0
 14 15  1  0  0  0  0
 14 36  1  0  0  0  0
 15 16  1  0  0  0  0
 15 37  1  0  0  0  0
 15 38  1  0  0  0  0
 16 20  1  0  0  0  0
 16 17  1  0  0  0  0
 16 39  1  0  0  0  0
 17 18  1  0  0  0  0
 17 40  1  0  0  0  0
 17 41  1  0  0  0  0
 18 19  1  0  0  0  0
 18 42  1  0  0  0  0
 18 43  1  0  0  0  0
 19 20  1  0  0  0  0
 19 44  1  0  0  0  0
 20 45  1  0  0  0  0
 20 46  1  0  0  0  0
M  END
> <s_m_source_file>
AV-unprocessed.smi

> <i_m_source_file_index>
720

> <i_lp_mmshare_version>
43012

> <i_f3d_flags>
0

> <s_epik_input>
W0NIM11OKFtDSDNdKVtDSDJdW0NIMl1uMVtjSF1bY0hdYyhuMSlbTkhdQyg9TylbTkhdW0NASF0oW0NIMl1bQ0BIXTIzKVtDQEhdKFtDSDJdMylbQ0gyXVtDSDJdMg==

> <s_epik_cmdline>
J2VwaWtfcHl0aG9uJywgJy1waCcsICc3LjAnLCAnLXRuJywgJzgnLCAnLW1hJywgJzIwMCcsICctbWV0YWxfYmluZGluZycsICctaW1hZScsICc8aW5maWxlLm1hZT4nLCAnLW9tYWUnLCAnPG91dGZpbGUubWFlPic=

> <r_lp_tautomer_probability>
1

> <r_epik_Ionization_Penalty>
1.83819

> <r_epik_Ionization_Penalty_Charging>
0

> <r_epik_Ionization_Penalty_Neutral>
1.83819

> <r_epik_State_Penalty>
1.95467

> <r_epik_Charging_Adjusted_Penalty>
1.95467

> <i_epik_Tot_Q>
0

> <i_epik_Tot_abs_Q>
0

> <r_epik_Metal_State_Penalty>
1.95467

> <b_epik_Metal_Only>
0

> <s_lp_Force_Field>
OPLS_2005

> <r_lp_Energy>
64.3951

> <b_lp_Chiralities_Consistent>
1

> <s_lp_Variant>
AV-unprocessed.smi:720-6

> <Gold.Version>
5.8.1

> <Gold.Id.Protein>
6NUR|6NUR_protein|mol2

> <Gold.PLP.Fitness>
42.3189

> <Gold.PLP.PLP>
-36.2856

> <Gold.PLP.part.hbond>
-2.1521

> <Gold.PLP.part.metal>
0.0000

> <Gold.PLP.part.buried>
-1.3840

> <Gold.PLP.part.nonpolar>
-32.1347

> <Gold.PLP.part.repulsive>
0.2790

> <Gold.PLP.ligand.clash>
0.0000

> <Gold.PLP.ligand.torsion>
1.3342

> <Gold.PLP.Chemscore.Hbond>
1.8800

> <Gold.PLP.Chemscore.CHOScore>
1.0000

> <Gold.PLP.Chemscore.Metal>
0.0000

> <Gold.Chemscore.Hbonds>
donor molecule, donor type, donor heavy atom, donor atom, acceptor molecule, acceptor atom, score
      L1  H    10    34       P1  7948  0.86
      L1  H    13    35       P1  7948  1.00
      L1  C     7    32       P1  8028  1.00

> <Gold.PLP.Chemscore.Internal.Correction>
0.0617

> <Gold.Rescore>
     Score         DG    S(hbond)    S(metal)    S(lipo)     H(rot)  DE(clash)    DE(int)     intcor
     16.20     -17.47       1.89        0.00      82.03       1.53       0.02       1.25       ----

> <Gold.Chemscore.Fitness>
16.2028

> <Gold.Chemscore.DG>
-17.4735

> <Gold.Chemscore.ZeroCoef>
-5.4800

> <Gold.Chemscore.Hbond>
1.8912

> <Gold.Chemscore.Metal>
0.0000

> <Gold.Chemscore.Lipo>
82.0252

> <Gold.Chemscore.Internal_Hbond>
0.0000

> <Gold.Chemscore.DEClash>
0.0170

> <Gold.Chemscore.DEInternal>
1.2537

> <Gold.Chemscore.Rot>
1.5312

> <Gold.Chemscore.Internal.Correction>
   9.000000E+99

> <Gold.Chemscore.Hbonds>
donor molecule, donor type, donor heavy atom, donor atom, acceptor molecule, acceptor atom, score
      L1  H    10    34       P1  7948  0.86
      L1  H    13    35       P1  7948  0.96

> <Gold.Chemscore.Hbond.Weighted>
-6.3165

> <Gold.Chemscore.Metal.Weighted>
-0.0000

> <Gold.Chemscore.Lipo.Weighted>
-9.5969

> <Gold.Chemscore.Internal_Hbond.Weighted>
0.0000

> <Gold.Chemscore.DEClash.Weighted>
0.0170

> <Gold.Chemscore.DEInternal.Weighted>
1.2537

> <Gold.Chemscore.Rot.Weighted>
3.9199

> <Gold.Chemscore.Internal.Correction.Weighted>
   9.000000E+99

> <Gold.Protein.RotatedTorsions>
[ 6907 6896 6895 6894 ] final   93.04 input  -60.11 | X-H torsion
[ 7974 7965 7964 7962 ] final  -89.77 input  175.53 | X-H torsion
[ 8008 7997 7996 7995 ] final  126.70 input   59.86 | X-H torsion
[ 10167 10162 10161 10158 ] final   39.82 input  -65.29 | X-H torsion
[ 10718 10713 10712 10709 ] final  155.91 input   66.30 | X-H torsion
[ 10763 10752 10751 10750 ] final -120.73 input  -60.55 | X-H torsion
[ 11005 11000 10999 10996 ] final  -83.72 input  -57.11 | X-H torsion

> <Gold.Protein.ActiveResidues>
 VAL166  LYS551  ARG553  GLY616  TRP617  ASP618  TYR619  PRO620  LYS621  CYS622 
 ASP623  PHE694  ASN695  SER759  ASP760  ASP761  ALA762  ILE779  LEU786  VAL792 
 PHE793  MET794  SER795  GLU796  ALA797  LYS798  CYS799  TRP800  GLU811  SER814 

> <Gold.Protein.RotatedAtoms>
  152.5453  134.1409  159.8478 H   0  0  0  0  0  0  0  0  0  0  0  0  # atno 6907 bound_to 6896
  151.1446  133.4941  159.2603 H   0  0  0  0  0  0  0  0  0  0  0  0  # atno 6908 bound_to 6896
  151.1537  135.0250  159.8734 H   0  0  0  0  0  0  0  0  0  0  0  0  # atno 6909 bound_to 6896
  145.4354  140.9557  143.2104 H   0  0  0  0  0  0  0  0  0  0  0  0  # atno 7974 bound_to 7965
  156.2871  140.2686  156.2153 H   0  0  0  0  0  0  0  0  0  0  0  0  # atno 8008 bound_to 7997
  155.0223  140.0386  157.2460 H   0  0  0  0  0  0  0  0  0  0  0  0  # atno 8009 bound_to 7997
  154.7425  140.2727  155.6366 H   0  0  0  0  0  0  0  0  0  0  0  0  # atno 8010 bound_to 7997
  140.3802  144.1990  150.6131 H   0  0  0  0  0  0  0  0  0  0  0  0  # atno 10167 bound_to 10162
  157.2121  131.0700  151.1963 H   0  0  0  0  0  0  0  0  0  0  0  0  # atno 10718 bound_to 10713
  154.8651  135.4192  154.2507 H   0  0  0  0  0  0  0  0  0  0  0  0  # atno 10763 bound_to 10752
  153.3454  135.6996  153.6838 H   0  0  0  0  0  0  0  0  0  0  0  0  # atno 10764 bound_to 10752
  153.5799  135.3575  155.2844 H   0  0  0  0  0  0  0  0  0  0  0  0  # atno 10765 bound_to 10752
  141.1656  133.7309  156.8762 H   0  0  0  0  0  0  0  0  0  0  0  0  # atno 11005 bound_to 11000
  144.8155  139.5884  143.7010 LP  0  0  0  0  0  0  0  0  0  0  0  0  # atno 17320 bound_to 7965
  146.2585  139.6356  142.9378 LP  0  0  0  0  0  0  0  0  0  0  0  0  # atno 17321 bound_to 7965
  140.4945  143.2337  151.8769 LP  0  0  0  0  0  0  0  0  0  0  0  0  # atno 17342 bound_to 10162
  139.4796  144.5128  151.8908 LP  0  0  0  0  0  0  0  0  0  0  0  0  # atno 17343 bound_to 10162
  157.3662  130.7157  149.6534 LP  0  0  0  0  0  0  0  0  0  0  0  0  # atno 17370 bound_to 10713
  155.9690  130.4211  150.4456 LP  0  0  0  0  0  0  0  0  0  0  0  0  # atno 17371 bound_to 10713
  140.1747  134.9075  157.2876 LP  0  0  0  0  0  0  0  0  0  0  0  0  # atno 17394 bound_to 11000
  140.2462  134.3737  155.7460 LP  0  0  0  0  0  0  0  0  0  0  0  0  # atno 17395 bound_to 11000

$$$$
