AV-unprocessed.smi:2160|AV-procd|sdf|8800|dock6
  -GOLD-   2272011583D 1   1.00000     0.00000
 Structure written by MMmdl.
 44 46  0  0  0  0  0  0  0  0  2 V2000
  144.3532  133.5339  161.8296 C   0  0  0  0  0  0  0  0  0  0  0  0
  145.6049  134.0809  162.2184 O   0  0  0  0  0  0  0  0  0  0  0  0
  146.3767  134.6859  161.2498 C   0  0  0  0  0  0  0  0  0  0  0  0
  146.3626  134.3244  159.8793 C   0  0  0  0  0  0  0  0  0  0  0  0
  147.1852  134.9976  158.9555 C   0  0  0  0  0  0  0  0  0  0  0  0
  148.0306  136.0421  159.3796 C   0  0  0  0  0  0  0  0  0  0  0  0
  148.9215  136.7397  158.3671 C   0  0  0  0  0  0  0  0  0  0  0  0
  150.2953  136.4221  158.5290 O   0  0  0  0  0  0  0  0  0  0  0  0
  151.1454  137.2619  157.7652 C   0  0  0  0  0  0  0  0  0  0  0  0
  151.1290  138.6774  158.3636 C   0  0  1  0  0  0  0  0  0  0  0  0
  151.4480  138.5860  159.7386 O   0  0  0  0  0  0  0  0  0  0  0  0
  152.1424  139.6078  157.6673 C   0  0  0  0  0  0  0  0  0  0  0  0
  151.6272  140.9725  157.4815 N   0  0  0  0  0  0  0  0  0  0  0  0
  150.8081  141.4630  156.5119 C   0  0  0  0  0  0  0  0  0  0  0  0
  150.6087  142.7849  156.7704 N   0  3  0  0  0  0  0  0  0  0  0  0
  151.3094  143.1457  157.9230 C   0  0  0  0  0  0  0  0  0  0  0  0
  151.4133  144.3684  158.5790 C   0  0  0  0  0  0  0  0  0  0  0  0
  152.2122  144.3975  159.7406 C   0  0  0  0  0  0  0  0  0  0  0  0
  152.8696  143.2413  160.2086 C   0  0  0  0  0  0  0  0  0  0  0  0
  152.7577  142.0071  159.5352 C   0  0  0  0  0  0  0  0  0  0  0  0
  151.9669  141.9860  158.3863 C   0  0  0  0  0  0  0  0  0  0  0  0
  148.0547  136.4000  160.7438 C   0  0  0  0  0  0  0  0  0  0  0  0
  147.2306  135.7275  161.6666 C   0  0  0  0  0  0  0  0  0  0  0  0
  143.8664  133.0938  162.6998 H   0  0  0  0  0  0  0  0  0  0  0  0
  144.4766  132.7445  161.0869 H   0  0  0  0  0  0  0  0  0  0  0  0
  143.6877  134.3023  161.4338 H   0  0  0  0  0  0  0  0  0  0  0  0
  145.7299  133.5316  159.5101 H   0  0  0  0  0  0  0  0  0  0  0  0
  147.1655  134.7075  157.9152 H   0  0  0  0  0  0  0  0  0  0  0  0
  148.5915  136.4529  157.3676 H   0  0  0  0  0  0  0  0  0  0  0  0
  148.7815  137.8180  158.4605 H   0  0  0  0  0  0  0  0  0  0  0  0
  152.1623  136.8679  157.7182 H   0  0  0  0  0  0  0  0  0  0  0  0
  150.7636  137.2895  156.7435 H   0  0  0  0  0  0  0  0  0  0  0  0
  150.1311  139.1068  158.2625 H   0  0  0  0  0  0  0  0  0  0  0  0
  152.2104  139.1179  159.9064 H   0  0  0  0  0  0  0  0  0  0  0  0
  153.0863  139.6447  158.2112 H   0  0  0  0  0  0  0  0  0  0  0  0
  152.3791  139.2207  156.6755 H   0  0  0  0  0  0  0  0  0  0  0  0
  150.3891  140.9034  155.6881 H   0  0  0  0  0  0  0  0  0  0  0  0
  150.9087  145.2549  158.2236 H   0  0  0  0  0  0  0  0  0  0  0  0
  152.3221  145.3246  160.2844 H   0  0  0  0  0  0  0  0  0  0  0  0
  153.4717  143.3016  161.1036 H   0  0  0  0  0  0  0  0  0  0  0  0
  153.2636  141.1292  159.9075 H   0  0  0  0  0  0  0  0  0  0  0  0
  148.7034  137.1895  161.0940 H   0  0  0  0  0  0  0  0  0  0  0  0
  147.2565  136.0134  162.7080 H   0  0  0  0  0  0  0  0  0  0  0  0
  150.0341  143.3933  156.2014 H   0  0  0  0  0  0  0  0  0  0  0  0
  1  2  1  0  0  0  0
  1 24  1  0  0  0  0
  1 25  1  0  0  0  0
  1 26  1  0  0  0  0
  2  3  1  0  0  0  0
  3 23  1  0  0  0  0
  3  4  2  0  0  0  0
  4  5  1  0  0  0  0
  4 27  1  0  0  0  0
  5  6  2  0  0  0  0
  5 28  1  0  0  0  0
  6  7  1  0  0  0  0
  6 22  1  0  0  0  0
  7  8  1  0  0  0  0
  7 29  1  0  0  0  0
  7 30  1  0  0  0  0
  8  9  1  0  0  0  0
  9 10  1  0  0  0  0
  9 31  1  0  0  0  0
  9 32  1  0  0  0  0
 10 11  1  0  0  0  0
 10 12  1  0  0  0  0
 10 33  1  0  0  0  0
 11 34  1  0  0  0  0
 12 13  1  0  0  0  0
 12 35  1  0  0  0  0
 12 36  1  0  0  0  0
 13 21  1  0  0  0  0
 13 14  1  0  0  0  0
 14 15  2  0  0  0  0
 14 37  1  0  0  0  0
 15 16  1  0  0  0  0
 15 44  1  0  0  0  0
 16 21  2  0  0  0  0
 16 17  1  0  0  0  0
 17 18  2  0  0  0  0
 17 38  1  0  0  0  0
 18 19  1  0  0  0  0
 18 39  1  0  0  0  0
 19 20  2  0  0  0  0
 19 40  1  0  0  0  0
 20 21  1  0  0  0  0
 20 41  1  0  0  0  0
 22 23  2  0  0  0  0
 22 42  1  0  0  0  0
 23 43  1  0  0  0  0
M  CHG  1  15   1
M  END
> <s_m_source_file>
AV-unprocessed.smi

> <i_m_source_file_index>
2160

> <i_lp_mmshare_version>
43012

> <i_f3d_flags>
0

> <s_epik_input>
W0NIM11PYzFbY0hdW2NIXWMoW2NIXVtjSF0xKVtDSDJdT1tDSDJdW0NASF0oW09IXSlbQ0gyXW4oW2NIXW4yKWMoYzIzKVtjSF1bY0hdW2NIXVtjSF0z

> <s_epik_cmdline>
J2VwaWtfcHl0aG9uJywgJy1waCcsICc3LjAnLCAnLXRuJywgJzgnLCAnLW1hJywgJzIwMCcsICctbWV0YWxfYmluZGluZycsICctaW1hZScsICc8aW5maWxlLm1hZT4nLCAnLW9tYWUnLCAnPG91dGZpbGUubWFlPic=

> <r_lp_tautomer_probability>
1

> <r_epik_Ionization_Penalty>
1.28975

> <r_epik_Ionization_Penalty_Charging>
1.28975

> <r_epik_Ionization_Penalty_Neutral>
9.74819e-07

> <r_epik_State_Penalty>
1.36276

> <r_epik_Charging_Adjusted_Penalty>
2.65251

> <i_epik_Tot_Q>
1

> <i_epik_Tot_abs_Q>
1

> <r_epik_Metal_State_Penalty>
5.39298

> <b_epik_Metal_Only>
0

> <s_lp_Force_Field>
OPLS_2005

> <r_lp_Energy>
25.2455

> <b_lp_Chiralities_Consistent>
1

> <s_lp_Variant>
AV-unprocessed.smi:2160-4

> <Gold.Version>
5.8.1

> <Gold.Id.Protein>
6NUR|6NUR_protein|mol2

> <Gold.PLP.Fitness>
53.6753

> <Gold.PLP.PLP>
-47.4109

> <Gold.PLP.part.hbond>
-3.9136

> <Gold.PLP.part.metal>
0.0000

> <Gold.PLP.part.buried>
-2.8491

> <Gold.PLP.part.nonpolar>
-41.7549

> <Gold.PLP.part.repulsive>
0.0705

> <Gold.PLP.ligand.clash>
0.0000

> <Gold.PLP.ligand.torsion>
1.4138

> <Gold.PLP.Chemscore.Hbond>
3.0000

> <Gold.PLP.Chemscore.CHOScore>
0.0000

> <Gold.PLP.Chemscore.Metal>
0.0000

> <Gold.Chemscore.Hbonds>
donor molecule, donor type, donor heavy atom, donor atom, acceptor molecule, acceptor atom, score
      L1  H    15    44       P1  8028  2.00
      P1  H  6896  6907       L1     8  1.00

> <Gold.PLP.Chemscore.Internal.Correction>
0.0920

> <Gold.Rescore>
     Score         DG    S(hbond)    S(metal)    S(lipo)     H(rot)  DE(clash)    DE(int)     intcor
     17.77     -19.83       1.95        0.00     126.82       2.74       0.88       1.19       ----

> <Gold.Chemscore.Fitness>
17.7658

> <Gold.Chemscore.DG>
-19.8327

> <Gold.Chemscore.ZeroCoef>
-5.4800

> <Gold.Chemscore.Hbond>
1.9540

> <Gold.Chemscore.Metal>
0.0000

> <Gold.Chemscore.Lipo>
126.8218

> <Gold.Chemscore.Internal_Hbond>
0.0000

> <Gold.Chemscore.DEClash>
0.8792

> <Gold.Chemscore.DEInternal>
1.1877

> <Gold.Chemscore.Rot>
2.7390

> <Gold.Chemscore.Internal.Correction>
   9.000000E+99

> <Gold.Chemscore.Hbonds>
donor molecule, donor type, donor heavy atom, donor atom, acceptor molecule, acceptor atom, score
      L1  H    15    44       P1  8028  1.00
      P1  H  6896  6907       L1     8  0.89

> <Gold.Chemscore.Hbond.Weighted>
-6.5263

> <Gold.Chemscore.Metal.Weighted>
-0.0000

> <Gold.Chemscore.Lipo.Weighted>
-14.8382

> <Gold.Chemscore.Internal_Hbond.Weighted>
0.0000

> <Gold.Chemscore.DEClash.Weighted>
0.8792

> <Gold.Chemscore.DEInternal.Weighted>
1.1877

> <Gold.Chemscore.Rot.Weighted>
7.0118

> <Gold.Chemscore.Internal.Correction.Weighted>
   9.000000E+99

> <Gold.Protein.RotatedTorsions>
[ 6907 6896 6895 6894 ] final  -47.24 input  -60.11 | X-H torsion
[ 7974 7965 7964 7962 ] final -147.30 input  175.53 | X-H torsion
[ 8008 7997 7996 7995 ] final -141.07 input   59.86 | X-H torsion
[ 10167 10162 10161 10158 ] final   99.70 input  -65.29 | X-H torsion
[ 10718 10713 10712 10709 ] final   -8.43 input   66.30 | X-H torsion
[ 10763 10752 10751 10750 ] final  179.02 input  -60.55 | X-H torsion
[ 11005 11000 10999 10996 ] final    8.59 input  -57.11 | X-H torsion

> <Gold.Protein.ActiveResidues>
 VAL166  LYS551  ARG553  GLY616  TRP617  ASP618  TYR619  PRO620  LYS621  CYS622 
 ASP623  PHE694  ASN695  SER759  ASP760  ASP761  ALA762  ILE779  LEU786  VAL792 
 PHE793  MET794  SER795  GLU796  ALA797  LYS798  CYS799  TRP800  GLU811  SER814 

> <Gold.Protein.RotatedAtoms>
  150.9028  134.8441  159.7371 H   0  0  0  0  0  0  0  0  0  0  0  0  # atno 6907 bound_to 6896
  152.4902  134.4477  159.9574 H   0  0  0  0  0  0  0  0  0  0  0  0  # atno 6908 bound_to 6896
  151.4527  133.3574  159.2833 H   0  0  0  0  0  0  0  0  0  0  0  0  # atno 6909 bound_to 6896
  144.8102  140.5345  143.5647 H   0  0  0  0  0  0  0  0  0  0  0  0  # atno 7974 bound_to 7965
  155.4717  140.0553  157.2978 H   0  0  0  0  0  0  0  0  0  0  0  0  # atno 8008 bound_to 7997
  154.4695  140.2034  155.9984 H   0  0  0  0  0  0  0  0  0  0  0  0  # atno 8009 bound_to 7997
  156.1032  140.3216  155.7975 H   0  0  0  0  0  0  0  0  0  0  0  0  # atno 8010 bound_to 7997
  139.7593  144.6959  151.0316 H   0  0  0  0  0  0  0  0  0  0  0  0  # atno 10167 bound_to 10162
  156.7027  130.5098  149.5913 H   0  0  0  0  0  0  0  0  0  0  0  0  # atno 10718 bound_to 10713
  154.5153  135.2791  155.1309 H   0  0  0  0  0  0  0  0  0  0  0  0  # atno 10763 bound_to 10752
  154.2888  135.6271  153.5380 H   0  0  0  0  0  0  0  0  0  0  0  0  # atno 10764 bound_to 10752
  152.9926  135.5669  154.5628 H   0  0  0  0  0  0  0  0  0  0  0  0  # atno 10765 bound_to 10752
  140.5352  134.0427  155.7886 H   0  0  0  0  0  0  0  0  0  0  0  0  # atno 11005 bound_to 11000
  145.5341  139.1475  143.3483 LP  0  0  0  0  0  0  0  0  0  0  0  0  # atno 17320 bound_to 7965
  146.2400  140.5481  142.8938 LP  0  0  0  0  0  0  0  0  0  0  0  0  # atno 17321 bound_to 7965
  140.7805  143.4716  151.0139 LP  0  0  0  0  0  0  0  0  0  0  0  0  # atno 17342 bound_to 10162
  139.8402  143.7574  152.3180 LP  0  0  0  0  0  0  0  0  0  0  0  0  # atno 17343 bound_to 10162
  156.1717  130.6441  151.0845 LP  0  0  0  0  0  0  0  0  0  0  0  0  # atno 17370 bound_to 10713
  157.6967  131.0791  150.6948 LP  0  0  0  0  0  0  0  0  0  0  0  0  # atno 17371 bound_to 10713
  141.1258  133.9385  157.2637 LP  0  0  0  0  0  0  0  0  0  0  0  0  # atno 17394 bound_to 11000
  139.9533  135.0171  156.9055 LP  0  0  0  0  0  0  0  0  0  0  0  0  # atno 17395 bound_to 11000

$$$$
