#       Name:                AV-unprocessed.smi:1121
#       Creating user name   scv26
#       Creation time:       Fri Mar 27 03:38:51 2020


#       File generated by GOLD software.
#

@<TRIPOS>MOLECULE
AV-unprocessed.smi:1121
    52    54     1
SMALL
NO_CHARGES


@<TRIPOS>ATOM
      1 ****         0.5731   2.4962  -0.1453 O.2            1 S1                 0.0000
      2 ****         0.2465   1.3576  -0.4804 C.2            1 S1                 0.0000
      3 ****         1.0924   0.3306  -0.6640 N.am           1 S1                 0.0000
      4 ****         2.5026   0.3079  -0.4686 C.ar           1 S1                 0.0000
      5 ****         3.3161   1.4444  -0.6952 C.ar           1 S1                 0.0000
      6 ****         4.7082   1.3365  -0.5279 C.ar           1 S1                 0.0000
      7 ****         5.2406   0.0912  -0.1511 C.ar           1 S1                 0.0000
      8 ****         4.4813  -1.0040   0.0547 N.ar           1 S1                 0.0000
      9 ****         3.1380  -0.9088  -0.1002 C.ar           1 S1                 0.0000
     10 ****         2.3736  -2.0679   0.1427 N.3            1 S1                 0.0000
     11 ****         2.9947  -3.3542  -0.1568 C.3            1 S1                 0.0000
     12 ****         1.9484  -4.4770  -0.0530 C.3            1 S1                 0.0000
     13 ****         1.3471  -4.4513   1.2386 O.3            1 S1                 0.0000
     14 ****         0.6795  -3.2188   1.4951 C.3            1 S1                 0.0000
     15 ****         1.6881  -2.0594   1.4298 C.3            1 S1                 0.0000
     16 ****        -1.0228   0.9801  -0.6888 N.am           1 S1                 0.0000
     17 ****        -2.1935   1.8414  -0.5514 C.3            1 S1                 0.0000
     18 ****        -2.6089   1.9642   0.9301 C.3            1 S1                 0.0000
     19 ****        -3.8898   2.7990   1.0894 C.3            1 S1                 0.0000
     20 ****        -5.0367   2.2301   0.2397 C.3            1 S1                 0.0000
     21 ****        -4.6278   2.1164  -1.2371 C.3            1 S1                 0.0000
     22 ****        -3.3502   1.2768  -1.3980 C.3            1 S1                 0.0000
     23 ****         0.6688  -0.5662  -0.8532 H              1 S1                 0.0000
     24 ****         2.8996   2.3882  -1.0120 H              1 S1                 0.0000
     25 ****         5.3529   2.1869  -0.6934 H              1 S1                 0.0000
     26 ****         6.3052  -0.0306  -0.0163 H              1 S1                 0.0000
     27 ****         3.4253  -3.3351  -1.1587 H              1 S1                 0.0000
     28 ****         3.8081  -3.5438   0.5450 H              1 S1                 0.0000
     29 ****         1.1834  -4.3689  -0.8237 H              1 S1                 0.0000
     30 ****         2.4208  -5.4472  -0.2062 H              1 S1                 0.0000
     31 ****        -0.1261  -3.0724   0.7738 H              1 S1                 0.0000
     32 ****         0.2191  -3.2619   2.4820 H              1 S1                 0.0000
     33 ****         2.4257  -2.1611   2.2268 H              1 S1                 0.0000
     34 ****         1.1738  -1.1122   1.5933 H              1 S1                 0.0000
     35 ****        -1.1943   0.0228  -0.9591 H              1 S1                 0.0000
     36 ****        -1.9482   2.8347  -0.9329 H              1 S1                 0.0000
     37 ****        -2.7703   0.9712   1.3520 H              1 S1                 0.0000
     38 ****        -1.8058   2.4184   1.5115 H              1 S1                 0.0000
     39 ****        -4.1849   2.8306   2.1386 H              1 S1                 0.0000
     40 ****        -3.6924   3.8298   0.7927 H              1 S1                 0.0000
     41 ****        -5.3198   1.2469   0.6179 H              1 S1                 0.0000
     42 ****        -5.9188   2.8641   0.3340 H              1 S1                 0.0000
     43 ****        -5.4393   1.6724  -1.8144 H              1 S1                 0.0000
     44 ****        -4.4642   3.1130  -1.6491 H              1 S1                 0.0000
     45 ****        -3.0635   1.2440  -2.4498 H              1 S1                 0.0000
     46 ****        -3.5572   0.2472  -1.1023 H              1 S1                 0.0000
     47 ****         1.5363   2.7140   0.0125 LP             1 S1                 0.0000
     48 ****        -0.1247   3.2032  -0.0309 LP             1 S1                 0.0000
     49 ****         4.9023  -1.8723   0.3173 LP             1 S1                 0.0000
     50 ****         1.6736  -1.9931  -0.5675 LP             1 S1                 0.0000
     51 ****         2.0593  -4.5819   1.9284 LP             1 S1                 0.0000
     52 ****         0.6831  -5.1965   1.3000 LP             1 S1                 0.0000
@<TRIPOS>BOND
    1    1    2 2     
    2    2    3 am    
    3    2   16 am    
    4    3    4 1     
    5    3   23 1     
    6    4    9 ar    
    7    4    5 ar    
    8    5    6 ar    
    9    5   24 1     
   10    6    7 ar    
   11    6   25 1     
   12    7    8 ar    
   13    7   26 1     
   14    8    9 ar    
   15    9   10 1     
   16   10   15 1     
   17   10   11 1     
   18   11   12 1     
   19   11   27 1     
   20   11   28 1     
   21   12   13 1     
   22   12   29 1     
   23   12   30 1     
   24   13   14 1     
   25   14   15 1     
   26   14   31 1     
   27   14   32 1     
   28   15   33 1     
   29   15   34 1     
   30   16   17 1     
   31   16   35 1     
   32   17   22 1     
   33   17   18 1     
   34   17   36 1     
   35   18   19 1     
   36   18   37 1     
   37   18   38 1     
   38   19   20 1     
   39   19   39 1     
   40   19   40 1     
   41   20   21 1     
   42   20   41 1     
   43   20   42 1     
   44   21   22 1     
   45   21   43 1     
   46   21   44 1     
   47   22   45 1     
   48   22   46 1     
   49    1   47 1     
   50    1   48 1     
   51    8   49 1     
   52   10   50 1     
   53   13   51 1     
   54   13   52 1     
@<TRIPOS>SUBSTRUCTURE
      1 S1             1
@<TRIPOS>SET
LONE_PAIRS      STATIC     ATOMS    <user>   **** ""
6 47 48 49 50 51 52
DONOR_HYDROGENS      STATIC     ATOMS    <user>   **** ""
2 23 35
ATOM$BLUE        STATIC     ATOMS    COLORGROUP SYSTEM
6 47 48 49 50 51 52
ATOM$RED        STATIC     ATOMS    COLORGROUP SYSTEM
2 23 35
