#       Name:                AV-unprocessed.smi:2973
#       Creating user name   scv26
#       Creation time:       Fri Mar 27 16:25:57 2020


#       File generated by GOLD software.
#

@<TRIPOS>MOLECULE
AV-unprocessed.smi:2973
    56    58     1
SMALL
NO_CHARGES


@<TRIPOS>ATOM
      1 ****        -0.2837   3.3139   0.2974 C.3            1 S1                 0.0000
      2 ****        -1.7897   3.5342   0.5642 C.3            1 S1                 0.0000
      3 ****        -2.0236   3.7996   2.0685 C.3            1 S1                 0.0000
      4 ****        -3.4981   4.0971   2.3781 C.3            1 S1                 0.0000
      5 ****        -4.4075   2.9603   1.8956 C.3            1 S1                 0.0000
      6 ****        -4.2020   2.6910   0.3951 C.3            1 S1                 0.0000
      7 ****        -2.7243   2.4044   0.0144 C.3            1 S1                 0.0000
      8 ****        -2.6300   2.3314  -1.4334 N.pl3          1 S1                -1.0000
      9 ****        -2.2209   1.0919  -1.7899 C.2            1 S1                 0.0000
     10 ****        -2.0280   0.6822  -2.9341 O.2            1 S1                 0.0000
     11 ****        -2.0345   0.3144  -0.7070 N.am           1 S1                 0.0000
     12 ****        -1.5645  -1.0769  -0.7435 C.3            1 S1                 0.0000
     13 ****        -0.0362  -1.1978  -0.8234 C.2            1 S1                 0.0000
     14 ****         0.6948  -0.2993  -0.4042 O.2            1 S1                 0.0000
     15 ****         0.4327  -2.3377  -1.3525 N.am           1 S1                 0.0000
     16 ****         1.8430  -2.6629  -1.5296 C.3            1 S1                 0.0000
     17 ****         2.4703  -3.1995  -0.2324 C.3            1 S1                 0.0000
     18 ****         3.9246  -3.5896  -0.4188 C.ar           1 S1                 0.0000
     19 ****         4.2873  -4.9374  -0.6289 C.ar           1 S1                 0.0000
     20 ****         5.6499  -5.2457  -0.8071 C.ar           1 S1                 0.0000
     21 ****         6.5927  -4.2002  -0.7706 C.ar           1 S1                 0.0000
     22 ****         6.1285  -2.8869  -0.5567 C.ar           1 S1                 0.0000
     23 ****         4.8246  -2.5806  -0.3845 N.ar           1 S1                 0.0000
     24 ****        -2.2990   0.9928   0.4148 C.2            1 S1                 0.0000
     25 ****        -2.2134   0.5785   1.5717 O.2            1 S1                 0.0000
     26 ****         0.0990   2.4388   0.8231 H              1 S1                 0.0000
     27 ****         0.2985   4.1727   0.6314 H              1 S1                 0.0000
     28 ****        -0.0775   3.1806  -0.7646 H              1 S1                 0.0000
     29 ****        -2.0607   4.4532   0.0413 H              1 S1                 0.0000
     30 ****        -1.6905   2.9466   2.6601 H              1 S1                 0.0000
     31 ****        -1.4151   4.6448   2.3918 H              1 S1                 0.0000
     32 ****        -3.6297   4.2486   3.4496 H              1 S1                 0.0000
     33 ****        -3.7915   5.0299   1.8948 H              1 S1                 0.0000
     34 ****        -4.2108   2.0578   2.4740 H              1 S1                 0.0000
     35 ****        -5.4501   3.2185   2.0823 H              1 S1                 0.0000
     36 ****        -4.8428   1.8620   0.0895 H              1 S1                 0.0000
     37 ****        -4.5572   3.5591  -0.1626 H              1 S1                 0.0000
     38 ****        -1.9051  -1.6155   0.1419 H              1 S1                 0.0000
     39 ****        -2.0156  -1.5920  -1.5935 H              1 S1                 0.0000
     40 ****        -0.2382  -3.0234  -1.6676 H              1 S1                 0.0000
     41 ****         1.9178  -3.4157  -2.3148 H              1 S1                 0.0000
     42 ****         2.3872  -1.7869  -1.8870 H              1 S1                 0.0000
     43 ****         2.4057  -2.4498   0.5577 H              1 S1                 0.0000
     44 ****         1.9101  -4.0658   0.1223 H              1 S1                 0.0000
     45 ****         3.5401  -5.7173  -0.6558 H              1 S1                 0.0000
     46 ****         5.9661  -6.2656  -0.9701 H              1 S1                 0.0000
     47 ****         7.6456  -4.3992  -0.9043 H              1 S1                 0.0000
     48 ****         6.8230  -2.0605  -0.5236 H              1 S1                 0.0000
     49 ****        -2.8347   3.0784  -2.0659 LP             1 S1                 0.0000
     50 ****        -2.1750   1.2903  -3.7143 LP             1 S1                 0.0000
     51 ****        -1.7244  -0.2587  -3.0837 LP             1 S1                 0.0000
     52 ****         0.2945   0.5252  -0.0041 LP             1 S1                 0.0000
     53 ****         1.6884  -0.3943  -0.4640 LP             1 S1                 0.0000
     54 ****         4.5330  -1.6356  -0.2360 LP             1 S1                 0.0000
     55 ****        -2.4313   1.1841   2.3371 LP             1 S1                 0.0000
     56 ****        -1.9261  -0.3634   1.7455 LP             1 S1                 0.0000
@<TRIPOS>BOND
    1    1    2 1     
    2    1   26 1     
    3    1   27 1     
    4    1   28 1     
    5    2    7 1     
    6    2    3 1     
    7    2   29 1     
    8    3    4 1     
    9    3   30 1     
   10    3   31 1     
   11    4    5 1     
   12    4   32 1     
   13    4   33 1     
   14    5    6 1     
   15    5   34 1     
   16    5   35 1     
   17    6    7 1     
   18    6   36 1     
   19    6   37 1     
   20    7   24 1     
   21    7    8 1     
   22    8    9 1     
   23    9   10 2     
   24    9   11 am    
   25   11   12 1     
   26   11   24 am    
   27   12   13 1     
   28   12   38 1     
   29   12   39 1     
   30   13   14 2     
   31   13   15 am    
   32   15   16 1     
   33   15   40 1     
   34   16   17 1     
   35   16   41 1     
   36   16   42 1     
   37   17   18 1     
   38   17   43 1     
   39   17   44 1     
   40   18   23 ar    
   41   18   19 ar    
   42   19   20 ar    
   43   19   45 1     
   44   20   21 ar    
   45   20   46 1     
   46   21   22 ar    
   47   21   47 1     
   48   22   23 ar    
   49   22   48 1     
   50   24   25 2     
   51    8   49 1     
   52   10   50 1     
   53   10   51 1     
   54   14   52 1     
   55   14   53 1     
   56   23   54 1     
   57   25   55 1     
   58   25   56 1     
@<TRIPOS>SUBSTRUCTURE
      1 S1             1
@<TRIPOS>SET
LONE_PAIRS      STATIC     ATOMS    <user>   **** ""
8 49 50 51 52 53 54 55 56
DONOR_HYDROGENS      STATIC     ATOMS    <user>   **** ""
1 40
ATOM$BLUE        STATIC     ATOMS    COLORGROUP SYSTEM
8 49 50 51 52 53 54 55 56
ATOM$RED        STATIC     ATOMS    COLORGROUP SYSTEM
1 40
