AV-unprocessed.smi:2121|AV-procd|sdf|8642|dock3
  -GOLD-   2272011393D 1   1.00000     0.00000
 Structure written by MMmdl.
 49 50  0  0  0  0  0  0  0  0  1 V2000
  150.0117  144.1251  159.4491 C   0  0  0  0  0  0  0  0  0  0  0  0
  151.4358  144.2043  158.8705 C   0  0  2  0  0  0  0  0  0  0  0  0
  151.6297  143.3539  157.6002 C   0  0  0  0  0  0  0  0  0  0  0  0
  151.7158  141.9332  157.9300 N   0  0  0  0  0  0  0  0  0  0  0  0
  151.6190  141.0002  156.8760 C   0  0  0  0  0  0  0  0  0  0  0  0
  150.4600  140.9641  156.0659 C   0  0  0  0  0  0  0  0  0  0  0  0
  150.3835  140.0281  155.0171 C   0  0  0  0  0  0  0  0  0  0  0  0
  151.4650  139.1454  154.8047 C   0  0  0  0  0  0  0  0  0  0  0  0
  151.4749  138.1061  153.6903 C   0  0  0  0  0  0  0  0  0  0  0  0
  150.5924  136.9641  153.9053 N   0  0  0  0  0  0  0  0  0  0  0  0
  150.8190  135.9686  154.7755 C   0  0  0  0  0  0  0  0  0  0  0  0
  151.8328  135.8976  155.4720 O   0  0  0  0  0  0  0  0  0  0  0  0
  149.7289  134.8891  154.8667 C   0  0  1  0  0  0  0  0  0  0  0  0
  148.4790  135.5127  155.5091 C   0  0  0  0  0  0  0  0  0  0  0  0
  149.3663  134.4100  153.5336 N   0  0  0  0  0  0  0  0  0  0  0  0
  149.2898  133.1204  153.1726 C   0  0  0  0  0  0  0  0  0  0  0  0
  148.9519  132.9719  151.8914 N   0  0  0  0  0  0  0  0  0  0  0  0
  149.5049  132.1713  153.9245 O   0  0  0  0  0  0  0  0  0  0  0  0
  152.5801  139.2615  155.6584 C   0  0  0  0  0  0  0  0  0  0  0  0
  152.6608  140.1595  156.6624 N   0  0  0  0  0  0  0  0  0  0  0  0
  152.7228  141.6382  158.9434 C   0  0  0  0  0  0  0  0  0  0  0  0
  152.4844  142.4941  160.2005 C   0  0  1  0  0  0  0  0  0  0  0  0
  153.6031  142.3172  161.2324 C   0  0  0  0  0  0  0  0  0  0  0  0
  152.4326  143.8744  159.8405 O   0  0  0  0  0  0  0  0  0  0  0  0
  149.2839  144.5109  158.7347 H   0  0  0  0  0  0  0  0  0  0  0  0
  149.9281  144.7200  160.3588 H   0  0  0  0  0  0  0  0  0  0  0  0
  149.7178  143.1034  159.6877 H   0  0  0  0  0  0  0  0  0  0  0  0
  151.6078  145.2463  158.6003 H   0  0  0  0  0  0  0  0  0  0  0  0
  150.8084  143.5375  156.9062 H   0  0  0  0  0  0  0  0  0  0  0  0
  152.5502  143.6528  157.0966 H   0  0  0  0  0  0  0  0  0  0  0  0
  149.6412  141.6498  156.2258 H   0  0  0  0  0  0  0  0  0  0  0  0
  149.5046  140.0024  154.3903 H   0  0  0  0  0  0  0  0  0  0  0  0
  151.1690  138.5970  152.7663 H   0  0  0  0  0  0  0  0  0  0  0  0
  152.4967  137.7577  153.5291 H   0  0  0  0  0  0  0  0  0  0  0  0
  149.7364  136.9410  153.3701 H   0  0  0  0  0  0  0  0  0  0  0  0
  150.0749  134.0524  155.4773 H   0  0  0  0  0  0  0  0  0  0  0  0
  148.6947  135.8936  156.5084 H   0  0  0  0  0  0  0  0  0  0  0  0
  147.6839  134.7732  155.6097 H   0  0  0  0  0  0  0  0  0  0  0  0
  148.0863  136.3399  154.9153 H   0  0  0  0  0  0  0  0  0  0  0  0
  149.1775  135.1137  152.8352 H   0  0  0  0  0  0  0  0  0  0  0  0
  148.8568  132.0489  151.4946 H   0  0  0  0  0  0  0  0  0  0  0  0
  148.7885  133.7895  151.3219 H   0  0  0  0  0  0  0  0  0  0  0  0
  153.4367  138.6158  155.5317 H   0  0  0  0  0  0  0  0  0  0  0  0
  152.7179  140.5849  159.2209 H   0  0  0  0  0  0  0  0  0  0  0  0
  153.7083  141.8496  158.5262 H   0  0  0  0  0  0  0  0  0  0  0  0
  151.5448  142.2011  160.6693 H   0  0  0  0  0  0  0  0  0  0  0  0
  153.6804  141.2783  161.5538 H   0  0  0  0  0  0  0  0  0  0  0  0
  153.4160  142.9257  162.1176 H   0  0  0  0  0  0  0  0  0  0  0  0
  154.5689  142.6140  160.8220 H   0  0  0  0  0  0  0  0  0  0  0  0
  1  2  1  0  0  0  0
  1 25  1  0  0  0  0
  1 26  1  0  0  0  0
  1 27  1  0  0  0  0
  2 24  1  0  0  0  0
  2  3  1  0  0  0  0
  2 28  1  0  0  0  0
  3  4  1  0  0  0  0
  3 29  1  0  0  0  0
  3 30  1  0  0  0  0
  4  5  1  0  0  0  0
  4 21  1  0  0  0  0
  5 20  1  0  0  0  0
  5  6  2  0  0  0  0
  6  7  1  0  0  0  0
  6 31  1  0  0  0  0
  7  8  2  0  0  0  0
  7 32  1  0  0  0  0
  8  9  1  0  0  0  0
  8 19  1  0  0  0  0
  9 10  1  0  0  0  0
  9 33  1  0  0  0  0
  9 34  1  0  0  0  0
 10 11  1  0  0  0  0
 10 35  1  0  0  0  0
 11 12  2  0  0  0  0
 11 13  1  0  0  0  0
 13 14  1  0  0  0  0
 13 15  1  0  0  0  0
 13 36  1  0  0  0  0
 14 37  1  0  0  0  0
 14 38  1  0  0  0  0
 14 39  1  0  0  0  0
 15 16  1  0  0  0  0
 15 40  1  0  0  0  0
 16 17  1  0  0  0  0
 16 18  2  0  0  0  0
 17 41  1  0  0  0  0
 17 42  1  0  0  0  0
 19 20  2  0  0  0  0
 19 43  1  0  0  0  0
 21 22  1  0  0  0  0
 21 44  1  0  0  0  0
 21 45  1  0  0  0  0
 22 23  1  0  0  0  0
 22 24  1  0  0  0  0
 22 46  1  0  0  0  0
 23 47  1  0  0  0  0
 23 48  1  0  0  0  0
 23 49  1  0  0  0  0
M  END
> <s_m_source_file>
AV-unprocessed.smi

> <i_m_source_file_index>
2121

> <i_lp_mmshare_version>
43012

> <i_f3d_flags>
0

> <s_epik_input>
W0NIM11bQ0BASF0xW0NIMl1OKFtDSDJdW0NASF0oTzEpW0NIM10pYzJbY0hdW2NIXWMoW2NIXW4yKVtDSDJdW05IXUMoPU8pW0NASF0oW0NIM10pW05IXUMoPU8pW05IMl0=

> <s_epik_cmdline>
J2VwaWtfcHl0aG9uJywgJy1waCcsICc3LjAnLCAnLXRuJywgJzgnLCAnLW1hJywgJzIwMCcsICctbWV0YWxfYmluZGluZycsICctaW1hZScsICc8aW5maWxlLm1hZT4nLCAnLW9tYWUnLCAnPG91dGZpbGUubWFlPic=

> <r_lp_tautomer_probability>
1

> <r_epik_Ionization_Penalty>
0.0063713

> <r_epik_Ionization_Penalty_Charging>
0

> <r_epik_Ionization_Penalty_Neutral>
0.0063713

> <r_epik_State_Penalty>
0.00467069

> <r_epik_Charging_Adjusted_Penalty>
0.00467069

> <i_epik_Tot_Q>
0

> <i_epik_Tot_abs_Q>
0

> <r_epik_Metal_State_Penalty>
-0

> <b_epik_Metal_Only>
0

> <s_lp_Force_Field>
OPLS_2005

> <r_lp_Energy>
11.3306

> <b_lp_Chiralities_Consistent>
1

> <s_lp_Variant>
AV-unprocessed.smi:2121-3

> <Gold.Version>
5.8.1

> <Gold.Id.Protein>
6NUR|6NUR_protein|mol2

> <Gold.PLP.Fitness>
57.7838

> <Gold.PLP.PLP>
-46.1824

> <Gold.PLP.part.hbond>
-6.0000

> <Gold.PLP.part.metal>
0.0000

> <Gold.PLP.part.buried>
-3.3562

> <Gold.PLP.part.nonpolar>
-35.4393

> <Gold.PLP.part.repulsive>
0.1934

> <Gold.PLP.ligand.clash>
0.0000

> <Gold.PLP.ligand.torsion>
0.7367

> <Gold.PLP.Chemscore.Hbond>
4.2380

> <Gold.PLP.Chemscore.CHOScore>
0.0000

> <Gold.PLP.Chemscore.Metal>
0.0000

> <Gold.Chemscore.Hbonds>
donor molecule, donor type, donor heavy atom, donor atom, acceptor molecule, acceptor atom, score
      L1  H    10    35       P1  7948  0.83
      L1  H    15    40       P1  7948  0.40
      L1  H    17    41       P1 10747  1.00
      P1  H  7997  8010       L1    20  0.57
      P1  H 10752 10764       L1    12  0.63

> <Gold.PLP.Chemscore.Internal.Correction>
0.3607

> <Gold.Rescore>
     Score         DG    S(hbond)    S(metal)    S(lipo)     H(rot)  DE(clash)    DE(int)     intcor
     19.19     -20.26       2.75        0.00     104.31       2.58       0.36       0.72       ----

> <Gold.Chemscore.Fitness>
19.1876

> <Gold.Chemscore.DG>
-20.2619

> <Gold.Chemscore.ZeroCoef>
-5.4800

> <Gold.Chemscore.Hbond>
2.7522

> <Gold.Chemscore.Metal>
0.0000

> <Gold.Chemscore.Lipo>
104.3069

> <Gold.Chemscore.Internal_Hbond>
0.0000

> <Gold.Chemscore.DEClash>
0.3574

> <Gold.Chemscore.DEInternal>
0.7170

> <Gold.Chemscore.Rot>
2.5838

> <Gold.Chemscore.Internal.Correction>
   9.000000E+99

> <Gold.Chemscore.Hbonds>
donor molecule, donor type, donor heavy atom, donor atom, acceptor molecule, acceptor atom, score
      L1  H    10    35       P1  7948  0.42
      L1  H    15    40       P1  7948  0.02
      L1  H    17    41       P1 10747  0.96
      P1  H  7997  8010       L1    20  0.06
      P1  H 10752 10764       L1    12  0.60

> <Gold.Chemscore.Hbond.Weighted>
-9.1925

> <Gold.Chemscore.Metal.Weighted>
-0.0000

> <Gold.Chemscore.Lipo.Weighted>
-12.2039

> <Gold.Chemscore.Internal_Hbond.Weighted>
0.0000

> <Gold.Chemscore.DEClash.Weighted>
0.3574

> <Gold.Chemscore.DEInternal.Weighted>
0.7170

> <Gold.Chemscore.Rot.Weighted>
6.6145

> <Gold.Chemscore.Internal.Correction.Weighted>
   9.000000E+99

> <Gold.Protein.RotatedTorsions>
[ 6907 6896 6895 6894 ] final   25.70 input  -60.11 | X-H torsion
[ 7974 7965 7964 7962 ] final  -44.93 input  175.53 | X-H torsion
[ 8008 7997 7996 7995 ] final   49.78 input   59.86 | X-H torsion
[ 10167 10162 10161 10158 ] final  -94.48 input  -65.29 | X-H torsion
[ 10718 10713 10712 10709 ] final   51.15 input   66.30 | X-H torsion
[ 10763 10752 10751 10750 ] final  -43.53 input  -60.55 | X-H torsion
[ 11005 11000 10999 10996 ] final  -21.89 input  -57.11 | X-H torsion

> <Gold.Protein.ActiveResidues>
 VAL166  LYS551  ARG553  GLY616  TRP617  ASP618  TYR619  PRO620  LYS621  CYS622 
 ASP623  PHE694  ASN695  SER759  ASP760  ASP761  ALA762  ILE779  LEU786  VAL792 
 PHE793  MET794  SER795  GLU796  ALA797  LYS798  CYS799  TRP800  GLU811  SER814 

> <Gold.Protein.RotatedAtoms>
  151.9765  135.0050  160.0555 H   0  0  0  0  0  0  0  0  0  0  0  0  # atno 6907 bound_to 6896
  152.1735  133.4655  159.4930 H   0  0  0  0  0  0  0  0  0  0  0  0  # atno 6908 bound_to 6896
  150.6905  134.1840  159.4302 H   0  0  0  0  0  0  0  0  0  0  0  0  # atno 6909 bound_to 6896
  145.9871  140.7221  142.9335 H   0  0  0  0  0  0  0  0  0  0  0  0  # atno 7974 bound_to 7965
  155.4079  140.3441  155.4261 H   0  0  0  0  0  0  0  0  0  0  0  0  # atno 8008 bound_to 7997
  156.1465  140.1558  156.8869 H   0  0  0  0  0  0  0  0  0  0  0  0  # atno 8009 bound_to 7997
  154.5015  140.0813  156.7789 H   0  0  0  0  0  0  0  0  0  0  0  0  # atno 8010 bound_to 7997
  140.3140  143.3088  152.0118 H   0  0  0  0  0  0  0  0  0  0  0  0  # atno 10167 bound_to 10162
  157.4953  130.8402  149.8251 H   0  0  0  0  0  0  0  0  0  0  0  0  # atno 10718 bound_to 10713
  153.9971  135.6698  153.4757 H   0  0  0  0  0  0  0  0  0  0  0  0  # atno 10763 bound_to 10752
  153.0679  135.4991  154.8236 H   0  0  0  0  0  0  0  0  0  0  0  0  # atno 10764 bound_to 10752
  154.7075  135.3090  154.9211 H   0  0  0  0  0  0  0  0  0  0  0  0  # atno 10765 bound_to 10752
  140.8604  133.7792  156.0068 H   0  0  0  0  0  0  0  0  0  0  0  0  # atno 11005 bound_to 11000
  144.6878  140.3007  143.7264 LP  0  0  0  0  0  0  0  0  0  0  0  0  # atno 17320 bound_to 7965
  145.7684  139.1849  143.2226 LP  0  0  0  0  0  0  0  0  0  0  0  0  # atno 17321 bound_to 7965
  139.4888  144.6363  151.6969 LP  0  0  0  0  0  0  0  0  0  0  0  0  # atno 17342 bound_to 10162
  140.5543  144.0374  150.6140 LP  0  0  0  0  0  0  0  0  0  0  0  0  # atno 17343 bound_to 10162
  156.0197  130.3800  150.2000 LP  0  0  0  0  0  0  0  0  0  0  0  0  # atno 17370 bound_to 10713
  157.0189  130.9973  151.3345 LP  0  0  0  0  0  0  0  0  0  0  0  0  # atno 17371 bound_to 10713
  140.8689  134.2750  157.5200 LP  0  0  0  0  0  0  0  0  0  0  0  0  # atno 17394 bound_to 11000
  139.8707  134.9557  156.4214 LP  0  0  0  0  0  0  0  0  0  0  0  0  # atno 17395 bound_to 11000

$$$$
