AV-unprocessed.smi:54|AV-procd|sdf|555|dock2
  -GOLD-   2262016453D 1   1.00000     0.00000
 Structure written by MMmdl.
 43 45  0  0  0  0  0  0  0  0  2 V2000
  153.5501  142.5497  161.4192 C   0  0  0  0  0  0  0  0  0  0  0  0
  153.3830  142.7232  159.9003 C   0  0  0  0  0  0  0  0  0  0  0  0
  152.1581  143.5919  159.5700 C   0  0  0  0  0  0  0  0  0  0  0  0
  153.2837  141.3584  159.2044 C   0  0  0  0  0  0  0  0  0  0  0  0
  153.8085  140.3753  159.7333 O   0  0  0  0  0  0  0  0  0  0  0  0
  152.6053  141.3526  158.0348 N   0  0  0  0  0  0  0  0  0  0  0  0
  152.3420  140.2824  157.1716 C   0  0  0  0  0  0  0  0  0  0  0  0
  151.1442  140.1257  156.6533 N   0  0  0  0  0  0  0  0  0  0  0  0
  151.0675  139.0191  155.8314 C   0  0  0  0  0  0  0  0  0  0  0  0
  152.0592  138.1280  155.5285 C   0  0  0  0  0  0  0  0  0  0  0  0
  151.6062  137.1403  154.6622 N   0  0  0  0  0  0  0  0  0  0  0  0
  150.3345  137.4927  154.4786 C   0  0  0  0  0  0  0  0  0  0  0  0
  149.9395  138.6041  155.1350 N   0  0  0  0  0  0  0  0  0  0  0  0
  148.5907  139.2609  155.1382 C   0  0  2  0  0  0  0  0  0  0  0  0
  147.7001  138.4537  154.4258 O   0  0  0  0  0  0  0  0  0  0  0  0
  147.4647  139.0181  153.1426 C   0  0  1  0  0  0  0  0  0  0  0  0
  146.1809  138.4500  152.5145 C   0  0  0  0  0  0  0  0  0  0  0  0
  146.1754  138.6812  151.1221 O   0  0  0  0  0  0  0  0  0  0  0  0
  147.5007  140.5277  153.4130 C   0  0  1  0  0  0  0  0  0  0  0  0
  146.2661  140.9854  153.9330 O   0  0  0  0  0  0  0  0  0  0  0  0
  148.6016  140.6542  154.4594 C   0  0  2  0  0  0  0  0  0  0  0  0
  149.8270  140.9844  153.8275 O   0  0  0  0  0  0  0  0  0  0  0  0
  153.3829  138.3655  156.1514 C   0  0  0  0  0  0  0  0  0  0  0  0
  154.3060  137.5901  155.9097 O   0  0  0  0  0  0  0  0  0  0  0  0
  153.4619  139.4612  156.9659 N   0  5  0  0  0  0  0  0  0  0  0  0
  148.3055  139.2914  156.1903 H   0  0  0  0  0  0  0  0  0  0  0  0
  148.3140  138.7578  152.5085 H   0  0  0  0  0  0  0  0  0  0  0  0
  147.7137  141.0965  152.5067 H   0  0  0  0  0  0  0  0  0  0  0  0
  148.3809  141.4242  155.1999 H   0  0  0  0  0  0  0  0  0  0  0  0
  154.4228  141.9392  161.6542 H   0  0  0  0  0  0  0  0  0  0  0  0
  152.6782  142.0722  161.8680 H   0  0  0  0  0  0  0  0  0  0  0  0
  153.6852  143.5147  161.9082 H   0  0  0  0  0  0  0  0  0  0  0  0
  154.2687  143.2385  159.5246 H   0  0  0  0  0  0  0  0  0  0  0  0
  152.0332  143.7072  158.4925 H   0  0  0  0  0  0  0  0  0  0  0  0
  152.2631  144.5903  159.9950 H   0  0  0  0  0  0  0  0  0  0  0  0
  151.2392  143.1592  159.9677 H   0  0  0  0  0  0  0  0  0  0  0  0
  152.2288  142.2464  157.7550 H   0  0  0  0  0  0  0  0  0  0  0  0
  149.6740  136.9204  153.8448 H   0  0  0  0  0  0  0  0  0  0  0  0
  146.1315  137.3742  152.6838 H   0  0  0  0  0  0  0  0  0  0  0  0
  145.2865  138.8819  152.9638 H   0  0  0  0  0  0  0  0  0  0  0  0
  145.2892  138.8681  150.8523 H   0  0  0  0  0  0  0  0  0  0  0  0
  145.5764  140.7067  153.3504 H   0  0  0  0  0  0  0  0  0  0  0  0
  149.7862  140.7050  152.9260 H   0  0  0  0  0  0  0  0  0  0  0  0
  1  2  1  0  0  0  0
  1 30  1  0  0  0  0
  1 31  1  0  0  0  0
  1 32  1  0  0  0  0
  2  3  1  0  0  0  0
  2  4  1  0  0  0  0
  2 33  1  0  0  0  0
  3 34  1  0  0  0  0
  3 35  1  0  0  0  0
  3 36  1  0  0  0  0
  4  5  2  0  0  0  0
  4  6  1  0  0  0  0
  6 37  1  0  0  0  0
  6  7  1  0  0  0  0
  7 25  1  0  0  0  0
  7  8  2  0  0  0  0
  8  9  1  0  0  0  0
  9 13  1  0  0  0  0
  9 10  2  0  0  0  0
 10 11  1  0  0  0  0
 10 23  1  0  0  0  0
 11 12  2  0  0  0  0
 12 13  1  0  0  0  0
 12 38  1  0  0  0  0
 13 14  1  0  0  0  0
 14 26  1  0  0  0  0
 14 21  1  0  0  0  0
 14 15  1  0  0  0  0
 15 16  1  0  0  0  0
 16 27  1  0  0  0  0
 16 17  1  0  0  0  0
 16 19  1  0  0  0  0
 17 18  1  0  0  0  0
 17 39  1  0  0  0  0
 17 40  1  0  0  0  0
 18 41  1  0  0  0  0
 19 28  1  0  0  0  0
 19 20  1  0  0  0  0
 19 21  1  0  0  0  0
 20 42  1  0  0  0  0
 21 29  1  0  0  0  0
 21 22  1  0  0  0  0
 22 43  1  0  0  0  0
 23 24  2  0  0  0  0
 23 25  1  0  0  0  0
M  CHG  1  25  -1
M  END
> <s_m_source_file>
AV-unprocessed.smi

> <i_m_source_file_index>
54

> <i_lp_mmshare_version>
43012

> <i_f3d_flags>
0

> <s_epik_input>
W0NIM11bQ0hdKFtDSDNdKUMoPU8pW05IXWMobjEpW25IXWMoPU8pYyhjMTIpbltjSF1uMltDQEBIXTNPW0NASF0oW0NIMl1bT0hdKVtDQEBIXShbT0hdKVtDQEhdM1tPSF0=

> <s_epik_cmdline>
J2VwaWtfcHl0aG9uJywgJy1waCcsICc3LjAnLCAnLXRuJywgJzgnLCAnLW1hJywgJzIwMCcsICctbWV0YWxfYmluZGluZycsICctaW1hZScsICc8aW5maWxlLm1hZT4nLCAnLW9tYWUnLCAnPG91dGZpbGUubWFlPic=

> <r_lp_tautomer_probability>
0.85571

> <r_epik_Ionization_Penalty>
1.75936

> <r_epik_Ionization_Penalty_Charging>
4.55893e-11

> <r_epik_Ionization_Penalty_Neutral>
1.75936

> <r_epik_State_Penalty>
1.72072

> <r_epik_Charging_Adjusted_Penalty>
1.72072

> <i_epik_Tot_Q>
-1

> <i_epik_Tot_abs_Q>
1

> <r_epik_Metal_State_Penalty>
0.400338

> <b_epik_Metal_Only>
1

> <s_epik_Chemistry_Notes>
This compound contains an acetal/aminal-like group ( X-CH(R)-Y where X, Y are N, S, or O) that may be acid/base labile, releasing an aldehyde.

> <s_lp_Force_Field>
OPLS_2005

> <r_lp_Energy>
56.9095

> <b_lp_Chiralities_Consistent>
1

> <s_lp_Variant>
AV-unprocessed.smi:54-27

> <Gold.Version>
5.8.1

> <Gold.Id.Protein>
6NUR|6NUR_protein|mol2

> <Gold.PLP.Fitness>
60.5801

> <Gold.PLP.PLP>
-39.9577

> <Gold.PLP.part.hbond>
-9.3648

> <Gold.PLP.part.metal>
0.0000

> <Gold.PLP.part.buried>
1.8100

> <Gold.PLP.part.nonpolar>
-33.9564

> <Gold.PLP.part.repulsive>
0.3704

> <Gold.PLP.ligand.clash>
0.0000

> <Gold.PLP.ligand.torsion>
1.3514

> <Gold.PLP.Chemscore.Hbond>
6.7510

> <Gold.PLP.Chemscore.CHOScore>
1.0000

> <Gold.PLP.Chemscore.Metal>
0.0000

> <Gold.Chemscore.Hbonds>
donor molecule, donor type, donor heavy atom, donor atom, acceptor molecule, acceptor atom, score
      L1  H    18    41       P1 10171  1.00
      L1  H    20    42       P1 10175  0.84
      L1  H    22    43       P1  7957  1.00
      P1  H  7989  7998       L1    22  0.02
      P1  H  7997  8008       L1    25  0.51
      P1  H 10752 10763       L1    24  0.06
      P1  H 10752 10765       L1    11  1.00
      L1  C    12    38       P1  7948  1.00

> <Gold.PLP.Chemscore.Internal.Correction>
0.0721

> <Gold.Rescore>
     Score         DG    S(hbond)    S(metal)    S(lipo)     H(rot)  DE(clash)    DE(int)     intcor
     12.21     -17.23       4.16        0.00      69.67       4.02       2.22       2.80       ----

> <Gold.Chemscore.Fitness>
12.2150

> <Gold.Chemscore.DG>
-17.2296

> <Gold.Chemscore.ZeroCoef>
-5.4800

> <Gold.Chemscore.Hbond>
4.1578

> <Gold.Chemscore.Metal>
0.0000

> <Gold.Chemscore.Lipo>
69.6728

> <Gold.Chemscore.Internal_Hbond>
0.0000

> <Gold.Chemscore.DEClash>
2.2192

> <Gold.Chemscore.DEInternal>
2.7954

> <Gold.Chemscore.Rot>
4.0192

> <Gold.Chemscore.Internal.Correction>
   9.000000E+99

> <Gold.Chemscore.Hbonds>
donor molecule, donor type, donor heavy atom, donor atom, acceptor molecule, acceptor atom, score
      L1  H    18    41       P1 10171  0.96
      L1  H    20    42       P1 10175  0.70
      L1  H    22    43       P1  7957  1.00
      P1  H  7954  7966       L1    18  0.03
      P1  H  7997  8008       L1    25  0.20
      P1  H 10752 10763       L1    24  0.06
      P1  H 10752 10765       L1    11  0.82

> <Gold.Chemscore.Hbond.Weighted>
-13.8871

> <Gold.Chemscore.Metal.Weighted>
-0.0000

> <Gold.Chemscore.Lipo.Weighted>
-8.1517

> <Gold.Chemscore.Internal_Hbond.Weighted>
0.0000

> <Gold.Chemscore.DEClash.Weighted>
2.2192

> <Gold.Chemscore.DEInternal.Weighted>
2.7954

> <Gold.Chemscore.Rot.Weighted>
10.2893

> <Gold.Chemscore.Internal.Correction.Weighted>
   9.000000E+99

> <Gold.Protein.RotatedTorsions>
[ 6907 6896 6895 6894 ] final -116.56 input  -60.11 | X-H torsion
[ 7974 7965 7964 7962 ] final   90.78 input  175.53 | X-H torsion
[ 8008 7997 7996 7995 ] final  -84.05 input   59.86 | X-H torsion
[ 10167 10162 10161 10158 ] final  -88.93 input  -65.29 | X-H torsion
[ 10718 10713 10712 10709 ] final  -32.96 input   66.30 | X-H torsion
[ 10763 10752 10751 10750 ] final  161.71 input  -60.55 | X-H torsion
[ 11005 11000 10999 10996 ] final   46.67 input  -57.11 | X-H torsion

> <Gold.Protein.ActiveResidues>
 VAL166  LYS551  ARG553  GLY616  TRP617  ASP618  TYR619  PRO620  LYS621  CYS622 
 ASP623  PHE694  ASN695  SER759  ASP760  ASP761  ALA762  ILE779  LEU786  VAL792 
 PHE793  MET794  SER795  GLU796  ALA797  LYS798  CYS799  TRP800  GLU811  SER814 

> <Gold.Protein.RotatedAtoms>
  150.8066  133.8500  159.3202 H   0  0  0  0  0  0  0  0  0  0  0  0  # atno 6907 bound_to 6896
  151.6297  135.1022  160.0128 H   0  0  0  0  0  0  0  0  0  0  0  0  # atno 6908 bound_to 6896
  152.4156  133.6993  159.6471 H   0  0  0  0  0  0  0  0  0  0  0  0  # atno 6909 bound_to 6896
  145.5144  139.2277  143.2706 H   0  0  0  0  0  0  0  0  0  0  0  0  # atno 7974 bound_to 7965
  154.6256  140.0610  156.9669 H   0  0  0  0  0  0  0  0  0  0  0  0  # atno 8008 bound_to 7997
  155.1747  140.3294  155.4367 H   0  0  0  0  0  0  0  0  0  0  0  0  # atno 8009 bound_to 7997
  156.2455  140.1908  156.6847 H   0  0  0  0  0  0  0  0  0  0  0  0  # atno 8010 bound_to 7997
  140.3698  143.2800  151.9513 H   0  0  0  0  0  0  0  0  0  0  0  0  # atno 10167 bound_to 10162
  156.3685  130.4335  149.7564 H   0  0  0  0  0  0  0  0  0  0  0  0  # atno 10718 bound_to 10713
  154.2672  135.2767  155.2753 H   0  0  0  0  0  0  0  0  0  0  0  0  # atno 10763 bound_to 10752
  154.5333  135.5723  153.6781 H   0  0  0  0  0  0  0  0  0  0  0  0  # atno 10764 bound_to 10752
  152.9951  135.6233  154.2825 H   0  0  0  0  0  0  0  0  0  0  0  0  # atno 10765 bound_to 10752
  140.1348  134.4659  155.8494 H   0  0  0  0  0  0  0  0  0  0  0  0  # atno 11005 bound_to 11000
  146.2146  140.5953  142.9044 LP  0  0  0  0  0  0  0  0  0  0  0  0  # atno 17320 bound_to 7965
  144.7710  140.5636  143.6670 LP  0  0  0  0  0  0  0  0  0  0  0  0  # atno 17321 bound_to 7965
  139.4805  144.5917  151.7761 LP  0  0  0  0  0  0  0  0  0  0  0  0  # atno 17342 bound_to 10162
  140.5044  144.1120  150.5979 LP  0  0  0  0  0  0  0  0  0  0  0  0  # atno 17343 bound_to 10162
  156.4701  130.7992  151.3010 LP  0  0  0  0  0  0  0  0  0  0  0  0  # atno 17370 bound_to 10713
  157.7481  131.0038  150.3054 LP  0  0  0  0  0  0  0  0  0  0  0  0  # atno 17371 bound_to 10713
  141.2176  133.6810  156.7137 LP  0  0  0  0  0  0  0  0  0  0  0  0  # atno 17394 bound_to 11000
  140.2796  134.8327  157.3921 LP  0  0  0  0  0  0  0  0  0  0  0  0  # atno 17395 bound_to 11000

$$$$
