AV-unprocessed.smi:2667|AV-procd|sdf|10336|dock2
  -GOLD-   2272014353D 1   1.00000     0.00000
 Structure written by MMmdl.
 45 47  0  0  0  0  0  0  0  0  2 V2000
  144.0792  143.5954  156.7838 C   0  0  0  0  0  0  0  0  0  0  0  0
  144.4913  142.4946  155.7936 C   0  0  0  0  0  0  0  0  0  0  0  0
  145.1232  141.2618  156.4584 C   0  0  0  0  0  0  0  0  0  0  0  0
  144.5113  140.6634  157.3444 O   0  0  0  0  0  0  0  0  0  0  0  0
  146.4746  140.8441  155.9841 C   0  0  0  0  0  0  0  0  0  0  0  0
  147.0853  141.4309  154.8510 C   0  0  0  0  0  0  0  0  0  0  0  0
  148.3615  141.0110  154.4300 C   0  0  0  0  0  0  0  0  0  0  0  0
  149.0561  140.0004  155.1224 C   0  0  0  0  0  0  0  0  0  0  0  0
  150.2955  139.6495  154.6352 O   0  0  0  0  0  0  0  0  0  0  0  0
  151.1049  138.7714  155.4056 C   0  0  0  0  0  0  0  0  0  0  0  0
  152.0556  139.5609  156.3266 C   0  0  2  0  0  0  0  0  0  0  0  0
  153.2732  138.8551  156.4477 O   0  0  0  0  0  0  0  0  0  0  0  0
  151.4847  139.9936  157.7002 C   0  0  0  0  0  0  0  0  0  0  0  0
  151.0522  141.3976  157.7912 N   0  0  0  0  0  0  0  0  0  0  0  0
  150.0899  142.0578  157.0897 C   0  0  0  0  0  0  0  0  0  0  0  0
  150.0627  143.3441  157.5346 N   0  3  0  0  0  0  0  0  0  0  0  0
  151.0350  143.5159  158.5217 C   0  0  0  0  0  0  0  0  0  0  0  0
  151.3917  144.6389  159.2622 C   0  0  0  0  0  0  0  0  0  0  0  0
  152.4400  144.4775  160.1917 C   0  0  0  0  0  0  0  0  0  0  0  0
  153.0916  143.2380  160.3556 C   0  0  0  0  0  0  0  0  0  0  0  0
  152.7218  142.1065  159.5990 C   0  0  0  0  0  0  0  0  0  0  0  0
  151.6806  142.2715  158.6863 C   0  0  0  0  0  0  0  0  0  0  0  0
  148.4490  139.4136  156.2590 C   0  0  0  0  0  0  0  0  0  0  0  0
  147.1727  139.8325  156.6817 C   0  0  0  0  0  0  0  0  0  0  0  0
  143.6332  144.4380  156.2552 H   0  0  0  0  0  0  0  0  0  0  0  0
  144.9382  143.9732  157.3396 H   0  0  0  0  0  0  0  0  0  0  0  0
  143.3436  143.2310  157.5019 H   0  0  0  0  0  0  0  0  0  0  0  0
  143.6153  142.1744  155.2292 H   0  0  0  0  0  0  0  0  0  0  0  0
  145.2018  142.9056  155.0759 H   0  0  0  0  0  0  0  0  0  0  0  0
  146.5937  142.2080  154.2854 H   0  0  0  0  0  0  0  0  0  0  0  0
  148.8132  141.4699  153.5626 H   0  0  0  0  0  0  0  0  0  0  0  0
  150.4772  138.1066  156.0011 H   0  0  0  0  0  0  0  0  0  0  0  0
  151.7049  138.1503  154.7388 H   0  0  0  0  0  0  0  0  0  0  0  0
  152.3119  140.4777  155.7945 H   0  0  0  0  0  0  0  0  0  0  0  0
  153.1149  137.9461  156.2448 H   0  0  0  0  0  0  0  0  0  0  0  0
  150.6490  139.3552  157.9886 H   0  0  0  0  0  0  0  0  0  0  0  0
  152.2475  139.8492  158.4665 H   0  0  0  0  0  0  0  0  0  0  0  0
  149.4506  141.6321  156.3294 H   0  0  0  0  0  0  0  0  0  0  0  0
  150.8966  145.5905  159.1366 H   0  0  0  0  0  0  0  0  0  0  0  0
  152.7516  145.3218  160.7900 H   0  0  0  0  0  0  0  0  0  0  0  0
  153.8912  143.1528  161.0769 H   0  0  0  0  0  0  0  0  0  0  0  0
  153.2276  141.1623  159.7330 H   0  0  0  0  0  0  0  0  0  0  0  0
  148.9418  138.6390  156.8264 H   0  0  0  0  0  0  0  0  0  0  0  0
  146.7365  139.3641  157.5523 H   0  0  0  0  0  0  0  0  0  0  0  0
  149.4285  144.0512  157.1856 H   0  0  0  0  0  0  0  0  0  0  0  0
  1  2  1  0  0  0  0
  1 25  1  0  0  0  0
  1 26  1  0  0  0  0
  1 27  1  0  0  0  0
  2  3  1  0  0  0  0
  2 28  1  0  0  0  0
  2 29  1  0  0  0  0
  3  4  2  0  0  0  0
  3  5  1  0  0  0  0
  5 24  1  0  0  0  0
  5  6  2  0  0  0  0
  6  7  1  0  0  0  0
  6 30  1  0  0  0  0
  7  8  2  0  0  0  0
  7 31  1  0  0  0  0
  8  9  1  0  0  0  0
  8 23  1  0  0  0  0
  9 10  1  0  0  0  0
 10 11  1  0  0  0  0
 10 32  1  0  0  0  0
 10 33  1  0  0  0  0
 11 12  1  0  0  0  0
 11 13  1  0  0  0  0
 11 34  1  0  0  0  0
 12 35  1  0  0  0  0
 13 14  1  0  0  0  0
 13 36  1  0  0  0  0
 13 37  1  0  0  0  0
 14 22  1  0  0  0  0
 14 15  1  0  0  0  0
 15 16  2  0  0  0  0
 15 38  1  0  0  0  0
 16 17  1  0  0  0  0
 16 45  1  0  0  0  0
 17 22  2  0  0  0  0
 17 18  1  0  0  0  0
 18 19  2  0  0  0  0
 18 39  1  0  0  0  0
 19 20  1  0  0  0  0
 19 40  1  0  0  0  0
 20 21  2  0  0  0  0
 20 41  1  0  0  0  0
 21 22  1  0  0  0  0
 21 42  1  0  0  0  0
 23 24  2  0  0  0  0
 23 43  1  0  0  0  0
 24 44  1  0  0  0  0
M  CHG  1  16   1
M  END
> <s_m_source_file>
AV-unprocessed.smi

> <i_m_source_file_index>
2667

> <i_lp_mmshare_version>
43012

> <i_f3d_flags>
0

> <s_epik_input>
W0NIM11bQ0gyXUMoPU8pYzFbY0hdW2NIXWMoW2NIXVtjSF0xKU9bQ0gyXVtDQEhdKFtPSF0pW0NIMl1uKFtjSF1uMiljKGMyMylbY0hdW2NIXVtjSF1bY0hdMw==

> <s_epik_cmdline>
J2VwaWtfcHl0aG9uJywgJy1waCcsICc3LjAnLCAnLXRuJywgJzgnLCAnLW1hJywgJzIwMCcsICctbWV0YWxfYmluZGluZycsICctaW1hZScsICc8aW5maWxlLm1hZT4nLCAnLW9tYWUnLCAnPG91dGZpbGUubWFlPic=

> <r_lp_tautomer_probability>
0.9999

> <r_epik_Ionization_Penalty>
1.40272

> <r_epik_Ionization_Penalty_Charging>
1.40272

> <r_epik_Ionization_Penalty_Neutral>
2.3993e-06

> <r_epik_State_Penalty>
1.48501

> <r_epik_Charging_Adjusted_Penalty>
2.88772

> <i_epik_Tot_Q>
1

> <i_epik_Tot_abs_Q>
1

> <r_epik_Metal_State_Penalty>
5.5274

> <b_epik_Metal_Only>
0

> <s_lp_Force_Field>
OPLS_2005

> <r_lp_Energy>
30.2491

> <b_lp_Chiralities_Consistent>
1

> <s_lp_Variant>
AV-unprocessed.smi:2667-3

> <Gold.Version>
5.8.1

> <Gold.Id.Protein>
6NUR|6NUR_protein|mol2

> <Gold.PLP.Fitness>
55.7527

> <Gold.PLP.PLP>
-46.6503

> <Gold.PLP.part.hbond>
-2.9488

> <Gold.PLP.part.metal>
0.0000

> <Gold.PLP.part.buried>
-3.7120

> <Gold.PLP.part.nonpolar>
-40.7978

> <Gold.PLP.part.repulsive>
0.1870

> <Gold.PLP.ligand.clash>
0.0000

> <Gold.PLP.ligand.torsion>
1.3449

> <Gold.PLP.Chemscore.Hbond>
3.8640

> <Gold.PLP.Chemscore.CHOScore>
0.0000

> <Gold.PLP.Chemscore.Metal>
0.0000

> <Gold.Chemscore.Hbonds>
donor molecule, donor type, donor heavy atom, donor atom, acceptor molecule, acceptor atom, score
      L1  H    16    45       P1  8028  1.63
      P1  H  7989  7998       L1     9  0.75
      P1  H  7997  8008       L1    12  0.83

> <Gold.PLP.Chemscore.Internal.Correction>
0.2003

> <Gold.Rescore>
     Score         DG    S(hbond)    S(metal)    S(lipo)     H(rot)  DE(clash)    DE(int)     intcor
     17.33     -18.99       1.80        0.00     120.84       2.59       0.11       1.55       ----

> <Gold.Chemscore.Fitness>
17.3324

> <Gold.Chemscore.DG>
-18.9930

> <Gold.Chemscore.ZeroCoef>
-5.4800

> <Gold.Chemscore.Hbond>
1.7957

> <Gold.Chemscore.Metal>
0.0000

> <Gold.Chemscore.Lipo>
120.8441

> <Gold.Chemscore.Internal_Hbond>
0.0000

> <Gold.Chemscore.DEClash>
0.1060

> <Gold.Chemscore.DEInternal>
1.5547

> <Gold.Chemscore.Rot>
2.5873

> <Gold.Chemscore.Internal.Correction>
   9.000000E+99

> <Gold.Chemscore.Hbonds>
donor molecule, donor type, donor heavy atom, donor atom, acceptor molecule, acceptor atom, score
      L1  H    16    45       P1  8028  0.32
      P1  H  7989  7998       L1     9  0.44
      P1  H  7997  8008       L1    12  0.45

> <Gold.Chemscore.Hbond.Weighted>
-5.9977

> <Gold.Chemscore.Metal.Weighted>
-0.0000

> <Gold.Chemscore.Lipo.Weighted>
-14.1388

> <Gold.Chemscore.Internal_Hbond.Weighted>
0.0000

> <Gold.Chemscore.DEClash.Weighted>
0.1060

> <Gold.Chemscore.DEInternal.Weighted>
1.5547

> <Gold.Chemscore.Rot.Weighted>
6.6235

> <Gold.Chemscore.Internal.Correction.Weighted>
   9.000000E+99

> <Gold.Protein.RotatedTorsions>
[ 6907 6896 6895 6894 ] final  -41.43 input  -60.11 | X-H torsion
[ 7974 7965 7964 7962 ] final  -23.48 input  175.53 | X-H torsion
[ 8008 7997 7996 7995 ] final  -73.19 input   59.86 | X-H torsion
[ 10167 10162 10161 10158 ] final  -57.43 input  -65.29 | X-H torsion
[ 10718 10713 10712 10709 ] final  -66.55 input   66.30 | X-H torsion
[ 10763 10752 10751 10750 ] final  106.95 input  -60.55 | X-H torsion
[ 11005 11000 10999 10996 ] final  101.88 input  -57.11 | X-H torsion

> <Gold.Protein.ActiveResidues>
 VAL166  LYS551  ARG553  GLY616  TRP617  ASP618  TYR619  PRO620  LYS621  CYS622 
 ASP623  PHE694  ASN695  SER759  ASP760  ASP761  ALA762  ILE779  LEU786  VAL792 
 PHE793  MET794  SER795  GLU796  ALA797  LYS798  CYS799  TRP800  GLU811  SER814 

> <Gold.Protein.RotatedAtoms>
  150.9669  134.9048  159.7763 H   0  0  0  0  0  0  0  0  0  0  0  0  # atno 6907 bound_to 6896
  152.5176  134.3595  159.9290 H   0  0  0  0  0  0  0  0  0  0  0  0  # atno 6908 bound_to 6896
  151.3606  133.3850  159.2724 H   0  0  0  0  0  0  0  0  0  0  0  0  # atno 6909 bound_to 6896
  146.1613  140.4622  142.8570 H   0  0  0  0  0  0  0  0  0  0  0  0  # atno 7974 bound_to 7965
  154.5227  140.0783  156.8201 H   0  0  0  0  0  0  0  0  0  0  0  0  # atno 8008 bound_to 7997
  155.3542  140.3414  155.4221 H   0  0  0  0  0  0  0  0  0  0  0  0  # atno 8009 bound_to 7997
  156.1698  140.1616  156.8454 H   0  0  0  0  0  0  0  0  0  0  0  0  # atno 8010 bound_to 7997
  140.6259  143.2438  151.5365 H   0  0  0  0  0  0  0  0  0  0  0  0  # atno 10167 bound_to 10162
  156.0606  130.4264  150.1724 H   0  0  0  0  0  0  0  0  0  0  0  0  # atno 10718 bound_to 10713
  153.4000  135.3860  155.1981 H   0  0  0  0  0  0  0  0  0  0  0  0  # atno 10763 bound_to 10752
  154.8728  135.3769  154.4631 H   0  0  0  0  0  0  0  0  0  0  0  0  # atno 10764 bound_to 10752
  153.5127  135.7087  153.5834 H   0  0  0  0  0  0  0  0  0  0  0  0  # atno 10765 bound_to 10752
  139.8775  134.9201  156.4974 H   0  0  0  0  0  0  0  0  0  0  0  0  # atno 11005 bound_to 11000
  144.8031  140.6250  143.6465 LP  0  0  0  0  0  0  0  0  0  0  0  0  # atno 17320 bound_to 7965
  145.4580  139.1516  143.3882 LP  0  0  0  0  0  0  0  0  0  0  0  0  # atno 17321 bound_to 7965
  139.5479  144.2472  152.1477 LP  0  0  0  0  0  0  0  0  0  0  0  0  # atno 17342 bound_to 10162
  140.1703  144.4942  150.6583 LP  0  0  0  0  0  0  0  0  0  0  0  0  # atno 17343 bound_to 10162
  156.9793  130.9859  151.3441 LP  0  0  0  0  0  0  0  0  0  0  0  0  # atno 17370 bound_to 10713
  157.5612  130.8247  149.8268 LP  0  0  0  0  0  0  0  0  0  0  0  0  # atno 17371 bound_to 10713
  140.8614  133.8057  155.9269 LP  0  0  0  0  0  0  0  0  0  0  0  0  # atno 17394 bound_to 11000
  140.9045  134.2337  157.5022 LP  0  0  0  0  0  0  0  0  0  0  0  0  # atno 17395 bound_to 11000

$$$$
