AV-unprocessed.smi:3212|AV-procd|sdf|12278|dock8
  -GOLD-   2272018113D 1   1.00000     0.00000
 Structure written by MMmdl.
 40 40  0  0  0  0  0  0  0  0  2 V2000
  146.2848  137.9306  151.6682 C   0  0  0  0  0  0  0  0  0  0  0  0
  145.8723  137.7145  153.1320 C   0  0  2  0  0  0  0  0  0  0  0  0
  144.4473  138.0776  153.3062 N   0  3  0  0  0  0  0  0  0  0  0  0
  143.4800  137.2016  152.6085 C   0  0  0  0  0  0  0  0  0  0  0  0
  142.6490  136.3736  153.6019 C   0  0  0  0  0  0  0  0  0  0  0  0
  141.3013  136.8913  153.7589 N   0  0  0  0  0  0  0  0  0  0  0  0
  140.7661  138.0550  153.2477 C   0  0  0  0  0  0  0  0  0  0  0  0
  139.4675  138.1222  153.6642 C   0  0  0  0  0  0  0  0  0  0  0  0
  139.2972  136.9381  154.4342 C   0  0  0  0  0  0  0  0  0  0  0  0
  140.3969  136.2038  154.4899 N   0  0  0  0  0  0  0  0  0  0  0  0
  146.7901  138.5211  154.0613 C   0  0  0  0  0  0  0  0  0  0  0  0
  146.3065  139.3070  154.8764 O   0  0  0  0  0  0  0  0  0  0  0  0
  148.1108  138.3159  153.9094 N   0  0  0  0  0  0  0  0  0  0  0  0
  149.2213  138.9345  154.6433 C   0  0  0  0  0  0  0  0  0  0  0  0
  149.0313  138.5734  156.1271 C   0  0  0  0  0  0  0  0  0  0  0  0
  149.1874  140.4699  154.4927 C   0  0  0  0  0  0  0  0  0  0  0  0
  150.5740  138.3712  154.1595 C   0  0  0  0  0  0  0  0  0  0  0  0
  147.3242  137.6448  151.5004 H   0  0  0  0  0  0  0  0  0  0  0  0
  146.1750  138.9744  151.3707 H   0  0  0  0  0  0  0  0  0  0  0  0
  145.6706  137.3295  150.9971 H   0  0  0  0  0  0  0  0  0  0  0  0
  145.9821  136.6527  153.3598 H   0  0  0  0  0  0  0  0  0  0  0  0
  144.2349  138.0855  154.2938 H   0  0  0  0  0  0  0  0  0  0  0  0
  142.8191  137.8027  151.9825 H   0  0  0  0  0  0  0  0  0  0  0  0
  144.0218  136.5282  151.9437 H   0  0  0  0  0  0  0  0  0  0  0  0
  142.5762  135.3437  153.2501 H   0  0  0  0  0  0  0  0  0  0  0  0
  143.1341  136.3347  154.5784 H   0  0  0  0  0  0  0  0  0  0  0  0
  141.3466  138.7315  152.6375 H   0  0  0  0  0  0  0  0  0  0  0  0
  138.7479  138.8987  153.4507 H   0  0  0  0  0  0  0  0  0  0  0  0
  138.4140  136.5934  154.9516 H   0  0  0  0  0  0  0  0  0  0  0  0
  148.3840  137.6532  153.1980 H   0  0  0  0  0  0  0  0  0  0  0  0
  149.8225  139.0001  156.7446 H   0  0  0  0  0  0  0  0  0  0  0  0
  149.0448  137.4933  156.2794 H   0  0  0  0  0  0  0  0  0  0  0  0
  148.0809  138.9474  156.5098 H   0  0  0  0  0  0  0  0  0  0  0  0
  148.2210  140.8779  154.7914 H   0  0  0  0  0  0  0  0  0  0  0  0
  149.3768  140.7870  153.4675 H   0  0  0  0  0  0  0  0  0  0  0  0
  149.9478  140.9411  155.1165 H   0  0  0  0  0  0  0  0  0  0  0  0
  151.3966  138.7551  154.7638 H   0  0  0  0  0  0  0  0  0  0  0  0
  150.7859  138.6423  153.1251 H   0  0  0  0  0  0  0  0  0  0  0  0
  150.5987  137.2829  154.2271 H   0  0  0  0  0  0  0  0  0  0  0  0
  144.3192  139.0123  152.9447 H   0  0  0  0  0  0  0  0  0  0  0  0
  1  2  1  0  0  0  0
  1 18  1  0  0  0  0
  1 19  1  0  0  0  0
  1 20  1  0  0  0  0
  2  3  1  0  0  0  0
  2 11  1  0  0  0  0
  2 21  1  0  0  0  0
  3  4  1  0  0  0  0
  3 22  1  0  0  0  0
  3 40  1  0  0  0  0
  4  5  1  0  0  0  0
  4 23  1  0  0  0  0
  4 24  1  0  0  0  0
  5  6  1  0  0  0  0
  5 25  1  0  0  0  0
  5 26  1  0  0  0  0
  6 10  1  0  0  0  0
  6  7  1  0  0  0  0
  7  8  2  0  0  0  0
  7 27  1  0  0  0  0
  8  9  1  0  0  0  0
  8 28  1  0  0  0  0
  9 10  2  0  0  0  0
  9 29  1  0  0  0  0
 11 12  2  0  0  0  0
 11 13  1  0  0  0  0
 13 14  1  0  0  0  0
 13 30  1  0  0  0  0
 14 15  1  0  0  0  0
 14 16  1  0  0  0  0
 14 17  1  0  0  0  0
 15 31  1  0  0  0  0
 15 32  1  0  0  0  0
 15 33  1  0  0  0  0
 16 34  1  0  0  0  0
 16 35  1  0  0  0  0
 16 36  1  0  0  0  0
 17 37  1  0  0  0  0
 17 38  1  0  0  0  0
 17 39  1  0  0  0  0
M  CHG  1   3   1
M  END
> <s_m_source_file>
AV-unprocessed.smi

> <i_m_source_file_index>
3212

> <i_lp_mmshare_version>
43012

> <i_f3d_flags>
0

> <s_epik_input>
W0NIM11DKFtDSDNdKShbQ0gzXSlbTkhdQyg9TylbQ0BIXShbQ0gzXSlbTkhdW0NIMl1bQ0gyXW4xW2NIXVtjSF1bY0hdbjE=

> <s_epik_cmdline>
J2VwaWtfcHl0aG9uJywgJy1waCcsICc3LjAnLCAnLXRuJywgJzgnLCAnLW1hJywgJzIwMCcsICctbWV0YWxfYmluZGluZycsICctaW1hZScsICc8aW5maWxlLm1hZT4nLCAnLW9tYWUnLCAnPG91dGZpbGUubWFlPic=

> <r_lp_tautomer_probability>
1

> <r_epik_Ionization_Penalty>
0.198377

> <r_epik_Ionization_Penalty_Charging>
0.198374

> <r_epik_Ionization_Penalty_Neutral>
3.0924e-06

> <r_epik_State_Penalty>
0.188176

> <r_epik_Charging_Adjusted_Penalty>
0.38655

> <i_epik_Tot_Q>
1

> <i_epik_Tot_abs_Q>
1

> <r_epik_Metal_State_Penalty>
0.188456

> <b_epik_Metal_Only>
0

> <s_lp_Force_Field>
OPLS_2005

> <r_lp_Energy>
6.00749

> <b_lp_Chiralities_Consistent>
1

> <s_lp_Variant>
AV-unprocessed.smi:3212-1

> <Gold.Version>
5.8.1

> <Gold.Id.Protein>
6NUR|6NUR_protein|mol2

> <Gold.PLP.Fitness>
41.5048

> <Gold.PLP.PLP>
-28.9395

> <Gold.PLP.part.hbond>
-2.9780

> <Gold.PLP.part.metal>
0.0000

> <Gold.PLP.part.buried>
-1.9249

> <Gold.PLP.part.nonpolar>
-24.1825

> <Gold.PLP.part.repulsive>
0.1380

> <Gold.PLP.ligand.clash>
0.0000

> <Gold.PLP.ligand.torsion>
0.7982

> <Gold.PLP.Chemscore.Hbond>
3.6932

> <Gold.PLP.Chemscore.CHOScore>
1.0152

> <Gold.PLP.Chemscore.Metal>
0.0000

> <Gold.Chemscore.Hbonds>
donor molecule, donor type, donor heavy atom, donor atom, acceptor molecule, acceptor atom, score
      L1  H     3    40       P1 10175  2.00
      L1  H    13    30       P1  7948  1.00
      P1  H 11000 11005       L1    10  0.74
      L1  C     7    27       P1 10160  0.68
      L1  C     7    27       P1 10175  0.27

> <Gold.PLP.Chemscore.Internal.Correction>
0.0368

> <Gold.Rescore>
     Score         DG    S(hbond)    S(metal)    S(lipo)     H(rot)  DE(clash)    DE(int)     intcor
     15.81     -16.80       2.72        0.00      64.31       2.07       0.12       0.86       ----

> <Gold.Chemscore.Fitness>
15.8130

> <Gold.Chemscore.DG>
-16.7953

> <Gold.Chemscore.ZeroCoef>
-5.4800

> <Gold.Chemscore.Hbond>
2.7184

> <Gold.Chemscore.Metal>
0.0000

> <Gold.Chemscore.Lipo>
64.3117

> <Gold.Chemscore.Internal_Hbond>
0.0000

> <Gold.Chemscore.DEClash>
0.1227

> <Gold.Chemscore.DEInternal>
0.8595

> <Gold.Chemscore.Rot>
2.0659

> <Gold.Chemscore.Internal.Correction>
   9.000000E+99

> <Gold.Chemscore.Hbonds>
donor molecule, donor type, donor heavy atom, donor atom, acceptor molecule, acceptor atom, score
      L1  H     3    40       P1 10175  1.00
      L1  H    13    30       P1  7948  0.94
      P1  H 11000 11005       L1    10  0.39

> <Gold.Chemscore.Hbond.Weighted>
-9.0795

> <Gold.Chemscore.Metal.Weighted>
-0.0000

> <Gold.Chemscore.Lipo.Weighted>
-7.5245

> <Gold.Chemscore.Internal_Hbond.Weighted>
0.0000

> <Gold.Chemscore.DEClash.Weighted>
0.1227

> <Gold.Chemscore.DEInternal.Weighted>
0.8595

> <Gold.Chemscore.Rot.Weighted>
5.2886

> <Gold.Chemscore.Internal.Correction.Weighted>
   9.000000E+99

> <Gold.Protein.RotatedTorsions>
[ 6907 6896 6895 6894 ] final -176.92 input  -60.11 | X-H torsion
[ 7974 7965 7964 7962 ] final   24.99 input  175.53 | X-H torsion
[ 8008 7997 7996 7995 ] final -160.66 input   59.86 | X-H torsion
[ 10167 10162 10161 10158 ] final  -49.16 input  -65.29 | X-H torsion
[ 10718 10713 10712 10709 ] final -128.41 input   66.30 | X-H torsion
[ 10763 10752 10751 10750 ] final  104.77 input  -60.55 | X-H torsion
[ 11005 11000 10999 10996 ] final   61.58 input  -57.11 | X-H torsion

> <Gold.Protein.ActiveResidues>
 VAL166  LYS551  ARG553  GLY616  TRP617  ASP618  TYR619  PRO620  LYS621  CYS622 
 ASP623  PHE694  ASN695  SER759  ASP760  ASP761  ALA762  ILE779  LEU786  VAL792 
 PHE793  MET794  SER795  GLU796  ALA797  LYS798  CYS799  TRP800  GLU811  SER814 

> <Gold.Protein.RotatedAtoms>
  151.6126  133.3346  159.3070 H   0  0  0  0  0  0  0  0  0  0  0  0  # atno 6907 bound_to 6896
  150.8148  134.7328  159.6732 H   0  0  0  0  0  0  0  0  0  0  0  0  # atno 6908 bound_to 6896
  152.4245  134.5900  160.0023 H   0  0  0  0  0  0  0  0  0  0  0  0  # atno 6909 bound_to 6896
  146.1911  139.7528  142.8831 H   0  0  0  0  0  0  0  0  0  0  0  0  # atno 7974 bound_to 7965
  155.7807  140.0864  157.2060 H   0  0  0  0  0  0  0  0  0  0  0  0  # atno 8008 bound_to 7997
  154.3990  140.1508  156.3107 H   0  0  0  0  0  0  0  0  0  0  0  0  # atno 8009 bound_to 7997
  155.8656  140.3428  155.5788 H   0  0  0  0  0  0  0  0  0  0  0  0  # atno 8010 bound_to 7997
  140.6698  143.2709  151.4175 H   0  0  0  0  0  0  0  0  0  0  0  0  # atno 10167 bound_to 10162
  156.1948  130.6819  151.0468 H   0  0  0  0  0  0  0  0  0  0  0  0  # atno 10718 bound_to 10713
  153.3704  135.3932  155.1784 H   0  0  0  0  0  0  0  0  0  0  0  0  # atno 10763 bound_to 10752
  154.8693  135.3701  154.4985 H   0  0  0  0  0  0  0  0  0  0  0  0  # atno 10764 bound_to 10752
  153.5452  135.7084  153.5678 H   0  0  0  0  0  0  0  0  0  0  0  0  # atno 10765 bound_to 10752
  140.0151  134.6237  155.9721 H   0  0  0  0  0  0  0  0  0  0  0  0  # atno 11005 bound_to 11000
  145.3790  141.0355  143.3188 LP  0  0  0  0  0  0  0  0  0  0  0  0  # atno 17320 bound_to 7965
  144.8488  139.5354  143.6866 LP  0  0  0  0  0  0  0  0  0  0  0  0  # atno 17321 bound_to 7965
  139.5961  144.1394  152.2145 LP  0  0  0  0  0  0  0  0  0  0  0  0  # atno 17342 bound_to 10162
  140.0764  144.5737  150.7154 LP  0  0  0  0  0  0  0  0  0  0  0  0  # atno 17343 bound_to 10162
  157.6951  131.0797  150.6993 LP  0  0  0  0  0  0  0  0  0  0  0  0  # atno 17370 bound_to 10713
  156.7050  130.4635  149.5562 LP  0  0  0  0  0  0  0  0  0  0  0  0  # atno 17371 bound_to 10713
  141.1737  133.6539  156.4749 LP  0  0  0  0  0  0  0  0  0  0  0  0  # atno 17394 bound_to 11000
  140.4485  134.6951  157.5027 LP  0  0  0  0  0  0  0  0  0  0  0  0  # atno 17395 bound_to 11000

$$$$
