AV-unprocessed.smi:625|AV-procd|sdf|3102|dock6
  -GOLD-   22720 0 23D 1   1.00000     0.00000
 Structure written by MMmdl.
 49 51  0  0  0  0  0  0  0  0  1 V2000
  146.1525  135.7101  151.9116 C   0  0  0  0  0  0  0  0  0  0  0  0
  146.8088  136.8874  152.4596 N   0  0  0  0  0  0  0  0  0  0  0  0
  146.2308  137.7560  153.3055 C   0  0  0  0  0  0  0  0  0  0  0  0
  145.0692  137.6096  153.6907 O   0  0  0  0  0  0  0  0  0  0  0  0
  147.1055  138.8595  153.7092 C   0  0  0  0  0  0  0  0  0  0  0  0
  146.6993  140.2564  153.6754 C   0  0  0  0  0  0  0  0  0  0  0  0
  147.5632  141.2296  154.0269 C   0  0  0  0  0  0  0  0  0  0  0  0
  148.9343  140.9310  154.4519 C   0  0  0  0  0  0  0  0  0  0  0  0
  149.7317  141.8193  154.7524 O   0  0  0  0  0  0  0  0  0  0  0  0
  149.2682  139.6059  154.4870 N   0  0  0  0  0  0  0  0  0  0  0  0
  150.6235  139.1609  154.8460 C   0  0  0  0  0  0  0  0  0  0  0  0
  150.8757  139.3568  156.3442 C   0  0  0  0  0  0  0  0  0  0  0  0
  150.6477  138.4422  157.1361 O   0  0  0  0  0  0  0  0  0  0  0  0
  151.3248  140.5661  156.7132 N   0  0  0  0  0  0  0  0  0  0  0  0
  151.4434  141.0474  158.0870 C   0  0  1  0  0  0  0  0  0  0  0  0
  152.1306  139.9740  158.9449 C   0  0  0  0  0  0  0  0  0  0  0  0
  152.2137  142.3901  158.0962 C   0  0  2  0  0  0  0  0  0  0  0  0
  152.7668  142.8127  159.4756 C   0  0  0  0  0  0  0  0  0  0  0  0
  152.2900  144.2721  159.6082 C   0  0  2  0  0  0  0  0  0  0  0  0
  150.7768  144.2854  159.8936 C   0  0  0  0  0  0  0  0  0  0  0  0
  150.1738  143.8771  158.5377 C   0  0  0  0  0  0  0  0  0  0  0  0
  151.4239  143.6526  157.6620 C   0  0  1  0  0  0  0  0  0  0  0  0
  152.3403  144.7623  158.1656 C   0  0  0  0  0  0  0  0  0  0  0  0
  148.3603  138.5937  154.1182 C   0  0  0  0  0  0  0  0  0  0  0  0
  146.8443  135.1629  151.2713 H   0  0  0  0  0  0  0  0  0  0  0  0
  145.2854  135.9930  151.3133 H   0  0  0  0  0  0  0  0  0  0  0  0
  145.8232  135.0417  152.7083 H   0  0  0  0  0  0  0  0  0  0  0  0
  147.7640  137.0557  152.1790 H   0  0  0  0  0  0  0  0  0  0  0  0
  145.7038  140.5450  153.3713 H   0  0  0  0  0  0  0  0  0  0  0  0
  147.2389  142.2596  153.9932 H   0  0  0  0  0  0  0  0  0  0  0  0
  150.7967  138.1135  154.5950 H   0  0  0  0  0  0  0  0  0  0  0  0
  151.3563  139.7220  154.2628 H   0  0  0  0  0  0  0  0  0  0  0  0
  151.5036  141.2413  155.9841 H   0  0  0  0  0  0  0  0  0  0  0  0
  150.4521  141.2175  158.5097 H   0  0  0  0  0  0  0  0  0  0  0  0
  152.2198  140.2945  159.9829 H   0  0  0  0  0  0  0  0  0  0  0  0
  153.1333  139.7525  158.5781 H   0  0  0  0  0  0  0  0  0  0  0  0
  151.5607  139.0443  158.9381 H   0  0  0  0  0  0  0  0  0  0  0  0
  153.0569  142.2906  157.4101 H   0  0  0  0  0  0  0  0  0  0  0  0
  152.3969  142.1929  160.2933 H   0  0  0  0  0  0  0  0  0  0  0  0
  153.8558  142.7537  159.4841 H   0  0  0  0  0  0  0  0  0  0  0  0
  152.8733  144.8603  160.3171 H   0  0  0  0  0  0  0  0  0  0  0  0
  150.5001  143.5997  160.6952 H   0  0  0  0  0  0  0  0  0  0  0  0
  150.4415  145.2841  160.1763 H   0  0  0  0  0  0  0  0  0  0  0  0
  149.5313  143.0009  158.6103 H   0  0  0  0  0  0  0  0  0  0  0  0
  149.5676  144.6881  158.1321 H   0  0  0  0  0  0  0  0  0  0  0  0
  151.2179  143.6942  156.5921 H   0  0  0  0  0  0  0  0  0  0  0  0
  151.9235  145.7625  158.0325 H   0  0  0  0  0  0  0  0  0  0  0  0
  153.3413  144.7315  157.7314 H   0  0  0  0  0  0  0  0  0  0  0  0
  148.7685  137.5939  154.1731 H   0  0  0  0  0  0  0  0  0  0  0  0
  1  2  1  0  0  0  0
  1 25  1  0  0  0  0
  1 26  1  0  0  0  0
  1 27  1  0  0  0  0
  2  3  1  0  0  0  0
  2 28  1  0  0  0  0
  3  4  2  0  0  0  0
  3  5  1  0  0  0  0
  5 24  2  0  0  0  0
  5  6  1  0  0  0  0
  6  7  2  0  0  0  0
  6 29  1  0  0  0  0
  7  8  1  0  0  0  0
  7 30  1  0  0  0  0
  8  9  2  0  0  0  0
  8 10  1  0  0  0  0
 10 11  1  0  0  0  0
 10 24  1  0  0  0  0
 11 12  1  0  0  0  0
 11 31  1  0  0  0  0
 11 32  1  0  0  0  0
 12 13  2  0  0  0  0
 12 14  1  0  0  0  0
 14 15  1  0  0  0  0
 14 33  1  0  0  0  0
 15 16  1  0  0  0  0
 15 17  1  0  0  0  0
 15 34  1  0  0  0  0
 16 35  1  0  0  0  0
 16 36  1  0  0  0  0
 16 37  1  0  0  0  0
 17 22  1  0  0  0  0
 17 18  1  0  0  0  0
 17 38  1  0  0  0  0
 18 19  1  0  0  0  0
 18 39  1  0  0  0  0
 18 40  1  0  0  0  0
 19 23  1  0  0  0  0
 19 20  1  0  0  0  0
 19 41  1  0  0  0  0
 20 21  1  0  0  0  0
 20 42  1  0  0  0  0
 20 43  1  0  0  0  0
 21 22  1  0  0  0  0
 21 44  1  0  0  0  0
 21 45  1  0  0  0  0
 22 23  1  0  0  0  0
 22 46  1  0  0  0  0
 23 47  1  0  0  0  0
 23 48  1  0  0  0  0
 24 49  1  0  0  0  0
M  END
> <s_m_source_file>
AV-unprocessed.smi

> <i_m_source_file_index>
625

> <i_lp_mmshare_version>
43012

> <i_f3d_flags>
0

> <s_epik_input>
W0NIM11bTkhdQyg9TyljMVtjSF1bY0hdYyg9TyluKFtjSF0xKVtDSDJdQyg9TylbTkhdW0NASF0oW0NIM10pW0NASF0oW0NIMl1bQ0BIXTIzKVtDQEhdKFtDSDJdMylbQ0gyXVtDSDJdMg==

> <s_epik_cmdline>
J2VwaWtfcHl0aG9uJywgJy1waCcsICc3LjAnLCAnLXRuJywgJzgnLCAnLW1hJywgJzIwMCcsICctbWV0YWxfYmluZGluZycsICctaW1hZScsICc8aW5maWxlLm1hZT4nLCAnLW9tYWUnLCAnPG91dGZpbGUubWFlPic=

> <r_lp_tautomer_probability>
1

> <r_epik_Ionization_Penalty>
3.7129e-07

> <r_epik_Ionization_Penalty_Charging>
5.04114e-08

> <r_epik_Ionization_Penalty_Neutral>
3.20879e-07

> <r_epik_State_Penalty>
-0

> <r_epik_Charging_Adjusted_Penalty>
5.04114e-08

> <i_epik_Tot_Q>
0

> <i_epik_Tot_abs_Q>
0

> <r_epik_Metal_State_Penalty>
-0

> <b_epik_Metal_Only>
0

> <s_lp_Force_Field>
OPLS_2005

> <r_lp_Energy>
63.4228

> <b_lp_Chiralities_Consistent>
1

> <s_lp_Variant>
AV-unprocessed.smi:625-2

> <Gold.Version>
5.8.1

> <Gold.Id.Protein>
6NUR|6NUR_protein|mol2

> <Gold.PLP.Fitness>
44.6936

> <Gold.PLP.PLP>
-44.3237

> <Gold.PLP.part.hbond>
-2.6643

> <Gold.PLP.part.metal>
0.0000

> <Gold.PLP.part.buried>
-1.2255

> <Gold.PLP.part.nonpolar>
-42.4489

> <Gold.PLP.part.repulsive>
1.9841

> <Gold.PLP.ligand.clash>
0.0000

> <Gold.PLP.ligand.torsion>
1.7203

> <Gold.PLP.Chemscore.Hbond>
0.5796

> <Gold.PLP.Chemscore.CHOScore>
0.6742

> <Gold.PLP.Chemscore.Metal>
0.0000

> <Gold.Chemscore.Hbonds>
donor molecule, donor type, donor heavy atom, donor atom, acceptor molecule, acceptor atom, score
      L1  H     2    28       P1  7948  0.64
      L1  C    24    49       P1  7948  0.47

> <Gold.PLP.Chemscore.Internal.Correction>
0.0492

> <Gold.Rescore>
     Score         DG    S(hbond)    S(metal)    S(lipo)     H(rot)  DE(clash)    DE(int)     intcor
     15.12     -18.15       0.92        0.00     118.53       1.67       0.44       2.59       ----

> <Gold.Chemscore.Fitness>
15.1240

> <Gold.Chemscore.DG>
-18.1504

> <Gold.Chemscore.ZeroCoef>
-5.4800

> <Gold.Chemscore.Hbond>
0.9221

> <Gold.Chemscore.Metal>
0.0000

> <Gold.Chemscore.Lipo>
118.5298

> <Gold.Chemscore.Internal_Hbond>
0.0000

> <Gold.Chemscore.DEClash>
0.4375

> <Gold.Chemscore.DEInternal>
2.5889

> <Gold.Chemscore.Rot>
1.6709

> <Gold.Chemscore.Internal.Correction>
   9.000000E+99

> <Gold.Chemscore.Hbonds>
donor molecule, donor type, donor heavy atom, donor atom, acceptor molecule, acceptor atom, score
      L1  H     2    28       P1  7948  0.61

> <Gold.Chemscore.Hbond.Weighted>
-3.0798

> <Gold.Chemscore.Metal.Weighted>
-0.0000

> <Gold.Chemscore.Lipo.Weighted>
-13.8680

> <Gold.Chemscore.Internal_Hbond.Weighted>
0.0000

> <Gold.Chemscore.DEClash.Weighted>
0.4375

> <Gold.Chemscore.DEInternal.Weighted>
2.5889

> <Gold.Chemscore.Rot.Weighted>
4.2774

> <Gold.Chemscore.Internal.Correction.Weighted>
   9.000000E+99

> <Gold.Protein.RotatedTorsions>
[ 6907 6896 6895 6894 ] final   32.45 input  -60.11 | X-H torsion
[ 7974 7965 7964 7962 ] final -103.99 input  175.53 | X-H torsion
[ 8008 7997 7996 7995 ] final  -76.72 input   59.86 | X-H torsion
[ 10167 10162 10161 10158 ] final   82.72 input  -65.29 | X-H torsion
[ 10718 10713 10712 10709 ] final  -13.43 input   66.30 | X-H torsion
[ 10763 10752 10751 10750 ] final -115.43 input  -60.55 | X-H torsion
[ 11005 11000 10999 10996 ] final -102.04 input  -57.11 | X-H torsion

> <Gold.Protein.ActiveResidues>
 VAL166  LYS551  ARG553  GLY616  TRP617  ASP618  TYR619  PRO620  LYS621  CYS622 
 ASP623  PHE694  ASN695  SER759  ASP760  ASP761  ALA762  ILE779  LEU786  VAL792 
 PHE793  MET794  SER795  GLU796  ALA797  LYS798  CYS799  TRP800  GLU811  SER814 

> <Gold.Protein.RotatedAtoms>
  152.0746  134.9511  160.0573 H   0  0  0  0  0  0  0  0  0  0  0  0  # atno 6907 bound_to 6896
  152.0823  133.4154  159.4515 H   0  0  0  0  0  0  0  0  0  0  0  0  # atno 6908 bound_to 6896
  150.6836  134.2887  159.4701 H   0  0  0  0  0  0  0  0  0  0  0  0  # atno 6909 bound_to 6896
  145.2488  140.9231  143.3107 H   0  0  0  0  0  0  0  0  0  0  0  0  # atno 7974 bound_to 7965
  154.5530  140.0722  156.8699 H   0  0  0  0  0  0  0  0  0  0  0  0  # atno 8008 bound_to 7997
  155.2956  140.3381  155.4232 H   0  0  0  0  0  0  0  0  0  0  0  0  # atno 8009 bound_to 7997
  156.1978  140.1710  156.7948 H   0  0  0  0  0  0  0  0  0  0  0  0  # atno 8010 bound_to 7997
  139.9258  144.6183  150.8394 H   0  0  0  0  0  0  0  0  0  0  0  0  # atno 10167 bound_to 10162
  156.6304  130.4900  149.6131 H   0  0  0  0  0  0  0  0  0  0  0  0  # atno 10718 bound_to 10713
  154.8481  135.4382  154.1662 H   0  0  0  0  0  0  0  0  0  0  0  0  # atno 10763 bound_to 10752
  153.2786  135.6951  153.7414 H   0  0  0  0  0  0  0  0  0  0  0  0  # atno 10764 bound_to 10752
  153.6626  135.3432  155.3106 H   0  0  0  0  0  0  0  0  0  0  0  0  # atno 10765 bound_to 10752
  141.1206  133.8526  157.1309 H   0  0  0  0  0  0  0  0  0  0  0  0  # atno 11005 bound_to 11000
  144.9522  139.4070  143.6397 LP  0  0  0  0  0  0  0  0  0  0  0  0  # atno 17320 bound_to 7965
  146.3308  139.8534  142.8869 LP  0  0  0  0  0  0  0  0  0  0  0  0  # atno 17321 bound_to 7965
  140.7650  143.3265  151.2505 LP  0  0  0  0  0  0  0  0  0  0  0  0  # atno 17342 bound_to 10162
  139.6823  143.9833  152.2815 LP  0  0  0  0  0  0  0  0  0  0  0  0  # atno 17343 bound_to 10162
  156.2239  130.6754  151.1396 LP  0  0  0  0  0  0  0  0  0  0  0  0  # atno 17370 bound_to 10713
  157.7201  131.0686  150.6168 LP  0  0  0  0  0  0  0  0  0  0  0  0  # atno 17371 bound_to 10713
  140.0160  134.9967  157.0494 LP  0  0  0  0  0  0  0  0  0  0  0  0  # atno 17394 bound_to 11000
  140.4519  134.1574  155.7182 LP  0  0  0  0  0  0  0  0  0  0  0  0  # atno 17395 bound_to 11000

$$$$
