AV-unprocessed.smi:1225|AV-procd|sdf|5139|dock10
  -GOLD-   22720 4203D 1   1.00000     0.00000
 Structure written by MMmdl.
 49 51  0  0  0  0  0  0  0  0  2 V2000
  151.2783  131.5473  155.9037 C   0  0  0  0  0  0  0  0  0  0  0  0
  150.5934  132.8129  155.5163 C   0  0  0  0  0  0  0  0  0  0  0  0
  149.7957  132.9259  154.4519 N   0  0  0  0  0  0  0  0  0  0  0  0
  149.2782  134.2153  154.3082 C   0  0  0  0  0  0  0  0  0  0  0  0
  149.6889  135.0906  155.2831 C   0  0  0  0  0  0  0  0  0  0  0  0
  149.3246  136.5349  155.4209 C   0  0  0  0  0  0  0  0  0  0  0  0
  149.8316  137.1601  156.6437 N   0  0  0  0  0  0  0  0  0  0  0  0
  148.8946  136.9777  157.7517 C   0  0  0  0  0  0  0  0  0  0  0  0
  150.1247  138.5779  156.4076 C   0  0  0  0  0  0  0  0  0  0  0  0
  151.2290  138.9025  155.3763 C   0  0  1  0  0  0  0  0  0  0  0  0
  150.6691  139.1699  154.1055 O   0  0  0  0  0  0  0  0  0  0  0  0
  152.1981  140.0222  155.8130 C   0  0  0  0  0  0  0  0  0  0  0  0
  151.5063  141.1683  156.4173 N   0  0  0  0  0  0  0  0  0  0  0  0
  150.5039  141.9448  155.9237 C   0  0  0  0  0  0  0  0  0  0  0  0
  150.2095  142.8820  156.8670 N   0  3  0  0  0  0  0  0  0  0  0  0
  151.0334  142.6981  157.9799 C   0  0  0  0  0  0  0  0  0  0  0  0
  151.1127  143.3939  159.1804 C   0  0  0  0  0  0  0  0  0  0  0  0
  152.0699  142.9503  160.1210 C   0  0  0  0  0  0  0  0  0  0  0  0
  152.1860  143.6919  161.4419 C   0  0  0  0  0  0  0  0  0  0  0  0
  152.9081  141.8394  159.8418 C   0  0  0  0  0  0  0  0  0  0  0  0
  153.9329  141.3704  160.8608 C   0  0  0  0  0  0  0  0  0  0  0  0
  152.8117  141.1450  158.6147 C   0  0  0  0  0  0  0  0  0  0  0  0
  151.8652  141.5972  157.6989 C   0  0  0  0  0  0  0  0  0  0  0  0
  150.7612  134.3128  156.4200 S   0  0  0  0  0  0  0  0  0  0  0  0
  150.9161  130.7139  155.3009 H   0  0  0  0  0  0  0  0  0  0  0  0
  151.0876  131.3267  156.9542 H   0  0  0  0  0  0  0  0  0  0  0  0
  152.3535  131.6457  155.7551 H   0  0  0  0  0  0  0  0  0  0  0  0
  148.6182  134.4241  153.4792 H   0  0  0  0  0  0  0  0  0  0  0  0
  149.7217  137.0615  154.5522 H   0  0  0  0  0  0  0  0  0  0  0  0
  148.2408  136.6484  155.3696 H   0  0  0  0  0  0  0  0  0  0  0  0
  149.3035  137.3637  158.6842 H   0  0  0  0  0  0  0  0  0  0  0  0
  148.6816  135.9221  157.9209 H   0  0  0  0  0  0  0  0  0  0  0  0
  147.9495  137.4858  157.5562 H   0  0  0  0  0  0  0  0  0  0  0  0
  149.2159  139.0481  156.0297 H   0  0  0  0  0  0  0  0  0  0  0  0
  150.3366  139.0810  157.3524 H   0  0  0  0  0  0  0  0  0  0  0  0
  151.8066  137.9878  155.2409 H   0  0  0  0  0  0  0  0  0  0  0  0
  150.5991  138.3553  153.6324 H   0  0  0  0  0  0  0  0  0  0  0  0
  152.9087  139.6508  156.5522 H   0  0  0  0  0  0  0  0  0  0  0  0
  152.7884  140.3796  154.9684 H   0  0  0  0  0  0  0  0  0  0  0  0
  150.0312  141.8392  154.9575 H   0  0  0  0  0  0  0  0  0  0  0  0
  150.4714  144.2385  159.3860 H   0  0  0  0  0  0  0  0  0  0  0  0
  153.1802  144.1265  161.5496 H   0  0  0  0  0  0  0  0  0  0  0  0
  152.0101  143.0160  162.2792 H   0  0  0  0  0  0  0  0  0  0  0  0
  151.4589  144.5019  161.5100 H   0  0  0  0  0  0  0  0  0  0  0  0
  154.5058  140.5204  160.4887 H   0  0  0  0  0  0  0  0  0  0  0  0
  153.4414  141.0619  161.7838 H   0  0  0  0  0  0  0  0  0  0  0  0
  154.6369  142.1698  161.0926 H   0  0  0  0  0  0  0  0  0  0  0  0
  153.4496  140.3002  158.4007 H   0  0  0  0  0  0  0  0  0  0  0  0
  149.4975  143.5927  156.7569 H   0  0  0  0  0  0  0  0  0  0  0  0
  1  2  1  0  0  0  0
  1 25  1  0  0  0  0
  1 26  1  0  0  0  0
  1 27  1  0  0  0  0
  2 24  1  0  0  0  0
  2  3  2  0  0  0  0
  3  4  1  0  0  0  0
  4  5  2  0  0  0  0
  4 28  1  0  0  0  0
  5  6  1  0  0  0  0
  5 24  1  0  0  0  0
  6  7  1  0  0  0  0
  6 29  1  0  0  0  0
  6 30  1  0  0  0  0
  7  8  1  0  0  0  0
  7  9  1  0  0  0  0
  8 31  1  0  0  0  0
  8 32  1  0  0  0  0
  8 33  1  0  0  0  0
  9 10  1  0  0  0  0
  9 34  1  0  0  0  0
  9 35  1  0  0  0  0
 10 11  1  0  0  0  0
 10 12  1  0  0  0  0
 10 36  1  0  0  0  0
 11 37  1  0  0  0  0
 12 13  1  0  0  0  0
 12 38  1  0  0  0  0
 12 39  1  0  0  0  0
 13 23  1  0  0  0  0
 13 14  1  0  0  0  0
 14 15  2  0  0  0  0
 14 40  1  0  0  0  0
 15 16  1  0  0  0  0
 15 49  1  0  0  0  0
 16 23  2  0  0  0  0
 16 17  1  0  0  0  0
 17 18  2  0  0  0  0
 17 41  1  0  0  0  0
 18 19  1  0  0  0  0
 18 20  1  0  0  0  0
 19 42  1  0  0  0  0
 19 43  1  0  0  0  0
 19 44  1  0  0  0  0
 20 21  1  0  0  0  0
 20 22  2  0  0  0  0
 21 45  1  0  0  0  0
 21 46  1  0  0  0  0
 21 47  1  0  0  0  0
 22 23  1  0  0  0  0
 22 48  1  0  0  0  0
M  CHG  1  15   1
M  END
> <s_m_source_file>
AV-unprocessed.smi

> <i_m_source_file_index>
1225

> <i_lp_mmshare_version>
43012

> <i_f3d_flags>
0

> <s_epik_input>
W0NIM11jMW5bY0hdYyhzMSlbQ0gyXU4oW0NIM10pW0NIMl1bQ0BIXShbT0hdKVtDSDJdbihbY0hdbjIpYyhjMjMpW2NIXWMoW0NIM10pYyhbY0hdMylbQ0gzXQ==

> <s_epik_cmdline>
J2VwaWtfcHl0aG9uJywgJy1waCcsICc3LjAnLCAnLXRuJywgJzgnLCAnLW1hJywgJzIwMCcsICctbWV0YWxfYmluZGluZycsICctaW1hZScsICc8aW5maWxlLm1hZT4nLCAnLW9tYWUnLCAnPG91dGZpbGUubWFlPic=

> <r_epik_Ionization_Penalty>
1.25968

> <r_epik_Ionization_Penalty_Charging>
1.21782

> <r_epik_Ionization_Penalty_Neutral>
0.0418565

> <r_epik_State_Penalty>
1.29962

> <r_epik_Charging_Adjusted_Penalty>
2.51745

> <i_epik_Tot_Q>
1

> <i_epik_Tot_abs_Q>
1

> <r_epik_Metal_State_Penalty>
1.36802

> <b_epik_Metal_Only>
0

> <s_lp_Force_Field>
OPLS_2005

> <r_lp_Energy>
27.2567

> <b_lp_Chiralities_Consistent>
1

> <s_lp_Variant>
AV-unprocessed.smi:1225-4

> <Gold.Version>
5.8.1

> <Gold.Id.Protein>
6NUR|6NUR_protein|mol2

> <Gold.PLP.Fitness>
51.8831

> <Gold.PLP.PLP>
-42.7616

> <Gold.PLP.part.hbond>
-2.2125

> <Gold.PLP.part.metal>
0.0000

> <Gold.PLP.part.buried>
-3.6123

> <Gold.PLP.part.nonpolar>
-33.8965

> <Gold.PLP.part.repulsive>
0.1039

> <Gold.PLP.ligand.clash>
0.0000

> <Gold.PLP.ligand.torsion>
1.1651

> <Gold.PLP.Chemscore.Hbond>
2.8630

> <Gold.PLP.Chemscore.CHOScore>
0.9014

> <Gold.PLP.Chemscore.Metal>
0.0000

> <Gold.Chemscore.Hbonds>
donor molecule, donor type, donor heavy atom, donor atom, acceptor molecule, acceptor atom, score
      L1  H    15    49       P1  8028  1.73
      P1  H  7989  7998       L1    11  0.99
      L1  C     4    28       P1  7948  0.89

> <Gold.PLP.Chemscore.Internal.Correction>
0.1587

> <Gold.Rescore>
     Score         DG    S(hbond)    S(metal)    S(lipo)     H(rot)  DE(clash)    DE(int)     intcor
     17.36     -18.53       1.44        0.00     122.14       2.36       0.13       1.04       ----

> <Gold.Chemscore.Fitness>
17.3550

> <Gold.Chemscore.DG>
-18.5253

> <Gold.Chemscore.ZeroCoef>
-5.4800

> <Gold.Chemscore.Hbond>
1.4398

> <Gold.Chemscore.Metal>
0.0000

> <Gold.Chemscore.Lipo>
122.1406

> <Gold.Chemscore.Internal_Hbond>
0.0000

> <Gold.Chemscore.DEClash>
0.1318

> <Gold.Chemscore.DEInternal>
1.0384

> <Gold.Chemscore.Rot>
2.3649

> <Gold.Chemscore.Internal.Correction>
   9.000000E+99

> <Gold.Chemscore.Hbonds>
donor molecule, donor type, donor heavy atom, donor atom, acceptor molecule, acceptor atom, score
      L1  H    15    49       P1  8028  0.83
      P1  H  7989  7998       L1    11  0.41

> <Gold.Chemscore.Hbond.Weighted>
-4.8089

> <Gold.Chemscore.Metal.Weighted>
-0.0000

> <Gold.Chemscore.Lipo.Weighted>
-14.2904

> <Gold.Chemscore.Internal_Hbond.Weighted>
0.0000

> <Gold.Chemscore.DEClash.Weighted>
0.1318

> <Gold.Chemscore.DEInternal.Weighted>
1.0384

> <Gold.Chemscore.Rot.Weighted>
6.0540

> <Gold.Chemscore.Internal.Correction.Weighted>
   9.000000E+99

> <Gold.Protein.RotatedTorsions>
[ 6907 6896 6895 6894 ] final -172.41 input  -60.11 | X-H torsion
[ 7974 7965 7964 7962 ] final  -84.47 input  175.53 | X-H torsion
[ 8008 7997 7996 7995 ] final   16.39 input   59.86 | X-H torsion
[ 10167 10162 10161 10158 ] final -161.82 input  -65.29 | X-H torsion
[ 10718 10713 10712 10709 ] final  156.67 input   66.30 | X-H torsion
[ 10763 10752 10751 10750 ] final  -72.27 input  -60.55 | X-H torsion
[ 11005 11000 10999 10996 ] final   50.11 input  -57.11 | X-H torsion

> <Gold.Protein.ActiveResidues>
 VAL166  LYS551  ARG553  GLY616  TRP617  ASP618  TYR619  PRO620  LYS621  CYS622 
 ASP623  PHE694  ASN695  SER759  ASP760  ASP761  ALA762  ILE779  LEU786  VAL792 
 PHE793  MET794  SER795  GLU796  ALA797  LYS798  CYS799  TRP800  GLU811  SER814 

> <Gold.Protein.RotatedAtoms>
  151.5396  133.3435  159.2932 H   0  0  0  0  0  0  0  0  0  0  0  0  # atno 6907 bound_to 6896
  150.8544  134.7880  159.7045 H   0  0  0  0  0  0  0  0  0  0  0  0  # atno 6908 bound_to 6896
  152.4581  134.5254  159.9847 H   0  0  0  0  0  0  0  0  0  0  0  0  # atno 6909 bound_to 6896
  145.5062  140.9543  143.1732 H   0  0  0  0  0  0  0  0  0  0  0  0  # atno 7974 bound_to 7965
  154.8762  140.2966  155.5452 H   0  0  0  0  0  0  0  0  0  0  0  0  # atno 8008 bound_to 7997
  156.3022  140.2451  156.3692 H   0  0  0  0  0  0  0  0  0  0  0  0  # atno 8009 bound_to 7997
  154.8764  140.0399  157.1745 H   0  0  0  0  0  0  0  0  0  0  0  0  # atno 8010 bound_to 7997
  139.6437  144.0212  152.2111 H   0  0  0  0  0  0  0  0  0  0  0  0  # atno 10167 bound_to 10162
  157.2019  131.0678  151.2020 H   0  0  0  0  0  0  0  0  0  0  0  0  # atno 10718 bound_to 10713
  154.4433  135.5935  153.6143 H   0  0  0  0  0  0  0  0  0  0  0  0  # atno 10763 bound_to 10752
  152.9807  135.6003  154.3695 H   0  0  0  0  0  0  0  0  0  0  0  0  # atno 10764 bound_to 10752
  154.3548  135.2841  155.2331 H   0  0  0  0  0  0  0  0  0  0  0  0  # atno 10765 bound_to 10752
  140.1046  134.5036  155.8732 H   0  0  0  0  0  0  0  0  0  0  0  0  # atno 11005 bound_to 11000
  144.7752  139.6645  143.7178 LP  0  0  0  0  0  0  0  0  0  0  0  0  # atno 17320 bound_to 7965
  146.2195  139.5610  142.9628 LP  0  0  0  0  0  0  0  0  0  0  0  0  # atno 17321 bound_to 7965
  139.9908  144.6363  150.7816 LP  0  0  0  0  0  0  0  0  0  0  0  0  # atno 17342 bound_to 10162
  140.7504  143.2954  151.3218 LP  0  0  0  0  0  0  0  0  0  0  0  0  # atno 17343 bound_to 10162
  157.3759  130.7205  149.6596 LP  0  0  0  0  0  0  0  0  0  0  0  0  # atno 17370 bound_to 10713
  155.9699  130.4186  150.4335 LP  0  0  0  0  0  0  0  0  0  0  0  0  # atno 17371 bound_to 10713
  141.2115  133.6707  156.6585 LP  0  0  0  0  0  0  0  0  0  0  0  0  # atno 17394 bound_to 11000
  140.3174  134.8036  157.4225 LP  0  0  0  0  0  0  0  0  0  0  0  0  # atno 17395 bound_to 11000

$$$$
