#       Name:                AV-unprocessed.smi:976
#       Creating user name   scv26
#       Creation time:       Fri Mar 27 02:20:54 2020


#       File generated by GOLD software.
#

@<TRIPOS>MOLECULE
AV-unprocessed.smi:976
    49    50     1
SMALL
NO_CHARGES


@<TRIPOS>ATOM
      1 ****         1.0446  -2.3656   2.7794 C.3            1 S1                 0.0000
      2 ****         1.5315  -1.5458   1.5753 C.3            1 S1                 0.0000
      3 ****         2.9568  -1.5434   1.6054 O.3            1 S1                 0.0000
      4 ****         3.5961  -1.0660   0.4254 C.3            1 S1                 0.0000
      5 ****         5.1149  -1.2152   0.5743 C.3            1 S1                 0.0000
      6 ****         5.7105  -0.7554  -0.5254 F              1 S1                 0.0000
      7 ****         5.5475  -0.5119   1.6205 F              1 S1                 0.0000
      8 ****         5.4389  -2.4983   0.7316 F              1 S1                 0.0000
      9 ****         0.9921  -0.1069   1.6224 C.2            1 S1                 0.0000
     10 ****         1.1498   0.5733   2.6362 O.2            1 S1                 0.0000
     11 ****         0.3625   0.3161   0.5115 N.am           1 S1                 0.0000
     12 ****        -0.2378   1.5835   0.2651 C.ar           1 S1                 0.0000
     13 ****         0.2594   2.7803   0.8356 C.ar           1 S1                 0.0000
     14 ****        -0.3527   4.0033   0.5083 C.ar           1 S1                 0.0000
     15 ****        -1.4354   3.9889  -0.3881 C.ar           1 S1                 0.0000
     16 ****        -1.9114   2.8601  -0.9516 N.ar           1 S1                 0.0000
     17 ****        -1.3299   1.6759  -0.6398 C.ar           1 S1                 0.0000
     18 ****        -1.8667   0.5144  -1.2306 N.3            1 S1                 0.0000
     19 ****        -2.7103  -0.2614  -0.3289 C.3            1 S1                 0.0000
     20 ****        -3.0330  -1.6273  -0.9576 C.3            1 S1                 0.0000
     21 ****        -3.6313  -1.4378  -2.2369 O.3            1 S1                 0.0000
     22 ****        -2.7710  -0.7425  -3.1352 C.3            1 S1                 0.0000
     23 ****        -2.4444   0.6482  -2.5644 C.3            1 S1                 0.0000
     24 ****        -0.0446  -2.3975   2.8230 H              1 S1                 0.0000
     25 ****         1.4066  -1.9507   3.7210 H              1 S1                 0.0000
     26 ****         1.4015  -3.3937   2.7156 H              1 S1                 0.0000
     27 ****         1.1894  -2.0416   0.6645 H              1 S1                 0.0000
     28 ****         3.2529  -1.6351  -0.4397 H              1 S1                 0.0000
     29 ****         3.3519  -0.0187   0.2439 H              1 S1                 0.0000
     30 ****         0.2174  -0.3779  -0.2076 H              1 S1                 0.0000
     31 ****         1.1096   2.7833   1.5003 H              1 S1                 0.0000
     32 ****         0.0059   4.9314   0.9282 H              1 S1                 0.0000
     33 ****        -1.9290   4.9085  -0.6653 H              1 S1                 0.0000
     34 ****        -2.2245  -0.4032   0.6365 H              1 S1                 0.0000
     35 ****        -3.6325   0.2903  -0.1418 H              1 S1                 0.0000
     36 ****        -2.1306  -2.2337  -1.0519 H              1 S1                 0.0000
     37 ****        -3.7235  -2.1800  -0.3207 H              1 S1                 0.0000
     38 ****        -1.8596  -1.3187  -3.3028 H              1 S1                 0.0000
     39 ****        -3.2688  -0.6456  -4.1001 H              1 S1                 0.0000
     40 ****        -3.3548   1.2472  -2.5137 H              1 S1                 0.0000
     41 ****        -1.7468   1.1686  -3.2218 H              1 S1                 0.0000
     42 ****         3.2628  -2.4823   1.7629 LP             1 S1                 0.0000
     43 ****         3.2475  -0.9657   2.3681 LP             1 S1                 0.0000
     44 ****         1.6277   0.1897   3.4264 LP             1 S1                 0.0000
     45 ****         0.7999   1.5095   2.6696 LP             1 S1                 0.0000
     46 ****        -2.6810   2.8960  -1.5892 LP             1 S1                 0.0000
     47 ****        -1.0397  -0.0205  -1.4031 LP             1 S1                 0.0000
     48 ****        -4.4733  -0.9102  -2.1238 LP             1 S1                 0.0000
     49 ****        -3.8486  -2.3327  -2.6267 LP             1 S1                 0.0000
@<TRIPOS>BOND
    1    1    2 1     
    2    1   24 1     
    3    1   25 1     
    4    1   26 1     
    5    2    3 1     
    6    2    9 1     
    7    2   27 1     
    8    3    4 1     
    9    4    5 1     
   10    4   28 1     
   11    4   29 1     
   12    5    6 1     
   13    5    7 1     
   14    5    8 1     
   15    9   10 2     
   16    9   11 am    
   17   11   12 1     
   18   11   30 1     
   19   12   17 ar    
   20   12   13 ar    
   21   13   14 ar    
   22   13   31 1     
   23   14   15 ar    
   24   14   32 1     
   25   15   16 ar    
   26   15   33 1     
   27   16   17 ar    
   28   17   18 1     
   29   18   23 1     
   30   18   19 1     
   31   19   20 1     
   32   19   34 1     
   33   19   35 1     
   34   20   21 1     
   35   20   36 1     
   36   20   37 1     
   37   21   22 1     
   38   22   23 1     
   39   22   38 1     
   40   22   39 1     
   41   23   40 1     
   42   23   41 1     
   43    3   42 1     
   44    3   43 1     
   45   10   44 1     
   46   10   45 1     
   47   16   46 1     
   48   18   47 1     
   49   21   48 1     
   50   21   49 1     
@<TRIPOS>SUBSTRUCTURE
      1 S1             1
@<TRIPOS>SET
LONE_PAIRS      STATIC     ATOMS    <user>   **** ""
8 42 43 44 45 46 47 48 49
DONOR_HYDROGENS      STATIC     ATOMS    <user>   **** ""
1 30
ATOM$BLUE        STATIC     ATOMS    COLORGROUP SYSTEM
8 42 43 44 45 46 47 48 49
ATOM$RED        STATIC     ATOMS    COLORGROUP SYSTEM
1 30
