AV-unprocessed.smi:1268|AV-procd|sdf|5326|dock6
  -GOLD-   22720 4453D 1   1.00000     0.00000
 Structure written by MMmdl.
 39 40  0  0  0  0  0  0  0  0  3 V2000
  150.6979  139.9973  157.2856 O   0  0  0  0  0  0  0  0  0  0  0  0
  151.8948  139.7590  157.1054 C   0  0  0  0  0  0  0  0  0  0  0  0
  152.3076  139.2675  155.9282 N   0  0  0  0  0  0  0  0  0  0  0  0
  151.4543  138.9773  154.7803 C   0  0  0  0  0  0  0  0  0  0  0  0
  151.2851  137.4598  154.5604 C   0  0  1  0  0  0  0  0  0  0  0  0
  152.3404  136.7970  155.2290 O   0  0  0  0  0  0  0  0  0  0  0  0
  149.9596  136.9463  155.1558 C   0  0  0  0  0  0  0  0  0  0  0  0
  149.4614  135.7294  154.4652 N   0  3  0  0  0  0  0  0  0  0  0  0
  148.0861  135.3399  154.8791 C   0  0  0  0  0  0  0  0  0  0  0  0
  147.5677  134.1604  154.0392 C   0  0  0  0  0  0  0  0  0  0  0  0
  148.5214  132.9619  154.1267 C   0  0  0  0  0  0  0  0  0  0  0  0
  149.9402  133.3924  153.7322 C   0  0  0  0  0  0  0  0  0  0  0  0
  150.4088  134.5899  154.5758 C   0  0  0  0  0  0  0  0  0  0  0  0
  152.8941  139.9515  157.9948 N   0  5  0  0  0  0  0  0  0  0  0  0
  152.8152  140.9514  158.8880 C   0  0  0  0  0  0  0  0  0  0  0  0
  152.1119  142.0688  158.6717 N   0  0  0  0  0  0  0  0  0  0  0  0
  152.1633  142.9719  159.7351 C   0  0  0  0  0  0  0  0  0  0  0  0
  152.9178  142.5285  160.7887 C   0  0  0  0  0  0  0  0  0  0  0  0
  153.5890  140.9535  160.4754 S   0  0  0  0  0  0  0  0  0  0  0  0
  153.2944  139.0808  155.8250 H   0  0  0  0  0  0  0  0  0  0  0  0
  150.4884  139.4665  154.9118 H   0  0  0  0  0  0  0  0  0  0  0  0
  151.9048  139.4383  153.8995 H   0  0  0  0  0  0  0  0  0  0  0  0
  151.3361  137.2270  153.4974 H   0  0  0  0  0  0  0  0  0  0  0  0
  152.1507  136.7980  156.1556 H   0  0  0  0  0  0  0  0  0  0  0  0
  150.1137  136.7393  156.2163 H   0  0  0  0  0  0  0  0  0  0  0  0
  149.1917  137.7202  155.1081 H   0  0  0  0  0  0  0  0  0  0  0  0
  148.0856  135.0735  155.9372 H   0  0  0  0  0  0  0  0  0  0  0  0
  147.4005  136.1792  154.7677 H   0  0  0  0  0  0  0  0  0  0  0  0
  146.5726  133.8700  154.3776 H   0  0  0  0  0  0  0  0  0  0  0  0
  147.4623  134.4709  152.9987 H   0  0  0  0  0  0  0  0  0  0  0  0
  148.5247  132.5655  155.1429 H   0  0  0  0  0  0  0  0  0  0  0  0
  148.1766  132.1567  153.4772 H   0  0  0  0  0  0  0  0  0  0  0  0
  150.6300  132.5567  153.8543 H   0  0  0  0  0  0  0  0  0  0  0  0
  149.9614  133.6590  152.6745 H   0  0  0  0  0  0  0  0  0  0  0  0
  151.3980  134.8986  154.2352 H   0  0  0  0  0  0  0  0  0  0  0  0
  150.5094  134.2990  155.6227 H   0  0  0  0  0  0  0  0  0  0  0  0
  151.6304  143.9078  159.6570 H   0  0  0  0  0  0  0  0  0  0  0  0
  153.1179  143.0274  161.7247 H   0  0  0  0  0  0  0  0  0  0  0  0
  149.4195  135.9658  153.4837 H   0  0  0  0  0  0  0  0  0  0  0  0
  1  2  2  0  0  0  0
  2  3  1  0  0  0  0
  2 14  1  0  0  0  0
  3  4  1  0  0  0  0
  3 20  1  0  0  0  0
  4  5  1  0  0  0  0
  4 21  1  0  0  0  0
  4 22  1  0  0  0  0
  5  6  1  0  0  0  0
  5  7  1  0  0  0  0
  5 23  1  0  0  0  0
  6 24  1  0  0  0  0
  7  8  1  0  0  0  0
  7 25  1  0  0  0  0
  7 26  1  0  0  0  0
  8 13  1  0  0  0  0
  8  9  1  0  0  0  0
  8 39  1  0  0  0  0
  9 10  1  0  0  0  0
  9 27  1  0  0  0  0
  9 28  1  0  0  0  0
 10 11  1  0  0  0  0
 10 29  1  0  0  0  0
 10 30  1  0  0  0  0
 11 12  1  0  0  0  0
 11 31  1  0  0  0  0
 11 32  1  0  0  0  0
 12 13  1  0  0  0  0
 12 33  1  0  0  0  0
 12 34  1  0  0  0  0
 13 35  1  0  0  0  0
 13 36  1  0  0  0  0
 14 15  1  0  0  0  0
 15 19  1  0  0  0  0
 15 16  2  0  0  0  0
 16 17  1  0  0  0  0
 17 18  2  0  0  0  0
 17 37  1  0  0  0  0
 18 19  1  0  0  0  0
 18 38  1  0  0  0  0
M  CHG  1   8   1
M  CHG  1  14  -1
M  END
> <s_m_source_file>
AV-unprocessed.smi

> <i_m_source_file_index>
1268

> <i_lp_mmshare_version>
43012

> <i_f3d_flags>
0

> <s_epik_input>
czFbY0hdW2NIXW5jMVtOSF1DKD1PKVtOSF1bQ0gyXVtDQEhdKFtPSF0pW0NIMl1OMltDSDJdW0NIMl1bQ0gyXVtDSDJdW0NIMl0y

> <s_epik_cmdline>
J2VwaWtfcHl0aG9uJywgJy1waCcsICc3LjAnLCAnLXRuJywgJzgnLCAnLW1hJywgJzIwMCcsICctbWV0YWxfYmluZGluZycsICctaW1hZScsICc8aW5maWxlLm1hZT4nLCAnLW9tYWUnLCAnPG91dGZpbGUubWFlPic=

> <r_lp_tautomer_probability>
0.999

> <r_epik_Ionization_Penalty>
6.36291

> <r_epik_Ionization_Penalty_Charging>
5.4816

> <r_epik_Ionization_Penalty_Neutral>
0.881305

> <r_epik_State_Penalty>
5.4805

> <r_epik_Charging_Adjusted_Penalty>
10.9621

> <i_epik_Tot_Q>
0

> <i_epik_Tot_abs_Q>
2

> <r_epik_Metal_State_Penalty>
1.48871

> <b_epik_Metal_Only>
1

> <s_lp_Force_Field>
OPLS_2005

> <r_lp_Energy>
8.43067

> <b_lp_Chiralities_Consistent>
1

> <s_lp_Variant>
AV-unprocessed.smi:1268-4

> <Gold.Version>
5.8.1

> <Gold.Id.Protein>
6NUR|6NUR_protein|mol2

> <Gold.PLP.Fitness>
46.6750

> <Gold.PLP.PLP>
-34.2292

> <Gold.PLP.part.hbond>
-3.0000

> <Gold.PLP.part.metal>
0.0000

> <Gold.PLP.part.buried>
-4.2482

> <Gold.PLP.part.nonpolar>
-26.9434

> <Gold.PLP.part.repulsive>
0.1822

> <Gold.PLP.ligand.clash>
0.0000

> <Gold.PLP.ligand.torsion>
1.3233

> <Gold.PLP.Chemscore.Hbond>
5.0000

> <Gold.PLP.Chemscore.CHOScore>
0.0000

> <Gold.PLP.Chemscore.Metal>
0.0000

> <Gold.Chemscore.Hbonds>
donor molecule, donor type, donor heavy atom, donor atom, acceptor molecule, acceptor atom, score
      L1  H     8    39       P1  7948  2.00
      P1  H  7997  8010       L1    14  2.00
      P1  H 10752 10764       L1     6  0.72

> <Gold.PLP.Chemscore.Internal.Correction>
0.0924

> <Gold.Rescore>
     Score         DG    S(hbond)    S(metal)    S(lipo)     H(rot)  DE(clash)    DE(int)     intcor
     13.68     -16.57       2.71        0.00      71.61       2.48       0.01       2.87       ----

> <Gold.Chemscore.Fitness>
13.6819

> <Gold.Chemscore.DG>
-16.5665

> <Gold.Chemscore.ZeroCoef>
-5.4800

> <Gold.Chemscore.Hbond>
2.7142

> <Gold.Chemscore.Metal>
0.0000

> <Gold.Chemscore.Lipo>
71.6103

> <Gold.Chemscore.Internal_Hbond>
0.0000

> <Gold.Chemscore.DEClash>
0.0141

> <Gold.Chemscore.DEInternal>
2.8705

> <Gold.Chemscore.Rot>
2.4834

> <Gold.Chemscore.Internal.Correction>
   9.000000E+99

> <Gold.Chemscore.Hbonds>
donor molecule, donor type, donor heavy atom, donor atom, acceptor molecule, acceptor atom, score
      L1  H     8    39       P1  7948  0.50
      P1  H  7997  8010       L1    14  0.25
      P1  H 10752 10764       L1     6  0.63

> <Gold.Chemscore.Hbond.Weighted>
-9.0656

> <Gold.Chemscore.Metal.Weighted>
-0.0000

> <Gold.Chemscore.Lipo.Weighted>
-8.3784

> <Gold.Chemscore.Internal_Hbond.Weighted>
0.0000

> <Gold.Chemscore.DEClash.Weighted>
0.0141

> <Gold.Chemscore.DEInternal.Weighted>
2.8705

> <Gold.Chemscore.Rot.Weighted>
6.3575

> <Gold.Chemscore.Internal.Correction.Weighted>
   9.000000E+99

> <Gold.Protein.RotatedTorsions>
[ 6907 6896 6895 6894 ] final  145.05 input  -60.11 | X-H torsion
[ 7974 7965 7964 7962 ] final   35.53 input  175.53 | X-H torsion
[ 8008 7997 7996 7995 ] final   51.07 input   59.86 | X-H torsion
[ 10167 10162 10161 10158 ] final   65.41 input  -65.29 | X-H torsion
[ 10718 10713 10712 10709 ] final -144.59 input   66.30 | X-H torsion
[ 10763 10752 10751 10750 ] final  -50.65 input  -60.55 | X-H torsion
[ 11005 11000 10999 10996 ] final  -11.72 input  -57.11 | X-H torsion

> <Gold.Protein.ActiveResidues>
 VAL166  LYS551  ARG553  GLY616  TRP617  ASP618  TYR619  PRO620  LYS621  CYS622 
 ASP623  PHE694  ASN695  SER759  ASP760  ASP761  ALA762  ILE779  LEU786  VAL792 
 PHE793  MET794  SER795  GLU796  ALA797  LYS798  CYS799  TRP800  GLU811  SER814 

> <Gold.Protein.RotatedAtoms>
  152.1859  133.4739  159.4982 H   0  0  0  0  0  0  0  0  0  0  0  0  # atno 6907 bound_to 6896
  150.6942  134.1774  159.4245 H   0  0  0  0  0  0  0  0  0  0  0  0  # atno 6908 bound_to 6896
  151.9687  135.0087  160.0602 H   0  0  0  0  0  0  0  0  0  0  0  0  # atno 6909 bound_to 6896
  146.1276  139.6131  142.9248 H   0  0  0  0  0  0  0  0  0  0  0  0  # atno 7974 bound_to 7965
  155.4292  140.3450  155.4278 H   0  0  0  0  0  0  0  0  0  0  0  0  # atno 8008 bound_to 7997
  156.1347  140.1524  156.9044 H   0  0  0  0  0  0  0  0  0  0  0  0  # atno 8009 bound_to 7997
  154.4922  140.0838  156.7599 H   0  0  0  0  0  0  0  0  0  0  0  0  # atno 8010 bound_to 7997
  140.1116  144.4813  150.6975 H   0  0  0  0  0  0  0  0  0  0  0  0  # atno 10167 bound_to 10162
  156.3719  130.7792  151.1974 H   0  0  0  0  0  0  0  0  0  0  0  0  # atno 10718 bound_to 10713
  154.1138  135.6545  153.4890 H   0  0  0  0  0  0  0  0  0  0  0  0  # atno 10763 bound_to 10752
  153.0248  135.5254  154.7165 H   0  0  0  0  0  0  0  0  0  0  0  0  # atno 10764 bound_to 10752
  154.6353  135.2981  155.0138 H   0  0  0  0  0  0  0  0  0  0  0  0  # atno 10765 bound_to 10752
  140.7582  133.8537  155.9102 H   0  0  0  0  0  0  0  0  0  0  0  0  # atno 11005 bound_to 11000
  145.5331  141.0426  143.2372 LP  0  0  0  0  0  0  0  0  0  0  0  0  # atno 17320 bound_to 7965
  144.7658  139.6849  143.7215 LP  0  0  0  0  0  0  0  0  0  0  0  0  # atno 17321 bound_to 7965
  140.6922  143.2383  151.5098 LP  0  0  0  0  0  0  0  0  0  0  0  0  # atno 17342 bound_to 10162
  139.5616  144.2142  152.1700 LP  0  0  0  0  0  0  0  0  0  0  0  0  # atno 17343 bound_to 10162
  157.7484  131.0369  150.4433 LP  0  0  0  0  0  0  0  0  0  0  0  0  # atno 17370 bound_to 10713
  156.4662  130.4042  149.6546 LP  0  0  0  0  0  0  0  0  0  0  0  0  # atno 17371 bound_to 10713
  140.9688  134.1559  157.4594 LP  0  0  0  0  0  0  0  0  0  0  0  0  # atno 17394 bound_to 11000
  139.8775  134.9971  156.5829 LP  0  0  0  0  0  0  0  0  0  0  0  0  # atno 17395 bound_to 11000

$$$$
