#       Name:                AV-unprocessed.smi:510
#       Creating user name   scv26
#       Creation time:       Thu Mar 26 23:22:53 2020


#       File generated by GOLD software.
#

@<TRIPOS>MOLECULE
AV-unprocessed.smi:510
    37    38     1
SMALL
NO_CHARGES


@<TRIPOS>ATOM
      1 ****        -3.5208  -0.3554  -1.5517 C.3            1 S1                 0.0000
      2 ****        -2.1052  -0.3732  -1.5213 O.3            1 S1                 0.0000
      3 ****        -1.5745  -1.6865  -1.5946 C.3            1 S1                 0.0000
      4 ****        -0.0404  -1.6365  -1.5497 C.3            1 S1                 0.0000
      5 ****         0.4526  -0.9799  -0.3431 N.pl3          1 S1                 0.0000
      6 ****         0.6921  -1.5448   0.8664 C.2            1 S1                 0.0000
      7 ****         0.4733  -2.8993   1.0709 N.pl3          1 S1                 0.0000
      8 ****         1.1377  -0.7078   1.8055 N.2            1 S1                 0.0000
      9 ****         1.1818   0.5053   1.1317 C.2            1 S1                 0.0000
     10 ****         0.7751   0.3644  -0.1559 C.2            1 S1                 0.0000
     11 ****         0.7175   1.4941  -1.0919 C.2            1 S1                 0.0000
     12 ****         0.3473   1.3911  -2.2591 O.2            1 S1                 0.0000
     13 ****         1.1144   2.6641  -0.5347 N.am           1 S1                 0.0000
     14 ****         1.5368   2.8746   0.7499 C.2            1 S1                 0.0000
     15 ****         1.8675   4.0057   1.1042 O.2            1 S1                 0.0000
     16 ****         1.5710   1.7927   1.5949 N.am           1 S1                 0.0000
     17 ****         2.0011   1.9114   2.9896 C.3            1 S1                 0.0000
     18 ****         1.0952   3.4744  -1.1366 H              1 S1                 0.0000
     19 ****        -3.8752   0.6735  -1.4908 H              1 S1                 0.0000
     20 ****        -3.9402  -0.9065  -0.7091 H              1 S1                 0.0000
     21 ****        -3.9006  -0.7881  -2.4781 H              1 S1                 0.0000
     22 ****        -1.9508  -2.2852  -0.7636 H              1 S1                 0.0000
     23 ****        -1.8997  -2.1697  -2.5170 H              1 S1                 0.0000
     24 ****         0.3662  -2.6469  -1.5956 H              1 S1                 0.0000
     25 ****         0.3511  -1.1253  -2.4278 H              1 S1                 0.0000
     26 ****         0.1325  -3.4939   0.3290 H              1 S1                 0.0000
     27 ****         0.6445  -3.3341   1.9658 H              1 S1                 0.0000
     28 ****         2.2923   2.9209   3.2809 H              1 S1                 0.0000
     29 ****         2.8564   1.2599   3.1720 H              1 S1                 0.0000
     30 ****         1.1952   1.6001   3.6550 H              1 S1                 0.0000
     31 ****        -1.7979   0.0494  -0.6687 LP             1 S1                 0.0000
     32 ****        -1.7615   0.1550  -2.2978 LP             1 S1                 0.0000
     33 ****         1.3791  -0.9048   2.7557 LP             1 S1                 0.0000
     34 ****         0.0643   0.5014  -2.6172 LP             1 S1                 0.0000
     35 ****         0.3290   2.1971  -2.8508 LP             1 S1                 0.0000
     36 ****         1.8267   4.7650   0.4547 LP             1 S1                 0.0000
     37 ****         2.1770   4.1656   2.0416 LP             1 S1                 0.0000
@<TRIPOS>BOND
    1    1    2 1     
    2    1   19 1     
    3    1   20 1     
    4    1   21 1     
    5    2    3 1     
    6    3    4 1     
    7    3   22 1     
    8    3   23 1     
    9    4    5 1     
   10    4   24 1     
   11    4   25 1     
   12    5   10 1     
   13    5    6 1     
   14    6    7 1     
   15    6    8 2     
   16    7   26 1     
   17    7   27 1     
   18    8    9 1     
   19    9   16 1     
   20    9   10 2     
   21   10   11 1     
   22   11   12 2     
   23   11   13 1     
   24   13   18 1     
   25   13   14 1     
   26   14   15 2     
   27   14   16 1     
   28   16   17 1     
   29   17   28 1     
   30   17   29 1     
   31   17   30 1     
   32    2   31 1     
   33    2   32 1     
   34    8   33 1     
   35   12   34 1     
   36   12   35 1     
   37   15   36 1     
   38   15   37 1     
@<TRIPOS>SUBSTRUCTURE
      1 S1             1
@<TRIPOS>SET
LONE_PAIRS      STATIC     ATOMS    <user>   **** ""
7 31 32 33 34 35 36 37
DONOR_HYDROGENS      STATIC     ATOMS    <user>   **** ""
3 26 27 18
ATOM$BLUE        STATIC     ATOMS    COLORGROUP SYSTEM
7 31 32 33 34 35 36 37
ATOM$RED        STATIC     ATOMS    COLORGROUP SYSTEM
3 26 27 18
