AV-unprocessed.smi:2061|AV-procd|sdf|8376|dock4
  -GOLD-   2272011 53D 1   1.00000     0.00000
 Structure written by MMmdl.
 44 45  0  0  0  0  0  0  0  0  2 V2000
  143.2938  135.4096  163.0047 C   0  0  0  0  0  0  0  0  0  0  0  0
  144.7299  135.2250  162.6508 C   0  0  0  0  0  0  0  0  0  0  0  0
  145.6508  136.0395  162.0553 C   0  0  0  0  0  0  0  0  0  0  0  0
  146.8241  135.2371  162.0268 C   0  0  0  0  0  0  0  0  0  0  0  0
  148.0123  135.5951  161.5162 N   0  5  0  0  0  0  0  0  0  0  0  0
  148.0749  136.4504  160.4696 C   0  0  0  0  0  0  0  0  0  0  0  0
  147.1795  137.2090  160.0904 O   0  0  0  0  0  0  0  0  0  0  0  0
  149.2464  136.4208  159.8179 N   0  0  0  0  0  0  0  0  0  0  0  0
  149.5932  137.2161  158.6419 C   0  0  0  0  0  0  0  0  0  0  0  0
  151.1245  137.2826  158.3655 C   0  0  2  0  0  0  0  0  0  0  0  0
  151.8575  137.6040  159.6933 C   0  0  0  0  0  0  0  0  0  0  0  0
  151.4863  138.2167  157.2726 N   0  0  0  0  0  0  0  0  0  0  0  0
  151.0335  137.7433  155.9592 C   0  0  0  0  0  0  0  0  0  0  0  0
  151.3702  138.7057  154.8026 C   0  0  2  0  0  0  0  0  0  0  0  0
  152.8593  138.6984  154.4167 C   0  0  0  0  0  0  0  0  0  0  0  0
  150.9027  140.0201  155.0963 O   0  0  0  0  0  0  0  0  0  0  0  0
  151.3355  140.5391  156.3489 C   0  0  1  0  0  0  0  0  0  0  0  0
  150.6971  141.9195  156.5362 C   0  0  0  0  0  0  0  0  0  0  0  0
  150.9458  139.5643  157.4747 C   0  0  0  0  0  0  0  0  0  0  0  0
  146.6275  134.0356  162.5433 N   0  0  0  0  0  0  0  0  0  0  0  0
  145.2887  134.0221  162.9521 O   0  0  0  0  0  0  0  0  0  0  0  0
  142.6722  135.3932  162.1096 H   0  0  0  0  0  0  0  0  0  0  0  0
  143.1402  136.3648  163.5067 H   0  0  0  0  0  0  0  0  0  0  0  0
  142.9482  134.6189  163.6712 H   0  0  0  0  0  0  0  0  0  0  0  0
  145.5105  137.0490  161.6995 H   0  0  0  0  0  0  0  0  0  0  0  0
  149.9518  135.7868  160.1632 H   0  0  0  0  0  0  0  0  0  0  0  0
  149.0419  136.7873  157.8063 H   0  0  0  0  0  0  0  0  0  0  0  0
  149.1986  138.2220  158.7865 H   0  0  0  0  0  0  0  0  0  0  0  0
  151.4396  136.2824  158.0645 H   0  0  0  0  0  0  0  0  0  0  0  0
  151.5494  136.9502  160.5084 H   0  0  0  0  0  0  0  0  0  0  0  0
  151.6690  138.6306  160.0087 H   0  0  0  0  0  0  0  0  0  0  0  0
  152.9348  137.4660  159.6160 H   0  0  0  0  0  0  0  0  0  0  0  0
  151.4795  136.7803  155.7178 H   0  0  0  0  0  0  0  0  0  0  0  0
  149.9538  137.5881  155.9855 H   0  0  0  0  0  0  0  0  0  0  0  0
  150.8152  138.3765  153.9238 H   0  0  0  0  0  0  0  0  0  0  0  0
  153.1650  137.7098  154.0734 H   0  0  0  0  0  0  0  0  0  0  0  0
  153.5023  138.9633  155.2557 H   0  0  0  0  0  0  0  0  0  0  0  0
  153.0549  139.4036  153.6086 H   0  0  0  0  0  0  0  0  0  0  0  0
  152.4186  140.6639  156.3361 H   0  0  0  0  0  0  0  0  0  0  0  0
  151.0033  142.3684  157.4815 H   0  0  0  0  0  0  0  0  0  0  0  0
  149.6087  141.8545  156.5330 H   0  0  0  0  0  0  0  0  0  0  0  0
  150.9931  142.5977  155.7356 H   0  0  0  0  0  0  0  0  0  0  0  0
  149.8591  139.5168  157.5632 H   0  0  0  0  0  0  0  0  0  0  0  0
  151.3205  139.9947  158.4005 H   0  0  0  0  0  0  0  0  0  0  0  0
  1  2  1  0  0  0  0
  1 22  1  0  0  0  0
  1 23  1  0  0  0  0
  1 24  1  0  0  0  0
  2 21  1  0  0  0  0
  2  3  2  0  0  0  0
  3  4  1  0  0  0  0
  3 25  1  0  0  0  0
  4  5  1  0  0  0  0
  4 20  2  0  0  0  0
  5  6  1  0  0  0  0
  6  7  2  0  0  0  0
  6  8  1  0  0  0  0
  8  9  1  0  0  0  0
  8 26  1  0  0  0  0
  9 10  1  0  0  0  0
  9 27  1  0  0  0  0
  9 28  1  0  0  0  0
 10 11  1  0  0  0  0
 10 12  1  0  0  0  0
 10 29  1  0  0  0  0
 11 30  1  0  0  0  0
 11 31  1  0  0  0  0
 11 32  1  0  0  0  0
 12 19  1  0  0  0  0
 12 13  1  0  0  0  0
 13 14  1  0  0  0  0
 13 33  1  0  0  0  0
 13 34  1  0  0  0  0
 14 15  1  0  0  0  0
 14 16  1  0  0  0  0
 14 35  1  0  0  0  0
 15 36  1  0  0  0  0
 15 37  1  0  0  0  0
 15 38  1  0  0  0  0
 16 17  1  0  0  0  0
 17 18  1  0  0  0  0
 17 19  1  0  0  0  0
 17 39  1  0  0  0  0
 18 40  1  0  0  0  0
 18 41  1  0  0  0  0
 18 42  1  0  0  0  0
 19 43  1  0  0  0  0
 19 44  1  0  0  0  0
 20 21  1  0  0  0  0
M  CHG  1   5  -1
M  END
> <s_m_source_file>
AV-unprocessed.smi

> <i_m_source_file_index>
2061

> <i_lp_mmshare_version>
43012

> <i_f3d_flags>
0

> <s_epik_input>
W0NIM11jMVtjSF1jKG5vMSlbTkhdQyg9TylbTkhdW0NIMl1bQ0BIXShbQ0gzXSlOMltDSDJdW0NAQEhdKFtDSDNdKU9bQ0BASF0oW0NIM10pW0NIMl0y

> <s_epik_cmdline>
J2VwaWtfcHl0aG9uJywgJy1waCcsICc3LjAnLCAnLXRuJywgJzgnLCAnLW1hJywgJzIwMCcsICctbWV0YWxfYmluZGluZycsICctaW1hZScsICc8aW5maWxlLm1hZT4nLCAnLW9tYWUnLCAnPG91dGZpbGUubWFlPic=

> <r_epik_Ionization_Penalty>
6.88367

> <r_epik_Ionization_Penalty_Charging>
6.57198

> <r_epik_Ionization_Penalty_Neutral>
0.311681

> <r_epik_State_Penalty>
6.77619

> <r_epik_Charging_Adjusted_Penalty>
13.3482

> <i_epik_Tot_Q>
-1

> <i_epik_Tot_abs_Q>
1

> <r_epik_Metal_State_Penalty>
2.70524

> <b_epik_Metal_Only>
1

> <s_lp_Force_Field>
OPLS_2005

> <r_lp_Energy>
24.3932

> <b_lp_Chiralities_Consistent>
1

> <s_lp_Variant>
AV-unprocessed.smi:2061-17

> <Gold.Version>
5.8.1

> <Gold.Id.Protein>
6NUR|6NUR_protein|mol2

> <Gold.PLP.Fitness>
40.7898

> <Gold.PLP.PLP>
-35.8310

> <Gold.PLP.part.hbond>
-2.7847

> <Gold.PLP.part.metal>
0.0000

> <Gold.PLP.part.buried>
-8.1421

> <Gold.PLP.part.nonpolar>
-25.2939

> <Gold.PLP.part.repulsive>
0.3222

> <Gold.PLP.ligand.clash>
0.0000

> <Gold.PLP.ligand.torsion>
0.5474

> <Gold.PLP.Chemscore.Hbond>
2.0000

> <Gold.PLP.Chemscore.CHOScore>
0.0000

> <Gold.PLP.Chemscore.Metal>
0.0000

> <Gold.Chemscore.Hbonds>
donor molecule, donor type, donor heavy atom, donor atom, acceptor molecule, acceptor atom, score
      P1  H  6934  6947       L1     7  1.00
      P1  H  7989  7998       L1    16  0.80

> <Gold.PLP.Chemscore.Internal.Correction>
0.0536

> <Gold.Rescore>
     Score         DG    S(hbond)    S(metal)    S(lipo)     H(rot)  DE(clash)    DE(int)     intcor
     13.82     -15.81       1.75        0.00      71.46       1.52       0.00       1.99       ----

> <Gold.Chemscore.Fitness>
13.8158

> <Gold.Chemscore.DG>
-15.8055

> <Gold.Chemscore.ZeroCoef>
-5.4800

> <Gold.Chemscore.Hbond>
1.7525

> <Gold.Chemscore.Metal>
0.0000

> <Gold.Chemscore.Lipo>
71.4612

> <Gold.Chemscore.Internal_Hbond>
0.0000

> <Gold.Chemscore.DEClash>
0.0009

> <Gold.Chemscore.DEInternal>
1.9889

> <Gold.Chemscore.Rot>
1.5190

> <Gold.Chemscore.Internal.Correction>
   9.000000E+99

> <Gold.Chemscore.Hbonds>
donor molecule, donor type, donor heavy atom, donor atom, acceptor molecule, acceptor atom, score
      P1  H  6934  6947       L1     7  0.88
      P1  H  7989  7998       L1    16  0.11

> <Gold.Chemscore.Hbond.Weighted>
-5.8532

> <Gold.Chemscore.Metal.Weighted>
-0.0000

> <Gold.Chemscore.Lipo.Weighted>
-8.3610

> <Gold.Chemscore.Internal_Hbond.Weighted>
0.0000

> <Gold.Chemscore.DEClash.Weighted>
0.0009

> <Gold.Chemscore.DEInternal.Weighted>
1.9889

> <Gold.Chemscore.Rot.Weighted>
3.8886

> <Gold.Chemscore.Internal.Correction.Weighted>
   9.000000E+99

> <Gold.Protein.RotatedTorsions>
[ 6907 6896 6895 6894 ] final   28.08 input  -60.11 | X-H torsion
[ 7974 7965 7964 7962 ] final  177.26 input  175.53 | X-H torsion
[ 8008 7997 7996 7995 ] final  -28.85 input   59.86 | X-H torsion
[ 10167 10162 10161 10158 ] final -172.23 input  -65.29 | X-H torsion
[ 10718 10713 10712 10709 ] final -103.70 input   66.30 | X-H torsion
[ 10763 10752 10751 10750 ] final  120.89 input  -60.55 | X-H torsion
[ 11005 11000 10999 10996 ] final -154.62 input  -57.11 | X-H torsion

> <Gold.Protein.ActiveResidues>
 VAL166  LYS551  ARG553  GLY616  TRP617  ASP618  TYR619  PRO620  LYS621  CYS622 
 ASP623  PHE694  ASN695  SER759  ASP760  ASP761  ALA762  ILE779  LEU786  VAL792 
 PHE793  MET794  SER795  GLU796  ALA797  LYS798  CYS799  TRP800  GLU811  SER814 

> <Gold.Protein.RotatedAtoms>
  152.0117  134.9872  160.0568 H   0  0  0  0  0  0  0  0  0  0  0  0  # atno 6907 bound_to 6896
  152.1423  133.4466  159.4781 H   0  0  0  0  0  0  0  0  0  0  0  0  # atno 6908 bound_to 6896
  150.6866  134.2209  159.4439 H   0  0  0  0  0  0  0  0  0  0  0  0  # atno 6909 bound_to 6896
  144.7171  140.0220  143.6440 H   0  0  0  0  0  0  0  0  0  0  0  0  # atno 7974 bound_to 7965
  154.4314  140.1834  156.1154 H   0  0  0  0  0  0  0  0  0  0  0  0  # atno 8008 bound_to 7997
  156.0185  140.3343  155.6988 H   0  0  0  0  0  0  0  0  0  0  0  0  # atno 8009 bound_to 7997
  155.6010  140.0640  157.2723 H   0  0  0  0  0  0  0  0  0  0  0  0  # atno 8010 bound_to 7997
  139.5757  144.1539  152.1446 H   0  0  0  0  0  0  0  0  0  0  0  0  # atno 10167 bound_to 10162
  156.0275  130.5480  150.7291 H   0  0  0  0  0  0  0  0  0  0  0  0  # atno 10718 bound_to 10713
  153.6055  135.3440  155.2960 H   0  0  0  0  0  0  0  0  0  0  0  0  # atno 10763 bound_to 10752
  154.8628  135.4238  154.2366 H   0  0  0  0  0  0  0  0  0  0  0  0  # atno 10764 bound_to 10752
  153.3204  135.7038  153.7107 H   0  0  0  0  0  0  0  0  0  0  0  0  # atno 10765 bound_to 10752
  140.6954  134.3996  157.5215 H   0  0  0  0  0  0  0  0  0  0  0  0  # atno 11005 bound_to 11000
  146.0173  139.3220  143.0834 LP  0  0  0  0  0  0  0  0  0  0  0  0  # atno 17320 bound_to 7965
  145.8611  140.9475  143.0700 LP  0  0  0  0  0  0  0  0  0  0  0  0  # atno 17321 bound_to 7965
  140.1081  144.5481  150.6943 LP  0  0  0  0  0  0  0  0  0  0  0  0  # atno 17342 bound_to 10162
  140.7039  143.2454  151.4783 LP  0  0  0  0  0  0  0  0  0  0  0  0  # atno 17343 bound_to 10162
  157.4888  131.0909  151.0451 LP  0  0  0  0  0  0  0  0  0  0  0  0  # atno 17370 bound_to 10713
  157.0864  130.5924  149.5430 LP  0  0  0  0  0  0  0  0  0  0  0  0  # atno 17371 bound_to 10713
  139.8911  134.8787  156.2334 LP  0  0  0  0  0  0  0  0  0  0  0  0  # atno 17394 bound_to 11000
  141.0207  133.7043  156.1264 LP  0  0  0  0  0  0  0  0  0  0  0  0  # atno 17395 bound_to 11000

$$$$
