AV-unprocessed.smi:2819|AV-procd|sdf|10850|dock7
  -GOLD-   2272015293D 1   1.00000     0.00000
 Structure written by MMmdl.
 50 51  0  0  0  0  0  0  0  0  2 V2000
  153.7665  141.4618  159.8749 C   0  0  0  0  0  0  0  0  0  0  0  0
  153.1484  142.5716  160.5943 N   0  0  0  0  0  0  0  0  0  0  0  0
  153.4278  142.7668  162.0114 C   0  0  0  0  0  0  0  0  0  0  0  0
  152.1881  143.3801  159.9462 C   0  0  0  0  0  0  0  0  0  0  0  0
  151.9506  144.7181  160.3265 C   0  0  0  0  0  0  0  0  0  0  0  0
  150.9674  145.4262  159.6130 C   0  0  0  0  0  0  0  0  0  0  0  0
  150.2871  144.8309  158.6041 N   0  3  0  0  0  0  0  0  0  0  0  0
  150.5531  143.5566  158.2777 C   0  0  0  0  0  0  0  0  0  0  0  0
  149.8214  143.0185  157.2408 N   0  0  0  0  0  0  0  0  0  0  0  0
  150.1567  142.0860  156.3287 C   0  0  0  0  0  0  0  0  0  0  0  0
  151.2505  141.5240  156.2535 O   0  0  0  0  0  0  0  0  0  0  0  0
  149.1405  141.8422  155.4881 N   0  0  0  0  0  0  0  0  0  0  0  0
  149.1658  140.9045  154.3650 C   0  0  0  0  0  0  0  0  0  0  0  0
  149.0431  139.4176  154.8127 C   0  0  0  0  0  0  0  0  0  0  0  0
  147.9908  139.3822  155.9503 C   0  0  0  0  0  0  0  0  0  0  0  0
  148.4472  138.6312  153.6198 C   0  0  0  0  0  0  0  0  0  0  0  0
  150.3507  138.8724  155.2758 N   0  0  0  0  0  0  0  0  0  0  0  0
  150.3512  137.4340  155.5687 C   0  0  0  0  0  0  0  0  0  0  0  0
  151.6940  136.9611  156.1516 C   0  0  0  0  0  0  0  0  0  0  0  0
  152.7488  137.2899  155.2560 O   0  0  0  0  0  0  0  0  0  0  0  0
  152.8213  138.6854  154.9921 C   0  0  0  0  0  0  0  0  0  0  0  0
  151.4884  139.1698  154.3971 C   0  0  0  0  0  0  0  0  0  0  0  0
  151.4810  142.8376  158.9290 N   0  0  0  0  0  0  0  0  0  0  0  0
  154.2774  141.8203  158.9806 H   0  0  0  0  0  0  0  0  0  0  0  0
  153.0132  140.7329  159.5744 H   0  0  0  0  0  0  0  0  0  0  0  0
  154.5024  140.9473  160.4930 H   0  0  0  0  0  0  0  0  0  0  0  0
  152.5183  142.6502  162.6015 H   0  0  0  0  0  0  0  0  0  0  0  0
  153.8348  143.7627  162.1891 H   0  0  0  0  0  0  0  0  0  0  0  0
  154.1552  142.0409  162.3756 H   0  0  0  0  0  0  0  0  0  0  0  0
  152.4885  145.2012  161.1286 H   0  0  0  0  0  0  0  0  0  0  0  0
  150.7017  146.4532  159.8171 H   0  0  0  0  0  0  0  0  0  0  0  0
  148.8860  143.3860  157.1515 H   0  0  0  0  0  0  0  0  0  0  0  0
  148.2817  142.3570  155.6175 H   0  0  0  0  0  0  0  0  0  0  0  0
  148.3831  141.1486  153.6444 H   0  0  0  0  0  0  0  0  0  0  0  0
  150.0937  141.0699  153.8180 H   0  0  0  0  0  0  0  0  0  0  0  0
  147.0947  139.9444  155.6846 H   0  0  0  0  0  0  0  0  0  0  0  0
  148.3808  139.8092  156.8748 H   0  0  0  0  0  0  0  0  0  0  0  0
  147.6572  138.3685  156.1725 H   0  0  0  0  0  0  0  0  0  0  0  0
  147.4869  139.0501  153.3164 H   0  0  0  0  0  0  0  0  0  0  0  0
  148.2684  137.5842  153.8632 H   0  0  0  0  0  0  0  0  0  0  0  0
  149.0928  138.6616  152.7422 H   0  0  0  0  0  0  0  0  0  0  0  0
  149.5730  137.1821  156.2870 H   0  0  0  0  0  0  0  0  0  0  0  0
  150.1430  136.8642  154.6630 H   0  0  0  0  0  0  0  0  0  0  0  0
  151.8759  137.4201  157.1245 H   0  0  0  0  0  0  0  0  0  0  0  0
  151.6811  135.8819  156.3045 H   0  0  0  0  0  0  0  0  0  0  0  0
  153.0532  139.2264  155.9107 H   0  0  0  0  0  0  0  0  0  0  0  0
  153.6375  138.8738  154.2946 H   0  0  0  0  0  0  0  0  0  0  0  0
  151.3475  138.6979  153.4247 H   0  0  0  0  0  0  0  0  0  0  0  0
  151.5753  140.2400  154.2196 H   0  0  0  0  0  0  0  0  0  0  0  0
  149.5773  145.3637  158.1007 H   0  0  0  0  0  0  0  0  0  0  0  0
  1  2  1  0  0  0  0
  1 24  1  0  0  0  0
  1 25  1  0  0  0  0
  1 26  1  0  0  0  0
  2  3  1  0  0  0  0
  2  4  1  0  0  0  0
  3 27  1  0  0  0  0
  3 28  1  0  0  0  0
  3 29  1  0  0  0  0
  4 23  1  0  0  0  0
  4  5  2  0  0  0  0
  5  6  1  0  0  0  0
  5 30  1  0  0  0  0
  6  7  2  0  0  0  0
  6 31  1  0  0  0  0
  7  8  1  0  0  0  0
  7 50  1  0  0  0  0
  8  9  1  0  0  0  0
  8 23  2  0  0  0  0
  9 10  1  0  0  0  0
  9 32  1  0  0  0  0
 10 11  2  0  0  0  0
 10 12  1  0  0  0  0
 12 13  1  0  0  0  0
 12 33  1  0  0  0  0
 13 14  1  0  0  0  0
 13 34  1  0  0  0  0
 13 35  1  0  0  0  0
 14 15  1  0  0  0  0
 14 16  1  0  0  0  0
 14 17  1  0  0  0  0
 15 36  1  0  0  0  0
 15 37  1  0  0  0  0
 15 38  1  0  0  0  0
 16 39  1  0  0  0  0
 16 40  1  0  0  0  0
 16 41  1  0  0  0  0
 17 22  1  0  0  0  0
 17 18  1  0  0  0  0
 18 19  1  0  0  0  0
 18 42  1  0  0  0  0
 18 43  1  0  0  0  0
 19 20  1  0  0  0  0
 19 44  1  0  0  0  0
 19 45  1  0  0  0  0
 20 21  1  0  0  0  0
 21 22  1  0  0  0  0
 21 46  1  0  0  0  0
 21 47  1  0  0  0  0
 22 48  1  0  0  0  0
 22 49  1  0  0  0  0
M  CHG  1   7   1
M  END
> <s_m_source_file>
AV-unprocessed.smi

> <i_m_source_file_index>
2819

> <i_lp_mmshare_version>
43012

> <i_f3d_flags>
0

> <s_epik_input>
W0NIM11OKFtDSDNdKWMxW2NIXVtjSF1uYyhuMSlbTkhdQyg9TylbTkhdW0NIMl1DKFtDSDNdKShbQ0gzXSlOMltDSDJdW0NIMl1PW0NIMl1bQ0gyXTI=

> <s_epik_cmdline>
J2VwaWtfcHl0aG9uJywgJy1waCcsICc3LjAnLCAnLXRuJywgJzgnLCAnLW1hJywgJzIwMCcsICctbWV0YWxfYmluZGluZycsICctaW1hZScsICc8aW5maWxlLm1hZT4nLCAnLW9tYWUnLCAnPG91dGZpbGUubWFlPic=

> <r_lp_tautomer_probability>
0.999336

> <r_epik_Ionization_Penalty>
0.36245

> <r_epik_Ionization_Penalty_Charging>
0.09642

> <r_epik_Ionization_Penalty_Neutral>
0.26603

> <r_epik_State_Penalty>
0.34182

> <r_epik_Charging_Adjusted_Penalty>
0.43824

> <i_epik_Tot_Q>
1

> <i_epik_Tot_abs_Q>
1

> <r_epik_Metal_State_Penalty>
0.680072

> <b_epik_Metal_Only>
0

> <s_lp_Force_Field>
OPLS_2005

> <r_lp_Energy>
46.6514

> <b_lp_Chiralities_Consistent>
1

> <s_lp_Variant>
AV-unprocessed.smi:2819-1

> <Gold.Version>
5.8.1

> <Gold.Id.Protein>
6NUR|6NUR_protein|mol2

> <Gold.PLP.Fitness>
50.9883

> <Gold.PLP.PLP>
-43.7557

> <Gold.PLP.part.hbond>
-4.2221

> <Gold.PLP.part.metal>
0.0000

> <Gold.PLP.part.buried>
-3.6394

> <Gold.PLP.part.nonpolar>
-37.3696

> <Gold.PLP.part.repulsive>
0.4657

> <Gold.PLP.ligand.clash>
0.0000

> <Gold.PLP.ligand.torsion>
1.1918

> <Gold.PLP.Chemscore.Hbond>
3.1726

> <Gold.PLP.Chemscore.CHOScore>
0.0000

> <Gold.PLP.Chemscore.Metal>
0.0000

> <Gold.Chemscore.Hbonds>
donor molecule, donor type, donor heavy atom, donor atom, acceptor molecule, acceptor atom, score
      L1  H     7    50       P1  8029  2.00
      L1  H     9    32       P1  8028  0.18
      P1  H 10752 10763       L1    20  0.29

> <Gold.PLP.Chemscore.Internal.Correction>
0.0985

> <Gold.Rescore>
     Score         DG    S(hbond)    S(metal)    S(lipo)     H(rot)  DE(clash)    DE(int)     intcor
     13.52     -17.24       1.73        0.00      84.60       1.53       0.60       3.12       ----

> <Gold.Chemscore.Fitness>
13.5216

> <Gold.Chemscore.DG>
-17.2388

> <Gold.Chemscore.ZeroCoef>
-5.4800

> <Gold.Chemscore.Hbond>
1.7285

> <Gold.Chemscore.Metal>
0.0000

> <Gold.Chemscore.Lipo>
84.5972

> <Gold.Chemscore.Internal_Hbond>
0.0000

> <Gold.Chemscore.DEClash>
0.5975

> <Gold.Chemscore.DEInternal>
3.1197

> <Gold.Chemscore.Rot>
1.5282

> <Gold.Chemscore.Internal.Correction>
   9.000000E+99

> <Gold.Chemscore.Hbonds>
donor molecule, donor type, donor heavy atom, donor atom, acceptor molecule, acceptor atom, score
      L1  H     7    50       P1  8029  0.34
      L1  H     9    32       P1  8028  0.09
      L1  H    12    33       P1  8028  0.01
      P1  H 10752 10763       L1    20  0.02

> <Gold.Chemscore.Hbond.Weighted>
-5.7731

> <Gold.Chemscore.Metal.Weighted>
-0.0000

> <Gold.Chemscore.Lipo.Weighted>
-9.8979

> <Gold.Chemscore.Internal_Hbond.Weighted>
0.0000

> <Gold.Chemscore.DEClash.Weighted>
0.5975

> <Gold.Chemscore.DEInternal.Weighted>
3.1197

> <Gold.Chemscore.Rot.Weighted>
3.9121

> <Gold.Chemscore.Internal.Correction.Weighted>
   9.000000E+99

> <Gold.Protein.RotatedTorsions>
[ 6907 6896 6895 6894 ] final  -59.31 input  -60.11 | X-H torsion
[ 7974 7965 7964 7962 ] final  132.06 input  175.53 | X-H torsion
[ 8008 7997 7996 7995 ] final   45.06 input   59.86 | X-H torsion
[ 10167 10162 10161 10158 ] final -156.70 input  -65.29 | X-H torsion
[ 10718 10713 10712 10709 ] final   62.88 input   66.30 | X-H torsion
[ 10763 10752 10751 10750 ] final   79.13 input  -60.55 | X-H torsion
[ 11005 11000 10999 10996 ] final   80.82 input  -57.11 | X-H torsion

> <Gold.Protein.ActiveResidues>
 VAL166  LYS551  ARG553  GLY616  TRP617  ASP618  TYR619  PRO620  LYS621  CYS622 
 ASP623  PHE694  ASN695  SER759  ASP760  ASP761  ALA762  ILE779  LEU786  VAL792 
 PHE793  MET794  SER795  GLU796  ALA797  LYS798  CYS799  TRP800  GLU811  SER814 

> <Gold.Protein.RotatedAtoms>
  150.7940  134.6985  159.6536 H   0  0  0  0  0  0  0  0  0  0  0  0  # atno 6907 bound_to 6896
  152.4050  134.6219  160.0063 H   0  0  0  0  0  0  0  0  0  0  0  0  # atno 6908 bound_to 6896
  151.6479  133.3285  159.3181 H   0  0  0  0  0  0  0  0  0  0  0  0  # atno 6909 bound_to 6896
  145.0008  139.4314  143.5293 H   0  0  0  0  0  0  0  0  0  0  0  0  # atno 7974 bound_to 7965
  155.3296  140.3402  155.4240 H   0  0  0  0  0  0  0  0  0  0  0  0  # atno 8008 bound_to 7997
  156.1868  140.1683  156.8206 H   0  0  0  0  0  0  0  0  0  0  0  0  # atno 8009 bound_to 7997
  154.5395  140.0728  156.8469 H   0  0  0  0  0  0  0  0  0  0  0  0  # atno 8010 bound_to 7997
  139.6829  143.9550  152.2346 H   0  0  0  0  0  0  0  0  0  0  0  0  # atno 10167 bound_to 10162
  157.5932  130.9075  149.9644 H   0  0  0  0  0  0  0  0  0  0  0  0  # atno 10718 bound_to 10713
  153.0928  135.4851  154.8722 H   0  0  0  0  0  0  0  0  0  0  0  0  # atno 10763 bound_to 10752
  154.7289  135.3056  154.8927 H   0  0  0  0  0  0  0  0  0  0  0  0  # atno 10764 bound_to 10752
  153.9568  135.6817  153.4798 H   0  0  0  0  0  0  0  0  0  0  0  0  # atno 10765 bound_to 10752
  139.9120  134.7949  156.1960 H   0  0  0  0  0  0  0  0  0  0  0  0  # atno 11005 bound_to 11000
  146.3451  139.9395  142.8743 LP  0  0  0  0  0  0  0  0  0  0  0  0  # atno 17320 bound_to 7965
  145.2156  140.9914  143.4075 LP  0  0  0  0  0  0  0  0  0  0  0  0  # atno 17321 bound_to 7965
  139.9345  144.6721  150.8329 LP  0  0  0  0  0  0  0  0  0  0  0  0  # atno 17342 bound_to 10162
  140.7658  143.3286  151.2460 LP  0  0  0  0  0  0  0  0  0  0  0  0  # atno 17343 bound_to 10162
  156.0990  130.3657  150.0253 LP  0  0  0  0  0  0  0  0  0  0  0  0  # atno 17370 bound_to 10713
  156.8371  130.9413  151.3634 LP  0  0  0  0  0  0  0  0  0  0  0  0  # atno 17371 bound_to 10713
  141.0554  133.6867  156.1851 LP  0  0  0  0  0  0  0  0  0  0  0  0  # atno 17394 bound_to 11000
  140.6744  134.4833  157.5588 LP  0  0  0  0  0  0  0  0  0  0  0  0  # atno 17395 bound_to 11000

$$$$
