AV-unprocessed.smi:163|AV-procd|sdf|1381|dock3
  -GOLD-   2262019113D 1   1.00000     0.00000
 Structure written by MMmdl.
 48 51  0  0  0  0  0  0  0  0  1 V2000
  148.6067  144.2940  160.5739 N   0  0  0  0  0  0  0  0  0  0  0  0
  149.7438  144.5034  160.6253 C   0  0  0  0  0  0  0  0  0  0  0  0
  151.1901  144.7727  160.6885 C   0  0  0  0  0  0  0  0  0  0  0  0
  152.0466  143.5049  160.8045 C   0  0  0  0  0  0  0  0  0  0  0  0
  152.2718  143.0381  161.9219 O   0  0  0  0  0  0  0  0  0  0  0  0
  152.5262  142.9396  159.6720 N   0  0  0  0  0  0  0  0  0  0  0  0
  153.3012  141.6948  159.6089 C   0  0  0  0  0  0  0  0  0  0  0  0
  152.4639  140.6200  158.8918 C   0  0  0  0  0  0  0  0  0  0  0  0
  152.0152  141.1005  157.5832 N   0  0  0  0  0  0  0  0  0  0  0  0
  151.5327  140.1488  156.7431 C   0  0  0  0  0  0  0  0  0  0  0  0
  151.7396  140.2625  155.4035 N   0  0  0  0  0  0  0  0  0  0  0  0
  151.2657  139.3369  154.5643 C   0  0  0  0  0  0  0  0  0  0  0  0
  150.5730  138.2320  154.8456 N   0  0  0  0  0  0  0  0  0  0  0  0
  150.3707  138.1045  156.1882 C   0  0  0  0  0  0  0  0  0  0  0  0
  150.8107  139.0081  157.1972 C   0  0  0  0  0  0  0  0  0  0  0  0
  150.4280  138.5382  158.4483 N   0  0  0  0  0  0  0  0  0  0  0  0
  149.7885  137.4301  158.1928 C   0  0  0  0  0  0  0  0  0  0  0  0
  149.7144  137.0885  156.8614 N   0  0  0  0  0  0  0  0  0  0  0  0
  149.0649  135.9148  156.2974 C   0  0  0  0  0  0  0  0  0  0  0  0
  149.9930  135.0393  155.4174 C   0  0  2  0  0  0  0  0  0  0  0  0
  150.3984  135.7851  154.2840 O   0  0  0  0  0  0  0  0  0  0  0  0
  149.3597  133.7261  154.9539 C   0  0  0  0  0  0  0  0  0  0  0  0
  149.8874  132.7213  155.9669 C   0  0  0  0  0  0  0  0  0  0  0  0
  151.2278  133.1453  156.1415 O   0  0  0  0  0  0  0  0  0  0  0  0
  151.2354  134.5670  156.2007 C   0  0  0  0  0  0  0  0  0  0  0  0
  151.3657  142.4146  157.5794 C   0  0  0  0  0  0  0  0  0  0  0  0
  152.2236  143.4507  158.3295 C   0  0  0  0  0  0  0  0  0  0  0  0
  151.4573  145.3217  159.7853 H   0  0  0  0  0  0  0  0  0  0  0  0
  151.3621  145.4207  161.5484 H   0  0  0  0  0  0  0  0  0  0  0  0
  154.2221  141.8783  159.0536 H   0  0  0  0  0  0  0  0  0  0  0  0
  153.6161  141.3242  160.5829 H   0  0  0  0  0  0  0  0  0  0  0  0
  153.0524  139.7082  158.8051 H   0  0  0  0  0  0  0  0  0  0  0  0
  151.5879  140.3696  159.4917 H   0  0  0  0  0  0  0  0  0  0  0  0
  151.4710  139.5065  153.5174 H   0  0  0  0  0  0  0  0  0  0  0  0
  149.3553  136.8228  158.9746 H   0  0  0  0  0  0  0  0  0  0  0  0
  148.6624  135.3237  157.1211 H   0  0  0  0  0  0  0  0  0  0  0  0
  148.2044  136.2482  155.7159 H   0  0  0  0  0  0  0  0  0  0  0  0
  149.7083  135.7477  153.6392 H   0  0  0  0  0  0  0  0  0  0  0  0
  148.2721  133.7394  154.9015 H   0  0  0  0  0  0  0  0  0  0  0  0
  149.7277  133.4478  153.9649 H   0  0  0  0  0  0  0  0  0  0  0  0
  149.3469  132.7929  156.9122 H   0  0  0  0  0  0  0  0  0  0  0  0
  149.8325  131.6922  155.6109 H   0  0  0  0  0  0  0  0  0  0  0  0
  152.1720  134.9523  155.7953 H   0  0  0  0  0  0  0  0  0  0  0  0
  151.1856  134.8713  157.2472 H   0  0  0  0  0  0  0  0  0  0  0  0
  151.2062  142.7498  156.5536 H   0  0  0  0  0  0  0  0  0  0  0  0
  150.3847  142.3339  158.0504 H   0  0  0  0  0  0  0  0  0  0  0  0
  151.7098  144.4126  158.3454 H   0  0  0  0  0  0  0  0  0  0  0  0
  153.1587  143.6200  157.7935 H   0  0  0  0  0  0  0  0  0  0  0  0
  1  2  3  0  0  0  0
  2  3  1  0  0  0  0
  3  4  1  0  0  0  0
  3 28  1  0  0  0  0
  3 29  1  0  0  0  0
  4  5  2  0  0  0  0
  4  6  1  0  0  0  0
  6 27  1  0  0  0  0
  6  7  1  0  0  0  0
  7  8  1  0  0  0  0
  7 30  1  0  0  0  0
  7 31  1  0  0  0  0
  8  9  1  0  0  0  0
  8 32  1  0  0  0  0
  8 33  1  0  0  0  0
  9 10  1  0  0  0  0
  9 26  1  0  0  0  0
 10 15  1  0  0  0  0
 10 11  2  0  0  0  0
 11 12  1  0  0  0  0
 12 13  2  0  0  0  0
 12 34  1  0  0  0  0
 13 14  1  0  0  0  0
 14 18  1  0  0  0  0
 14 15  2  0  0  0  0
 15 16  1  0  0  0  0
 16 17  2  0  0  0  0
 17 18  1  0  0  0  0
 17 35  1  0  0  0  0
 18 19  1  0  0  0  0
 19 20  1  0  0  0  0
 19 36  1  0  0  0  0
 19 37  1  0  0  0  0
 20 25  1  0  0  0  0
 20 21  1  0  0  0  0
 20 22  1  0  0  0  0
 21 38  1  0  0  0  0
 22 23  1  0  0  0  0
 22 39  1  0  0  0  0
 22 40  1  0  0  0  0
 23 24  1  0  0  0  0
 23 41  1  0  0  0  0
 23 42  1  0  0  0  0
 24 25  1  0  0  0  0
 25 43  1  0  0  0  0
 25 44  1  0  0  0  0
 26 27  1  0  0  0  0
 26 45  1  0  0  0  0
 26 46  1  0  0  0  0
 27 47  1  0  0  0  0
 27 48  1  0  0  0  0
M  END
> <s_m_source_file>
AV-unprocessed.smi

> <i_m_source_file_index>
163

> <i_lp_mmshare_version>
43012

> <i_f3d_flags>
0

> <s_epik_input>
TiNDW0NIMl1DKD1PKU4xW0NIMl1bQ0gyXU4oW0NIMl1bQ0gyXTEpYyhuW2NIXW4yKWMoYzIzKW5bY0hdbjNbQ0gyXVtDQEBdNChbT0hdKVtDSDJdW0NIMl1PW0NIMl00

> <s_epik_cmdline>
J2VwaWtfcHl0aG9uJywgJy1waCcsICc3LjAnLCAnLXRuJywgJzgnLCAnLW1hJywgJzIwMCcsICctbWV0YWxfYmluZGluZycsICctaW1hZScsICc8aW5maWxlLm1hZT4nLCAnLW9tYWUnLCAnPG91dGZpbGUubWFlPic=

> <r_lp_tautomer_probability>
1

> <r_epik_Ionization_Penalty>
0.000981096

> <r_epik_Ionization_Penalty_Charging>
0

> <r_epik_Ionization_Penalty_Neutral>
0.000981096

> <r_epik_State_Penalty>
0.000482875

> <r_epik_Charging_Adjusted_Penalty>
0.000482875

> <i_epik_Tot_Q>
0

> <i_epik_Tot_abs_Q>
0

> <r_epik_Metal_State_Penalty>
-0

> <b_epik_Metal_Only>
0

> <s_lp_Force_Field>
OPLS_2005

> <r_lp_Energy>
51.4692

> <b_lp_Chiralities_Consistent>
1

> <s_lp_Variant>
AV-unprocessed.smi:163-2

> <Gold.Version>
5.8.1

> <Gold.Id.Protein>
6NUR|6NUR_protein|mol2

> <Gold.PLP.Fitness>
44.5791

> <Gold.PLP.PLP>
-40.7525

> <Gold.PLP.part.hbond>
-4.0000

> <Gold.PLP.part.metal>
0.0000

> <Gold.PLP.part.buried>
-3.7059

> <Gold.PLP.part.nonpolar>
-33.6776

> <Gold.PLP.part.repulsive>
0.4464

> <Gold.PLP.ligand.clash>
0.0000

> <Gold.PLP.ligand.torsion>
0.8771

> <Gold.PLP.Chemscore.Hbond>
1.6861

> <Gold.PLP.Chemscore.CHOScore>
0.0000

> <Gold.PLP.Chemscore.Metal>
0.0000

> <Gold.Chemscore.Hbonds>
donor molecule, donor type, donor heavy atom, donor atom, acceptor molecule, acceptor atom, score
      L1  H    21    38       P1  7948  0.80
      P1  H  6933  6944       L1     1  0.71

> <Gold.PLP.Chemscore.Internal.Correction>
0.5226

> <Gold.Rescore>
     Score         DG    S(hbond)    S(metal)    S(lipo)     H(rot)  DE(clash)    DE(int)     intcor
      6.81     -10.23       0.92        0.00      74.03       2.72       0.42       3.00       ----

> <Gold.Chemscore.Fitness>
6.8087

> <Gold.Chemscore.DG>
-10.2298

> <Gold.Chemscore.ZeroCoef>
-5.4800

> <Gold.Chemscore.Hbond>
0.9158

> <Gold.Chemscore.Metal>
0.0000

> <Gold.Chemscore.Lipo>
74.0338

> <Gold.Chemscore.Internal_Hbond>
0.0000

> <Gold.Chemscore.DEClash>
0.4238

> <Gold.Chemscore.DEInternal>
2.9974

> <Gold.Chemscore.Rot>
2.7230

> <Gold.Chemscore.Internal.Correction>
   9.000000E+99

> <Gold.Chemscore.Hbonds>
donor molecule, donor type, donor heavy atom, donor atom, acceptor molecule, acceptor atom, score
      L1  H    21    38       P1  7948  0.11
      P1  H  6933  6944       L1     1  0.17

> <Gold.Chemscore.Hbond.Weighted>
-3.0588

> <Gold.Chemscore.Metal.Weighted>
-0.0000

> <Gold.Chemscore.Lipo.Weighted>
-8.6620

> <Gold.Chemscore.Internal_Hbond.Weighted>
0.0000

> <Gold.Chemscore.DEClash.Weighted>
0.4238

> <Gold.Chemscore.DEInternal.Weighted>
2.9974

> <Gold.Chemscore.Rot.Weighted>
6.9709

> <Gold.Chemscore.Internal.Correction.Weighted>
   9.000000E+99

> <Gold.Protein.RotatedTorsions>
[ 6907 6896 6895 6894 ] final  133.57 input  -60.11 | X-H torsion
[ 7974 7965 7964 7962 ] final  176.19 input  175.53 | X-H torsion
[ 8008 7997 7996 7995 ] final  -45.14 input   59.86 | X-H torsion
[ 10167 10162 10161 10158 ] final  142.34 input  -65.29 | X-H torsion
[ 10718 10713 10712 10709 ] final -119.62 input   66.30 | X-H torsion
[ 10763 10752 10751 10750 ] final  144.38 input  -60.55 | X-H torsion
[ 11005 11000 10999 10996 ] final  171.72 input  -57.11 | X-H torsion

> <Gold.Protein.ActiveResidues>
 VAL166  LYS551  ARG553  GLY616  TRP617  ASP618  TYR619  PRO620  LYS621  CYS622 
 ASP623  PHE694  ASN695  SER759  ASP760  ASP761  ALA762  ILE779  LEU786  VAL792 
 PHE793  MET794  SER795  GLU796  ALA797  LYS798  CYS799  TRP800  GLU811  SER814 

> <Gold.Protein.RotatedAtoms>
  152.3205  133.5849  159.5741 H   0  0  0  0  0  0  0  0  0  0  0  0  # atno 6907 bound_to 6896
  150.7369  134.0018  159.3649 H   0  0  0  0  0  0  0  0  0  0  0  0  # atno 6908 bound_to 6896
  151.7903  135.0738  160.0437 H   0  0  0  0  0  0  0  0  0  0  0  0  # atno 6909 bound_to 6896
  144.7188  140.0060  143.6440 H   0  0  0  0  0  0  0  0  0  0  0  0  # atno 7974 bound_to 7965
  154.3999  140.1404  156.3798 H   0  0  0  0  0  0  0  0  0  0  0  0  # atno 8008 bound_to 7997
  155.8014  140.3476  155.5384 H   0  0  0  0  0  0  0  0  0  0  0  0  # atno 8009 bound_to 7997
  155.8479  140.0937  157.1684 H   0  0  0  0  0  0  0  0  0  0  0  0  # atno 8010 bound_to 7997
  139.4997  144.6113  151.6264 H   0  0  0  0  0  0  0  0  0  0  0  0  # atno 10167 bound_to 10162
  156.1195  130.6312  150.9439 H   0  0  0  0  0  0  0  0  0  0  0  0  # atno 10718 bound_to 10713
  153.9879  135.2935  155.3414 H   0  0  0  0  0  0  0  0  0  0  0  0  # atno 10763 bound_to 10752
  154.7231  135.5100  153.8847 H   0  0  0  0  0  0  0  0  0  0  0  0  # atno 10764 bound_to 10752
  153.0823  135.6683  154.0135 H   0  0  0  0  0  0  0  0  0  0  0  0  # atno 10765 bound_to 10752
  140.3220  134.7429  157.4071 H   0  0  0  0  0  0  0  0  0  0  0  0  # atno 11005 bound_to 11000
  146.0297  139.3324  143.0763 LP  0  0  0  0  0  0  0  0  0  0  0  0  # atno 17320 bound_to 7965
  145.8468  140.9551  143.0770 LP  0  0  0  0  0  0  0  0  0  0  0  0  # atno 17321 bound_to 7965
  140.5789  143.9980  150.6257 LP  0  0  0  0  0  0  0  0  0  0  0  0  # atno 17342 bound_to 10162
  140.3123  143.3190  152.0867 LP  0  0  0  0  0  0  0  0  0  0  0  0  # atno 17343 bound_to 10162
  157.6379  131.0914  150.8312 LP  0  0  0  0  0  0  0  0  0  0  0  0  # atno 17370 bound_to 10713
  156.8410  130.5048  149.5321 LP  0  0  0  0  0  0  0  0  0  0  0  0  # atno 17371 bound_to 10713
  140.0934  134.5570  155.8422 LP  0  0  0  0  0  0  0  0  0  0  0  0  # atno 17394 bound_to 11000
  141.2084  133.6673  156.6371 LP  0  0  0  0  0  0  0  0  0  0  0  0  # atno 17395 bound_to 11000

$$$$
