AV-unprocessed.smi:170|AV-procd|sdf|1412|dock4
  -GOLD-   2262019173D 1   1.00000     0.00000
 Structure written by MMmdl.
 57 61  0  0  0  0  0  0  0  0  1 V2000
  144.8844  138.2675  154.0271 O   0  0  0  0  0  0  0  0  0  0  0  0
  145.8255  137.5465  153.2534 C   0  0  2  0  0  0  0  0  0  0  0  0
  147.0054  138.4486  152.8416 C   0  0  0  0  0  0  0  0  0  0  0  0
  148.0271  138.5220  153.8709 N   0  0  0  0  0  0  0  0  0  0  0  0
  148.5358  137.4719  154.6016 C   0  0  0  0  0  0  0  0  0  0  0  0
  149.4433  137.7949  155.4827 N   0  0  0  0  0  0  0  0  0  0  0  0
  149.5670  139.1722  155.3472 C   0  0  0  0  0  0  0  0  0  0  0  0
  150.3558  140.1594  155.9944 C   0  0  0  0  0  0  0  0  0  0  0  0
  151.2396  139.8395  156.9694 N   0  0  0  0  0  0  0  0  0  0  0  0
  152.1139  138.7642  156.5133 C   0  0  0  0  0  0  0  0  0  0  0  0
  153.0022  138.2702  157.6617 C   0  0  0  0  0  0  0  0  0  0  0  0
  153.7396  139.3701  158.1755 O   0  0  0  0  0  0  0  0  0  0  0  0
  152.8860  140.3689  158.7209 C   0  0  0  0  0  0  0  0  0  0  0  0
  151.9480  140.9442  157.6323 C   0  0  2  0  0  0  0  0  0  0  0  0
  150.9704  141.9893  158.2335 C   0  0  0  0  0  0  0  0  0  0  0  0
  151.6568  143.1468  158.9568 C   0  0  0  0  0  0  0  0  0  0  0  0
  150.8175  144.1323  159.7838 C   0  0  0  0  0  0  0  0  0  0  0  0
  151.7830  145.2412  159.3555 C   0  0  0  0  0  0  0  0  0  0  0  0
  152.1573  144.3613  158.1597 C   0  0  0  0  0  0  0  0  0  0  0  0
  150.2224  141.4487  155.5825 N   0  0  0  0  0  0  0  0  0  0  0  0
  149.3548  141.7539  154.6125 C   0  0  0  0  0  0  0  0  0  0  0  0
  148.5448  140.9409  153.9300 N   0  0  0  0  0  0  0  0  0  0  0  0
  148.6882  139.6457  154.3339 C   0  0  0  0  0  0  0  0  0  0  0  0
  145.1275  136.8794  152.0506 C   0  0  1  0  0  0  0  0  0  0  0  0
  146.0429  136.0668  151.1190 C   0  0  0  0  0  0  0  0  0  0  0  0
  145.5157  134.6506  151.2498 C   0  0  0  0  0  0  0  0  0  0  0  0
  144.0542  134.8809  151.6091 C   0  0  0  0  0  0  0  0  0  0  0  0
  144.1093  135.9862  152.4967 O   0  0  0  0  0  0  0  0  0  0  0  0
  144.4941  138.9310  153.4783 H   0  0  0  0  0  0  0  0  0  0  0  0
  146.2094  136.7542  153.8974 H   0  0  0  0  0  0  0  0  0  0  0  0
  147.4668  138.0718  151.9280 H   0  0  0  0  0  0  0  0  0  0  0  0
  146.6601  139.4596  152.6217 H   0  0  0  0  0  0  0  0  0  0  0  0
  148.2055  136.4526  154.4630 H   0  0  0  0  0  0  0  0  0  0  0  0
  151.5216  137.9333  156.1267 H   0  0  0  0  0  0  0  0  0  0  0  0
  152.7362  139.1250  155.6927 H   0  0  0  0  0  0  0  0  0  0  0  0
  152.4053  137.8096  158.4505 H   0  0  0  0  0  0  0  0  0  0  0  0
  153.6972  137.5122  157.3004 H   0  0  0  0  0  0  0  0  0  0  0  0
  152.3122  139.9522  159.5506 H   0  0  0  0  0  0  0  0  0  0  0  0
  153.5212  141.1508  159.1360 H   0  0  0  0  0  0  0  0  0  0  0  0
  152.5708  141.4371  156.8842 H   0  0  0  0  0  0  0  0  0  0  0  0
  150.3388  142.4047  157.4489 H   0  0  0  0  0  0  0  0  0  0  0  0
  150.2863  141.4873  158.9185 H   0  0  0  0  0  0  0  0  0  0  0  0
  152.4701  142.7847  159.5885 H   0  0  0  0  0  0  0  0  0  0  0  0
  149.8117  144.2750  159.3848 H   0  0  0  0  0  0  0  0  0  0  0  0
  150.7997  143.9302  160.8551 H   0  0  0  0  0  0  0  0  0  0  0  0
  151.3074  146.1876  159.0966 H   0  0  0  0  0  0  0  0  0  0  0  0
  152.6086  145.3783  160.0557 H   0  0  0  0  0  0  0  0  0  0  0  0
  153.2208  144.3417  157.9192 H   0  0  0  0  0  0  0  0  0  0  0  0
  151.5493  144.5686  157.2774 H   0  0  0  0  0  0  0  0  0  0  0  0
  149.3029  142.7989  154.3442 H   0  0  0  0  0  0  0  0  0  0  0  0
  144.6378  137.6543  151.4587 H   0  0  0  0  0  0  0  0  0  0  0  0
  145.9242  136.4139  150.0916 H   0  0  0  0  0  0  0  0  0  0  0  0
  147.1019  136.1400  151.3685 H   0  0  0  0  0  0  0  0  0  0  0  0
  145.6455  134.0593  150.3431 H   0  0  0  0  0  0  0  0  0  0  0  0
  146.0225  134.1381  152.0687 H   0  0  0  0  0  0  0  0  0  0  0  0
  143.4734  135.1501  150.7253 H   0  0  0  0  0  0  0  0  0  0  0  0
  143.5910  134.0118  152.0767 H   0  0  0  0  0  0  0  0  0  0  0  0
  1  2  1  0  0  0  0
  1 29  1  0  0  0  0
  2  3  1  0  0  0  0
  2 24  1  0  0  0  0
  2 30  1  0  0  0  0
  3  4  1  0  0  0  0
  3 31  1  0  0  0  0
  3 32  1  0  0  0  0
  4 23  1  0  0  0  0
  4  5  1  0  0  0  0
  5  6  2  0  0  0  0
  5 33  1  0  0  0  0
  6  7  1  0  0  0  0
  7 23  2  0  0  0  0
  7  8  1  0  0  0  0
  8  9  1  0  0  0  0
  8 20  2  0  0  0  0
  9 14  1  0  0  0  0
  9 10  1  0  0  0  0
 10 11  1  0  0  0  0
 10 34  1  0  0  0  0
 10 35  1  0  0  0  0
 11 12  1  0  0  0  0
 11 36  1  0  0  0  0
 11 37  1  0  0  0  0
 12 13  1  0  0  0  0
 13 14  1  0  0  0  0
 13 38  1  0  0  0  0
 13 39  1  0  0  0  0
 14 15  1  0  0  0  0
 14 40  1  0  0  0  0
 15 16  1  0  0  0  0
 15 41  1  0  0  0  0
 15 42  1  0  0  0  0
 16 19  1  0  0  0  0
 16 17  1  0  0  0  0
 16 43  1  0  0  0  0
 17 18  1  0  0  0  0
 17 44  1  0  0  0  0
 17 45  1  0  0  0  0
 18 19  1  0  0  0  0
 18 46  1  0  0  0  0
 18 47  1  0  0  0  0
 19 48  1  0  0  0  0
 19 49  1  0  0  0  0
 20 21  1  0  0  0  0
 21 22  2  0  0  0  0
 21 50  1  0  0  0  0
 22 23  1  0  0  0  0
 24 28  1  0  0  0  0
 24 25  1  0  0  0  0
 24 51  1  0  0  0  0
 25 26  1  0  0  0  0
 25 52  1  0  0  0  0
 25 53  1  0  0  0  0
 26 27  1  0  0  0  0
 26 54  1  0  0  0  0
 26 55  1  0  0  0  0
 27 28  1  0  0  0  0
 27 56  1  0  0  0  0
 27 57  1  0  0  0  0
M  END
> <s_m_source_file>
AV-unprocessed.smi

> <i_m_source_file_index>
170

> <i_lp_mmshare_version>
43012

> <i_f3d_flags>
0

> <s_epik_input>
TzFbQ0gyXVtDSDJdW0NIMl1bQ0BIXTFbQ0BIXShbT0hdKVtDSDJdbihbY0hdbjIpYyhjMjMpbltjSF1uYzNONFtDSDJdW0NIMl1PW0NIMl1bQ0BIXTRbQ0gyXVtDSF01W0NIMl1bQ0gyXVtDSDJdNQ==

> <s_epik_cmdline>
J2VwaWtfcHl0aG9uJywgJy1waCcsICc3LjAnLCAnLXRuJywgJzgnLCAnLW1hJywgJzIwMCcsICctbWV0YWxfYmluZGluZycsICctaW1hZScsICc8aW5maWxlLm1hZT4nLCAnLW9tYWUnLCAnPG91dGZpbGUubWFlPic=

> <r_lp_tautomer_probability>
1

> <r_epik_Ionization_Penalty>
4.98275e-05

> <r_epik_Ionization_Penalty_Charging>
0

> <r_epik_Ionization_Penalty_Neutral>
4.98275e-05

> <r_epik_State_Penalty>
-0

> <r_epik_Charging_Adjusted_Penalty>
0

> <i_epik_Tot_Q>
0

> <i_epik_Tot_abs_Q>
0

> <r_epik_Metal_State_Penalty>
-0

> <b_epik_Metal_Only>
0

> <s_lp_Force_Field>
OPLS_2005

> <r_lp_Energy>
52.9545

> <b_lp_Chiralities_Consistent>
1

> <s_lp_Variant>
AV-unprocessed.smi:170-7

> <Gold.Version>
5.8.1

> <Gold.Id.Protein>
6NUR|6NUR_protein|mol2

> <Gold.PLP.Fitness>
50.9210

> <Gold.PLP.PLP>
-43.1265

> <Gold.PLP.part.hbond>
-2.0222

> <Gold.PLP.part.metal>
0.0000

> <Gold.PLP.part.buried>
-4.7456

> <Gold.PLP.part.nonpolar>
-37.9321

> <Gold.PLP.part.repulsive>
0.4071

> <Gold.PLP.ligand.clash>
0.0000

> <Gold.PLP.ligand.torsion>
0.7650

> <Gold.PLP.Chemscore.Hbond>
2.0000

> <Gold.PLP.Chemscore.CHOScore>
0.9999

> <Gold.PLP.Chemscore.Metal>
0.0000

> <Gold.Chemscore.Hbonds>
donor molecule, donor type, donor heavy atom, donor atom, acceptor molecule, acceptor atom, score
      L1  H     1    29       P1 10175  1.00
      P1  H  7997  8008       L1    12  1.00
      L1  C     5    33       P1  7948  0.18
      L1  C    21    50       P1  8028  1.00

> <Gold.PLP.Chemscore.Internal.Correction>
0.3248

> <Gold.Rescore>
     Score         DG    S(hbond)    S(metal)    S(lipo)     H(rot)  DE(clash)    DE(int)     intcor
     14.86     -17.17       1.83        0.00     104.94       2.61       0.02       2.28       ----

> <Gold.Chemscore.Fitness>
14.8645

> <Gold.Chemscore.DG>
-17.1694

> <Gold.Chemscore.ZeroCoef>
-5.4800

> <Gold.Chemscore.Hbond>
1.8278

> <Gold.Chemscore.Metal>
0.0000

> <Gold.Chemscore.Lipo>
104.9355

> <Gold.Chemscore.Internal_Hbond>
0.0000

> <Gold.Chemscore.DEClash>
0.0207

> <Gold.Chemscore.DEInternal>
2.2842

> <Gold.Chemscore.Rot>
2.6144

> <Gold.Chemscore.Internal.Correction>
   9.000000E+99

> <Gold.Chemscore.Hbonds>
donor molecule, donor type, donor heavy atom, donor atom, acceptor molecule, acceptor atom, score
      L1  H     1    29       P1 10175  0.96
      P1  H  7997  8008       L1    12  0.35

> <Gold.Chemscore.Hbond.Weighted>
-6.1049

> <Gold.Chemscore.Metal.Weighted>
-0.0000

> <Gold.Chemscore.Lipo.Weighted>
-12.2775

> <Gold.Chemscore.Internal_Hbond.Weighted>
0.0000

> <Gold.Chemscore.DEClash.Weighted>
0.0207

> <Gold.Chemscore.DEInternal.Weighted>
2.2842

> <Gold.Chemscore.Rot.Weighted>
6.6929

> <Gold.Chemscore.Internal.Correction.Weighted>
   9.000000E+99

> <Gold.Protein.RotatedTorsions>
[ 6907 6896 6895 6894 ] final  -24.41 input  -60.11 | X-H torsion
[ 7974 7965 7964 7962 ] final   15.18 input  175.53 | X-H torsion
[ 8008 7997 7996 7995 ] final  -76.80 input   59.86 | X-H torsion
[ 10167 10162 10161 10158 ] final -159.30 input  -65.29 | X-H torsion
[ 10718 10713 10712 10709 ] final  164.77 input   66.30 | X-H torsion
[ 10763 10752 10751 10750 ] final   50.65 input  -60.55 | X-H torsion
[ 11005 11000 10999 10996 ] final   92.91 input  -57.11 | X-H torsion

> <Gold.Protein.ActiveResidues>
 VAL166  LYS551  ARG553  GLY616  TRP617  ASP618  TYR619  PRO620  LYS621  CYS622 
 ASP623  PHE694  ASN695  SER759  ASP760  ASP761  ALA762  ILE779  LEU786  VAL792 
 PHE793  MET794  SER795  GLU796  ALA797  LYS798  CYS799  TRP800  GLU811  SER814 

> <Gold.Protein.RotatedAtoms>
  151.1899  135.0398  159.8827 H   0  0  0  0  0  0  0  0  0  0  0  0  # atno 6907 bound_to 6896
  152.5440  134.0968  159.8311 H   0  0  0  0  0  0  0  0  0  0  0  0  # atno 6908 bound_to 6896
  151.1095  133.5136  159.2638 H   0  0  0  0  0  0  0  0  0  0  0  0  # atno 6909 bound_to 6896
  146.2285  139.8932  142.8551 H   0  0  0  0  0  0  0  0  0  0  0  0  # atno 7974 bound_to 7965
  154.5538  140.0721  156.8710 H   0  0  0  0  0  0  0  0  0  0  0  0  # atno 8008 bound_to 7997
  155.2942  140.3380  155.4232 H   0  0  0  0  0  0  0  0  0  0  0  0  # atno 8009 bound_to 7997
  156.1984  140.1712  156.7936 H   0  0  0  0  0  0  0  0  0  0  0  0  # atno 8010 bound_to 7997
  139.6625  143.9886  152.2234 H   0  0  0  0  0  0  0  0  0  0  0  0  # atno 10167 bound_to 10162
  157.0896  131.0414  151.2542 H   0  0  0  0  0  0  0  0  0  0  0  0  # atno 10718 bound_to 10713
  152.9784  135.5872  154.4287 H   0  0  0  0  0  0  0  0  0  0  0  0  # atno 10763 bound_to 10752
  154.3903  135.2768  155.2160 H   0  0  0  0  0  0  0  0  0  0  0  0  # atno 10764 bound_to 10752
  154.4036  135.6098  153.5965 H   0  0  0  0  0  0  0  0  0  0  0  0  # atno 10765 bound_to 10752
  139.8817  134.8760  156.3641 H   0  0  0  0  0  0  0  0  0  0  0  0  # atno 11005 bound_to 11000
  145.2397  141.0004  143.3943 LP  0  0  0  0  0  0  0  0  0  0  0  0  # atno 17320 bound_to 7965
  144.9462  139.4134  143.6425 LP  0  0  0  0  0  0  0  0  0  0  0  0  # atno 17321 bound_to 7965
  139.9629  144.6545  150.8062 LP  0  0  0  0  0  0  0  0  0  0  0  0  # atno 17342 bound_to 10162
  140.7586  143.3111  151.2844 LP  0  0  0  0  0  0  0  0  0  0  0  0  # atno 17343 bound_to 10162
  157.4732  130.7721  149.7343 LP  0  0  0  0  0  0  0  0  0  0  0  0  # atno 17370 bound_to 10713
  155.9901  130.3946  150.3041 LP  0  0  0  0  0  0  0  0  0  0  0  0  # atno 17371 bound_to 10713
  140.9509  133.7452  156.0270 LP  0  0  0  0  0  0  0  0  0  0  0  0  # atno 17394 bound_to 11000
  140.8107  134.3403  157.5412 LP  0  0  0  0  0  0  0  0  0  0  0  0  # atno 17395 bound_to 11000

$$$$
