#       Name:                AV-unprocessed.smi:3303
#       Creating user name   scv26
#       Creation time:       Fri Mar 27 19:02:34 2020


#       File generated by GOLD software.
#

@<TRIPOS>MOLECULE
AV-unprocessed.smi:3303
    46    47     1
SMALL
NO_CHARGES


@<TRIPOS>ATOM
      1 ****        -1.1117   1.0062  -1.8442 C.3            1 S1                 0.0000
      2 ****        -1.6299   0.2713  -0.5967 C.3            1 S1                 0.0000
      3 ****        -1.2475  -1.2204  -0.6102 C.3            1 S1                 0.0000
      4 ****        -1.8512  -1.9586   0.5291 N.4            1 S1                 1.0000
      5 ****        -1.5968  -3.4146   0.4058 C.3            1 S1                 0.0000
      6 ****        -1.4533  -1.3820   1.8484 C.3            1 S1                 0.0000
      7 ****        -2.1052  -2.1153   3.0369 C.3            1 S1                 0.0000
      8 ****        -1.8041   0.1225   1.9178 C.3            1 S1                 0.0000
      9 ****        -1.2367   0.9374   0.7429 C.3            1 S1                 0.0000
     10 ****         0.2091   1.0513   0.9032 N.3            1 S1                 0.0000
     11 ****         0.7074   2.3853   0.5971 C.3            1 S1                 0.0000
     12 ****         2.2405   2.3719   0.4719 C.3            1 S1                 0.0000
     13 ****         2.7310   1.5711  -0.7243 C.ar           1 S1                 0.0000
     14 ****         2.9410   2.2021  -1.9690 C.ar           1 S1                 0.0000
     15 ****         3.3671   1.4165  -3.0575 C.ar           1 S1                 0.0000
     16 ****         3.5635   0.0360  -2.8616 C.ar           1 S1                 0.0000
     17 ****         3.3271  -0.4991  -1.5799 C.ar           1 S1                 0.0000
     18 ****         2.9186   0.2451  -0.5299 N.ar           1 S1                 0.0000
     19 ****        -0.0248   0.9601  -1.9168 H              1 S1                 0.0000
     20 ****        -1.4070   2.0555  -1.8350 H              1 S1                 0.0000
     21 ****        -1.5167   0.5615  -2.7535 H              1 S1                 0.0000
     22 ****        -2.7187   0.3162  -0.6551 H              1 S1                 0.0000
     23 ****        -1.5905  -1.6657  -1.5451 H              1 S1                 0.0000
     24 ****        -0.1623  -1.3362  -0.5892 H              1 S1                 0.0000
     25 ****        -0.5463  -3.6447   0.5872 H              1 S1                 0.0000
     26 ****        -1.8521  -3.7691  -0.5934 H              1 S1                 0.0000
     27 ****        -2.2044  -3.9894   1.1038 H              1 S1                 0.0000
     28 ****        -0.3714  -1.4881   1.9459 H              1 S1                 0.0000
     29 ****        -1.8788  -1.6101   3.9764 H              1 S1                 0.0000
     30 ****        -1.7385  -3.1364   3.1395 H              1 S1                 0.0000
     31 ****        -3.1906  -2.1521   2.9365 H              1 S1                 0.0000
     32 ****        -2.8897   0.2315   1.9204 H              1 S1                 0.0000
     33 ****        -1.4621   0.5468   2.8631 H              1 S1                 0.0000
     34 ****        -1.6762   1.9352   0.7929 H              1 S1                 0.0000
     35 ****         0.4760   0.8148   1.8483 H              1 S1                 0.0000
     36 ****         0.2726   2.7640  -0.3273 H              1 S1                 0.0000
     37 ****         0.4010   3.0632   1.3944 H              1 S1                 0.0000
     38 ****         2.6027   3.3961   0.3765 H              1 S1                 0.0000
     39 ****         2.6911   1.9783   1.3844 H              1 S1                 0.0000
     40 ****         2.7739   3.2624  -2.0904 H              1 S1                 0.0000
     41 ****         3.5375   1.8640  -4.0255 H              1 S1                 0.0000
     42 ****         3.8890  -0.5973  -3.6736 H              1 S1                 0.0000
     43 ****         3.4679  -1.5534  -1.3933 H              1 S1                 0.0000
     44 ****        -2.8505  -1.8359   0.4493 H              1 S1                 0.0000
     45 ****         0.6164   0.4119   0.2511 LP             1 S1                 0.0000
     46 ****         2.7594  -0.1714   0.3652 LP             1 S1                 0.0000
@<TRIPOS>BOND
    1    1    2 1     
    2    1   19 1     
    3    1   20 1     
    4    1   21 1     
    5    2    9 1     
    6    2    3 1     
    7    2   22 1     
    8    3    4 1     
    9    3   23 1     
   10    3   24 1     
   11    4    5 1     
   12    4    6 1     
   13    4   44 1     
   14    5   25 1     
   15    5   26 1     
   16    5   27 1     
   17    6    7 1     
   18    6    8 1     
   19    6   28 1     
   20    7   29 1     
   21    7   30 1     
   22    7   31 1     
   23    8    9 1     
   24    8   32 1     
   25    8   33 1     
   26    9   10 1     
   27    9   34 1     
   28   10   11 1     
   29   10   35 1     
   30   11   12 1     
   31   11   36 1     
   32   11   37 1     
   33   12   13 1     
   34   12   38 1     
   35   12   39 1     
   36   13   18 ar    
   37   13   14 ar    
   38   14   15 ar    
   39   14   40 1     
   40   15   16 ar    
   41   15   41 1     
   42   16   17 ar    
   43   16   42 1     
   44   17   18 ar    
   45   17   43 1     
   46   10   45 1     
   47   18   46 1     
@<TRIPOS>SUBSTRUCTURE
      1 S1             1
@<TRIPOS>SET
LONE_PAIRS      STATIC     ATOMS    <user>   **** ""
2 45 46
DONOR_HYDROGENS      STATIC     ATOMS    <user>   **** ""
2 44 35
ATOM$BLUE        STATIC     ATOMS    COLORGROUP SYSTEM
2 45 46
ATOM$RED        STATIC     ATOMS    COLORGROUP SYSTEM
2 44 35
