AV-unprocessed.smi:2562|AV-procd|sdf|10049|dock2
  -GOLD-   2272014 93D 1   1.00000     0.00000
 Structure written by MMmdl.
 30 31  0  0  0  0  0  0  0  0  1 V2000
  153.7125  142.0122  162.0764 C   0  0  0  0  0  0  0  0  0  0  0  0
  153.2371  142.0817  160.6209 C   0  0  0  0  0  0  0  0  0  0  0  0
  152.3110  143.2788  160.3597 C   0  0  0  0  0  0  0  0  0  0  0  0
  151.6527  143.2030  159.0217 C   0  0  0  0  0  0  0  0  0  0  0  0
  150.8194  144.1559  158.6064 N   0  0  0  0  0  0  0  0  0  0  0  0
  150.4325  143.6840  157.4025 N   0  0  0  0  0  0  0  0  0  0  0  0
  151.0209  142.5070  157.1773 C   0  0  0  0  0  0  0  0  0  0  0  0
  150.7934  141.7332  155.9168 C   0  0  1  0  0  0  0  0  0  0  0  0
  151.4879  140.3576  155.9399 C   0  0  0  0  0  0  0  0  0  0  0  0
  151.1645  139.6074  154.7275 N   0  0  0  0  0  0  0  0  0  0  0  0
  149.7177  139.4879  154.5524 C   0  0  0  0  0  0  0  0  0  0  0  0
  149.0597  140.8794  154.5701 C   0  0  0  0  0  0  0  0  0  0  0  0
  149.3863  141.5479  155.7841 O   0  0  0  0  0  0  0  0  0  0  0  0
  151.8155  142.1394  158.1786 N   0  0  0  0  0  0  0  0  0  0  0  0
  149.7880  144.1737  156.7985 H   0  0  0  0  0  0  0  0  0  0  0  0
  154.3691  141.1554  162.2298 H   0  0  0  0  0  0  0  0  0  0  0  0
  152.8701  141.9131  162.7614 H   0  0  0  0  0  0  0  0  0  0  0  0
  154.2668  142.9095  162.3528 H   0  0  0  0  0  0  0  0  0  0  0  0
  154.1052  142.1409  159.9630 H   0  0  0  0  0  0  0  0  0  0  0  0
  152.7197  141.1558  160.3669 H   0  0  0  0  0  0  0  0  0  0  0  0
  151.5434  143.3328  161.1330 H   0  0  0  0  0  0  0  0  0  0  0  0
  152.8777  144.2086  160.4212 H   0  0  0  0  0  0  0  0  0  0  0  0
  151.1612  142.3257  155.0764 H   0  0  0  0  0  0  0  0  0  0  0  0
  152.5674  140.4822  156.0265 H   0  0  0  0  0  0  0  0  0  0  0  0
  151.1652  139.7959  156.8177 H   0  0  0  0  0  0  0  0  0  0  0  0
  151.5781  138.6819  154.7796 H   0  0  0  0  0  0  0  0  0  0  0  0
  149.4941  138.9788  153.6147 H   0  0  0  0  0  0  0  0  0  0  0  0
  149.2971  138.8747  155.3504 H   0  0  0  0  0  0  0  0  0  0  0  0
  149.3797  141.4743  153.7130 H   0  0  0  0  0  0  0  0  0  0  0  0
  147.9763  140.7820  154.5024 H   0  0  0  0  0  0  0  0  0  0  0  0
  1  2  1  0  0  0  0
  1 16  1  0  0  0  0
  1 17  1  0  0  0  0
  1 18  1  0  0  0  0
  2  3  1  0  0  0  0
  2 19  1  0  0  0  0
  2 20  1  0  0  0  0
  3  4  1  0  0  0  0
  3 21  1  0  0  0  0
  3 22  1  0  0  0  0
  4 14  1  0  0  0  0
  4  5  2  0  0  0  0
  5  6  1  0  0  0  0
  6 15  1  0  0  0  0
  6  7  1  0  0  0  0
  7  8  1  0  0  0  0
  7 14  2  0  0  0  0
  8 13  1  0  0  0  0
  8  9  1  0  0  0  0
  8 23  1  0  0  0  0
  9 10  1  0  0  0  0
  9 24  1  0  0  0  0
  9 25  1  0  0  0  0
 10 11  1  0  0  0  0
 10 26  1  0  0  0  0
 11 12  1  0  0  0  0
 11 27  1  0  0  0  0
 11 28  1  0  0  0  0
 12 13  1  0  0  0  0
 12 29  1  0  0  0  0
 12 30  1  0  0  0  0
M  END
> <s_m_source_file>
AV-unprocessed.smi

> <i_m_source_file_index>
2562

> <i_lp_mmshare_version>
43012

> <i_f3d_flags>
0

> <s_epik_input>
W0NIM11bQ0gyXVtDSDJdYzFuW25IXWMobjEpW0NAQEhdMltDSDJdW05IXVtDSDJdW0NIMl1PMg==

> <s_epik_cmdline>
J2VwaWtfcHl0aG9uJywgJy1waCcsICc3LjAnLCAnLXRuJywgJzgnLCAnLW1hJywgJzIwMCcsICctbWV0YWxfYmluZGluZycsICctaW1hZScsICc8aW5maWxlLm1hZT4nLCAnLW9tYWUnLCAnPG91dGZpbGUubWFlPic=

> <r_lp_tautomer_probability>
0.948284

> <r_epik_Ionization_Penalty>
0.982917

> <r_epik_Ionization_Penalty_Charging>
0

> <r_epik_Ionization_Penalty_Neutral>
0.982917

> <r_epik_State_Penalty>
1.68334

> <r_epik_Charging_Adjusted_Penalty>
1.68334

> <i_epik_Tot_Q>
0

> <i_epik_Tot_abs_Q>
0

> <r_epik_Metal_State_Penalty>
1.80323

> <b_epik_Metal_Only>
0

> <s_lp_Force_Field>
OPLS_2005

> <r_lp_Energy>
10.1015

> <b_lp_Chiralities_Consistent>
1

> <s_lp_Variant>
AV-unprocessed.smi:2562-8

> <Gold.Version>
5.8.1

> <Gold.Id.Protein>
6NUR|6NUR_protein|mol2

> <Gold.PLP.Fitness>
38.0214

> <Gold.PLP.PLP>
-32.1885

> <Gold.PLP.part.hbond>
-2.0000

> <Gold.PLP.part.metal>
0.0000

> <Gold.PLP.part.buried>
-4.8688

> <Gold.PLP.part.nonpolar>
-24.8122

> <Gold.PLP.part.repulsive>
0.2687

> <Gold.PLP.ligand.clash>
0.0000

> <Gold.PLP.ligand.torsion>
0.0864

> <Gold.PLP.Chemscore.Hbond>
2.0000

> <Gold.PLP.Chemscore.CHOScore>
0.0000

> <Gold.PLP.Chemscore.Metal>
0.0000

> <Gold.Chemscore.Hbonds>
donor molecule, donor type, donor heavy atom, donor atom, acceptor molecule, acceptor atom, score
      L1  H     6    15       P1  8028  1.00
      P1  H  7989  7998       L1    10  0.95

> <Gold.PLP.Chemscore.Internal.Correction>
0.0058

> <Gold.Rescore>
     Score         DG    S(hbond)    S(metal)    S(lipo)     H(rot)  DE(clash)    DE(int)     intcor
     12.46     -12.53       1.01        0.00      63.84       1.48       0.01       0.06       ----

> <Gold.Chemscore.Fitness>
12.4581

> <Gold.Chemscore.DG>
-12.5345

> <Gold.Chemscore.ZeroCoef>
-5.4800

> <Gold.Chemscore.Hbond>
1.0080

> <Gold.Chemscore.Metal>
0.0000

> <Gold.Chemscore.Lipo>
63.8353

> <Gold.Chemscore.Internal_Hbond>
0.0000

> <Gold.Chemscore.DEClash>
0.0141

> <Gold.Chemscore.DEInternal>
0.0624

> <Gold.Chemscore.Rot>
1.4769

> <Gold.Chemscore.Internal.Correction>
   9.000000E+99

> <Gold.Chemscore.Hbonds>
donor molecule, donor type, donor heavy atom, donor atom, acceptor molecule, acceptor atom, score
      L1  H     6    15       P1  8028  0.82
      P1  H  7989  7998       L1    10  0.10

> <Gold.Chemscore.Hbond.Weighted>
-3.3666

> <Gold.Chemscore.Metal.Weighted>
-0.0000

> <Gold.Chemscore.Lipo.Weighted>
-7.4687

> <Gold.Chemscore.Internal_Hbond.Weighted>
0.0000

> <Gold.Chemscore.DEClash.Weighted>
0.0141

> <Gold.Chemscore.DEInternal.Weighted>
0.0624

> <Gold.Chemscore.Rot.Weighted>
3.7808

> <Gold.Chemscore.Internal.Correction.Weighted>
   9.000000E+99

> <Gold.Protein.RotatedTorsions>
[ 6907 6896 6895 6894 ] final  -83.23 input  -60.11 | X-H torsion
[ 7974 7965 7964 7962 ] final -110.39 input  175.53 | X-H torsion
[ 8008 7997 7996 7995 ] final -140.33 input   59.86 | X-H torsion
[ 10167 10162 10161 10158 ] final  -78.58 input  -65.29 | X-H torsion
[ 10718 10713 10712 10709 ] final -158.70 input   66.30 | X-H torsion
[ 10763 10752 10751 10750 ] final   37.27 input  -60.55 | X-H torsion
[ 11005 11000 10999 10996 ] final  108.11 input  -57.11 | X-H torsion

> <Gold.Protein.ActiveResidues>
 VAL166  LYS551  ARG553  GLY616  TRP617  ASP618  TYR619  PRO620  LYS621  CYS622 
 ASP623  PHE694  ASN695  SER759  ASP760  ASP761  ALA762  ILE779  LEU786  VAL792 
 PHE793  MET794  SER795  GLU796  ALA797  LYS798  CYS799  TRP800  GLU811  SER814 

> <Gold.Protein.RotatedAtoms>
  150.6888  134.3544  159.4922 H   0  0  0  0  0  0  0  0  0  0  0  0  # atno 6907 bound_to 6896
  152.1381  134.9081  160.0564 H   0  0  0  0  0  0  0  0  0  0  0  0  # atno 6908 bound_to 6896
  152.0225  133.3869  159.4301 H   0  0  0  0  0  0  0  0  0  0  0  0  # atno 6909 bound_to 6896
  145.1688  140.8915  143.3547 H   0  0  0  0  0  0  0  0  0  0  0  0  # atno 7974 bound_to 7965
  155.4596  140.0544  157.2992 H   0  0  0  0  0  0  0  0  0  0  0  0  # atno 8008 bound_to 7997
  154.4743  140.2054  155.9872 H   0  0  0  0  0  0  0  0  0  0  0  0  # atno 8009 bound_to 7997
  156.1106  140.3204  155.8072 H   0  0  0  0  0  0  0  0  0  0  0  0  # atno 8010 bound_to 7997
  140.4669  143.2437  151.8263 H   0  0  0  0  0  0  0  0  0  0  0  0  # atno 10167 bound_to 10162
  156.5578  130.8634  151.2800 H   0  0  0  0  0  0  0  0  0  0  0  0  # atno 10718 bound_to 10713
  153.0044  135.6282  154.2118 H   0  0  0  0  0  0  0  0  0  0  0  0  # atno 10763 bound_to 10752
  154.1861  135.2811  155.3038 H   0  0  0  0  0  0  0  0  0  0  0  0  # atno 10764 bound_to 10752
  154.5796  135.5651  153.7232 H   0  0  0  0  0  0  0  0  0  0  0  0  # atno 10765 bound_to 10752
  139.8839  134.9421  156.5922 H   0  0  0  0  0  0  0  0  0  0  0  0  # atno 11005 bound_to 11000
  145.0254  139.3387  143.6051 LP  0  0  0  0  0  0  0  0  0  0  0  0  # atno 17320 bound_to 7965
  146.3472  139.9571  142.8722 LP  0  0  0  0  0  0  0  0  0  0  0  0  # atno 17321 bound_to 7965
  139.4813  144.4939  151.9149 LP  0  0  0  0  0  0  0  0  0  0  0  0  # atno 17342 bound_to 10162
  140.4024  144.2475  150.5892 LP  0  0  0  0  0  0  0  0  0  0  0  0  # atno 17343 bound_to 10162
  157.7374  130.9796  150.2194 LP  0  0  0  0  0  0  0  0  0  0  0  0  # atno 17370 bound_to 10713
  156.2826  130.3735  149.7920 LP  0  0  0  0  0  0  0  0  0  0  0  0  # atno 17371 bound_to 10713
  140.7947  133.8554  155.8675 LP  0  0  0  0  0  0  0  0  0  0  0  0  # atno 17394 bound_to 11000
  140.9646  134.1611  157.4626 LP  0  0  0  0  0  0  0  0  0  0  0  0  # atno 17395 bound_to 11000

$$$$
