AV-unprocessed.smi:1647|AV-procd|sdf|6625|dock3
  -GOLD-   22720 7323D 1   1.00000     0.00000
 Structure written by MMmdl.
 39 40  0  0  0  0  0  0  0  0  1 V2000
  144.4433  135.5387  151.3565 C   0  0  0  0  0  0  0  0  0  0  0  0
  145.4085  136.4513  151.1707 C   0  0  0  0  0  0  0  0  0  0  0  0
  145.5683  137.7105  151.9996 C   0  0  0  0  0  0  0  0  0  0  0  0
  146.9319  137.8550  152.4939 N   0  0  0  0  0  0  0  0  0  0  0  0
  147.3350  138.7779  153.3790 C   0  0  0  0  0  0  0  0  0  0  0  0
  146.5870  139.6311  153.8558 O   0  0  0  0  0  0  0  0  0  0  0  0
  148.6449  138.6468  153.6505 N   0  0  0  0  0  0  0  0  0  0  0  0
  149.4458  139.3635  154.5816 C   0  0  0  0  0  0  0  0  0  0  0  0
  150.7525  138.9927  154.9774 C   0  0  0  0  0  0  0  0  0  0  0  0
  151.4469  139.8105  155.8895 C   0  0  0  0  0  0  0  0  0  0  0  0
  150.8272  140.9833  156.3810 C   0  0  0  0  0  0  0  0  0  0  0  0
  151.5157  141.8246  157.2820 N   0  0  0  0  0  0  0  0  0  0  0  0
  151.0476  143.2124  157.3069 C   0  0  0  0  0  0  0  0  0  0  0  0
  152.0597  144.1310  158.0124 C   0  0  0  0  0  0  0  0  0  0  0  0
  152.4035  143.6015  159.4121 C   0  0  0  0  0  0  0  0  0  0  0  0
  152.8989  142.1515  159.3156 C   0  0  0  0  0  0  0  0  0  0  0  0
  151.8739  141.2648  158.5882 C   0  0  0  0  0  0  0  0  0  0  0  0
  149.5742  141.3343  156.0012 N   0  0  0  0  0  0  0  0  0  0  0  0
  148.9126  140.5483  155.1270 C   0  0  0  0  0  0  0  0  0  0  0  0
  143.7043  135.6543  152.1360 H   0  0  0  0  0  0  0  0  0  0  0  0
  144.3813  134.6612  150.7298 H   0  0  0  0  0  0  0  0  0  0  0  0
  146.1294  136.3022  150.3800 H   0  0  0  0  0  0  0  0  0  0  0  0
  145.3366  138.5709  151.3717 H   0  0  0  0  0  0  0  0  0  0  0  0
  144.8570  137.7208  152.8274 H   0  0  0  0  0  0  0  0  0  0  0  0
  147.6144  137.1974  152.1460 H   0  0  0  0  0  0  0  0  0  0  0  0
  149.1356  137.9439  153.1173 H   0  0  0  0  0  0  0  0  0  0  0  0
  151.2448  138.1117  154.5977 H   0  0  0  0  0  0  0  0  0  0  0  0
  152.4405  139.5280  156.2046 H   0  0  0  0  0  0  0  0  0  0  0  0
  150.8671  143.5945  156.3030 H   0  0  0  0  0  0  0  0  0  0  0  0
  150.0908  143.2457  157.8293 H   0  0  0  0  0  0  0  0  0  0  0  0
  152.9691  144.1989  157.4139 H   0  0  0  0  0  0  0  0  0  0  0  0
  151.6586  145.1424  158.0832 H   0  0  0  0  0  0  0  0  0  0  0  0
  153.1627  144.2300  159.8781 H   0  0  0  0  0  0  0  0  0  0  0  0
  151.5210  143.6481  160.0513 H   0  0  0  0  0  0  0  0  0  0  0  0
  153.8488  142.1250  158.7801 H   0  0  0  0  0  0  0  0  0  0  0  0
  153.0936  141.7550  160.3125 H   0  0  0  0  0  0  0  0  0  0  0  0
  150.9723  141.1653  159.1941 H   0  0  0  0  0  0  0  0  0  0  0  0
  152.2924  140.2649  158.4646 H   0  0  0  0  0  0  0  0  0  0  0  0
  147.9219  140.8806  154.8524 H   0  0  0  0  0  0  0  0  0  0  0  0
  1  2  2  0  0  0  0
  1 20  1  0  0  0  0
  1 21  1  0  0  0  0
  2  3  1  0  0  0  0
  2 22  1  0  0  0  0
  3  4  1  0  0  0  0
  3 23  1  0  0  0  0
  3 24  1  0  0  0  0
  4  5  1  0  0  0  0
  4 25  1  0  0  0  0
  5  6  2  0  0  0  0
  5  7  1  0  0  0  0
  7  8  1  0  0  0  0
  7 26  1  0  0  0  0
  8 19  1  0  0  0  0
  8  9  2  0  0  0  0
  9 10  1  0  0  0  0
  9 27  1  0  0  0  0
 10 11  2  0  0  0  0
 10 28  1  0  0  0  0
 11 12  1  0  0  0  0
 11 18  1  0  0  0  0
 12 17  1  0  0  0  0
 12 13  1  0  0  0  0
 13 14  1  0  0  0  0
 13 29  1  0  0  0  0
 13 30  1  0  0  0  0
 14 15  1  0  0  0  0
 14 31  1  0  0  0  0
 14 32  1  0  0  0  0
 15 16  1  0  0  0  0
 15 33  1  0  0  0  0
 15 34  1  0  0  0  0
 16 17  1  0  0  0  0
 16 35  1  0  0  0  0
 16 36  1  0  0  0  0
 17 37  1  0  0  0  0
 17 38  1  0  0  0  0
 18 19  2  0  0  0  0
 19 39  1  0  0  0  0
M  END
> <s_m_source_file>
AV-unprocessed.smi

> <i_m_source_file_index>
1647

> <i_lp_mmshare_version>
43012

> <i_f3d_flags>
0

> <s_epik_input>
W0NIMl09W0NIXVtDSDJdW05IXUMoPU8pW05IXWMxW2NIXVtjSF1jKG5bY0hdMSlOMltDSDJdW0NIMl1bQ0gyXVtDSDJdW0NIMl0y

> <s_epik_cmdline>
J2VwaWtfcHl0aG9uJywgJy1waCcsICc3LjAnLCAnLXRuJywgJzgnLCAnLW1hJywgJzIwMCcsICctbWV0YWxfYmluZGluZycsICctaW1hZScsICc8aW5maWxlLm1hZT4nLCAnLW9tYWUnLCAnPG91dGZpbGUubWFlPic=

> <r_lp_tautomer_probability>
1

> <r_epik_Ionization_Penalty>
0.279668

> <r_epik_Ionization_Penalty_Charging>
0

> <r_epik_Ionization_Penalty_Neutral>
0.279668

> <r_epik_State_Penalty>
0.266067

> <r_epik_Charging_Adjusted_Penalty>
0.266067

> <i_epik_Tot_Q>
0

> <i_epik_Tot_abs_Q>
0

> <r_epik_Metal_State_Penalty>
0.180941

> <b_epik_Metal_Only>
0

> <s_lp_Force_Field>
OPLS_2005

> <r_lp_Energy>
18.0201

> <b_lp_Chiralities_Consistent>
1

> <s_lp_Variant>
AV-unprocessed.smi:1647-1

> <Gold.Version>
5.8.1

> <Gold.Id.Protein>
6NUR|6NUR_protein|mol2

> <Gold.PLP.Fitness>
43.5193

> <Gold.PLP.PLP>
-38.8604

> <Gold.PLP.part.hbond>
-2.8692

> <Gold.PLP.part.metal>
0.0000

> <Gold.PLP.part.buried>
1.2232

> <Gold.PLP.part.nonpolar>
-38.9545

> <Gold.PLP.part.repulsive>
0.4141

> <Gold.PLP.ligand.clash>
0.0000

> <Gold.PLP.ligand.torsion>
0.4540

> <Gold.PLP.Chemscore.Hbond>
1.7278

> <Gold.PLP.Chemscore.CHOScore>
0.0000

> <Gold.PLP.Chemscore.Metal>
0.0000

> <Gold.Chemscore.Hbonds>
donor molecule, donor type, donor heavy atom, donor atom, acceptor molecule, acceptor atom, score
      L1  H     4    25       P1  7948  1.00
      L1  H     7    26       P1  7948  0.77

> <Gold.PLP.Chemscore.Internal.Correction>
0.3834

> <Gold.Rescore>
     Score         DG    S(hbond)    S(metal)    S(lipo)     H(rot)  DE(clash)    DE(int)     intcor
     17.16     -19.28       1.74        0.00      97.10       1.32       0.26       1.85       ----

> <Gold.Chemscore.Fitness>
17.1616

> <Gold.Chemscore.DG>
-19.2757

> <Gold.Chemscore.ZeroCoef>
-5.4800

> <Gold.Chemscore.Hbond>
1.7421

> <Gold.Chemscore.Metal>
0.0000

> <Gold.Chemscore.Lipo>
97.1005

> <Gold.Chemscore.Internal_Hbond>
0.0000

> <Gold.Chemscore.DEClash>
0.2598

> <Gold.Chemscore.DEInternal>
1.8543

> <Gold.Chemscore.Rot>
1.3218

> <Gold.Chemscore.Internal.Correction>
   9.000000E+99

> <Gold.Chemscore.Hbonds>
donor molecule, donor type, donor heavy atom, donor atom, acceptor molecule, acceptor atom, score
      L1  H     4    25       P1  7948  1.00
      L1  H     7    26       P1  7948  0.73

> <Gold.Chemscore.Hbond.Weighted>
-5.8187

> <Gold.Chemscore.Metal.Weighted>
-0.0000

> <Gold.Chemscore.Lipo.Weighted>
-11.3608

> <Gold.Chemscore.Internal_Hbond.Weighted>
0.0000

> <Gold.Chemscore.DEClash.Weighted>
0.2598

> <Gold.Chemscore.DEInternal.Weighted>
1.8543

> <Gold.Chemscore.Rot.Weighted>
3.3838

> <Gold.Chemscore.Internal.Correction.Weighted>
   9.000000E+99

> <Gold.Protein.RotatedTorsions>
[ 6907 6896 6895 6894 ] final  -22.96 input  -60.11 | X-H torsion
[ 7974 7965 7964 7962 ] final -150.11 input  175.53 | X-H torsion
[ 8008 7997 7996 7995 ] final  -42.78 input   59.86 | X-H torsion
[ 10167 10162 10161 10158 ] final -168.92 input  -65.29 | X-H torsion
[ 10718 10713 10712 10709 ] final  137.45 input   66.30 | X-H torsion
[ 10763 10752 10751 10750 ] final   50.24 input  -60.55 | X-H torsion
[ 11005 11000 10999 10996 ] final  -66.80 input  -57.11 | X-H torsion

> <Gold.Protein.ActiveResidues>
 VAL166  LYS551  ARG553  GLY616  TRP617  ASP618  TYR619  PRO620  LYS621  CYS622 
 ASP623  PHE694  ASN695  SER759  ASP760  ASP761  ALA762  ILE779  LEU786  VAL792 
 PHE793  MET794  SER795  GLU796  ALA797  LYS798  CYS799  TRP800  GLU811  SER814 

> <Gold.Protein.RotatedAtoms>
  151.2109  135.0481  159.8910 H   0  0  0  0  0  0  0  0  0  0  0  0  # atno 6907 bound_to 6896
  152.5424  134.0746  159.8219 H   0  0  0  0  0  0  0  0  0  0  0  0  # atno 6908 bound_to 6896
  151.0899  133.5276  159.2647 H   0  0  0  0  0  0  0  0  0  0  0  0  # atno 6909 bound_to 6896
  144.7927  140.4975  143.5762 H   0  0  0  0  0  0  0  0  0  0  0  0  # atno 7974 bound_to 7965
  154.3998  140.1464  156.3411 H   0  0  0  0  0  0  0  0  0  0  0  0  # atno 8008 bound_to 7997
  155.8355  140.3464  155.5578 H   0  0  0  0  0  0  0  0  0  0  0  0  # atno 8009 bound_to 7997
  155.8142  140.0888  157.1877 H   0  0  0  0  0  0  0  0  0  0  0  0  # atno 8010 bound_to 7997
  139.5955  144.1122  152.1684 H   0  0  0  0  0  0  0  0  0  0  0  0  # atno 10167 bound_to 10162
  157.4360  131.1053  151.0197 H   0  0  0  0  0  0  0  0  0  0  0  0  # atno 10718 bound_to 10713
  152.9785  135.5885  154.4221 H   0  0  0  0  0  0  0  0  0  0  0  0  # atno 10763 bound_to 10752
  154.3844  135.2767  155.2194 H   0  0  0  0  0  0  0  0  0  0  0  0  # atno 10764 bound_to 10752
  154.4094  135.6085  153.5998 H   0  0  0  0  0  0  0  0  0  0  0  0  # atno 10765 bound_to 10752
  141.1491  133.6706  156.6194 H   0  0  0  0  0  0  0  0  0  0  0  0  # atno 11005 bound_to 11000
  145.5753  139.1485  143.3265 LP  0  0  0  0  0  0  0  0  0  0  0  0  # atno 17320 bound_to 7965
  146.2184  140.5885  142.9028 LP  0  0  0  0  0  0  0  0  0  0  0  0  # atno 17321 bound_to 7965
  140.0706  144.5782  150.7195 LP  0  0  0  0  0  0  0  0  0  0  0  0  # atno 17342 bound_to 10162
  140.7208  143.2587  151.4284 LP  0  0  0  0  0  0  0  0  0  0  0  0  # atno 17343 bound_to 10162
  157.1077  130.6008  149.5474 LP  0  0  0  0  0  0  0  0  0  0  0  0  # atno 17370 bound_to 10713
  155.9930  130.4990  150.7365 LP  0  0  0  0  0  0  0  0  0  0  0  0  # atno 17371 bound_to 10713
  140.3552  134.7735  157.4495 LP  0  0  0  0  0  0  0  0  0  0  0  0  # atno 17394 bound_to 11000
  140.0829  134.5707  155.8522 LP  0  0  0  0  0  0  0  0  0  0  0  0  # atno 17395 bound_to 11000

$$$$
