AV-unprocessed.smi:790|AV-procd|sdf|3743|dock9
  -GOLD-   22720 1173D 1   1.00000     0.00000
 Structure written by MMmdl.
 38 40  0  0  0  0  0  0  0  0  1 V2000
  145.6737  137.5563  154.4278 O   0  0  0  0  0  0  0  0  0  0  0  0
  146.5976  137.0315  153.8077 C   0  0  0  0  0  0  0  0  0  0  0  0
  147.7975  137.5904  153.5739 N   0  0  0  0  0  0  0  0  0  0  0  0
  148.2656  138.8818  153.9400 C   0  0  0  0  0  0  0  0  0  0  0  0
  147.3451  139.9494  153.9033 C   0  0  0  0  0  0  0  0  0  0  0  0
  147.7715  141.2384  154.2753 C   0  0  0  0  0  0  0  0  0  0  0  0
  149.1091  141.4099  154.6798 C   0  0  0  0  0  0  0  0  0  0  0  0
  150.0005  140.3981  154.7341 N   0  0  0  0  0  0  0  0  0  0  0  0
  149.5848  139.1639  154.3751 C   0  0  0  0  0  0  0  0  0  0  0  0
  146.5339  135.7955  153.2930 N   0  0  0  0  0  0  0  0  0  0  0  0
  145.3683  134.9110  153.3497 C   0  0  1  0  0  0  0  0  0  0  0  0
  144.1190  135.5420  152.6859 C   0  0  1  0  0  0  0  0  0  0  0  0
  144.4377  136.0685  151.2702 C   0  0  0  0  0  0  0  0  0  0  0  0
  144.6462  134.7711  150.4692 C   0  0  0  0  0  0  0  0  0  0  0  0
  144.3850  133.6705  151.5190 C   0  0  2  0  0  0  0  0  0  0  0  0
  143.2814  134.3117  152.3521 C   0  0  0  0  0  0  0  0  0  0  0  0
  145.5265  133.5777  152.5615 C   0  0  1  0  0  0  0  0  0  0  0  0
  146.9269  133.2384  152.0025 C   0  0  0  0  0  0  0  0  0  0  0  0
  146.8991  131.9979  151.3286 O   0  0  0  0  0  0  0  0  0  0  0  0
  148.4759  137.0021  153.1124 H   0  0  0  0  0  0  0  0  0  0  0  0
  146.3239  139.7862  153.5910 H   0  0  0  0  0  0  0  0  0  0  0  0
  147.0898  142.0756  154.2519 H   0  0  0  0  0  0  0  0  0  0  0  0
  149.4713  142.3844  154.9716 H   0  0  0  0  0  0  0  0  0  0  0  0
  150.3370  138.3964  154.4645 H   0  0  0  0  0  0  0  0  0  0  0  0
  147.3461  135.4402  152.8104 H   0  0  0  0  0  0  0  0  0  0  0  0
  145.1300  134.6850  154.3911 H   0  0  0  0  0  0  0  0  0  0  0  0
  143.6171  136.2762  153.3169 H   0  0  0  0  0  0  0  0  0  0  0  0
  143.5871  136.6234  150.8717 H   0  0  0  0  0  0  0  0  0  0  0  0
  145.3010  136.7325  151.2294 H   0  0  0  0  0  0  0  0  0  0  0  0
  143.9173  134.7069  149.6604 H   0  0  0  0  0  0  0  0  0  0  0  0
  145.6349  134.7102  150.0164 H   0  0  0  0  0  0  0  0  0  0  0  0
  144.1174  132.7080  151.0819 H   0  0  0  0  0  0  0  0  0  0  0  0
  143.0023  133.7263  153.2301 H   0  0  0  0  0  0  0  0  0  0  0  0
  142.3816  134.5411  151.7783 H   0  0  0  0  0  0  0  0  0  0  0  0
  145.2677  132.7703  153.2494 H   0  0  0  0  0  0  0  0  0  0  0  0
  147.2998  134.0069  151.3264 H   0  0  0  0  0  0  0  0  0  0  0  0
  147.6457  133.1598  152.8183 H   0  0  0  0  0  0  0  0  0  0  0  0
  147.7844  131.7613  151.0977 H   0  0  0  0  0  0  0  0  0  0  0  0
  1  2  2  0  0  0  0
  2  3  1  0  0  0  0
  2 10  1  0  0  0  0
  3  4  1  0  0  0  0
  3 20  1  0  0  0  0
  4  9  1  0  0  0  0
  4  5  2  0  0  0  0
  5  6  1  0  0  0  0
  5 21  1  0  0  0  0
  6  7  2  0  0  0  0
  6 22  1  0  0  0  0
  7  8  1  0  0  0  0
  7 23  1  0  0  0  0
  8  9  2  0  0  0  0
  9 24  1  0  0  0  0
 10 11  1  0  0  0  0
 10 25  1  0  0  0  0
 11 17  1  0  0  0  0
 11 12  1  0  0  0  0
 11 26  1  0  0  0  0
 12 16  1  0  0  0  0
 12 13  1  0  0  0  0
 12 27  1  0  0  0  0
 13 14  1  0  0  0  0
 13 28  1  0  0  0  0
 13 29  1  0  0  0  0
 14 15  1  0  0  0  0
 14 30  1  0  0  0  0
 14 31  1  0  0  0  0
 15 16  1  0  0  0  0
 15 17  1  0  0  0  0
 15 32  1  0  0  0  0
 16 33  1  0  0  0  0
 16 34  1  0  0  0  0
 17 18  1  0  0  0  0
 17 35  1  0  0  0  0
 18 19  1  0  0  0  0
 18 36  1  0  0  0  0
 18 37  1  0  0  0  0
 19 38  1  0  0  0  0
M  END
> <s_m_source_file>
AV-unprocessed.smi

> <i_m_source_file_index>
790

> <i_lp_mmshare_version>
43012

> <i_f3d_flags>
0

> <s_epik_input>
W0NIMl0xW0NIMl1bQ0BASF0oW0NIMl0yKVtDQEBIXShbQ0gyXVtPSF0pW0NAQEhdKFtDQEhdMTIpW05IXUMoPU8pW05IXWMzW2NIXVtjSF1bY0hdbltjSF0z

> <s_epik_cmdline>
J2VwaWtfcHl0aG9uJywgJy1waCcsICc3LjAnLCAnLXRuJywgJzgnLCAnLW1hJywgJzIwMCcsICctbWV0YWxfYmluZGluZycsICctaW1hZScsICc8aW5maWxlLm1hZT4nLCAnLW9tYWUnLCAnPG91dGZpbGUubWFlPic=

> <r_epik_Ionization_Penalty>
0.00497582

> <r_epik_Ionization_Penalty_Charging>
0

> <r_epik_Ionization_Penalty_Neutral>
0.00497582

> <r_epik_State_Penalty>
0.00358602

> <r_epik_Charging_Adjusted_Penalty>
0.00358602

> <i_epik_Tot_Q>
0

> <i_epik_Tot_abs_Q>
0

> <r_epik_Metal_State_Penalty>
-0

> <b_epik_Metal_Only>
0

> <s_lp_Force_Field>
OPLS_2005

> <r_lp_Energy>
55.7442

> <b_lp_Chiralities_Consistent>
1

> <s_lp_Variant>
AV-unprocessed.smi:790-4

> <Gold.Version>
5.8.1

> <Gold.Id.Protein>
6NUR|6NUR_protein|mol2

> <Gold.PLP.Fitness>
43.1216

> <Gold.PLP.PLP>
-29.8426

> <Gold.PLP.part.hbond>
-3.7597

> <Gold.PLP.part.metal>
0.0000

> <Gold.PLP.part.buried>
-0.4759

> <Gold.PLP.part.nonpolar>
-25.0671

> <Gold.PLP.part.repulsive>
0.2211

> <Gold.PLP.ligand.clash>
0.0000

> <Gold.PLP.ligand.torsion>
0.2889

> <Gold.PLP.Chemscore.Hbond>
3.6160

> <Gold.PLP.Chemscore.CHOScore>
1.0000

> <Gold.PLP.Chemscore.Metal>
0.0000

> <Gold.Chemscore.Hbonds>
donor molecule, donor type, donor heavy atom, donor atom, acceptor molecule, acceptor atom, score
      L1  H     3    20       P1  7948  1.00
      L1  H    10    25       P1  7948  0.75
      L1  H    19    38       P1 10747  1.00
      P1  H  7989  7998       L1     8  0.80
      L1  C     7    23       P1  8028  1.00

> <Gold.PLP.Chemscore.Internal.Correction>
0.0087

> <Gold.Rescore>
     Score         DG    S(hbond)    S(metal)    S(lipo)     H(rot)  DE(clash)    DE(int)     intcor
     18.02     -19.82       3.28        0.00      67.74       1.78       0.34       1.46       ----

> <Gold.Chemscore.Fitness>
18.0188

> <Gold.Chemscore.DG>
-19.8231

> <Gold.Chemscore.ZeroCoef>
-5.4800

> <Gold.Chemscore.Hbond>
3.2843

> <Gold.Chemscore.Metal>
0.0000

> <Gold.Chemscore.Lipo>
67.7437

> <Gold.Chemscore.Internal_Hbond>
0.0000

> <Gold.Chemscore.DEClash>
0.3435

> <Gold.Chemscore.DEInternal>
1.4608

> <Gold.Chemscore.Rot>
1.7783

> <Gold.Chemscore.Internal.Correction>
   9.000000E+99

> <Gold.Chemscore.Hbonds>
donor molecule, donor type, donor heavy atom, donor atom, acceptor molecule, acceptor atom, score
      L1  H     3    20       P1  7948  0.90
      L1  H    10    25       P1  7948  0.70
      L1  H    19    38       P1 10747  0.98
      P1  H  7989  7998       L1     8  0.30

> <Gold.Chemscore.Hbond.Weighted>
-10.9696

> <Gold.Chemscore.Metal.Weighted>
-0.0000

> <Gold.Chemscore.Lipo.Weighted>
-7.9260

> <Gold.Chemscore.Internal_Hbond.Weighted>
0.0000

> <Gold.Chemscore.DEClash.Weighted>
0.3435

> <Gold.Chemscore.DEInternal.Weighted>
1.4608

> <Gold.Chemscore.Rot.Weighted>
4.5525

> <Gold.Chemscore.Internal.Correction.Weighted>
   9.000000E+99

> <Gold.Protein.RotatedTorsions>
[ 6907 6896 6895 6894 ] final  -28.38 input  -60.11 | X-H torsion
[ 7974 7965 7964 7962 ] final   -8.20 input  175.53 | X-H torsion
[ 8008 7997 7996 7995 ] final  161.46 input   59.86 | X-H torsion
[ 10167 10162 10161 10158 ] final   17.75 input  -65.29 | X-H torsion
[ 10718 10713 10712 10709 ] final  104.19 input   66.30 | X-H torsion
[ 10763 10752 10751 10750 ] final   81.56 input  -60.55 | X-H torsion
[ 11005 11000 10999 10996 ] final  171.36 input  -57.11 | X-H torsion

> <Gold.Protein.ActiveResidues>
 VAL166  LYS551  ARG553  GLY616  TRP617  ASP618  TYR619  PRO620  LYS621  CYS622 
 ASP623  PHE694  ASN695  SER759  ASP760  ASP761  ALA762  ILE779  LEU786  VAL792 
 PHE793  MET794  SER795  GLU796  ALA797  LYS798  CYS799  TRP800  GLU811  SER814 

> <Gold.Protein.RotatedAtoms>
  151.1338  135.0144  159.8594 H   0  0  0  0  0  0  0  0  0  0  0  0  # atno 6907 bound_to 6896
  152.5451  134.1579  159.8556 H   0  0  0  0  0  0  0  0  0  0  0  0  # atno 6908 bound_to 6896
  151.1648  133.4776  159.2627 H   0  0  0  0  0  0  0  0  0  0  0  0  # atno 6909 bound_to 6896
  146.2287  140.2433  142.8344 H   0  0  0  0  0  0  0  0  0  0  0  0  # atno 7974 bound_to 7965
  156.2101  140.1776  156.7714 H   0  0  0  0  0  0  0  0  0  0  0  0  # atno 8008 bound_to 7997
  154.5710  140.0682  156.8994 H   0  0  0  0  0  0  0  0  0  0  0  0  # atno 8009 bound_to 7997
  155.2672  140.3340  155.4270 H   0  0  0  0  0  0  0  0  0  0  0  0  # atno 8010 bound_to 7997
  140.5703  143.9174  150.6708 H   0  0  0  0  0  0  0  0  0  0  0  0  # atno 10167 bound_to 10162
  157.6748  131.0797  150.5668 H   0  0  0  0  0  0  0  0  0  0  0  0  # atno 10718 bound_to 10713
  153.1127  135.4761  154.9063 H   0  0  0  0  0  0  0  0  0  0  0  0  # atno 10763 bound_to 10752
  154.7497  135.3103  154.8582 H   0  0  0  0  0  0  0  0  0  0  0  0  # atno 10764 bound_to 10752
  153.9167  135.6859  153.4802 H   0  0  0  0  0  0  0  0  0  0  0  0  # atno 10765 bound_to 10752
  140.3182  134.7460  157.4043 H   0  0  0  0  0  0  0  0  0  0  0  0  # atno 11005 bound_to 11000
  144.9467  140.8136  143.5597 LP  0  0  0  0  0  0  0  0  0  0  0  0  # atno 17320 bound_to 7965
  145.2390  139.2081  143.5003 LP  0  0  0  0  0  0  0  0  0  0  0  0  # atno 17321 bound_to 7965
  140.2647  143.3498  152.1291 LP  0  0  0  0  0  0  0  0  0  0  0  0  # atno 17342 bound_to 10162
  139.5114  144.6900  151.5786 LP  0  0  0  0  0  0  0  0  0  0  0  0  # atno 17343 bound_to 10162
  156.5970  130.4344  149.5913 LP  0  0  0  0  0  0  0  0  0  0  0  0  # atno 17370 bound_to 10713
  156.2537  130.6922  151.1668 LP  0  0  0  0  0  0  0  0  0  0  0  0  # atno 17371 bound_to 10713
  140.0965  134.5530  155.8393 LP  0  0  0  0  0  0  0  0  0  0  0  0  # atno 17394 bound_to 11000
  141.2093  133.6682  156.6428 LP  0  0  0  0  0  0  0  0  0  0  0  0  # atno 17395 bound_to 11000

$$$$
