AV-unprocessed.smi:3292|AV-procd|sdf|12626|dock2
  -GOLD-   2272018563D 1   1.00000     0.00000
 Structure written by MMmdl.
 38 39  0  0  0  0  0  0  0  0  1 V2000
  144.7398  135.7093  151.0441 C   0  0  0  0  0  0  0  0  0  0  0  0
  145.3430  135.2419  152.3792 C   0  0  1  0  0  0  0  0  0  0  0  0
  145.7287  133.7462  152.3809 C   0  0  0  0  0  0  0  0  0  0  0  0
  145.1782  133.0242  151.2495 N   0  0  0  0  0  0  0  0  0  0  0  0
  143.8349  132.8369  150.9517 C   0  0  0  0  0  0  0  0  0  0  0  0
  143.7890  132.0930  149.7944 C   0  0  0  0  0  0  0  0  0  0  0  0
  145.0841  131.8083  149.3682 N   0  0  0  0  0  0  0  0  0  0  0  0
  145.8524  132.3888  150.2811 C   0  0  0  0  0  0  0  0  0  0  0  0
  146.5082  136.0648  152.6914 N   0  0  0  0  0  0  0  0  0  0  0  0
  146.5106  137.1199  153.5183 C   0  0  0  0  0  0  0  0  0  0  0  0
  145.5198  137.5181  154.1312 O   0  0  0  0  0  0  0  0  0  0  0  0
  147.7215  137.6902  153.5929 N   0  0  0  0  0  0  0  0  0  0  0  0
  148.0554  138.8620  154.3966 C   0  0  0  0  0  0  0  0  0  0  0  0
  149.5410  139.2461  154.2618 C   0  0  2  0  0  0  0  0  0  0  0  0
  150.4965  138.1729  154.7418 C   0  0  0  0  0  0  0  0  0  0  0  0
  151.7912  138.9584  154.9333 C   0  0  0  0  0  0  0  0  0  0  0  0
  151.3992  140.2884  155.2625 O   0  0  0  0  0  0  0  0  0  0  0  0
  149.9898  140.4309  155.1190 C   0  0  0  0  0  0  0  0  0  0  0  0
  143.8118  135.1837  150.8182 H   0  0  0  0  0  0  0  0  0  0  0  0
  145.4290  135.5388  150.2165 H   0  0  0  0  0  0  0  0  0  0  0  0
  144.5080  136.7745  151.0708 H   0  0  0  0  0  0  0  0  0  0  0  0
  144.5886  135.4070  153.1510 H   0  0  0  0  0  0  0  0  0  0  0  0
  146.8140  133.6350  152.3695 H   0  0  0  0  0  0  0  0  0  0  0  0
  145.3753  133.2605  153.2912 H   0  0  0  0  0  0  0  0  0  0  0  0
  143.0460  133.2393  151.5701 H   0  0  0  0  0  0  0  0  0  0  0  0
  142.9304  131.7420  149.2412 H   0  0  0  0  0  0  0  0  0  0  0  0
  146.9314  132.3544  150.2415 H   0  0  0  0  0  0  0  0  0  0  0  0
  147.3739  135.8175  152.2347 H   0  0  0  0  0  0  0  0  0  0  0  0
  148.4699  137.2864  153.0490 H   0  0  0  0  0  0  0  0  0  0  0  0
  147.4133  139.7063  154.1396 H   0  0  0  0  0  0  0  0  0  0  0  0
  147.8369  138.6206  155.4370 H   0  0  0  0  0  0  0  0  0  0  0  0
  149.7656  139.4647  153.2163 H   0  0  0  0  0  0  0  0  0  0  0  0
  150.1628  137.7664  155.6976 H   0  0  0  0  0  0  0  0  0  0  0  0
  150.6028  137.3469  154.0384 H   0  0  0  0  0  0  0  0  0  0  0  0
  152.4268  138.5271  155.7068 H   0  0  0  0  0  0  0  0  0  0  0  0
  152.3608  138.9867  154.0038 H   0  0  0  0  0  0  0  0  0  0  0  0
  149.7313  141.3925  154.6752 H   0  0  0  0  0  0  0  0  0  0  0  0
  149.5376  140.3832  156.1105 H   0  0  0  0  0  0  0  0  0  0  0  0
  1  2  1  0  0  0  0
  1 19  1  0  0  0  0
  1 20  1  0  0  0  0
  1 21  1  0  0  0  0
  2  3  1  0  0  0  0
  2  9  1  0  0  0  0
  2 22  1  0  0  0  0
  3  4  1  0  0  0  0
  3 23  1  0  0  0  0
  3 24  1  0  0  0  0
  4  8  1  0  0  0  0
  4  5  1  0  0  0  0
  5  6  2  0  0  0  0
  5 25  1  0  0  0  0
  6  7  1  0  0  0  0
  6 26  1  0  0  0  0
  7  8  2  0  0  0  0
  8 27  1  0  0  0  0
  9 10  1  0  0  0  0
  9 28  1  0  0  0  0
 10 11  2  0  0  0  0
 10 12  1  0  0  0  0
 12 13  1  0  0  0  0
 12 29  1  0  0  0  0
 13 14  1  0  0  0  0
 13 30  1  0  0  0  0
 13 31  1  0  0  0  0
 14 18  1  0  0  0  0
 14 15  1  0  0  0  0
 14 32  1  0  0  0  0
 15 16  1  0  0  0  0
 15 33  1  0  0  0  0
 15 34  1  0  0  0  0
 16 17  1  0  0  0  0
 16 35  1  0  0  0  0
 16 36  1  0  0  0  0
 17 18  1  0  0  0  0
 18 37  1  0  0  0  0
 18 38  1  0  0  0  0
M  END
> <s_m_source_file>
AV-unprocessed.smi

> <i_m_source_file_index>
3292

> <i_lp_mmshare_version>
43012

> <i_f3d_flags>
0

> <s_epik_input>
W2NIXTFuW2NIXVtjSF1uMVtDSDJdW0NAQEhdKFtDSDNdKVtOSF1DKD1PKVtOSF1bQ0gyXVtDQEBIXTJbQ0gyXVtDSDJdT1tDSDJdMg==

> <s_epik_cmdline>
J2VwaWtfcHl0aG9uJywgJy1waCcsICc3LjAnLCAnLXRuJywgJzgnLCAnLW1hJywgJzIwMCcsICctbWV0YWxfYmluZGluZycsICctaW1hZScsICc8aW5maWxlLm1hZT4nLCAnLW9tYWUnLCAnPG91dGZpbGUubWFlPic=

> <r_lp_tautomer_probability>
1

> <r_epik_Ionization_Penalty>
0.621291

> <r_epik_Ionization_Penalty_Charging>
0.621234

> <r_epik_Ionization_Penalty_Neutral>
5.72199e-05

> <r_epik_State_Penalty>
0.637278

> <r_epik_Charging_Adjusted_Penalty>
1.25851

> <i_epik_Tot_Q>
0

> <i_epik_Tot_abs_Q>
0

> <r_epik_Metal_State_Penalty>
0.306757

> <b_epik_Metal_Only>
0

> <s_lp_Force_Field>
OPLS_2005

> <r_lp_Energy>
18.3972

> <b_lp_Chiralities_Consistent>
1

> <s_lp_Variant>
AV-unprocessed.smi:3292-6

> <Gold.Version>
5.8.1

> <Gold.Id.Protein>
6NUR|6NUR_protein|mol2

> <Gold.PLP.Fitness>
43.0780

> <Gold.PLP.PLP>
-31.8091

> <Gold.PLP.part.hbond>
-3.7433

> <Gold.PLP.part.metal>
0.0000

> <Gold.PLP.part.buried>
-2.2205

> <Gold.PLP.part.nonpolar>
-26.9494

> <Gold.PLP.part.repulsive>
0.3212

> <Gold.PLP.ligand.clash>
0.0000

> <Gold.PLP.ligand.torsion>
0.9259

> <Gold.PLP.Chemscore.Hbond>
2.3466

> <Gold.PLP.Chemscore.CHOScore>
1.9865

> <Gold.PLP.Chemscore.Metal>
0.0000

> <Gold.Chemscore.Hbonds>
donor molecule, donor type, donor heavy atom, donor atom, acceptor molecule, acceptor atom, score
      L1  H     9    28       P1  7948  0.99
      L1  H    12    29       P1  7948  0.99
      P1  H  7989  7998       L1    17  0.32
      L1  C     6    26       P1 10952  0.96
      L1  C     8    27       P1 10747  1.00

> <Gold.PLP.Chemscore.Internal.Correction>
0.1211

> <Gold.Rescore>
     Score         DG    S(hbond)    S(metal)    S(lipo)     H(rot)  DE(clash)    DE(int)     intcor
     11.95     -14.06       1.91        0.00      66.07       2.16       0.11       2.00       ----

> <Gold.Chemscore.Fitness>
11.9498

> <Gold.Chemscore.DG>
-14.0558

> <Gold.Chemscore.ZeroCoef>
-5.4800

> <Gold.Chemscore.Hbond>
1.9071

> <Gold.Chemscore.Metal>
0.0000

> <Gold.Chemscore.Lipo>
66.0670

> <Gold.Chemscore.Internal_Hbond>
0.0000

> <Gold.Chemscore.DEClash>
0.1094

> <Gold.Chemscore.DEInternal>
1.9966

> <Gold.Chemscore.Rot>
2.1577

> <Gold.Chemscore.Internal.Correction>
   9.000000E+99

> <Gold.Chemscore.Hbonds>
donor molecule, donor type, donor heavy atom, donor atom, acceptor molecule, acceptor atom, score
      L1  H     9    28       P1  7948  0.94
      L1  H    12    29       P1  7948  0.94

> <Gold.Chemscore.Hbond.Weighted>
-6.3697

> <Gold.Chemscore.Metal.Weighted>
-0.0000

> <Gold.Chemscore.Lipo.Weighted>
-7.7298

> <Gold.Chemscore.Internal_Hbond.Weighted>
0.0000

> <Gold.Chemscore.DEClash.Weighted>
0.1094

> <Gold.Chemscore.DEInternal.Weighted>
1.9966

> <Gold.Chemscore.Rot.Weighted>
5.5237

> <Gold.Chemscore.Internal.Correction.Weighted>
   9.000000E+99

> <Gold.Protein.RotatedTorsions>
[ 6907 6896 6895 6894 ] final  152.36 input  -60.11 | X-H torsion
[ 7974 7965 7964 7962 ] final -167.94 input  175.53 | X-H torsion
[ 8008 7997 7996 7995 ] final    8.47 input   59.86 | X-H torsion
[ 10167 10162 10161 10158 ] final -155.17 input  -65.29 | X-H torsion
[ 10718 10713 10712 10709 ] final   89.68 input   66.30 | X-H torsion
[ 10763 10752 10751 10750 ] final  121.81 input  -60.55 | X-H torsion
[ 11005 11000 10999 10996 ] final -107.49 input  -57.11 | X-H torsion

> <Gold.Protein.ActiveResidues>
 VAL166  LYS551  ARG553  GLY616  TRP617  ASP618  TYR619  PRO620  LYS621  CYS622 
 ASP623  PHE694  ASN695  SER759  ASP760  ASP761  ALA762  ILE779  LEU786  VAL792 
 PHE793  MET794  SER795  GLU796  ALA797  LYS798  CYS799  TRP800  GLU811  SER814 

> <Gold.Protein.RotatedAtoms>
  152.0878  133.4185  159.4529 H   0  0  0  0  0  0  0  0  0  0  0  0  # atno 6907 bound_to 6896
  150.6862  134.2907  159.4674 H   0  0  0  0  0  0  0  0  0  0  0  0  # atno 6908 bound_to 6896
  152.0755  134.9505  160.0624 H   0  0  0  0  0  0  0  0  0  0  0  0  # atno 6909 bound_to 6896
  144.7213  140.2443  143.6287 H   0  0  0  0  0  0  0  0  0  0  0  0  # atno 7974 bound_to 7965
  154.7673  140.2795  155.6166 H   0  0  0  0  0  0  0  0  0  0  0  0  # atno 8008 bound_to 7997
  156.2927  140.2648  156.2394 H   0  0  0  0  0  0  0  0  0  0  0  0  # atno 8009 bound_to 7997
  154.9944  140.0373  157.2323 H   0  0  0  0  0  0  0  0  0  0  0  0  # atno 8010 bound_to 7997
  139.6953  143.9352  152.2404 H   0  0  0  0  0  0  0  0  0  0  0  0  # atno 10167 bound_to 10162
  157.6956  131.0342  150.3463 H   0  0  0  0  0  0  0  0  0  0  0  0  # atno 10718 bound_to 10713
  153.6199  135.3415  155.3007 H   0  0  0  0  0  0  0  0  0  0  0  0  # atno 10763 bound_to 10752
  154.8602  135.4270  154.2219 H   0  0  0  0  0  0  0  0  0  0  0  0  # atno 10764 bound_to 10752
  153.3089  135.7030  153.7206 H   0  0  0  0  0  0  0  0  0  0  0  0  # atno 10765 bound_to 10752
  141.0951  133.8985  157.1982 H   0  0  0  0  0  0  0  0  0  0  0  0  # atno 11005 bound_to 11000
  145.8289  139.2077  143.1894 LP  0  0  0  0  0  0  0  0  0  0  0  0  # atno 17320 bound_to 7965
  146.0448  140.8129  142.9811 LP  0  0  0  0  0  0  0  0  0  0  0  0  # atno 17321 bound_to 7965
  139.9180  144.6817  150.8492 LP  0  0  0  0  0  0  0  0  0  0  0  0  # atno 17342 bound_to 10162
  140.7694  143.3395  151.2237 LP  0  0  0  0  0  0  0  0  0  0  0  0  # atno 17343 bound_to 10162
  156.3917  130.3899  149.7025 LP  0  0  0  0  0  0  0  0  0  0  0  0  # atno 17370 bound_to 10713
  156.4372  130.7844  151.2864 LP  0  0  0  0  0  0  0  0  0  0  0  0  # atno 17371 bound_to 10713
  139.9786  135.0105  156.9694 LP  0  0  0  0  0  0  0  0  0  0  0  0  # atno 17394 bound_to 11000
  140.5159  134.0956  155.7280 LP  0  0  0  0  0  0  0  0  0  0  0  0  # atno 17395 bound_to 11000

$$$$
