AV-unprocessed.smi:1130|AV-procd|sdf|4849|dock3
  -GOLD-   22720 3413D 1   1.00000     0.00000
 Structure written by MMmdl.
 36 37  0  0  0  0  0  0  0  0  1 V2000
  151.7363  139.1650  158.6235 C   0  0  0  0  0  0  0  0  0  0  0  0
  151.4867  139.4168  157.1755 C   0  0  0  0  0  0  0  0  0  0  0  0
  152.4528  139.8414  156.3701 N   0  0  0  0  0  0  0  0  0  0  0  0
  151.8158  139.9377  155.1244 O   0  0  0  0  0  0  0  0  0  0  0  0
  150.5282  139.5750  155.3389 C   0  0  0  0  0  0  0  0  0  0  0  0
  149.5903  139.5242  154.1801 C   0  0  0  0  0  0  0  0  0  0  0  0
  148.2033  138.9911  154.5744 C   0  0  0  0  0  0  0  0  0  0  0  0
  147.7240  137.9811  153.6376 N   0  0  0  0  0  0  0  0  0  0  0  0
  146.4654  137.5239  153.5818 C   0  0  0  0  0  0  0  0  0  0  0  0
  145.5579  137.9138  154.3168 O   0  0  0  0  0  0  0  0  0  0  0  0
  146.3153  136.5939  152.6284 N   0  0  0  0  0  0  0  0  0  0  0  0
  145.0599  135.9272  152.3010 C   0  0  0  0  0  0  0  0  0  0  0  0
  145.2388  134.9315  151.1437 C   0  0  1  0  0  0  0  0  0  0  0  0
  146.2877  133.8566  151.4187 C   0  0  0  0  0  0  0  0  0  0  0  0
  145.8607  132.7659  150.4633 C   0  0  0  0  0  0  0  0  0  0  0  0
  144.3387  132.8563  150.5396 C   0  0  0  0  0  0  0  0  0  0  0  0
  144.0385  134.2026  150.8996 O   0  0  0  0  0  0  0  0  0  0  0  0
  150.2703  139.2238  156.5963 N   0  0  0  0  0  0  0  0  0  0  0  0
  152.7867  139.3205  158.8718 H   0  0  0  0  0  0  0  0  0  0  0  0
  151.4712  138.1389  158.8784 H   0  0  0  0  0  0  0  0  0  0  0  0
  151.1343  139.8406  159.2316 H   0  0  0  0  0  0  0  0  0  0  0  0
  149.5086  140.5272  153.7593 H   0  0  0  0  0  0  0  0  0  0  0  0
  150.0294  138.8949  153.4049 H   0  0  0  0  0  0  0  0  0  0  0  0
  148.2480  138.5384  155.5652 H   0  0  0  0  0  0  0  0  0  0  0  0
  147.4842  139.8096  154.6387 H   0  0  0  0  0  0  0  0  0  0  0  0
  148.3995  137.5998  152.9913 H   0  0  0  0  0  0  0  0  0  0  0  0
  147.1225  136.3403  152.0779 H   0  0  0  0  0  0  0  0  0  0  0  0
  144.7277  135.3945  153.1922 H   0  0  0  0  0  0  0  0  0  0  0  0
  144.2793  136.6534  152.0680 H   0  0  0  0  0  0  0  0  0  0  0  0
  145.5048  135.4605  150.2269 H   0  0  0  0  0  0  0  0  0  0  0  0
  147.3073  134.2021  151.2468 H   0  0  0  0  0  0  0  0  0  0  0  0
  146.2152  133.5006  152.4475 H   0  0  0  0  0  0  0  0  0  0  0  0
  146.2016  133.0007  149.4540 H   0  0  0  0  0  0  0  0  0  0  0  0
  146.2435  131.7815  150.7338 H   0  0  0  0  0  0  0  0  0  0  0  0
  143.8621  132.5816  149.5982 H   0  0  0  0  0  0  0  0  0  0  0  0
  143.9534  132.1970  151.3180 H   0  0  0  0  0  0  0  0  0  0  0  0
  1  2  1  0  0  0  0
  1 19  1  0  0  0  0
  1 20  1  0  0  0  0
  1 21  1  0  0  0  0
  2 18  1  0  0  0  0
  2  3  2  0  0  0  0
  3  4  1  0  0  0  0
  4  5  1  0  0  0  0
  5  6  1  0  0  0  0
  5 18  2  0  0  0  0
  6  7  1  0  0  0  0
  6 22  1  0  0  0  0
  6 23  1  0  0  0  0
  7  8  1  0  0  0  0
  7 24  1  0  0  0  0
  7 25  1  0  0  0  0
  8  9  1  0  0  0  0
  8 26  1  0  0  0  0
  9 10  2  0  0  0  0
  9 11  1  0  0  0  0
 11 12  1  0  0  0  0
 11 27  1  0  0  0  0
 12 13  1  0  0  0  0
 12 28  1  0  0  0  0
 12 29  1  0  0  0  0
 13 17  1  0  0  0  0
 13 14  1  0  0  0  0
 13 30  1  0  0  0  0
 14 15  1  0  0  0  0
 14 31  1  0  0  0  0
 14 32  1  0  0  0  0
 15 16  1  0  0  0  0
 15 33  1  0  0  0  0
 15 34  1  0  0  0  0
 16 17  1  0  0  0  0
 16 35  1  0  0  0  0
 16 36  1  0  0  0  0
M  END
> <s_m_source_file>
AV-unprocessed.smi

> <i_m_source_file_index>
1130

> <i_lp_mmshare_version>
43012

> <i_f3d_flags>
0

> <s_epik_input>
W0NIM11jMW5vYyhuMSlbQ0gyXVtDSDJdW05IXUMoPU8pW05IXVtDSDJdW0NAQEhdMltDSDJdW0NIMl1bQ0gyXU8y

> <s_epik_cmdline>
J2VwaWtfcHl0aG9uJywgJy1waCcsICc3LjAnLCAnLXRuJywgJzgnLCAnLW1hJywgJzIwMCcsICctbWV0YWxfYmluZGluZycsICctaW1hZScsICc8aW5maWxlLm1hZT4nLCAnLW9tYWUnLCAnPG91dGZpbGUubWFlPic=

> <r_lp_tautomer_probability>
1

> <r_epik_Ionization_Penalty>
4.67036e-05

> <r_epik_Ionization_Penalty_Charging>
0

> <r_epik_Ionization_Penalty_Neutral>
4.67036e-05

> <r_epik_State_Penalty>
-0

> <r_epik_Charging_Adjusted_Penalty>
0

> <i_epik_Tot_Q>
0

> <i_epik_Tot_abs_Q>
0

> <r_epik_Metal_State_Penalty>
-0

> <b_epik_Metal_Only>
0

> <s_lp_Force_Field>
OPLS_2005

> <r_lp_Energy>
9.65739

> <b_lp_Chiralities_Consistent>
1

> <s_lp_Variant>
AV-unprocessed.smi:1130-2

> <Gold.Version>
5.8.1

> <Gold.Id.Protein>
6NUR|6NUR_protein|mol2

> <Gold.PLP.Fitness>
37.0567

> <Gold.PLP.PLP>
-26.0883

> <Gold.PLP.part.hbond>
-4.0000

> <Gold.PLP.part.metal>
0.0000

> <Gold.PLP.part.buried>
-3.7055

> <Gold.PLP.part.nonpolar>
-19.2976

> <Gold.PLP.part.repulsive>
0.3944

> <Gold.PLP.ligand.clash>
0.0000

> <Gold.PLP.ligand.torsion>
0.4250

> <Gold.PLP.Chemscore.Hbond>
3.9200

> <Gold.PLP.Chemscore.CHOScore>
0.0000

> <Gold.PLP.Chemscore.Metal>
0.0000

> <Gold.Chemscore.Hbonds>
donor molecule, donor type, donor heavy atom, donor atom, acceptor molecule, acceptor atom, score
      L1  H     8    26       P1  7948  1.00
      L1  H    11    27       P1  7948  1.00
      P1  H  7989  7998       L1     4  0.94
      P1  H  7997  8009       L1     3  1.00

> <Gold.PLP.Chemscore.Internal.Correction>
0.0584

> <Gold.Rescore>
     Score         DG    S(hbond)    S(metal)    S(lipo)     H(rot)  DE(clash)    DE(int)     intcor
     15.97     -16.68       3.47        0.00      47.74       2.33       0.27       0.44       ----

> <Gold.Chemscore.Fitness>
15.9706

> <Gold.Chemscore.DG>
-16.6825

> <Gold.Chemscore.ZeroCoef>
-5.4800

> <Gold.Chemscore.Hbond>
3.4666

> <Gold.Chemscore.Metal>
0.0000

> <Gold.Chemscore.Lipo>
47.7409

> <Gold.Chemscore.Internal_Hbond>
0.0000

> <Gold.Chemscore.DEClash>
0.2744

> <Gold.Chemscore.DEInternal>
0.4375

> <Gold.Chemscore.Rot>
2.3288

> <Gold.Chemscore.Internal.Correction>
   9.000000E+99

> <Gold.Chemscore.Hbonds>
donor molecule, donor type, donor heavy atom, donor atom, acceptor molecule, acceptor atom, score
      L1  H     8    26       P1  7948  0.95
      L1  H    11    27       P1  7948  0.96
      P1  H  7989  7998       L1     4  0.27
      P1  H  7997  8009       L1     3  0.73

> <Gold.Chemscore.Hbond.Weighted>
-11.5785

> <Gold.Chemscore.Metal.Weighted>
-0.0000

> <Gold.Chemscore.Lipo.Weighted>
-5.5857

> <Gold.Chemscore.Internal_Hbond.Weighted>
0.0000

> <Gold.Chemscore.DEClash.Weighted>
0.2744

> <Gold.Chemscore.DEInternal.Weighted>
0.4375

> <Gold.Chemscore.Rot.Weighted>
5.9617

> <Gold.Chemscore.Internal.Correction.Weighted>
   9.000000E+99

> <Gold.Protein.RotatedTorsions>
[ 6907 6896 6895 6894 ] final   87.45 input  -60.11 | X-H torsion
[ 7974 7965 7964 7962 ] final  -85.29 input  175.53 | X-H torsion
[ 8008 7997 7996 7995 ] final -152.46 input   59.86 | X-H torsion
[ 10167 10162 10161 10158 ] final -143.35 input  -65.29 | X-H torsion
[ 10718 10713 10712 10709 ] final  114.26 input   66.30 | X-H torsion
[ 10763 10752 10751 10750 ] final  141.32 input  -60.55 | X-H torsion
[ 11005 11000 10999 10996 ] final  -86.27 input  -57.11 | X-H torsion

> <Gold.Protein.ActiveResidues>
 VAL166  LYS551  ARG553  GLY616  TRP617  ASP618  TYR619  PRO620  LYS621  CYS622 
 ASP623  PHE694  ASN695  SER759  ASP760  ASP761  ALA762  ILE779  LEU786  VAL792 
 PHE793  MET794  SER795  GLU796  ALA797  LYS798  CYS799  TRP800  GLU811  SER814 

> <Gold.Protein.RotatedAtoms>
  152.5411  134.2275  159.8811 H   0  0  0  0  0  0  0  0  0  0  0  0  # atno 6907 bound_to 6896
  151.2249  133.4475  159.2609 H   0  0  0  0  0  0  0  0  0  0  0  0  # atno 6908 bound_to 6896
  151.0771  134.9848  159.8393 H   0  0  0  0  0  0  0  0  0  0  0  0  # atno 6909 bound_to 6896
  145.4953  140.9550  143.1789 H   0  0  0  0  0  0  0  0  0  0  0  0  # atno 7974 bound_to 7965
  155.6555  140.0716  157.2572 H   0  0  0  0  0  0  0  0  0  0  0  0  # atno 8008 bound_to 7997
  154.4153  140.1725  156.1770 H   0  0  0  0  0  0  0  0  0  0  0  0  # atno 8009 bound_to 7997
  155.9741  140.3359  155.6606 H   0  0  0  0  0  0  0  0  0  0  0  0  # atno 8010 bound_to 7997
  139.8002  143.7844  152.2657 H   0  0  0  0  0  0  0  0  0  0  0  0  # atno 10167 bound_to 10162
  157.6291  131.0996  150.7160 H   0  0  0  0  0  0  0  0  0  0  0  0  # atno 10718 bound_to 10713
  153.9373  135.2983  155.3444 H   0  0  0  0  0  0  0  0  0  0  0  0  # atno 10763 bound_to 10752
  154.7495  135.4987  153.9267 H   0  0  0  0  0  0  0  0  0  0  0  0  # atno 10764 bound_to 10752
  153.1060  135.6747  153.9691 H   0  0  0  0  0  0  0  0  0  0  0  0  # atno 10765 bound_to 10752
  141.1632  133.7445  156.9136 H   0  0  0  0  0  0  0  0  0  0  0  0  # atno 11005 bound_to 11000
  144.7811  139.6525  143.7154 LP  0  0  0  0  0  0  0  0  0  0  0  0  # atno 17320 bound_to 7965
  146.2259  139.5722  142.9587 LP  0  0  0  0  0  0  0  0  0  0  0  0  # atno 17321 bound_to 7965
  139.7962  144.7392  150.9887 LP  0  0  0  0  0  0  0  0  0  0  0  0  # atno 17342 bound_to 10162
  140.7820  143.4392  151.0578 LP  0  0  0  0  0  0  0  0  0  0  0  0  # atno 17343 bound_to 10162
  156.7503  130.4766  149.5458 LP  0  0  0  0  0  0  0  0  0  0  0  0  # atno 17370 bound_to 10713
  156.1483  130.6292  151.0561 LP  0  0  0  0  0  0  0  0  0  0  0  0  # atno 17371 bound_to 10713
  140.1499  134.9237  157.2579 LP  0  0  0  0  0  0  0  0  0  0  0  0  # atno 17394 bound_to 11000
  140.2735  134.3433  155.7366 LP  0  0  0  0  0  0  0  0  0  0  0  0  # atno 17395 bound_to 11000

$$$$
