AV-unprocessed.smi:2148|AV-procd|sdf|8746|dock1
  -GOLD-   2272011523D 1   1.00000     0.00000
 Structure written by MMmdl.
 44 45  0  0  0  0  0  0  0  0  1 V2000
  158.7202  134.8616  157.4814 C   0  0  0  0  0  0  0  0  0  0  0  0
  157.5127  133.9413  156.4892 S   0  0  0  0  0  0  0  0  0  0  0  0
  156.1045  133.8647  157.6370 C   0  0  2  0  0  0  0  0  0  0  0  0
  155.1159  132.7748  157.1923 C   0  0  0  0  0  0  0  0  0  0  0  0
  155.4057  135.2234  157.7797 C   0  0  0  0  0  0  0  0  0  0  0  0
  154.9167  135.7658  156.7886 O   0  0  0  0  0  0  0  0  0  0  0  0
  155.4054  135.7529  159.0174 N   0  0  0  0  0  0  0  0  0  0  0  0
  154.8460  136.9827  159.4579 C   0  0  0  0  0  0  0  0  0  0  0  0
  154.5675  137.2955  160.8084 C   0  0  0  0  0  0  0  0  0  0  0  0
  154.0316  138.5599  161.1190 C   0  0  0  0  0  0  0  0  0  0  0  0
  153.7944  139.4877  160.0777 C   0  0  0  0  0  0  0  0  0  0  0  0
  153.2597  140.7612  160.3699 N   0  0  0  0  0  0  0  0  0  0  0  0
  153.6799  141.3455  161.6407 C   0  0  0  0  0  0  0  0  0  0  0  0
  152.8026  142.5629  161.9906 C   0  0  1  0  0  0  0  0  0  0  0  0
  153.2920  143.2800  163.2529 C   0  0  0  0  0  0  0  0  0  0  0  0
  152.8331  143.4909  160.9096 O   0  0  0  0  0  0  0  0  0  0  0  0
  152.3132  142.9382  159.7035 C   0  0  1  0  0  0  0  0  0  0  0  0
  152.2986  144.0378  158.6363 C   0  0  0  0  0  0  0  0  0  0  0  0
  153.1809  141.7369  159.2848 C   0  0  0  0  0  0  0  0  0  0  0  0
  154.0688  139.1859  158.7848 N   0  0  0  0  0  0  0  0  0  0  0  0
  154.5839  137.9738  158.4916 C   0  0  0  0  0  0  0  0  0  0  0  0
  159.6624  134.9442  156.9399 H   0  0  0  0  0  0  0  0  0  0  0  0
  158.9088  134.3503  158.4254 H   0  0  0  0  0  0  0  0  0  0  0  0
  158.3597  135.8678  157.6942 H   0  0  0  0  0  0  0  0  0  0  0  0
  156.4990  133.5696  158.6107 H   0  0  0  0  0  0  0  0  0  0  0  0
  154.2558  132.7204  157.8610 H   0  0  0  0  0  0  0  0  0  0  0  0
  155.5930  131.7943  157.1941 H   0  0  0  0  0  0  0  0  0  0  0  0
  154.7438  132.9567  156.1830 H   0  0  0  0  0  0  0  0  0  0  0  0
  155.9206  135.2375  159.7164 H   0  0  0  0  0  0  0  0  0  0  0  0
  154.7629  136.6017  161.6110 H   0  0  0  0  0  0  0  0  0  0  0  0
  153.8011  138.7976  162.1467 H   0  0  0  0  0  0  0  0  0  0  0  0
  153.6238  140.6225  162.4533 H   0  0  0  0  0  0  0  0  0  0  0  0
  154.7249  141.6470  161.5571 H   0  0  0  0  0  0  0  0  0  0  0  0
  151.7734  142.2381  162.1541 H   0  0  0  0  0  0  0  0  0  0  0  0
  153.2740  142.6131  164.1151 H   0  0  0  0  0  0  0  0  0  0  0  0
  152.6603  144.1382  163.4831 H   0  0  0  0  0  0  0  0  0  0  0  0
  154.3133  143.6416  163.1303 H   0  0  0  0  0  0  0  0  0  0  0  0
  151.2869  142.6084  159.8745 H   0  0  0  0  0  0  0  0  0  0  0  0
  151.8938  143.6652  157.6951 H   0  0  0  0  0  0  0  0  0  0  0  0
  153.3037  144.4139  158.4435 H   0  0  0  0  0  0  0  0  0  0  0  0
  151.6824  144.8794  158.9532 H   0  0  0  0  0  0  0  0  0  0  0  0
  154.1874  142.0707  159.0277 H   0  0  0  0  0  0  0  0  0  0  0  0
  152.7524  141.2740  158.3948 H   0  0  0  0  0  0  0  0  0  0  0  0
  154.7889  137.7892  157.4471 H   0  0  0  0  0  0  0  0  0  0  0  0
  1  2  1  0  0  0  0
  1 22  1  0  0  0  0
  1 23  1  0  0  0  0
  1 24  1  0  0  0  0
  2  3  1  0  0  0  0
  3  4  1  0  0  0  0
  3  5  1  0  0  0  0
  3 25  1  0  0  0  0
  4 26  1  0  0  0  0
  4 27  1  0  0  0  0
  4 28  1  0  0  0  0
  5  6  2  0  0  0  0
  5  7  1  0  0  0  0
  7  8  1  0  0  0  0
  7 29  1  0  0  0  0
  8 21  1  0  0  0  0
  8  9  2  0  0  0  0
  9 10  1  0  0  0  0
  9 30  1  0  0  0  0
 10 11  2  0  0  0  0
 10 31  1  0  0  0  0
 11 12  1  0  0  0  0
 11 20  1  0  0  0  0
 12 19  1  0  0  0  0
 12 13  1  0  0  0  0
 13 14  1  0  0  0  0
 13 32  1  0  0  0  0
 13 33  1  0  0  0  0
 14 15  1  0  0  0  0
 14 16  1  0  0  0  0
 14 34  1  0  0  0  0
 15 35  1  0  0  0  0
 15 36  1  0  0  0  0
 15 37  1  0  0  0  0
 16 17  1  0  0  0  0
 17 18  1  0  0  0  0
 17 19  1  0  0  0  0
 17 38  1  0  0  0  0
 18 39  1  0  0  0  0
 18 40  1  0  0  0  0
 18 41  1  0  0  0  0
 19 42  1  0  0  0  0
 19 43  1  0  0  0  0
 20 21  2  0  0  0  0
 21 44  1  0  0  0  0
M  END
> <s_m_source_file>
AV-unprocessed.smi

> <i_m_source_file_index>
2148

> <i_lp_mmshare_version>
43012

> <i_f3d_flags>
0

> <s_epik_input>
W0NIM11TW0NASF0oW0NIM10pQyg9TylbTkhdYzFbY0hdW2NIXWMobltjSF0xKU4yW0NIMl1bQ0BASF0oW0NIM10pT1tDQEBIXShbQ0gzXSlbQ0gyXTI=

> <s_epik_cmdline>
J2VwaWtfcHl0aG9uJywgJy1waCcsICc3LjAnLCAnLXRuJywgJzgnLCAnLW1hJywgJzIwMCcsICctbWV0YWxfYmluZGluZycsICctaW1hZScsICc8aW5maWxlLm1hZT4nLCAnLW9tYWUnLCAnPG91dGZpbGUubWFlPic=

> <r_lp_tautomer_probability>
1

> <r_epik_Ionization_Penalty>
0.000646494

> <r_epik_Ionization_Penalty_Charging>
0

> <r_epik_Ionization_Penalty_Neutral>
0.000646494

> <r_epik_State_Penalty>
0.000408447

> <r_epik_Charging_Adjusted_Penalty>
0.000408447

> <i_epik_Tot_Q>
0

> <i_epik_Tot_abs_Q>
0

> <r_epik_Metal_State_Penalty>
-0

> <b_epik_Metal_Only>
0

> <s_lp_Force_Field>
OPLS_2005

> <r_lp_Energy>
22.6119

> <b_lp_Chiralities_Consistent>
1

> <s_lp_Variant>
AV-unprocessed.smi:2148-1

> <Gold.Version>
5.8.1

> <Gold.Id.Protein>
6NUR|6NUR_protein|mol2

> <Gold.PLP.Fitness>
38.2542

> <Gold.PLP.PLP>
-33.8588

> <Gold.PLP.part.hbond>
-2.0000

> <Gold.PLP.part.metal>
0.0000

> <Gold.PLP.part.buried>
-4.1264

> <Gold.PLP.part.nonpolar>
-27.7736

> <Gold.PLP.part.repulsive>
0.0936

> <Gold.PLP.ligand.clash>
0.0000

> <Gold.PLP.ligand.torsion>
0.6106

> <Gold.PLP.Chemscore.Hbond>
1.7500

> <Gold.PLP.Chemscore.CHOScore>
0.0000

> <Gold.PLP.Chemscore.Metal>
0.0000

> <Gold.Chemscore.Hbonds>
donor molecule, donor type, donor heavy atom, donor atom, acceptor molecule, acceptor atom, score
      P1  H  7997  8009       L1    20  0.75
      P1  H 10752 10765       L1     6  1.00

> <Gold.PLP.Chemscore.Internal.Correction>
0.3666

> <Gold.Rescore>
     Score         DG    S(hbond)    S(metal)    S(lipo)     H(rot)  DE(clash)    DE(int)     intcor
     15.47     -17.53       1.14        0.00      98.11       1.27       0.06       2.00       ----

> <Gold.Chemscore.Fitness>
15.4698

> <Gold.Chemscore.DG>
-17.5325

> <Gold.Chemscore.ZeroCoef>
-5.4800

> <Gold.Chemscore.Hbond>
1.1418

> <Gold.Chemscore.Metal>
0.0000

> <Gold.Chemscore.Lipo>
98.1143

> <Gold.Chemscore.Internal_Hbond>
0.0000

> <Gold.Chemscore.DEClash>
0.0630

> <Gold.Chemscore.DEInternal>
1.9997

> <Gold.Chemscore.Rot>
1.2659

> <Gold.Chemscore.Internal.Correction>
   9.000000E+99

> <Gold.Chemscore.Hbonds>
donor molecule, donor type, donor heavy atom, donor atom, acceptor molecule, acceptor atom, score
      P1  H  7997  8009       L1    20  0.09
      P1  H 10752 10765       L1     6  0.99

> <Gold.Chemscore.Hbond.Weighted>
-3.8137

> <Gold.Chemscore.Metal.Weighted>
-0.0000

> <Gold.Chemscore.Lipo.Weighted>
-11.4794

> <Gold.Chemscore.Internal_Hbond.Weighted>
0.0000

> <Gold.Chemscore.DEClash.Weighted>
0.0630

> <Gold.Chemscore.DEInternal.Weighted>
1.9997

> <Gold.Chemscore.Rot.Weighted>
3.2406

> <Gold.Chemscore.Internal.Correction.Weighted>
   9.000000E+99

> <Gold.Protein.RotatedTorsions>
[ 6907 6896 6895 6894 ] final -170.08 input  -60.11 | X-H torsion
[ 7974 7965 7964 7962 ] final   44.39 input  175.53 | X-H torsion
[ 8008 7997 7996 7995 ] final  150.31 input   59.86 | X-H torsion
[ 10167 10162 10161 10158 ] final  143.04 input  -65.29 | X-H torsion
[ 10718 10713 10712 10709 ] final -136.24 input   66.30 | X-H torsion
[ 10763 10752 10751 10750 ] final  -90.46 input  -60.55 | X-H torsion
[ 11005 11000 10999 10996 ] final -119.98 input  -57.11 | X-H torsion

> <Gold.Protein.ActiveResidues>
 VAL166  LYS551  ARG553  GLY616  TRP617  ASP618  TYR619  PRO620  LYS621  CYS622 
 ASP623  PHE694  ASN695  SER759  ASP760  ASP761  ALA762  ILE779  LEU786  VAL792 
 PHE793  MET794  SER795  GLU796  ALA797  LYS798  CYS799  TRP800  GLU811  SER814 

> <Gold.Protein.RotatedAtoms>
  151.5019  133.3502  159.2870 H   0  0  0  0  0  0  0  0  0  0  0  0  # atno 6907 bound_to 6896
  150.8767  134.8153  159.7206 H   0  0  0  0  0  0  0  0  0  0  0  0  # atno 6908 bound_to 6896
  152.4735  134.4911  159.9747 H   0  0  0  0  0  0  0  0  0  0  0  0  # atno 6909 bound_to 6896
  146.0573  139.5080  142.9681 H   0  0  0  0  0  0  0  0  0  0  0  0  # atno 7974 bound_to 7965
  156.2721  140.2078  156.5997 H   0  0  0  0  0  0  0  0  0  0  0  0  # atno 8008 bound_to 7997
  154.6916  140.0529  157.0393 H   0  0  0  0  0  0  0  0  0  0  0  0  # atno 8009 bound_to 7997
  155.0858  140.3191  155.4591 H   0  0  0  0  0  0  0  0  0  0  0  0  # atno 8010 bound_to 7997
  139.4979  144.6067  151.6363 H   0  0  0  0  0  0  0  0  0  0  0  0  # atno 10167 bound_to 10162
  156.2749  130.7287  151.1266 H   0  0  0  0  0  0  0  0  0  0  0  0  # atno 10718 bound_to 10713
  154.6660  135.5303  153.8078 H   0  0  0  0  0  0  0  0  0  0  0  0  # atno 10763 bound_to 10752
  153.0471  135.6517  154.0798 H   0  0  0  0  0  0  0  0  0  0  0  0  # atno 10764 bound_to 10752
  154.0702  135.2955  155.3289 H   0  0  0  0  0  0  0  0  0  0  0  0  # atno 10765 bound_to 10752
  141.0176  134.0172  157.3328 H   0  0  0  0  0  0  0  0  0  0  0  0  # atno 11005 bound_to 11000
  145.6622  141.0238  143.1703 LP  0  0  0  0  0  0  0  0  0  0  0  0  # atno 17320 bound_to 7965
  144.7155  139.8213  143.7400 LP  0  0  0  0  0  0  0  0  0  0  0  0  # atno 17321 bound_to 7965
  140.5730  144.0076  150.6227 LP  0  0  0  0  0  0  0  0  0  0  0  0  # atno 17342 bound_to 10162
  140.3200  143.3143  152.0794 LP  0  0  0  0  0  0  0  0  0  0  0  0  # atno 17343 bound_to 10162
  157.7296  131.0623  150.5766 LP  0  0  0  0  0  0  0  0  0  0  0  0  # atno 17370 bound_to 10713
  156.5866  130.4318  149.5954 LP  0  0  0  0  0  0  0  0  0  0  0  0  # atno 17371 bound_to 10713
  139.9126  135.0192  156.7755 LP  0  0  0  0  0  0  0  0  0  0  0  0  # atno 17394 bound_to 11000
  140.6628  133.9630  155.7814 LP  0  0  0  0  0  0  0  0  0  0  0  0  # atno 17395 bound_to 11000

$$$$
