AV-unprocessed.smi:686|AV-procd|sdf|3342|dock8
  -GOLD-   22720 0313D 1   1.00000     0.00000
 Structure written by MMmdl.
 41 42  0  0  0  0  0  0  0  0  2 V2000
  150.6627  133.3329  155.5420 C   0  0  0  0  0  0  0  0  0  0  0  0
  149.8162  134.0661  154.4927 C   0  0  1  0  0  0  0  0  0  0  0  0
  148.7343  133.1894  153.8587 C   0  0  0  0  0  0  0  0  0  0  0  0
  147.6996  134.1333  153.3915 N   0  3  1  0  0  0  0  0  0  0  0  0
  146.3870  133.5215  153.0394 C   0  0  0  0  0  0  0  0  0  0  0  0
  146.5438  132.4148  151.9797 C   0  0  0  0  0  0  0  0  0  0  0  0
  145.3923  134.5834  152.5336 C   0  0  0  0  0  0  0  0  0  0  0  0
  147.6419  135.1853  154.4299 C   0  0  0  0  0  0  0  0  0  0  0  0
  149.0519  135.2845  155.0420 C   0  0  2  0  0  0  0  0  0  0  0  0
  149.7288  136.5267  154.6500 N   0  0  0  0  0  0  0  0  0  0  0  0
  150.9648  137.2128  155.6446 S   0  0  0  0  0  0  0  0  0  0  0  0
  150.3526  137.6271  156.9169 O   0  0  0  0  0  0  0  0  0  0  0  0
  152.1021  136.2807  155.6370 O   0  0  0  0  0  0  0  0  0  0  0  0
  151.4496  138.7191  154.6973 C   0  0  0  0  0  0  0  0  0  0  0  0
  151.1780  139.9416  155.5257 C   0  0  0  0  0  0  0  0  0  0  0  0
  150.1214  140.8844  155.3929 C   0  0  0  0  0  0  0  0  0  0  0  0
  150.3652  141.7786  156.3951 C   0  0  0  0  0  0  0  0  0  0  0  0
  151.4736  141.4211  157.0918 O   0  0  0  0  0  0  0  0  0  0  0  0
  151.9851  140.2458  156.5299 N   0  0  0  0  0  0  0  0  0  0  0  0
  150.0490  132.9731  156.3685 H   0  0  0  0  0  0  0  0  0  0  0  0
  151.4263  133.9917  155.9564 H   0  0  0  0  0  0  0  0  0  0  0  0
  151.1691  132.4722  155.1041 H   0  0  0  0  0  0  0  0  0  0  0  0
  150.4773  134.3908  153.6867 H   0  0  0  0  0  0  0  0  0  0  0  0
  149.1346  132.5820  153.0463 H   0  0  0  0  0  0  0  0  0  0  0  0
  148.3025  132.5191  154.6043 H   0  0  0  0  0  0  0  0  0  0  0  0
  145.9691  133.0683  153.9399 H   0  0  0  0  0  0  0  0  0  0  0  0
  145.5731  132.0076  151.6950 H   0  0  0  0  0  0  0  0  0  0  0  0
  147.1377  131.5778  152.3468 H   0  0  0  0  0  0  0  0  0  0  0  0
  147.0198  132.7949  151.0749 H   0  0  0  0  0  0  0  0  0  0  0  0
  144.4492  134.1250  152.2342 H   0  0  0  0  0  0  0  0  0  0  0  0
  145.7882  135.1172  151.6688 H   0  0  0  0  0  0  0  0  0  0  0  0
  145.1539  135.3193  153.3016 H   0  0  0  0  0  0  0  0  0  0  0  0
  147.2850  136.1266  154.0134 H   0  0  0  0  0  0  0  0  0  0  0  0
  146.9380  134.8881  155.2092 H   0  0  0  0  0  0  0  0  0  0  0  0
  148.9872  135.2449  156.1306 H   0  0  0  0  0  0  0  0  0  0  0  0
  149.9240  136.6066  153.6518 H   0  0  0  0  0  0  0  0  0  0  0  0
  152.5052  138.6410  154.4374 H   0  0  0  0  0  0  0  0  0  0  0  0
  150.8826  138.7447  153.7675 H   0  0  0  0  0  0  0  0  0  0  0  0
  149.3157  140.9042  154.6741 H   0  0  0  0  0  0  0  0  0  0  0  0
  149.8660  142.6774  156.7257 H   0  0  0  0  0  0  0  0  0  0  0  0
  148.0671  134.5704  152.5585 H   0  0  0  0  0  0  0  0  0  0  0  0
  1  2  1  0  0  0  0
  1 20  1  0  0  0  0
  1 21  1  0  0  0  0
  1 22  1  0  0  0  0
  2  9  1  0  0  0  0
  2  3  1  0  0  0  0
  2 23  1  0  0  0  0
  3  4  1  0  0  0  0
  3 24  1  0  0  0  0
  3 25  1  0  0  0  0
  4  5  1  0  0  0  0
  4  8  1  0  0  0  0
  4 41  1  0  0  0  0
  5  6  1  0  0  0  0
  5  7  1  0  0  0  0
  5 26  1  0  0  0  0
  6 27  1  0  0  0  0
  6 28  1  0  0  0  0
  6 29  1  0  0  0  0
  7 30  1  0  0  0  0
  7 31  1  0  0  0  0
  7 32  1  0  0  0  0
  8  9  1  0  0  0  0
  8 33  1  0  0  0  0
  8 34  1  0  0  0  0
  9 10  1  0  0  0  0
  9 35  1  0  0  0  0
 10 11  1  0  0  0  0
 10 36  1  0  0  0  0
 11 12  2  0  0  0  0
 11 13  2  0  0  0  0
 11 14  1  0  0  0  0
 14 15  1  0  0  0  0
 14 37  1  0  0  0  0
 14 38  1  0  0  0  0
 15 19  2  0  0  0  0
 15 16  1  0  0  0  0
 16 17  2  0  0  0  0
 16 39  1  0  0  0  0
 17 18  1  0  0  0  0
 17 40  1  0  0  0  0
 18 19  1  0  0  0  0
M  CHG  1   4   1
M  END
> <s_m_source_file>
AV-unprocessed.smi

> <i_m_source_file_index>
686

> <i_lp_mmshare_version>
43012

> <i_f3d_flags>
0

> <s_epik_input>
W0NIM11bQ0BASF0xW0NIMl1OKFtDSF0oW0NIM10pW0NIM10pW0NIMl1bQ0BIXTFbTkhdUyg9TykoPU8pW0NIMl1jMltjSF1bY0hdb24y

> <s_epik_cmdline>
J2VwaWtfcHl0aG9uJywgJy1waCcsICc3LjAnLCAnLXRuJywgJzgnLCAnLW1hJywgJzIwMCcsICctbWV0YWxfYmluZGluZycsICctaW1hZScsICc8aW5maWxlLm1hZT4nLCAnLW9tYWUnLCAnPG91dGZpbGUubWFlPic=

> <r_epik_Ionization_Penalty>
0.00200818

> <r_epik_Ionization_Penalty_Charging>
0.000701289

> <r_epik_Ionization_Penalty_Neutral>
0.00130689

> <r_epik_State_Penalty>
0.00131314

> <r_epik_Charging_Adjusted_Penalty>
0.00201443

> <i_epik_Tot_Q>
1

> <i_epik_Tot_abs_Q>
1

> <r_epik_Metal_State_Penalty>
0.310831

> <b_epik_Metal_Only>
0

> <s_lp_Force_Field>
OPLS_2005

> <r_lp_Energy>
19.8293

> <b_lp_Chiralities_Consistent>
1

> <s_lp_Variant>
AV-unprocessed.smi:686-6

> <Gold.Version>
5.8.1

> <Gold.Id.Protein>
6NUR|6NUR_protein|mol2

> <Gold.PLP.Fitness>
42.4529

> <Gold.PLP.PLP>
-28.4152

> <Gold.PLP.part.hbond>
-3.1918

> <Gold.PLP.part.metal>
0.0000

> <Gold.PLP.part.buried>
-0.2040

> <Gold.PLP.part.nonpolar>
-23.9218

> <Gold.PLP.part.repulsive>
0.0608

> <Gold.PLP.ligand.clash>
0.0000

> <Gold.PLP.ligand.torsion>
0.5980

> <Gold.PLP.Chemscore.Hbond>
4.0236

> <Gold.PLP.Chemscore.CHOScore>
0.9992

> <Gold.PLP.Chemscore.Metal>
0.0000

> <Gold.Chemscore.Hbonds>
donor molecule, donor type, donor heavy atom, donor atom, acceptor molecule, acceptor atom, score
      L1  H     4    41       P1  7948  1.79
      L1  H    10    36       P1  7948  0.78
      P1  H  7997  8009       L1    19  0.19
      P1  H 10752 10763       L1    13  0.87
      L1  C    17    40       P1  8028  1.00

> <Gold.PLP.Chemscore.Internal.Correction>
0.1651

> <Gold.Rescore>
     Score         DG    S(hbond)    S(metal)    S(lipo)     H(rot)  DE(clash)    DE(int)     intcor
     16.69     -17.56       2.93        0.00      61.58       1.91       0.19       0.68       ----

> <Gold.Chemscore.Fitness>
16.6929

> <Gold.Chemscore.DG>
-17.5646

> <Gold.Chemscore.ZeroCoef>
-5.4800

> <Gold.Chemscore.Hbond>
2.9262

> <Gold.Chemscore.Metal>
0.0000

> <Gold.Chemscore.Lipo>
61.5765

> <Gold.Chemscore.Internal_Hbond>
0.0000

> <Gold.Chemscore.DEClash>
0.1937

> <Gold.Chemscore.DEInternal>
0.6780

> <Gold.Chemscore.Rot>
1.9115

> <Gold.Chemscore.Internal.Correction>
   9.000000E+99

> <Gold.Chemscore.Hbonds>
donor molecule, donor type, donor heavy atom, donor atom, acceptor molecule, acceptor atom, score
      L1  H     4    41       P1  7948  0.39
      L1  H    10    36       P1  7948  0.19
      P1  H  7997  8009       L1    19  0.19
      P1  H 10752 10763       L1    13  0.80

> <Gold.Chemscore.Hbond.Weighted>
-9.7737

> <Gold.Chemscore.Metal.Weighted>
-0.0000

> <Gold.Chemscore.Lipo.Weighted>
-7.2044

> <Gold.Chemscore.Internal_Hbond.Weighted>
0.0000

> <Gold.Chemscore.DEClash.Weighted>
0.1937

> <Gold.Chemscore.DEInternal.Weighted>
0.6780

> <Gold.Chemscore.Rot.Weighted>
4.8935

> <Gold.Chemscore.Internal.Correction.Weighted>
   9.000000E+99

> <Gold.Protein.RotatedTorsions>
[ 6907 6896 6895 6894 ] final  -58.56 input  -60.11 | X-H torsion
[ 7974 7965 7964 7962 ] final  -35.47 input  175.53 | X-H torsion
[ 8008 7997 7996 7995 ] final -167.26 input   59.86 | X-H torsion
[ 10167 10162 10161 10158 ] final   41.34 input  -65.29 | X-H torsion
[ 10718 10713 10712 10709 ] final  157.94 input   66.30 | X-H torsion
[ 10763 10752 10751 10750 ] final   98.64 input  -60.55 | X-H torsion
[ 11005 11000 10999 10996 ] final   86.01 input  -57.11 | X-H torsion

> <Gold.Protein.ActiveResidues>
 VAL166  LYS551  ARG553  GLY616  TRP617  ASP618  TYR619  PRO620  LYS621  CYS622 
 ASP623  PHE694  ASN695  SER759  ASP760  ASP761  ALA762  ILE779  LEU786  VAL792 
 PHE793  MET794  SER795  GLU796  ALA797  LYS798  CYS799  TRP800  GLU811  SER814 

> <Gold.Protein.RotatedAtoms>
  150.7997  134.7082  159.6588 H   0  0  0  0  0  0  0  0  0  0  0  0  # atno 6907 bound_to 6896
  152.4113  134.6116  160.0037 H   0  0  0  0  0  0  0  0  0  0  0  0  # atno 6908 bound_to 6896
  151.6358  133.3292  159.3155 H   0  0  0  0  0  0  0  0  0  0  0  0  # atno 6909 bound_to 6896
  146.0744  140.6162  142.8937 H   0  0  0  0  0  0  0  0  0  0  0  0  # atno 7974 bound_to 7965
  155.8752  140.1000  157.1523 H   0  0  0  0  0  0  0  0  0  0  0  0  # atno 8008 bound_to 7997
  154.4000  140.1339  156.4191 H   0  0  0  0  0  0  0  0  0  0  0  0  # atno 8009 bound_to 7997
  155.7705  140.3461  155.5247 H   0  0  0  0  0  0  0  0  0  0  0  0  # atno 8010 bound_to 7997
  140.3652  144.2176  150.6136 H   0  0  0  0  0  0  0  0  0  0  0  0  # atno 10167 bound_to 10162
  157.1847  131.0640  151.2112 H   0  0  0  0  0  0  0  0  0  0  0  0  # atno 10718 bound_to 10713
  153.2915  135.4141  155.1171 H   0  0  0  0  0  0  0  0  0  0  0  0  # atno 10763 bound_to 10752
  154.8522  135.3519  154.5975 H   0  0  0  0  0  0  0  0  0  0  0  0  # atno 10764 bound_to 10752
  153.6397  135.7057  153.5304 H   0  0  0  0  0  0  0  0  0  0  0  0  # atno 10765 bound_to 10752
  139.8956  134.8326  156.2661 H   0  0  0  0  0  0  0  0  0  0  0  0  # atno 11005 bound_to 11000
  144.7252  140.4501  143.6978 LP  0  0  0  0  0  0  0  0  0  0  0  0  # atno 17320 bound_to 7965
  145.6333  139.1539  143.2957 LP  0  0  0  0  0  0  0  0  0  0  0  0  # atno 17321 bound_to 7965
  140.5087  143.2296  151.8568 LP  0  0  0  0  0  0  0  0  0  0  0  0  # atno 17342 bound_to 10162
  139.4809  144.4975  151.9105 LP  0  0  0  0  0  0  0  0  0  0  0  0  # atno 17343 bound_to 10162
  157.3919  130.7286  149.6703 LP  0  0  0  0  0  0  0  0  0  0  0  0  # atno 17370 bound_to 10713
  155.9719  130.4144  150.4131 LP  0  0  0  0  0  0  0  0  0  0  0  0  # atno 17371 bound_to 10713
  141.0131  133.7084  156.1144 LP  0  0  0  0  0  0  0  0  0  0  0  0  # atno 17394 bound_to 11000
  140.7340  134.4223  157.5563 LP  0  0  0  0  0  0  0  0  0  0  0  0  # atno 17395 bound_to 11000

$$$$
