#       Name:                AV-unprocessed.smi:177
#       Creating user name   scv26
#       Creation time:       Thu Mar 26 19:22:34 2020


#       File generated by GOLD software.
#

@<TRIPOS>MOLECULE
AV-unprocessed.smi:177
    73    77     1
SMALL
NO_CHARGES


@<TRIPOS>ATOM
      1 ****        -2.1157   1.6071  -3.6382 C.3            1 S1                 0.0000
      2 ****        -3.3906   1.4691  -3.0296 O.3            1 S1                 0.0000
      3 ****        -3.4430   0.4952  -1.9948 C.3            1 S1                 0.0000
      4 ****        -4.9168   0.1050  -1.8023 C.3            1 S1                 0.0000
      5 ****        -5.0772  -0.9274  -0.6760 C.3            1 S1                 0.0000
      6 ****        -4.4709  -0.4371   0.6502 C.3            1 S1                 0.0000
      7 ****        -5.2623   0.6289   1.1693 O.3            1 S1                 0.0000
      8 ****        -4.8223   1.0404   2.4592 C.3            1 S1                 0.0000
      9 ****        -3.3796   1.5630   2.3756 C.3            1 S1                 0.0000
     10 ****        -2.5123   0.5626   1.7527 N.3            1 S1                 0.0000
     11 ****        -1.1669   0.7323   1.8558 C.ar           1 S1                 0.0000
     12 ****        -0.6660   1.9589   2.1648 N.ar           1 S1                 0.0000
     13 ****         0.6527   2.1502   2.2550 C.ar           1 S1                 0.0000
     14 ****         1.6365   1.2680   2.0768 N.ar           1 S1                 0.0000
     15 ****         1.1453   0.0338   1.7696 C.ar           1 S1                 0.0000
     16 ****        -0.2291  -0.3205   1.6495 C.ar           1 S1                 0.0000
     17 ****        -0.3400  -1.6759   1.3618 N.2            1 S1                 0.0000
     18 ****         0.8944  -2.0932   1.3007 C.2            1 S1                 0.0000
     19 ****         1.8528  -1.1281   1.5120 N.pl3          1 S1                 0.0000
     20 ****         3.2960  -1.3199   1.5066 C.3            1 S1                 0.0000
     21 ****         4.0135  -1.0394   0.1507 C.3            1 S1                 0.0000
     22 ****         3.5676  -2.0626  -0.9370 C.3            1 S1                 0.0000
     23 ****         2.2667  -1.8317  -1.4392 O.3            1 S1                 0.0000
     24 ****         3.7897   0.4243  -0.3096 C.3            1 S1                 0.0000
     25 ****         4.7296   0.8358  -1.4552 C.3            1 S1                 0.0000
     26 ****         6.0819   0.6732  -1.0483 O.3            1 S1                 0.0000
     27 ****         6.4100  -0.6775  -0.7508 C.3            1 S1                 0.0000
     28 ****         5.5343  -1.1969   0.4067 C.3            1 S1                 0.0000
     29 ****        -3.0071   0.0345   0.4776 C.3            1 S1                 0.0000
     30 ****        -2.8673   1.0529  -0.6787 C.3            1 S1                 0.0000
     31 ****        -2.1775   2.3388  -4.4435 H              1 S1                 0.0000
     32 ****        -1.7805   0.6641  -4.0714 H              1 S1                 0.0000
     33 ****        -1.3621   1.9556  -2.9326 H              1 S1                 0.0000
     34 ****        -2.8873  -0.3950  -2.2962 H              1 S1                 0.0000
     35 ****        -5.5073   0.9931  -1.5723 H              1 S1                 0.0000
     36 ****        -5.3181  -0.2999  -2.7318 H              1 S1                 0.0000
     37 ****        -6.1312  -1.1695  -0.5368 H              1 S1                 0.0000
     38 ****        -4.5866  -1.8554  -0.9719 H              1 S1                 0.0000
     39 ****        -4.5031  -1.2657   1.3604 H              1 S1                 0.0000
     40 ****        -5.4839   1.8240   2.8279 H              1 S1                 0.0000
     41 ****        -4.8931   0.2084   3.1616 H              1 S1                 0.0000
     42 ****        -3.3490   2.4897   1.8018 H              1 S1                 0.0000
     43 ****        -3.0236   1.7957   3.3801 H              1 S1                 0.0000
     44 ****         0.9642   3.1541   2.5032 H              1 S1                 0.0000
     45 ****         1.1427  -3.1226   1.0869 H              1 S1                 0.0000
     46 ****         3.7088  -0.6798   2.2876 H              1 S1                 0.0000
     47 ****         3.4989  -2.3422   1.8289 H              1 S1                 0.0000
     48 ****         4.2334  -2.0464  -1.7976 H              1 S1                 0.0000
     49 ****         3.6118  -3.0781  -0.5418 H              1 S1                 0.0000
     50 ****         2.0818  -2.4770  -2.1046 H              1 S1                 0.0000
     51 ****         2.7544   0.5922  -0.6067 H              1 S1                 0.0000
     52 ****         3.9715   1.0966   0.5298 H              1 S1                 0.0000
     53 ****         4.5327   0.2613  -2.3611 H              1 S1                 0.0000
     54 ****         4.5679   1.8839  -1.7072 H              1 S1                 0.0000
     55 ****         6.3113  -1.2933  -1.6449 H              1 S1                 0.0000
     56 ****         7.4609  -0.7215  -0.4644 H              1 S1                 0.0000
     57 ****         5.8119  -0.6408   1.3034 H              1 S1                 0.0000
     58 ****         5.7778  -2.2395   0.6148 H              1 S1                 0.0000
     59 ****        -2.4293  -0.8464   0.2042 H              1 S1                 0.0000
     60 ****        -1.8163   1.3100  -0.8078 H              1 S1                 0.0000
     61 ****        -3.3829   1.9814  -0.4325 H              1 S1                 0.0000
     62 ****        -4.0488   1.2104  -3.7367 LP             1 S1                 0.0000
     63 ****        -3.6494   2.3533  -2.6408 LP             1 S1                 0.0000
     64 ****        -6.2124   0.3237   1.2344 LP             1 S1                 0.0000
     65 ****        -5.2045   1.4077   0.5447 LP             1 S1                 0.0000
     66 ****        -2.6136  -0.2062   2.3841 LP             1 S1                 0.0000
     67 ****        -1.2903   2.7234   2.3257 LP             1 S1                 0.0000
     68 ****         2.6095   1.4838   2.1580 LP             1 S1                 0.0000
     69 ****        -1.1757  -2.2095   1.2314 LP             1 S1                 0.0000
     70 ****         2.2162  -0.9150  -1.8355 LP             1 S1                 0.0000
     71 ****         1.6002  -1.9115  -0.6980 LP             1 S1                 0.0000
     72 ****         6.2381   1.2273  -0.2307 LP             1 S1                 0.0000
     73 ****         6.6777   0.9916  -1.7856 LP             1 S1                 0.0000
@<TRIPOS>BOND
    1    1    2 1     
    2    1   31 1     
    3    1   32 1     
    4    1   33 1     
    5    2    3 1     
    6    3   30 1     
    7    3    4 1     
    8    3   34 1     
    9    4    5 1     
   10    4   35 1     
   11    4   36 1     
   12    5    6 1     
   13    5   37 1     
   14    5   38 1     
   15    6   29 1     
   16    6    7 1     
   17    6   39 1     
   18    7    8 1     
   19    8    9 1     
   20    8   40 1     
   21    8   41 1     
   22    9   10 1     
   23    9   42 1     
   24    9   43 1     
   25   10   11 1     
   26   10   29 1     
   27   11   16 ar    
   28   11   12 ar    
   29   12   13 ar    
   30   13   14 ar    
   31   13   44 1     
   32   14   15 ar    
   33   15   19 1     
   34   15   16 ar    
   35   16   17 1     
   36   17   18 2     
   37   18   19 1     
   38   18   45 1     
   39   19   20 1     
   40   20   21 1     
   41   20   46 1     
   42   20   47 1     
   43   21   28 1     
   44   21   22 1     
   45   21   24 1     
   46   22   23 1     
   47   22   48 1     
   48   22   49 1     
   49   23   50 1     
   50   24   25 1     
   51   24   51 1     
   52   24   52 1     
   53   25   26 1     
   54   25   53 1     
   55   25   54 1     
   56   26   27 1     
   57   27   28 1     
   58   27   55 1     
   59   27   56 1     
   60   28   57 1     
   61   28   58 1     
   62   29   30 1     
   63   29   59 1     
   64   30   60 1     
   65   30   61 1     
   66    2   62 1     
   67    2   63 1     
   68    7   64 1     
   69    7   65 1     
   70   10   66 1     
   71   12   67 1     
   72   14   68 1     
   73   17   69 1     
   74   23   70 1     
   75   23   71 1     
   76   26   72 1     
   77   26   73 1     
@<TRIPOS>SUBSTRUCTURE
      1 S1             1
@<TRIPOS>SET
LONE_PAIRS      STATIC     ATOMS    <user>   **** ""
12 62 63 64 65 66 67 68 69 70 71 72 73
DONOR_HYDROGENS      STATIC     ATOMS    <user>   **** ""
1 50
ATOM$BLUE        STATIC     ATOMS    COLORGROUP SYSTEM
12 62 63 64 65 66 67 68 69 70 71 72 73
ATOM$RED        STATIC     ATOMS    COLORGROUP SYSTEM
1 50
