AV-unprocessed.smi:148|AV-procd|sdf|1217|dock6
  -GOLD-   2262018403D 1   1.00000     0.00000
 Structure written by MMmdl.
 63 67  0  0  0  0  0  0  0  0  1 V2000
  149.2708  139.5968  153.6922 O   0  0  0  0  0  0  0  0  0  0  0  0
  149.6064  140.7592  154.4206 C   0  0  0  0  0  0  0  0  0  0  0  0
  149.6193  140.5033  155.9471 C   0  0  1  0  0  0  0  0  0  0  0  0
  150.5960  139.3492  156.2996 C   0  0  0  0  0  0  0  0  0  0  0  0
  150.0821  138.4088  157.2871 N   0  0  0  0  0  0  0  0  0  0  0  0
  150.7478  137.3212  157.8102 C   0  0  0  0  0  0  0  0  0  0  0  0
  150.0806  136.6245  158.6889 N   0  0  0  0  0  0  0  0  0  0  0  0
  148.8534  137.2685  158.7625 C   0  0  0  0  0  0  0  0  0  0  0  0
  147.6658  137.0397  159.5047 C   0  0  0  0  0  0  0  0  0  0  0  0
  147.5626  136.0206  160.3898 N   0  0  0  0  0  0  0  0  0  0  0  0
  147.5007  136.5635  161.7469 C   0  0  0  0  0  0  0  0  0  0  0  0
  147.6110  135.4565  162.8012 C   0  0  0  0  0  0  0  0  0  0  0  0
  146.5270  134.4011  162.5687 C   0  0  0  0  0  0  0  0  0  0  0  0
  146.6428  133.8396  161.1459 C   0  0  0  0  0  0  0  0  0  0  0  0
  146.5924  134.9560  160.0686 C   0  0  2  0  0  0  0  0  0  0  0  0
  146.7663  134.4102  158.6153 C   0  0  1  0  0  0  0  0  0  0  0  0
  148.0410  133.5853  158.3511 C   0  0  0  0  0  0  0  0  0  0  0  0
  147.6985  132.6115  157.2113 C   0  0  0  0  0  0  0  0  0  0  0  0
  146.2421  132.8927  156.8267 C   0  0  0  0  0  0  0  0  0  0  0  0
  145.6315  133.5272  158.0758 C   0  0  2  0  0  0  0  0  0  0  0  0
  144.4747  134.2744  157.7614 O   0  0  0  0  0  0  0  0  0  0  0  0
  146.6261  137.8967  159.3241 N   0  0  0  0  0  0  0  0  0  0  0  0
  146.7386  138.9049  158.4542 C   0  0  0  0  0  0  0  0  0  0  0  0
  147.7813  139.2342  157.6885 N   0  0  0  0  0  0  0  0  0  0  0  0
  148.8308  138.3849  157.8811 C   0  0  0  0  0  0  0  0  0  0  0  0
  149.9163  141.7879  156.7697 C   0  0  2  0  0  0  0  0  0  0  0  0
  151.3735  142.2217  156.7533 C   0  0  0  0  0  0  0  0  0  0  0  0
  151.4432  143.1857  157.9328 C   0  0  0  0  0  0  0  0  0  0  0  0
  150.4714  142.7251  158.8650 O   0  0  0  0  0  0  0  0  0  0  0  0
  149.7028  141.6782  158.2829 C   0  0  0  0  0  0  0  0  0  0  0  0
  149.3241  139.7934  152.7693 H   0  0  0  0  0  0  0  0  0  0  0  0
  150.5961  141.0637  154.0799 H   0  0  0  0  0  0  0  0  0  0  0  0
  148.9171  141.5639  154.1625 H   0  0  0  0  0  0  0  0  0  0  0  0
  148.6240  140.1529  156.2254 H   0  0  0  0  0  0  0  0  0  0  0  0
  150.8820  138.7944  155.4062 H   0  0  0  0  0  0  0  0  0  0  0  0
  151.5244  139.7666  156.6915 H   0  0  0  0  0  0  0  0  0  0  0  0
  151.7560  137.0610  157.5230 H   0  0  0  0  0  0  0  0  0  0  0  0
  148.3044  137.2863  161.8980 H   0  0  0  0  0  0  0  0  0  0  0  0
  146.5609  137.1025  161.8770 H   0  0  0  0  0  0  0  0  0  0  0  0
  148.5976  134.9938  162.7499 H   0  0  0  0  0  0  0  0  0  0  0  0
  147.5152  135.8813  163.8005 H   0  0  0  0  0  0  0  0  0  0  0  0
  146.6206  133.5973  163.2994 H   0  0  0  0  0  0  0  0  0  0  0  0
  145.5408  134.8438  162.7136 H   0  0  0  0  0  0  0  0  0  0  0  0
  147.5714  133.2750  161.0714 H   0  0  0  0  0  0  0  0  0  0  0  0
  145.8340  133.1255  160.9984 H   0  0  0  0  0  0  0  0  0  0  0  0
  145.6001  135.4056  160.1300 H   0  0  0  0  0  0  0  0  0  0  0  0
  146.8137  135.2609  157.9338 H   0  0  0  0  0  0  0  0  0  0  0  0
  148.8761  134.2334  158.0836 H   0  0  0  0  0  0  0  0  0  0  0  0
  148.3498  133.0195  159.2286 H   0  0  0  0  0  0  0  0  0  0  0  0
  148.3665  132.7312  156.3578 H   0  0  0  0  0  0  0  0  0  0  0  0
  147.8002  131.5841  157.5632 H   0  0  0  0  0  0  0  0  0  0  0  0
  146.2201  133.6025  155.9982 H   0  0  0  0  0  0  0  0  0  0  0  0
  145.7105  131.9957  156.5075 H   0  0  0  0  0  0  0  0  0  0  0  0
  145.3730  132.7332  158.7751 H   0  0  0  0  0  0  0  0  0  0  0  0
  144.7175  134.9691  157.1687 H   0  0  0  0  0  0  0  0  0  0  0  0
  145.8698  139.5393  158.3583 H   0  0  0  0  0  0  0  0  0  0  0  0
  149.2987  142.6094  156.4042 H   0  0  0  0  0  0  0  0  0  0  0  0
  152.0254  141.3658  156.9351 H   0  0  0  0  0  0  0  0  0  0  0  0
  151.6872  142.6882  155.8209 H   0  0  0  0  0  0  0  0  0  0  0  0
  152.4371  143.2257  158.3786 H   0  0  0  0  0  0  0  0  0  0  0  0
  151.1712  144.1939  157.6177 H   0  0  0  0  0  0  0  0  0  0  0  0
  148.6537  141.7628  158.5671 H   0  0  0  0  0  0  0  0  0  0  0  0
  150.0828  140.7274  158.6597 H   0  0  0  0  0  0  0  0  0  0  0  0
  1  2  1  0  0  0  0
  1 31  1  0  0  0  0
  2  3  1  0  0  0  0
  2 32  1  0  0  0  0
  2 33  1  0  0  0  0
  3  4  1  0  0  0  0
  3 26  1  0  0  0  0
  3 34  1  0  0  0  0
  4  5  1  0  0  0  0
  4 35  1  0  0  0  0
  4 36  1  0  0  0  0
  5 25  1  0  0  0  0
  5  6  1  0  0  0  0
  6  7  2  0  0  0  0
  6 37  1  0  0  0  0
  7  8  1  0  0  0  0
  8 25  2  0  0  0  0
  8  9  1  0  0  0  0
  9 10  1  0  0  0  0
  9 22  2  0  0  0  0
 10 15  1  0  0  0  0
 10 11  1  0  0  0  0
 11 12  1  0  0  0  0
 11 38  1  0  0  0  0
 11 39  1  0  0  0  0
 12 13  1  0  0  0  0
 12 40  1  0  0  0  0
 12 41  1  0  0  0  0
 13 14  1  0  0  0  0
 13 42  1  0  0  0  0
 13 43  1  0  0  0  0
 14 15  1  0  0  0  0
 14 44  1  0  0  0  0
 14 45  1  0  0  0  0
 15 16  1  0  0  0  0
 15 46  1  0  0  0  0
 16 20  1  0  0  0  0
 16 17  1  0  0  0  0
 16 47  1  0  0  0  0
 17 18  1  0  0  0  0
 17 48  1  0  0  0  0
 17 49  1  0  0  0  0
 18 19  1  0  0  0  0
 18 50  1  0  0  0  0
 18 51  1  0  0  0  0
 19 20  1  0  0  0  0
 19 52  1  0  0  0  0
 19 53  1  0  0  0  0
 20 21  1  0  0  0  0
 20 54  1  0  0  0  0
 21 55  1  0  0  0  0
 22 23  1  0  0  0  0
 23 24  2  0  0  0  0
 23 56  1  0  0  0  0
 24 25  1  0  0  0  0
 26 30  1  0  0  0  0
 26 27  1  0  0  0  0
 26 57  1  0  0  0  0
 27 28  1  0  0  0  0
 27 58  1  0  0  0  0
 27 59  1  0  0  0  0
 28 29  1  0  0  0  0
 28 60  1  0  0  0  0
 28 61  1  0  0  0  0
 29 30  1  0  0  0  0
 30 62  1  0  0  0  0
 30 63  1  0  0  0  0
M  END
> <s_m_source_file>
AV-unprocessed.smi

> <i_m_source_file_index>
148

> <i_lp_mmshare_version>
43012

> <i_f3d_flags>
0

> <s_epik_input>
W0NIMl0xT1tDSDJdW0NIMl1bQ0BIXTFbQ0BIXShbQ0gyXVtPSF0pW0NIMl1uKFtjSF1uMiljKGMyMyluW2NIXW5jM040W0NIMl1bQ0gyXVtDSDJdW0NIMl1bQ0BIXTRbQ0BASF01W0NIMl1bQ0gyXVtDSDJdW0NASF01W09IXQ==

> <s_epik_cmdline>
J2VwaWtfcHl0aG9uJywgJy1waCcsICc3LjAnLCAnLXRuJywgJzgnLCAnLW1hJywgJzIwMCcsICctbWV0YWxfYmluZGluZycsICctaW1hZScsICc8aW5maWxlLm1hZT4nLCAnLW9tYWUnLCAnPG91dGZpbGUubWFlPic=

> <r_lp_tautomer_probability>
1

> <r_epik_Ionization_Penalty>
0.00556303

> <r_epik_Ionization_Penalty_Charging>
0

> <r_epik_Ionization_Penalty_Neutral>
0.00556303

> <r_epik_State_Penalty>
0.00401767

> <r_epik_Charging_Adjusted_Penalty>
0.00401767

> <i_epik_Tot_Q>
0

> <i_epik_Tot_abs_Q>
0

> <r_epik_Metal_State_Penalty>
-0

> <b_epik_Metal_Only>
0

> <s_lp_Force_Field>
OPLS_2005

> <r_lp_Energy>
67.8341

> <b_lp_Chiralities_Consistent>
1

> <s_lp_Variant>
AV-unprocessed.smi:148-16

> <Gold.Version>
5.8.1

> <Gold.Id.Protein>
6NUR|6NUR_protein|mol2

> <Gold.PLP.Fitness>
41.4939

> <Gold.PLP.PLP>
-36.5301

> <Gold.PLP.part.hbond>
-3.1867

> <Gold.PLP.part.metal>
0.0000

> <Gold.PLP.part.buried>
-3.1957

> <Gold.PLP.part.nonpolar>
-30.2691

> <Gold.PLP.part.repulsive>
0.1035

> <Gold.PLP.ligand.clash>
0.0000

> <Gold.PLP.ligand.torsion>
0.8692

> <Gold.PLP.Chemscore.Hbond>
2.0740

> <Gold.PLP.Chemscore.CHOScore>
0.0000

> <Gold.PLP.Chemscore.Metal>
0.0000

> <Gold.Chemscore.Hbonds>
donor molecule, donor type, donor heavy atom, donor atom, acceptor molecule, acceptor atom, score
      L1  H     1    31       P1  7957  1.00
      P1  H  6896  6908       L1     7  0.70
      P1  H  6934  6947       L1    22  0.31

> <Gold.PLP.Chemscore.Internal.Correction>
0.4803

> <Gold.Rescore>
     Score         DG    S(hbond)    S(metal)    S(lipo)     H(rot)  DE(clash)    DE(int)     intcor
     11.70     -14.22       1.90        0.00      93.22       3.32       0.18       2.34       ----

> <Gold.Chemscore.Fitness>
11.6992

> <Gold.Chemscore.DG>
-14.2197

> <Gold.Chemscore.ZeroCoef>
-5.4800

> <Gold.Chemscore.Hbond>
1.8961

> <Gold.Chemscore.Metal>
0.0000

> <Gold.Chemscore.Lipo>
93.2188

> <Gold.Chemscore.Internal_Hbond>
0.0000

> <Gold.Chemscore.DEClash>
0.1816

> <Gold.Chemscore.DEInternal>
2.3389

> <Gold.Chemscore.Rot>
3.3203

> <Gold.Chemscore.Internal.Correction>
   9.000000E+99

> <Gold.Chemscore.Hbonds>
donor molecule, donor type, donor heavy atom, donor atom, acceptor molecule, acceptor atom, score
      L1  H     1    31       P1  7957  1.00
      P1  H  6896  6908       L1     7  0.68

> <Gold.Chemscore.Hbond.Weighted>
-6.3330

> <Gold.Chemscore.Metal.Weighted>
-0.0000

> <Gold.Chemscore.Lipo.Weighted>
-10.9066

> <Gold.Chemscore.Internal_Hbond.Weighted>
0.0000

> <Gold.Chemscore.DEClash.Weighted>
0.1816

> <Gold.Chemscore.DEInternal.Weighted>
2.3389

> <Gold.Chemscore.Rot.Weighted>
8.5000

> <Gold.Chemscore.Internal.Correction.Weighted>
   9.000000E+99

> <Gold.Protein.RotatedTorsions>
[ 6907 6896 6895 6894 ] final -159.57 input  -60.11 | X-H torsion
[ 7974 7965 7964 7962 ] final   53.67 input  175.53 | X-H torsion
[ 8008 7997 7996 7995 ] final -117.36 input   59.86 | X-H torsion
[ 10167 10162 10161 10158 ] final  -75.26 input  -65.29 | X-H torsion
[ 10718 10713 10712 10709 ] final  -39.33 input   66.30 | X-H torsion
[ 10763 10752 10751 10750 ] final  -48.75 input  -60.55 | X-H torsion
[ 11005 11000 10999 10996 ] final   85.17 input  -57.11 | X-H torsion

> <Gold.Protein.ActiveResidues>
 VAL166  LYS551  ARG553  GLY616  TRP617  ASP618  TYR619  PRO620  LYS621  CYS622 
 ASP623  PHE694  ASN695  SER759  ASP760  ASP761  ALA762  ILE779  LEU786  VAL792 
 PHE793  MET794  SER795  GLU796  ALA797  LYS798  CYS799  TRP800  GLU811  SER814 

> <Gold.Protein.RotatedAtoms>
  151.3357  133.3983  159.2666 H   0  0  0  0  0  0  0  0  0  0  0  0  # atno 6907 bound_to 6896
  150.9919  134.9253  159.7915 H   0  0  0  0  0  0  0  0  0  0  0  0  # atno 6908 bound_to 6896
  152.5250  134.3321  159.9239 H   0  0  0  0  0  0  0  0  0  0  0  0  # atno 6909 bound_to 6896
  145.9688  139.4129  143.0203 H   0  0  0  0  0  0  0  0  0  0  0  0  # atno 7974 bound_to 7965
  155.0825  140.0394  157.2643 H   0  0  0  0  0  0  0  0  0  0  0  0  # atno 8008 bound_to 7997
  154.6895  140.2650  155.6802 H   0  0  0  0  0  0  0  0  0  0  0  0  # atno 8009 bound_to 7997
  156.2724  140.2762  156.1468 H   0  0  0  0  0  0  0  0  0  0  0  0  # atno 8010 bound_to 7997
  140.4957  143.2371  151.7834 H   0  0  0  0  0  0  0  0  0  0  0  0  # atno 10167 bound_to 10162
  156.2937  130.4231  149.8213 H   0  0  0  0  0  0  0  0  0  0  0  0  # atno 10718 bound_to 10713
  154.0828  135.6588  153.4840 H   0  0  0  0  0  0  0  0  0  0  0  0  # atno 10763 bound_to 10752
  153.0349  135.5184  154.7457 H   0  0  0  0  0  0  0  0  0  0  0  0  # atno 10764 bound_to 10752
  154.6557  135.3007  154.9899 H   0  0  0  0  0  0  0  0  0  0  0  0  # atno 10765 bound_to 10752
  139.8979  134.8268  156.2545 H   0  0  0  0  0  0  0  0  0  0  0  0  # atno 11005 bound_to 11000
  145.7936  140.9803  143.1036 LP  0  0  0  0  0  0  0  0  0  0  0  0  # atno 17320 bound_to 7965
  144.6832  139.9713  143.7482 LP  0  0  0  0  0  0  0  0  0  0  0  0  # atno 17321 bound_to 7965
  139.4861  144.4589  151.9564 LP  0  0  0  0  0  0  0  0  0  0  0  0  # atno 17342 bound_to 10162
  140.3677  144.2894  150.5924 LP  0  0  0  0  0  0  0  0  0  0  0  0  # atno 17343 bound_to 10162
  156.5617  130.8386  151.3330 LP  0  0  0  0  0  0  0  0  0  0  0  0  # atno 17370 bound_to 10713
  157.7349  130.9754  150.2055 LP  0  0  0  0  0  0  0  0  0  0  0  0  # atno 17371 bound_to 10713
  141.0202  133.7045  156.1256 LP  0  0  0  0  0  0  0  0  0  0  0  0  # atno 17394 bound_to 11000
  140.7244  134.4323  157.5572 LP  0  0  0  0  0  0  0  0  0  0  0  0  # atno 17395 bound_to 11000

$$$$
