AV-unprocessed.smi:128|AV-procd|sdf|1155|dock6
  -GOLD-   2262018293D 1   1.00000     0.00000
 Structure written by MMmdl.
 41 44  0  0  0  0  0  0  0  0  1 V2000
  150.5914  139.2562  154.1362 O   0  0  0  0  0  0  0  0  0  0  0  0
  150.7986  139.8966  155.1683 C   0  0  0  0  0  0  0  0  0  0  0  0
  150.0729  141.1135  155.5159 C   0  0  0  0  0  0  0  0  0  0  0  0
  149.1381  141.5928  154.6778 F   0  0  0  0  0  0  0  0  0  0  0  0
  150.3239  141.7690  156.6695 C   0  0  0  0  0  0  0  0  0  0  0  0
  151.2660  141.3453  157.5902 N   0  0  0  0  0  0  0  0  0  0  0  0
  151.4856  142.1191  158.8680 C   0  0  2  0  0  0  0  0  0  0  0  0
  150.5949  143.3683  158.9014 C   0  0  0  0  0  0  0  0  0  0  0  0
  151.5814  144.4803  158.6075 C   0  0  0  0  0  0  0  0  0  0  0  0
  152.8657  143.9244  159.2093 C   0  0  0  0  0  0  0  0  0  0  0  0
  152.8190  142.5352  158.9100 O   0  0  0  0  0  0  0  0  0  0  0  0
  152.0089  140.1697  157.3443 C   0  0  0  0  0  0  0  0  0  0  0  0
  152.8236  139.7461  158.1674 O   0  0  0  0  0  0  0  0  0  0  0  0
  151.7621  139.4932  156.1260 N   0  0  0  0  0  0  0  0  0  0  0  0
  152.5190  138.2790  155.8626 C   0  0  0  0  0  0  0  0  0  0  0  0
  151.8216  137.0534  156.3765 C   0  0  0  0  0  0  0  0  0  0  0  0
  151.4685  136.7568  157.6308 N   0  0  0  0  0  0  0  0  0  0  0  0
  150.8553  135.5270  157.5678 N   0  0  0  0  0  0  0  0  0  0  0  0
  150.8759  135.1655  156.2804 C   0  0  0  0  0  0  0  0  0  0  0  0
  150.3465  133.9464  155.6701 C   0  0  0  0  0  0  0  0  0  0  0  0
  150.3328  132.7251  156.3829 C   0  0  0  0  0  0  0  0  0  0  0  0
  149.8236  131.5561  155.7844 C   0  0  0  0  0  0  0  0  0  0  0  0
  149.3237  131.5971  154.4691 C   0  0  0  0  0  0  0  0  0  0  0  0
  148.6388  130.0168  153.6596 Br  0  0  0  0  0  0  0  0  0  0  0  0
  149.3320  132.8090  153.7530 C   0  0  0  0  0  0  0  0  0  0  0  0
  149.8410  133.9783  154.3508 C   0  0  0  0  0  0  0  0  0  0  0  0
  151.4748  136.0916  155.4836 O   0  0  0  0  0  0  0  0  0  0  0  0
  149.7557  142.6633  156.8771 H   0  0  0  0  0  0  0  0  0  0  0  0
  151.3029  141.4373  159.6993 H   0  0  0  0  0  0  0  0  0  0  0  0
  149.7708  143.3097  158.1892 H   0  0  0  0  0  0  0  0  0  0  0  0
  150.1851  143.4751  159.9065 H   0  0  0  0  0  0  0  0  0  0  0  0
  151.6940  144.6120  157.5309 H   0  0  0  0  0  0  0  0  0  0  0  0
  151.2878  145.4376  159.0389 H   0  0  0  0  0  0  0  0  0  0  0  0
  153.7618  144.3925  158.8018 H   0  0  0  0  0  0  0  0  0  0  0  0
  152.8704  144.0582  160.2922 H   0  0  0  0  0  0  0  0  0  0  0  0
  152.6963  138.1975  154.7896 H   0  0  0  0  0  0  0  0  0  0  0  0
  153.5034  138.3852  156.3214 H   0  0  0  0  0  0  0  0  0  0  0  0
  150.7121  132.6702  157.3927 H   0  0  0  0  0  0  0  0  0  0  0  0
  149.8185  130.6275  156.3359 H   0  0  0  0  0  0  0  0  0  0  0  0
  148.9489  132.8427  152.7437 H   0  0  0  0  0  0  0  0  0  0  0  0
  149.8403  134.8995  153.7867 H   0  0  0  0  0  0  0  0  0  0  0  0
  1  2  2  0  0  0  0
  2 14  1  0  0  0  0
  2  3  1  0  0  0  0
  3  4  1  0  0  0  0
  3  5  2  0  0  0  0
  5  6  1  0  0  0  0
  5 28  1  0  0  0  0
  6  7  1  0  0  0  0
  6 12  1  0  0  0  0
  7 11  1  0  0  0  0
  7  8  1  0  0  0  0
  7 29  1  0  0  0  0
  8  9  1  0  0  0  0
  8 30  1  0  0  0  0
  8 31  1  0  0  0  0
  9 10  1  0  0  0  0
  9 32  1  0  0  0  0
  9 33  1  0  0  0  0
 10 11  1  0  0  0  0
 10 34  1  0  0  0  0
 10 35  1  0  0  0  0
 12 13  2  0  0  0  0
 12 14  1  0  0  0  0
 14 15  1  0  0  0  0
 15 16  1  0  0  0  0
 15 36  1  0  0  0  0
 15 37  1  0  0  0  0
 16 27  1  0  0  0  0
 16 17  2  0  0  0  0
 17 18  1  0  0  0  0
 18 19  2  0  0  0  0
 19 20  1  0  0  0  0
 19 27  1  0  0  0  0
 20 26  1  0  0  0  0
 20 21  2  0  0  0  0
 21 22  1  0  0  0  0
 21 38  1  0  0  0  0
 22 23  2  0  0  0  0
 22 39  1  0  0  0  0
 23 24  1  0  0  0  0
 23 25  1  0  0  0  0
 25 26  2  0  0  0  0
 25 40  1  0  0  0  0
 26 41  1  0  0  0  0
M  END
> <s_m_source_file>
AV-unprocessed.smi

> <i_m_source_file_index>
128

> <i_lp_mmshare_version>
43012

> <i_f3d_flags>
0

> <s_epik_input>
TzFbQ0gyXVtDSDJdW0NIMl1bQ0BIXTFuKFtjSF1jKEYpYzI9TyljKD1PKW4yW0NIMl1jM25uYyhvMyktYzRbY0hdW2NIXWMoQnIpW2NIXVtjSF00

> <s_epik_cmdline>
J2VwaWtfcHl0aG9uJywgJy1waCcsICc3LjAnLCAnLXRuJywgJzgnLCAnLW1hJywgJzIwMCcsICctbWV0YWxfYmluZGluZycsICctaW1hZScsICc8aW5maWxlLm1hZT4nLCAnLW9tYWUnLCAnPG91dGZpbGUubWFlPic=

> <r_lp_tautomer_probability>
1

> <r_epik_Ionization_Penalty>
2.55537e-09

> <r_epik_Ionization_Penalty_Charging>
2.54231e-09

> <r_epik_Ionization_Penalty_Neutral>
1.30653e-11

> <r_epik_State_Penalty>
-0

> <r_epik_Charging_Adjusted_Penalty>
2.54231e-09

> <i_epik_Tot_Q>
0

> <i_epik_Tot_abs_Q>
0

> <r_epik_Metal_State_Penalty>
-0

> <b_epik_Metal_Only>
0

> <s_epik_Chemistry_Notes>
This compound contains an acetal/aminal-like group ( X-CH(R)-Y where X, Y are N, S, or O) that may be acid/base labile, releasing an aldehyde.

> <s_lp_Force_Field>
OPLS_2005

> <r_lp_Energy>
32.4944

> <b_lp_Chiralities_Consistent>
1

> <s_lp_Variant>
AV-unprocessed.smi:128-1

> <Gold.Version>
5.8.1

> <Gold.Id.Protein>
6NUR|6NUR_protein|mol2

> <Gold.PLP.Fitness>
55.9707

> <Gold.PLP.PLP>
-50.7780

> <Gold.PLP.part.hbond>
-3.7455

> <Gold.PLP.part.metal>
0.0000

> <Gold.PLP.part.buried>
-4.8473

> <Gold.PLP.part.nonpolar>
-43.9309

> <Gold.PLP.part.repulsive>
0.2721

> <Gold.PLP.ligand.clash>
0.0000

> <Gold.PLP.ligand.torsion>
0.7957

> <Gold.PLP.Chemscore.Hbond>
1.2600

> <Gold.PLP.Chemscore.CHOScore>
0.9984

> <Gold.PLP.Chemscore.Metal>
0.0000

> <Gold.Chemscore.Hbonds>
donor molecule, donor type, donor heavy atom, donor atom, acceptor molecule, acceptor atom, score
      P1  H  6896  6908       L1    18  0.24
      P1  H 10752 10765       L1    27  1.00
      L1  C     5    28       P1  8028  0.97

> <Gold.PLP.Chemscore.Internal.Correction>
0.0089

> <Gold.Rescore>
     Score         DG    S(hbond)    S(metal)    S(lipo)     H(rot)  DE(clash)    DE(int)     intcor
     13.82     -16.02       1.46        0.00      85.44       1.70       0.09       2.11       ----

> <Gold.Chemscore.Fitness>
13.8206

> <Gold.Chemscore.DG>
-16.0164

> <Gold.Chemscore.ZeroCoef>
-5.4800

> <Gold.Chemscore.Hbond>
1.4630

> <Gold.Chemscore.Metal>
0.0000

> <Gold.Chemscore.Lipo>
85.4422

> <Gold.Chemscore.Internal_Hbond>
0.0000

> <Gold.Chemscore.DEClash>
0.0861

> <Gold.Chemscore.DEInternal>
2.1097

> <Gold.Chemscore.Rot>
1.6980

> <Gold.Chemscore.Internal.Correction>
   9.000000E+99

> <Gold.Chemscore.Hbonds>
donor molecule, donor type, donor heavy atom, donor atom, acceptor molecule, acceptor atom, score
      P1  H  6896  6908       L1    18  0.21
      P1  H 10752 10765       L1    27  0.38

> <Gold.Chemscore.Hbond.Weighted>
-4.8865

> <Gold.Chemscore.Metal.Weighted>
-0.0000

> <Gold.Chemscore.Lipo.Weighted>
-9.9967

> <Gold.Chemscore.Internal_Hbond.Weighted>
0.0000

> <Gold.Chemscore.DEClash.Weighted>
0.0861

> <Gold.Chemscore.DEInternal.Weighted>
2.1097

> <Gold.Chemscore.Rot.Weighted>
4.3469

> <Gold.Chemscore.Internal.Correction.Weighted>
   9.000000E+99

> <Gold.Protein.RotatedTorsions>
[ 6907 6896 6895 6894 ] final  163.97 input  -60.11 | X-H torsion
[ 7974 7965 7964 7962 ] final  -21.22 input  175.53 | X-H torsion
[ 8008 7997 7996 7995 ] final  104.89 input   59.86 | X-H torsion
[ 10167 10162 10161 10158 ] final   27.83 input  -65.29 | X-H torsion
[ 10718 10713 10712 10709 ] final   27.93 input   66.30 | X-H torsion
[ 10763 10752 10751 10750 ] final -165.04 input  -60.55 | X-H torsion
[ 11005 11000 10999 10996 ] final   45.31 input  -57.11 | X-H torsion

> <Gold.Protein.ActiveResidues>
 VAL166  LYS551  ARG553  GLY616  TRP617  ASP618  TYR619  PRO620  LYS621  CYS622 
 ASP623  PHE694  ASN695  SER759  ASP760  ASP761  ALA762  ILE779  LEU786  VAL792 
 PHE793  MET794  SER795  GLU796  ALA797  LYS798  CYS799  TRP800  GLU811  SER814 

> <Gold.Protein.RotatedAtoms>
  151.9170  133.3575  159.3883 H   0  0  0  0  0  0  0  0  0  0  0  0  # atno 6907 bound_to 6896
  150.7045  134.4674  159.5418 H   0  0  0  0  0  0  0  0  0  0  0  0  # atno 6908 bound_to 6896
  152.2291  134.8340  160.0527 H   0  0  0  0  0  0  0  0  0  0  0  0  # atno 6909 bound_to 6896
  146.1745  140.4310  142.8519 H   0  0  0  0  0  0  0  0  0  0  0  0  # atno 7974 bound_to 7965
  156.1612  140.3140  155.8811 H   0  0  0  0  0  0  0  0  0  0  0  0  # atno 8008 bound_to 7997
  155.3778  140.0486  157.3061 H   0  0  0  0  0  0  0  0  0  0  0  0  # atno 8009 bound_to 7997
  154.5148  140.2177  155.9097 H   0  0  0  0  0  0  0  0  0  0  0  0  # atno 8010 bound_to 7997
  140.4904  144.0475  150.6295 H   0  0  0  0  0  0  0  0  0  0  0  0  # atno 10167 bound_to 10162
  157.2268  130.7004  149.6295 H   0  0  0  0  0  0  0  0  0  0  0  0  # atno 10718 bound_to 10713
  154.6970  135.2981  154.9396 H   0  0  0  0  0  0  0  0  0  0  0  0  # atno 10763 bound_to 10752
  154.0341  135.6666  153.4787 H   0  0  0  0  0  0  0  0  0  0  0  0  # atno 10764 bound_to 10752
  153.0653  135.5092  154.8093 H   0  0  0  0  0  0  0  0  0  0  0  0  # atno 10765 bound_to 10752
  140.1471  134.4508  155.8408 H   0  0  0  0  0  0  0  0  0  0  0  0  # atno 11005 bound_to 11000
  144.8215  140.6557  143.6350 LP  0  0  0  0  0  0  0  0  0  0  0  0  # atno 17320 bound_to 7965
  145.4249  139.1558  143.4054 LP  0  0  0  0  0  0  0  0  0  0  0  0  # atno 17321 bound_to 7965
  140.3743  143.2837  152.0243 LP  0  0  0  0  0  0  0  0  0  0  0  0  # atno 17342 bound_to 10162
  139.4850  144.6205  151.7263 LP  0  0  0  0  0  0  0  0  0  0  0  0  # atno 17343 bound_to 10162
  155.9678  130.4502  150.5687 LP  0  0  0  0  0  0  0  0  0  0  0  0  # atno 17370 bound_to 10713
  157.3520  131.0735  151.1706 LP  0  0  0  0  0  0  0  0  0  0  0  0  # atno 17371 bound_to 10713
  141.2194  133.6857  156.7354 LP  0  0  0  0  0  0  0  0  0  0  0  0  # atno 17394 bound_to 11000
  140.2650  134.8437  157.3794 LP  0  0  0  0  0  0  0  0  0  0  0  0  # atno 17395 bound_to 11000

$$$$
