AV-unprocessed.smi:24|AV-procd|sdf|178|dock5
  -GOLD-   2262015443D 1   1.00000     0.00000
 Structure written by MMmdl.
 61 65  0  0  0  0  0  0  0  0  1 V2000
  155.4958  133.5791  159.5995 C   0  0  0  0  0  0  0  0  0  0  0  0
  154.5122  134.4893  160.0695 O   0  0  0  0  0  0  0  0  0  0  0  0
  154.8595  135.8187  160.1793 C   0  0  0  0  0  0  0  0  0  0  0  0
  153.8723  136.7013  160.6619 C   0  0  0  0  0  0  0  0  0  0  0  0
  154.1378  138.0773  160.7978 C   0  0  0  0  0  0  0  0  0  0  0  0
  155.4006  138.5969  160.4493 C   0  0  0  0  0  0  0  0  0  0  0  0
  155.6637  140.0949  160.5981 C   0  0  1  0  0  0  0  0  0  0  0  0
  154.7681  140.9345  159.6828 C   0  0  0  0  0  0  0  0  0  0  0  0
  154.0976  141.8377  160.6632 C   0  0  0  0  0  0  0  0  0  0  0  0
  153.1144  142.8583  160.2364 C   0  0  0  0  0  0  0  0  0  0  0  0
  152.9682  143.1489  158.8607 C   0  0  0  0  0  0  0  0  0  0  0  0
  152.0272  144.1144  158.4525 C   0  0  0  0  0  0  0  0  0  0  0  0
  151.2389  144.7834  159.4095 C   0  0  0  0  0  0  0  0  0  0  0  0
  151.3888  144.4909  160.7797 C   0  0  0  0  0  0  0  0  0  0  0  0
  152.3269  143.5275  161.2006 C   0  0  0  0  0  0  0  0  0  0  0  0
  154.4551  141.6398  161.8778 N   0  0  0  0  0  0  0  0  0  0  0  0
  155.3758  140.6450  161.9297 N   0  0  0  0  0  0  0  0  0  0  0  0
  156.0197  140.2907  163.0639 C   0  0  0  0  0  0  0  0  0  0  0  0
  156.9481  139.4802  163.0598 O   0  0  0  0  0  0  0  0  0  0  0  0
  155.5697  140.9356  164.3918 C   0  0  0  0  0  0  0  0  0  0  0  0
  156.6741  141.1201  165.3582 N   0  0  0  0  0  0  0  0  0  0  0  0
  157.2875  139.9748  165.9230 C   0  0  0  0  0  0  0  0  0  0  0  0
  156.9228  138.8383  165.6183 O   0  0  0  0  0  0  0  0  0  0  0  0
  158.3566  140.2406  166.8792 C   0  0  0  0  0  0  0  0  0  0  0  0
  159.0039  139.2138  167.4558 F   0  0  0  0  0  0  0  0  0  0  0  0
  158.7085  141.5038  167.1961 C   0  0  0  0  0  0  0  0  0  0  0  0
  158.0891  142.6130  166.6483 N   0  0  0  0  0  0  0  0  0  0  0  0
  158.4841  144.0241  167.0267 C   0  0  1  0  0  0  0  0  0  0  0  0
  157.3175  144.7406  167.7315 C   0  0  0  0  0  0  0  0  0  0  0  0
  157.9759  145.3015  168.9758 C   0  0  0  0  0  0  0  0  0  0  0  0
  159.0749  144.2822  169.2354 C   0  0  0  0  0  0  0  0  0  0  0  0
  159.5544  143.9937  167.9283 O   0  0  0  0  0  0  0  0  0  0  0  0
  157.0508  142.4385  165.7083 C   0  0  0  0  0  0  0  0  0  0  0  0
  156.4816  143.4143  165.2134 O   0  0  0  0  0  0  0  0  0  0  0  0
  156.4002  137.7164  159.9795 C   0  0  0  0  0  0  0  0  0  0  0  0
  156.1331  136.3408  159.8410 C   0  0  0  0  0  0  0  0  0  0  0  0
  155.0653  132.5791  159.5500 H   0  0  0  0  0  0  0  0  0  0  0  0
  156.3529  133.5362  160.2731 H   0  0  0  0  0  0  0  0  0  0  0  0
  155.8360  133.8413  158.5967 H   0  0  0  0  0  0  0  0  0  0  0  0
  152.8976  136.3192  160.9280 H   0  0  0  0  0  0  0  0  0  0  0  0
  153.3640  138.7348  161.1663 H   0  0  0  0  0  0  0  0  0  0  0  0
  156.7114  140.2974  160.3669 H   0  0  0  0  0  0  0  0  0  0  0  0
  155.3556  141.4978  158.9569 H   0  0  0  0  0  0  0  0  0  0  0  0
  154.0348  140.3291  159.1479 H   0  0  0  0  0  0  0  0  0  0  0  0
  153.5622  142.6460  158.1111 H   0  0  0  0  0  0  0  0  0  0  0  0
  151.9094  144.3414  157.4031 H   0  0  0  0  0  0  0  0  0  0  0  0
  150.5178  145.5221  159.0918 H   0  0  0  0  0  0  0  0  0  0  0  0
  150.7819  145.0062  161.5098 H   0  0  0  0  0  0  0  0  0  0  0  0
  152.4213  143.3200  162.2561 H   0  0  0  0  0  0  0  0  0  0  0  0
  155.0759  141.8817  164.1653 H   0  0  0  0  0  0  0  0  0  0  0  0
  154.7841  140.3247  164.8402 H   0  0  0  0  0  0  0  0  0  0  0  0
  159.5087  141.6312  167.9087 H   0  0  0  0  0  0  0  0  0  0  0  0
  158.8086  144.5019  166.1005 H   0  0  0  0  0  0  0  0  0  0  0  0
  156.8822  145.5067  167.0894 H   0  0  0  0  0  0  0  0  0  0  0  0
  156.5421  144.0223  168.0030 H   0  0  0  0  0  0  0  0  0  0  0  0
  158.4136  146.2775  168.7624 H   0  0  0  0  0  0  0  0  0  0  0  0
  157.2865  145.4093  169.8137 H   0  0  0  0  0  0  0  0  0  0  0  0
  159.8669  144.6681  169.8772 H   0  0  0  0  0  0  0  0  0  0  0  0
  158.6665  143.3808  169.6944 H   0  0  0  0  0  0  0  0  0  0  0  0
  157.3788  138.0909  159.7173 H   0  0  0  0  0  0  0  0  0  0  0  0
  156.9242  135.7061  159.4719 H   0  0  0  0  0  0  0  0  0  0  0  0
  1  2  1  0  0  0  0
  1 37  1  0  0  0  0
  1 38  1  0  0  0  0
  1 39  1  0  0  0  0
  2  3  1  0  0  0  0
  3 36  1  0  0  0  0
  3  4  2  0  0  0  0
  4  5  1  0  0  0  0
  4 40  1  0  0  0  0
  5  6  2  0  0  0  0
  5 41  1  0  0  0  0
  6  7  1  0  0  0  0
  6 35  1  0  0  0  0
  7 17  1  0  0  0  0
  7  8  1  0  0  0  0
  7 42  1  0  0  0  0
  8  9  1  0  0  0  0
  8 43  1  0  0  0  0
  8 44  1  0  0  0  0
  9 10  1  0  0  0  0
  9 16  2  0  0  0  0
 10 15  1  0  0  0  0
 10 11  2  0  0  0  0
 11 12  1  0  0  0  0
 11 45  1  0  0  0  0
 12 13  2  0  0  0  0
 12 46  1  0  0  0  0
 13 14  1  0  0  0  0
 13 47  1  0  0  0  0
 14 15  2  0  0  0  0
 14 48  1  0  0  0  0
 15 49  1  0  0  0  0
 16 17  1  0  0  0  0
 17 18  1  0  0  0  0
 18 19  2  0  0  0  0
 18 20  1  0  0  0  0
 20 21  1  0  0  0  0
 20 50  1  0  0  0  0
 20 51  1  0  0  0  0
 21 33  1  0  0  0  0
 21 22  1  0  0  0  0
 22 23  2  0  0  0  0
 22 24  1  0  0  0  0
 24 25  1  0  0  0  0
 24 26  2  0  0  0  0
 26 27  1  0  0  0  0
 26 52  1  0  0  0  0
 27 28  1  0  0  0  0
 27 33  1  0  0  0  0
 28 32  1  0  0  0  0
 28 29  1  0  0  0  0
 28 53  1  0  0  0  0
 29 30  1  0  0  0  0
 29 54  1  0  0  0  0
 29 55  1  0  0  0  0
 30 31  1  0  0  0  0
 30 56  1  0  0  0  0
 30 57  1  0  0  0  0
 31 32  1  0  0  0  0
 31 58  1  0  0  0  0
 31 59  1  0  0  0  0
 33 34  2  0  0  0  0
 35 36  2  0  0  0  0
 35 60  1  0  0  0  0
 36 61  1  0  0  0  0
M  END
> <s_m_source_file>
AV-unprocessed.smi

> <i_m_source_file_index>
24

> <i_lp_mmshare_version>
43012

> <i_f3d_flags>
0

> <s_epik_input>
W0NIM11PYzFbY0hdW2NIXWMoW2NIXVtjSF0xKVtDQEBIXTJbQ0gyXUMoYzNbY0hdW2NIXVtjSF1bY0hdW2NIXTMpPU5OMkMoPU8pW0NIMl1uNGMoPU8pYyhGKVtjSF1uKGM0PU8pW0NAQEhdNVtDSDJdW0NIMl1bQ0gyXU81

> <s_epik_cmdline>
J2VwaWtfcHl0aG9uJywgJy1waCcsICc3LjAnLCAnLXRuJywgJzgnLCAnLW1hJywgJzIwMCcsICctbWV0YWxfYmluZGluZycsICctaW1hZScsICc8aW5maWxlLm1hZT4nLCAnLW9tYWUnLCAnPG91dGZpbGUubWFlPic=

> <r_lp_tautomer_probability>
1

> <r_epik_Ionization_Penalty>
1.46326e-08

> <r_epik_Ionization_Penalty_Charging>
4.53232e-09

> <r_epik_Ionization_Penalty_Neutral>
1.01002e-08

> <r_epik_State_Penalty>
-0

> <r_epik_Charging_Adjusted_Penalty>
4.53232e-09

> <i_epik_Tot_Q>
0

> <i_epik_Tot_abs_Q>
0

> <r_epik_Metal_State_Penalty>
-0

> <b_epik_Metal_Only>
0

> <s_epik_Chemistry_Notes>
This compound has an imine and may undergo hydrolysis. This compound contains an acetal/aminal-like group ( X-CH(R)-Y where X, Y are N, S, or O) that may be acid/base labile, releasing an aldehyde.

> <s_lp_Force_Field>
OPLS_2005

> <r_lp_Energy>
49.9994

> <b_lp_Chiralities_Consistent>
1

> <s_lp_Variant>
AV-unprocessed.smi:24-4

> <Gold.Version>
5.8.1

> <Gold.Id.Protein>
6NUR|6NUR_protein|mol2

> <Gold.PLP.Fitness>
53.3130

> <Gold.PLP.PLP>
-51.3338

> <Gold.PLP.part.hbond>
-2.0000

> <Gold.PLP.part.metal>
0.0000

> <Gold.PLP.part.buried>
-3.3441

> <Gold.PLP.part.nonpolar>
-44.5767

> <Gold.PLP.part.repulsive>
0.0530

> <Gold.PLP.ligand.clash>
0.0000

> <Gold.PLP.ligand.torsion>
0.5507

> <Gold.PLP.Chemscore.Hbond>
1.0000

> <Gold.PLP.Chemscore.CHOScore>
0.0000

> <Gold.PLP.Chemscore.Metal>
0.0000

> <Gold.Chemscore.Hbonds>
donor molecule, donor type, donor heavy atom, donor atom, acceptor molecule, acceptor atom, score
      P1  H  6896  6908       L1     2  1.00

> <Gold.PLP.Chemscore.Internal.Correction>
0.0805

> <Gold.Rescore>
     Score         DG    S(hbond)    S(metal)    S(lipo)     H(rot)  DE(clash)    DE(int)     intcor
     16.19     -19.95       0.84        0.00     142.77       1.98       0.35       3.41       ----

> <Gold.Chemscore.Fitness>
16.1933

> <Gold.Chemscore.DG>
-19.9475

> <Gold.Chemscore.ZeroCoef>
-5.4800

> <Gold.Chemscore.Hbond>
0.8442

> <Gold.Chemscore.Metal>
0.0000

> <Gold.Chemscore.Lipo>
142.7694

> <Gold.Chemscore.Internal_Hbond>
0.0000

> <Gold.Chemscore.DEClash>
0.3487

> <Gold.Chemscore.DEInternal>
3.4054

> <Gold.Chemscore.Rot>
1.9750

> <Gold.Chemscore.Internal.Correction>
   9.000000E+99

> <Gold.Chemscore.Hbonds>
donor molecule, donor type, donor heavy atom, donor atom, acceptor molecule, acceptor atom, score
      P1  H  6896  6908       L1     2  0.49

> <Gold.Chemscore.Hbond.Weighted>
-2.8195

> <Gold.Chemscore.Metal.Weighted>
-0.0000

> <Gold.Chemscore.Lipo.Weighted>
-16.7040

> <Gold.Chemscore.Internal_Hbond.Weighted>
0.0000

> <Gold.Chemscore.DEClash.Weighted>
0.3487

> <Gold.Chemscore.DEInternal.Weighted>
3.4054

> <Gold.Chemscore.Rot.Weighted>
5.0561

> <Gold.Chemscore.Internal.Correction.Weighted>
   9.000000E+99

> <Gold.Protein.RotatedTorsions>
[ 6907 6896 6895 6894 ] final  -48.85 input  -60.11 | X-H torsion
[ 7974 7965 7964 7962 ] final  -99.76 input  175.53 | X-H torsion
[ 8008 7997 7996 7995 ] final   92.80 input   59.86 | X-H torsion
[ 10167 10162 10161 10158 ] final  154.89 input  -65.29 | X-H torsion
[ 10718 10713 10712 10709 ] final   85.06 input   66.30 | X-H torsion
[ 10763 10752 10751 10750 ] final  112.63 input  -60.55 | X-H torsion
[ 11005 11000 10999 10996 ] final  -31.24 input  -57.11 | X-H torsion

> <Gold.Protein.ActiveResidues>
 VAL166  LYS551  ARG553  GLY616  TRP617  ASP618  TYR619  PRO620  LYS621  CYS622 
 ASP623  PHE694  ASN695  SER759  ASP760  ASP761  ALA762  ILE779  LEU786  VAL792 
 PHE793  MET794  SER795  GLU796  ALA797  LYS798  CYS799  TRP800  GLU811  SER814 

> <Gold.Protein.RotatedAtoms>
  150.8864  134.8262  159.7261 H   0  0  0  0  0  0  0  0  0  0  0  0  # atno 6907 bound_to 6896
  152.4810  134.4716  159.9647 H   0  0  0  0  0  0  0  0  0  0  0  0  # atno 6908 bound_to 6896
  151.4784  133.3513  159.2870 H   0  0  0  0  0  0  0  0  0  0  0  0  # atno 6909 bound_to 6896
  145.3034  140.9383  143.2810 H   0  0  0  0  0  0  0  0  0  0  0  0  # atno 7974 bound_to 7965
  156.0395  140.3321  155.7227 H   0  0  0  0  0  0  0  0  0  0  0  0  # atno 8008 bound_to 7997
  155.5766  140.0633  157.2811 H   0  0  0  0  0  0  0  0  0  0  0  0  # atno 8009 bound_to 7997
  154.4387  140.1851  156.0922 H   0  0  0  0  0  0  0  0  0  0  0  0  # atno 8010 bound_to 7997
  139.4822  144.5147  151.7970 H   0  0  0  0  0  0  0  0  0  0  0  0  # atno 10167 bound_to 10162
  157.6908  131.0159  150.2765 H   0  0  0  0  0  0  0  0  0  0  0  0  # atno 10718 bound_to 10713
  153.4807  135.3680  155.2440 H   0  0  0  0  0  0  0  0  0  0  0  0  # atno 10763 bound_to 10752
  154.8755  135.3953  154.3704 H   0  0  0  0  0  0  0  0  0  0  0  0  # atno 10764 bound_to 10752
  153.4307  135.7082  153.6298 H   0  0  0  0  0  0  0  0  0  0  0  0  # atno 10765 bound_to 10752
  140.9451  133.7255  156.1135 H   0  0  0  0  0  0  0  0  0  0  0  0  # atno 11005 bound_to 11000
  144.9075  139.4571  143.6603 LP  0  0  0  0  0  0  0  0  0  0  0  0  # atno 17320 bound_to 7965
  146.3144  139.7864  142.8995 LP  0  0  0  0  0  0  0  0  0  0  0  0  # atno 17321 bound_to 7965
  140.4654  144.1663  150.5911 LP  0  0  0  0  0  0  0  0  0  0  0  0  # atno 17342 bound_to 10162
  140.4440  143.2514  151.9435 LP  0  0  0  0  0  0  0  0  0  0  0  0  # atno 17343 bound_to 10162
  156.3319  130.3801  149.7483 LP  0  0  0  0  0  0  0  0  0  0  0  0  # atno 17370 bound_to 10713
  156.5020  130.8133  151.3136 LP  0  0  0  0  0  0  0  0  0  0  0  0  # atno 17371 bound_to 10713
  140.7680  134.3864  157.5513 LP  0  0  0  0  0  0  0  0  0  0  0  0  # atno 17394 bound_to 11000
  139.8831  134.9004  156.2787 LP  0  0  0  0  0  0  0  0  0  0  0  0  # atno 17395 bound_to 11000

$$$$
