#       Name:                AV-unprocessed.smi:3036
#       Creating user name   scv26
#       Creation time:       Fri Mar 27 16:55:21 2020


#       File generated by GOLD software.
#

@<TRIPOS>MOLECULE
AV-unprocessed.smi:3036
    47    48     1
SMALL
NO_CHARGES


@<TRIPOS>ATOM
      1 ****        -3.4595  -0.9964   1.4652 C.3            1 S1                 0.0000
      2 ****        -2.9133  -0.2645   0.2322 C.3            1 S1                 0.0000
      3 ****        -3.3767  -0.9393  -1.0736 C.3            1 S1                 0.0000
      4 ****        -2.9660  -0.1977  -2.2531 N.pl3          1 S1                 0.0000
      5 ****        -3.6420   0.8065  -2.9133 C.2            1 S1                 0.0000
      6 ****        -2.8554   1.2088  -3.9543 C.2            1 S1                 0.0000
      7 ****        -1.7036   0.3805  -3.8489 C.2            1 S1                 0.0000
      8 ****        -1.7715  -0.4590  -2.8281 N.2            1 S1                 0.0000
      9 ****        -1.4357  -0.2165   0.2951 N.4            1 S1                 1.0000
     10 ****        -0.8629   1.1448   0.3702 C.3            1 S1                 0.0000
     11 ****         0.6776   1.1309   0.3126 C.3            1 S1                 0.0000
     12 ****         1.3671   0.4666   1.5198 C.2            1 S1                 0.0000
     13 ****         0.6707   0.0224   2.4341 O.2            1 S1                 0.0000
     14 ****         2.7195   0.3888   1.5414 N.am           1 S1                 0.0000
     15 ****         3.4683  -0.2736   2.6135 C.3            1 S1                 0.0000
     16 ****         4.2054  -1.4855   2.0155 C.3            1 S1                 0.0000
     17 ****         5.0588  -1.0556   0.9578 O.3            1 S1                 0.0000
     18 ****         4.3603  -0.3842  -0.0877 C.3            1 S1                 0.0000
     19 ****         3.6294   0.8435   0.4847 C.3            1 S1                 0.0000
     20 ****        -4.5497  -1.0214   1.4554 H              1 S1                 0.0000
     21 ****        -3.1513  -0.4993   2.3858 H              1 S1                 0.0000
     22 ****        -3.1040  -2.0266   1.5073 H              1 S1                 0.0000
     23 ****        -3.3122   0.7513   0.2497 H              1 S1                 0.0000
     24 ****        -2.9910  -1.9579  -1.1423 H              1 S1                 0.0000
     25 ****        -4.4646  -1.0181  -1.0883 H              1 S1                 0.0000
     26 ****        -4.6141   1.1490  -2.5904 H              1 S1                 0.0000
     27 ****        -3.0703   1.9778  -4.6817 H              1 S1                 0.0000
     28 ****        -0.8259   0.3659  -4.4781 H              1 S1                 0.0000
     29 ****        -1.1266  -0.7417   1.1013 H              1 S1                 0.0000
     30 ****        -1.2425   1.7303  -0.4685 H              1 S1                 0.0000
     31 ****        -1.2096   1.6371   1.2802 H              1 S1                 0.0000
     32 ****         0.9916   0.6267  -0.6023 H              1 S1                 0.0000
     33 ****         1.0290   2.1612   0.2461 H              1 S1                 0.0000
     34 ****         4.1839   0.4296   3.0418 H              1 S1                 0.0000
     35 ****         2.8348  -0.5999   3.4392 H              1 S1                 0.0000
     36 ****         4.8097  -1.9747   2.7794 H              1 S1                 0.0000
     37 ****         3.4963  -2.2270   1.6441 H              1 S1                 0.0000
     38 ****         5.0771  -0.0768  -0.8494 H              1 S1                 0.0000
     39 ****         3.6575  -1.0679  -0.5664 H              1 S1                 0.0000
     40 ****         3.1375   1.3853  -0.3210 H              1 S1                 0.0000
     41 ****         4.3517   1.5411   0.9112 H              1 S1                 0.0000
     42 ****        -1.0764  -0.6628  -0.5373 H              1 S1                 0.0000
     43 ****        -1.0912  -1.1353  -2.5456 LP             1 S1                 0.0000
     44 ****        -0.3254   0.0961   2.3851 LP             1 S1                 0.0000
     45 ****         1.1016  -0.4119   3.2252 LP             1 S1                 0.0000
     46 ****         5.5153  -1.8572   0.5717 LP             1 S1                 0.0000
     47 ****         5.7432  -0.4316   1.3350 LP             1 S1                 0.0000
@<TRIPOS>BOND
    1    1    2 1     
    2    1   20 1     
    3    1   21 1     
    4    1   22 1     
    5    2    3 1     
    6    2    9 1     
    7    2   23 1     
    8    3    4 1     
    9    3   24 1     
   10    3   25 1     
   11    4    8 1     
   12    4    5 1     
   13    5    6 2     
   14    5   26 1     
   15    6    7 1     
   16    6   27 1     
   17    7    8 2     
   18    7   28 1     
   19    9   10 1     
   20    9   29 1     
   21    9   42 1     
   22   10   11 1     
   23   10   30 1     
   24   10   31 1     
   25   11   12 1     
   26   11   32 1     
   27   11   33 1     
   28   12   13 2     
   29   12   14 am    
   30   14   19 1     
   31   14   15 1     
   32   15   16 1     
   33   15   34 1     
   34   15   35 1     
   35   16   17 1     
   36   16   36 1     
   37   16   37 1     
   38   17   18 1     
   39   18   19 1     
   40   18   38 1     
   41   18   39 1     
   42   19   40 1     
   43   19   41 1     
   44    8   43 1     
   45   13   44 1     
   46   13   45 1     
   47   17   46 1     
   48   17   47 1     
@<TRIPOS>SUBSTRUCTURE
      1 S1             1
@<TRIPOS>SET
LONE_PAIRS      STATIC     ATOMS    <user>   **** ""
5 43 44 45 46 47
DONOR_HYDROGENS      STATIC     ATOMS    <user>   **** ""
2 29 42
ATOM$BLUE        STATIC     ATOMS    COLORGROUP SYSTEM
5 43 44 45 46 47
ATOM$RED        STATIC     ATOMS    COLORGROUP SYSTEM
2 29 42
