AV-unprocessed.smi:1908|AV-procd|sdf|7733|dock10
  -GOLD-   22720 9473D 1   1.00000     0.00000
 Structure written by MMmdl.
 28 28  0  0  0  0  0  0  0  0  1 V2000
  150.4800  144.7735  159.1881 C   0  0  0  0  0  0  0  0  0  0  0  0
  151.5139  143.9039  158.4612 C   0  0  0  0  0  0  0  0  0  0  0  0
  152.7410  144.7210  158.0285 C   0  0  0  0  0  0  0  0  0  0  0  0
  150.8909  143.2737  157.3009 N   0  0  0  0  0  0  0  0  0  0  0  0
  150.9954  141.9773  156.9692 C   0  0  0  0  0  0  0  0  0  0  0  0
  151.6538  141.1645  157.6197 O   0  0  0  0  0  0  0  0  0  0  0  0
  150.2663  141.5441  155.6897 C   0  0  0  0  0  0  0  0  0  0  0  0
  150.5274  140.1418  155.3357 N   0  0  0  0  0  0  0  0  0  0  0  0
  151.8294  139.6658  155.2682 C   0  0  0  0  0  0  0  0  0  0  0  0
  152.1396  138.3844  154.9596 C   0  0  0  0  0  0  0  0  0  0  0  0
  151.0849  137.4171  154.6752 C   0  0  0  0  0  0  0  0  0  0  0  0
  151.2648  136.2368  154.3841 O   0  0  0  0  0  0  0  0  0  0  0  0
  149.7890  137.9334  154.7563 N   0  0  0  0  0  0  0  0  0  0  0  0
  149.4624  139.2519  155.0766 C   0  0  0  0  0  0  0  0  0  0  0  0
  148.2839  139.6025  155.1257 O   0  0  0  0  0  0  0  0  0  0  0  0
  149.0255  137.2996  154.5705 H   0  0  0  0  0  0  0  0  0  0  0  0
  150.9120  145.2341  160.0771 H   0  0  0  0  0  0  0  0  0  0  0  0
  149.6236  144.1796  159.5093 H   0  0  0  0  0  0  0  0  0  0  0  0
  150.1101  145.5735  158.5460 H   0  0  0  0  0  0  0  0  0  0  0  0
  151.8409  143.1291  159.1571 H   0  0  0  0  0  0  0  0  0  0  0  0
  153.2170  145.1961  158.8868 H   0  0  0  0  0  0  0  0  0  0  0  0
  152.4668  145.5065  157.3235 H   0  0  0  0  0  0  0  0  0  0  0  0
  153.4887  144.0884  157.5484 H   0  0  0  0  0  0  0  0  0  0  0  0
  150.3342  143.8694  156.7053 H   0  0  0  0  0  0  0  0  0  0  0  0
  149.1924  141.7141  155.7921 H   0  0  0  0  0  0  0  0  0  0  0  0
  150.5849  142.2033  154.8809 H   0  0  0  0  0  0  0  0  0  0  0  0
  152.6430  140.3465  155.4762 H   0  0  0  0  0  0  0  0  0  0  0  0
  153.1735  138.0726  154.9242 H   0  0  0  0  0  0  0  0  0  0  0  0
  1  2  1  0  0  0  0
  1 17  1  0  0  0  0
  1 18  1  0  0  0  0
  1 19  1  0  0  0  0
  2  3  1  0  0  0  0
  2  4  1  0  0  0  0
  2 20  1  0  0  0  0
  3 21  1  0  0  0  0
  3 22  1  0  0  0  0
  3 23  1  0  0  0  0
  4  5  1  0  0  0  0
  4 24  1  0  0  0  0
  5  6  2  0  0  0  0
  5  7  1  0  0  0  0
  7  8  1  0  0  0  0
  7 25  1  0  0  0  0
  7 26  1  0  0  0  0
  8 14  1  0  0  0  0
  8  9  1  0  0  0  0
  9 10  2  0  0  0  0
  9 27  1  0  0  0  0
 10 11  1  0  0  0  0
 10 28  1  0  0  0  0
 11 12  2  0  0  0  0
 11 13  1  0  0  0  0
 13 16  1  0  0  0  0
 13 14  1  0  0  0  0
 14 15  2  0  0  0  0
M  END
> <s_m_source_file>
AV-unprocessed.smi

> <i_m_source_file_index>
1908

> <i_lp_mmshare_version>
43012

> <i_f3d_flags>
0

> <s_epik_input>
W0NIM11bQ0hdKFtDSDNdKVtOSF1DKD1PKVtDSDJdbjFbY0hdW2NIXWMoPU8pW25IXWMxPU8=

> <s_epik_cmdline>
J2VwaWtfcHl0aG9uJywgJy1waCcsICc3LjAnLCAnLXRuJywgJzgnLCAnLW1hJywgJzIwMCcsICctbWV0YWxfYmluZGluZycsICctaW1hZScsICc8aW5maWxlLm1hZT4nLCAnLW9tYWUnLCAnPG91dGZpbGUubWFlPic=

> <r_lp_tautomer_probability>
0.999537

> <r_epik_Ionization_Penalty>
0.00328918

> <r_epik_Ionization_Penalty_Charging>
0.00328916

> <r_epik_Ionization_Penalty_Neutral>
2.06703e-08

> <r_epik_State_Penalty>
0.00232387

> <r_epik_Charging_Adjusted_Penalty>
0.00561303

> <i_epik_Tot_Q>
0

> <i_epik_Tot_abs_Q>
0

> <r_epik_Metal_State_Penalty>
0.365273

> <b_epik_Metal_Only>
0

> <s_lp_Force_Field>
OPLS_2005

> <r_lp_Energy>
1.74707

> <b_lp_Chiralities_Consistent>
1

> <s_lp_Variant>
AV-unprocessed.smi:1908-1

> <Gold.Version>
5.8.1

> <Gold.Id.Protein>
6NUR|6NUR_protein|mol2

> <Gold.PLP.Fitness>
36.7595

> <Gold.PLP.PLP>
-31.2929

> <Gold.PLP.part.hbond>
-2.0000

> <Gold.PLP.part.metal>
0.0000

> <Gold.PLP.part.buried>
-3.7321

> <Gold.PLP.part.nonpolar>
-26.7879

> <Gold.PLP.part.repulsive>
1.3062

> <Gold.PLP.ligand.clash>
0.0000

> <Gold.PLP.ligand.torsion>
0.2704

> <Gold.PLP.Chemscore.Hbond>
2.0000

> <Gold.PLP.Chemscore.CHOScore>
0.0000

> <Gold.PLP.Chemscore.Metal>
0.0000

> <Gold.Chemscore.Hbonds>
donor molecule, donor type, donor heavy atom, donor atom, acceptor molecule, acceptor atom, score
      L1  H     4    24       P1  8028  1.00
      P1  H 10752 10765       L1    12  1.00

> <Gold.PLP.Chemscore.Internal.Correction>
0.0073

> <Gold.Rescore>
     Score         DG    S(hbond)    S(metal)    S(lipo)     H(rot)  DE(clash)    DE(int)     intcor
     13.05     -14.63       1.97        0.00      60.48       1.76       0.01       1.57       ----

> <Gold.Chemscore.Fitness>
13.0460

> <Gold.Chemscore.DG>
-14.6271

> <Gold.Chemscore.ZeroCoef>
-5.4800

> <Gold.Chemscore.Hbond>
1.9660

> <Gold.Chemscore.Metal>
0.0000

> <Gold.Chemscore.Lipo>
60.4820

> <Gold.Chemscore.Internal_Hbond>
0.0000

> <Gold.Chemscore.DEClash>
0.0139

> <Gold.Chemscore.DEInternal>
1.5671

> <Gold.Chemscore.Rot>
1.7562

> <Gold.Chemscore.Internal.Correction>
   9.000000E+99

> <Gold.Chemscore.Hbonds>
donor molecule, donor type, donor heavy atom, donor atom, acceptor molecule, acceptor atom, score
      L1  H     4    24       P1  8028  0.99
      P1  H 10752 10765       L1    12  0.96

> <Gold.Chemscore.Hbond.Weighted>
-6.5664

> <Gold.Chemscore.Metal.Weighted>
-0.0000

> <Gold.Chemscore.Lipo.Weighted>
-7.0764

> <Gold.Chemscore.Internal_Hbond.Weighted>
0.0000

> <Gold.Chemscore.DEClash.Weighted>
0.0139

> <Gold.Chemscore.DEInternal.Weighted>
1.5671

> <Gold.Chemscore.Rot.Weighted>
4.4958

> <Gold.Chemscore.Internal.Correction.Weighted>
   9.000000E+99

> <Gold.Protein.RotatedTorsions>
[ 6907 6896 6895 6894 ] final -105.44 input  -60.11 | X-H torsion
[ 7974 7965 7964 7962 ] final  129.05 input  175.53 | X-H torsion
[ 8008 7997 7996 7995 ] final  -60.46 input   59.86 | X-H torsion
[ 10167 10162 10161 10158 ] final   28.47 input  -65.29 | X-H torsion
[ 10718 10713 10712 10709 ] final   79.32 input   66.30 | X-H torsion
[ 10763 10752 10751 10750 ] final  168.42 input  -60.55 | X-H torsion
[ 11005 11000 10999 10996 ] final -104.13 input  -57.11 | X-H torsion

> <Gold.Protein.ActiveResidues>
 VAL166  LYS551  ARG553  GLY616  TRP617  ASP618  TYR619  PRO620  LYS621  CYS622 
 ASP623  PHE694  ASN695  SER759  ASP760  ASP761  ALA762  ILE779  LEU786  VAL792 
 PHE793  MET794  SER795  GLU796  ALA797  LYS798  CYS799  TRP800  GLU811  SER814 

> <Gold.Protein.RotatedAtoms>
  150.7337  134.0126  159.3674 H   0  0  0  0  0  0  0  0  0  0  0  0  # atno 6907 bound_to 6896
  151.8086  135.0685  160.0419 H   0  0  0  0  0  0  0  0  0  0  0  0  # atno 6908 bound_to 6896
  152.3089  133.5695  159.5704 H   0  0  0  0  0  0  0  0  0  0  0  0  # atno 6909 bound_to 6896
  145.0329  139.4030  143.5141 H   0  0  0  0  0  0  0  0  0  0  0  0  # atno 7974 bound_to 7965
  154.4400  140.1039  156.6277 H   0  0  0  0  0  0  0  0  0  0  0  0  # atno 8008 bound_to 7997
  155.5638  140.3488  155.4479 H   0  0  0  0  0  0  0  0  0  0  0  0  # atno 8009 bound_to 7997
  156.0440  140.1288  157.0114 H   0  0  0  0  0  0  0  0  0  0  0  0  # atno 8010 bound_to 7997
  140.4849  144.0558  150.6277 H   0  0  0  0  0  0  0  0  0  0  0  0  # atno 10167 bound_to 10162
  157.6773  130.9909  150.1916 H   0  0  0  0  0  0  0  0  0  0  0  0  # atno 10718 bound_to 10713
  154.3682  135.2753  155.2281 H   0  0  0  0  0  0  0  0  0  0  0  0  # atno 10763 bound_to 10752
  154.4440  135.5947  153.6151 H   0  0  0  0  0  0  0  0  0  0  0  0  # atno 10764 bound_to 10752
  152.9839  135.6025  154.3911 H   0  0  0  0  0  0  0  0  0  0  0  0  # atno 10765 bound_to 10752
  141.1114  133.8697  157.1572 H   0  0  0  0  0  0  0  0  0  0  0  0  # atno 11005 bound_to 11000
  146.3500  139.9888  142.8688 LP  0  0  0  0  0  0  0  0  0  0  0  0  # atno 17320 bound_to 7965
  145.1747  140.9738  143.4301 LP  0  0  0  0  0  0  0  0  0  0  0  0  # atno 17321 bound_to 7965
  140.3810  143.2802  152.0170 LP  0  0  0  0  0  0  0  0  0  0  0  0  # atno 17342 bound_to 10162
  139.4840  144.6154  151.7355 LP  0  0  0  0  0  0  0  0  0  0  0  0  # atno 17343 bound_to 10162
  156.2626  130.3712  149.8114 LP  0  0  0  0  0  0  0  0  0  0  0  0  # atno 17370 bound_to 10713
  156.5855  130.8484  151.3394 LP  0  0  0  0  0  0  0  0  0  0  0  0  # atno 17371 bound_to 10713
  140.0011  135.0027  157.0191 LP  0  0  0  0  0  0  0  0  0  0  0  0  # atno 17394 bound_to 11000
  140.4763  134.1334  155.7210 LP  0  0  0  0  0  0  0  0  0  0  0  0  # atno 17395 bound_to 11000

$$$$
