AV-unprocessed.smi:1267|AV-procd|sdf|5322|dock3
  -GOLD-   22720 4443D 1   1.00000     0.00000
 Structure written by MMmdl.
 37 38  0  0  0  0  0  0  0  0  1 V2000
  147.7455  134.4487  157.0500 C   0  0  0  0  0  0  0  0  0  0  0  0
  149.5384  134.1249  157.3047 S   0  0  0  0  0  0  0  0  0  0  0  0
  150.1766  135.3828  157.7214 O   0  0  0  0  0  0  0  0  0  0  0  0
  149.6725  132.9260  158.1463 O   0  0  0  0  0  0  0  0  0  0  0  0
  150.1294  133.7288  155.7162 N   0  0  0  0  0  0  0  0  0  0  0  0
  150.7522  132.4130  155.4677 C   0  0  0  0  0  0  0  0  0  0  0  0
  149.7804  131.4467  154.7676 C   0  0  0  0  0  0  0  0  0  0  0  0
  149.2032  132.0609  153.4841 C   0  0  0  0  0  0  0  0  0  0  0  0
  148.2430  131.1388  152.8863 N   0  0  0  0  0  0  0  0  0  0  0  0
  147.2227  130.5528  153.5319 C   0  0  0  0  0  0  0  0  0  0  0  0
  146.9878  130.7212  154.7283 O   0  0  0  0  0  0  0  0  0  0  0  0
  146.3280  129.6355  152.6980 C   0  0  0  0  0  0  0  0  0  0  0  0
  147.0832  128.5170  152.1635 N   0  0  0  0  0  0  0  0  0  0  0  0
  147.4509  128.2794  150.8555 C   0  0  0  0  0  0  0  0  0  0  0  0
  148.1564  127.1106  150.8376 C   0  0  0  0  0  0  0  0  0  0  0  0
  148.1691  126.7025  152.2007 C   0  0  0  0  0  0  0  0  0  0  0  0
  147.5261  127.5457  152.9923 N   0  0  0  0  0  0  0  0  0  0  0  0
  148.5391  133.4073  153.8199 C   0  0  0  0  0  0  0  0  0  0  0  0
  149.5227  134.3570  154.5256 C   0  0  0  0  0  0  0  0  0  0  0  0
  147.2921  134.7066  158.0067 H   0  0  0  0  0  0  0  0  0  0  0  0
  147.2589  133.5575  156.6581 H   0  0  0  0  0  0  0  0  0  0  0  0
  147.6125  135.2809  156.3612 H   0  0  0  0  0  0  0  0  0  0  0  0
  151.6317  132.5622  154.8405 H   0  0  0  0  0  0  0  0  0  0  0  0
  151.1107  131.9802  156.4012 H   0  0  0  0  0  0  0  0  0  0  0  0
  150.3002  130.5169  154.5335 H   0  0  0  0  0  0  0  0  0  0  0  0
  148.9716  131.1783  155.4465 H   0  0  0  0  0  0  0  0  0  0  0  0
  150.0220  132.2281  152.7816 H   0  0  0  0  0  0  0  0  0  0  0  0
  148.3509  130.9438  151.9013 H   0  0  0  0  0  0  0  0  0  0  0  0
  145.4995  129.2618  153.3019 H   0  0  0  0  0  0  0  0  0  0  0  0
  145.8933  130.1945  151.8681 H   0  0  0  0  0  0  0  0  0  0  0  0
  147.1832  128.9553  150.0566 H   0  0  0  0  0  0  0  0  0  0  0  0
  148.5970  126.6220  149.9815 H   0  0  0  0  0  0  0  0  0  0  0  0
  148.6236  125.8243  152.6351 H   0  0  0  0  0  0  0  0  0  0  0  0
  148.1727  133.8834  152.9098 H   0  0  0  0  0  0  0  0  0  0  0  0
  147.6645  133.2429  154.4485 H   0  0  0  0  0  0  0  0  0  0  0  0
  149.0230  135.2862  154.7980 H   0  0  0  0  0  0  0  0  0  0  0  0
  150.3224  134.6294  153.8360 H   0  0  0  0  0  0  0  0  0  0  0  0
  1  2  1  0  0  0  0
  1 20  1  0  0  0  0
  1 21  1  0  0  0  0
  1 22  1  0  0  0  0
  2  3  2  0  0  0  0
  2  4  2  0  0  0  0
  2  5  1  0  0  0  0
  5 19  1  0  0  0  0
  5  6  1  0  0  0  0
  6  7  1  0  0  0  0
  6 23  1  0  0  0  0
  6 24  1  0  0  0  0
  7  8  1  0  0  0  0
  7 25  1  0  0  0  0
  7 26  1  0  0  0  0
  8  9  1  0  0  0  0
  8 18  1  0  0  0  0
  8 27  1  0  0  0  0
  9 10  1  0  0  0  0
  9 28  1  0  0  0  0
 10 11  2  0  0  0  0
 10 12  1  0  0  0  0
 12 13  1  0  0  0  0
 12 29  1  0  0  0  0
 12 30  1  0  0  0  0
 13 17  1  0  0  0  0
 13 14  1  0  0  0  0
 14 15  2  0  0  0  0
 14 31  1  0  0  0  0
 15 16  1  0  0  0  0
 15 32  1  0  0  0  0
 16 17  2  0  0  0  0
 16 33  1  0  0  0  0
 18 19  1  0  0  0  0
 18 34  1  0  0  0  0
 18 35  1  0  0  0  0
 19 36  1  0  0  0  0
 19 37  1  0  0  0  0
M  END
> <s_m_source_file>
AV-unprocessed.smi

> <i_m_source_file_index>
1267

> <i_lp_mmshare_version>
43012

> <i_f3d_flags>
0

> <s_epik_input>
W0NIM11TKD1PKSg9TylOMVtDSDJdW0NIMl1bQ0hdKFtDSDJdW0NIMl0xKVtOSF1DKD1PKVtDSDJdbjJbY0hdW2NIXVtjSF1uMg==

> <s_epik_cmdline>
J2VwaWtfcHl0aG9uJywgJy1waCcsICc3LjAnLCAnLXRuJywgJzgnLCAnLW1hJywgJzIwMCcsICctbWV0YWxfYmluZGluZycsICctaW1hZScsICc8aW5maWxlLm1hZT4nLCAnLW9tYWUnLCAnPG91dGZpbGUubWFlPic=

> <r_lp_tautomer_probability>
1

> <r_epik_Ionization_Penalty>
1.58465e-05

> <r_epik_Ionization_Penalty_Charging>
0

> <r_epik_Ionization_Penalty_Neutral>
1.58465e-05

> <r_epik_State_Penalty>
-0

> <r_epik_Charging_Adjusted_Penalty>
0

> <i_epik_Tot_Q>
0

> <i_epik_Tot_abs_Q>
0

> <r_epik_Metal_State_Penalty>
-0

> <b_epik_Metal_Only>
0

> <s_lp_Force_Field>
OPLS_2005

> <r_lp_Energy>
-1.31745

> <b_lp_Chiralities_Consistent>
1

> <s_lp_Variant>
AV-unprocessed.smi:1267-1

> <Gold.Version>
5.8.1

> <Gold.Id.Protein>
6NUR|6NUR_protein|mol2

> <Gold.PLP.Fitness>
40.1265

> <Gold.PLP.PLP>
-33.3232

> <Gold.PLP.part.hbond>
-2.7876

> <Gold.PLP.part.metal>
0.0000

> <Gold.PLP.part.buried>
-2.5370

> <Gold.PLP.part.nonpolar>
-27.2877

> <Gold.PLP.part.repulsive>
0.1396

> <Gold.PLP.ligand.clash>
0.0000

> <Gold.PLP.ligand.torsion>
1.3141

> <Gold.PLP.Chemscore.Hbond>
2.0000

> <Gold.PLP.Chemscore.CHOScore>
0.4594

> <Gold.PLP.Chemscore.Metal>
0.0000

> <Gold.Chemscore.Hbonds>
donor molecule, donor type, donor heavy atom, donor atom, acceptor molecule, acceptor atom, score
      L1  H     9    28       P1 10747  1.00
      P1  H  6896  6907       L1     4  0.65
      L1  C    14    31       P1 10747  0.41

> <Gold.PLP.Chemscore.Internal.Correction>
2.0533

> <Gold.Rescore>
     Score         DG    S(hbond)    S(metal)    S(lipo)     H(rot)  DE(clash)    DE(int)     intcor
     12.33     -15.11       1.90        0.00      61.69       1.53       0.04       2.74       ----

> <Gold.Chemscore.Fitness>
12.3298

> <Gold.Chemscore.DG>
-15.1054

> <Gold.Chemscore.ZeroCoef>
-5.4800

> <Gold.Chemscore.Hbond>
1.8954

> <Gold.Chemscore.Metal>
0.0000

> <Gold.Chemscore.Lipo>
61.6881

> <Gold.Chemscore.Internal_Hbond>
0.0000

> <Gold.Chemscore.DEClash>
0.0360

> <Gold.Chemscore.DEInternal>
2.7395

> <Gold.Chemscore.Rot>
1.5324

> <Gold.Chemscore.Internal.Correction>
   9.000000E+99

> <Gold.Chemscore.Hbonds>
donor molecule, donor type, donor heavy atom, donor atom, acceptor molecule, acceptor atom, score
      L1  H     9    28       P1 10747  0.99
      P1  H  6896  6907       L1     4  0.06

> <Gold.Chemscore.Hbond.Weighted>
-6.3308

> <Gold.Chemscore.Metal.Weighted>
-0.0000

> <Gold.Chemscore.Lipo.Weighted>
-7.2175

> <Gold.Chemscore.Internal_Hbond.Weighted>
0.0000

> <Gold.Chemscore.DEClash.Weighted>
0.0360

> <Gold.Chemscore.DEInternal.Weighted>
2.7395

> <Gold.Chemscore.Rot.Weighted>
3.9229

> <Gold.Chemscore.Internal.Correction.Weighted>
   9.000000E+99

> <Gold.Protein.RotatedTorsions>
[ 6907 6896 6895 6894 ] final -124.42 input  -60.11 | X-H torsion
[ 7974 7965 7964 7962 ] final  117.42 input  175.53 | X-H torsion
[ 8008 7997 7996 7995 ] final -161.57 input   59.86 | X-H torsion
[ 10167 10162 10161 10158 ] final  -97.54 input  -65.29 | X-H torsion
[ 10718 10713 10712 10709 ] final -118.38 input   66.30 | X-H torsion
[ 10763 10752 10751 10750 ] final   86.22 input  -60.55 | X-H torsion
[ 11005 11000 10999 10996 ] final -142.52 input  -57.11 | X-H torsion

> <Gold.Protein.ActiveResidues>
 VAL166  LYS551  ARG553  GLY616  TRP617  ASP618  TYR619  PRO620  LYS621  CYS622 
 ASP623  PHE694  ASN695  SER759  ASP760  ASP761  ALA762  ILE779  LEU786  VAL792 
 PHE793  MET794  SER795  GLU796  ALA797  LYS798  CYS799  TRP800  GLU811  SER814 

> <Gold.Protein.RotatedAtoms>
  150.8767  133.7429  159.2944 H   0  0  0  0  0  0  0  0  0  0  0  0  # atno 6907 bound_to 6896
  151.5024  135.1061  159.9842 H   0  0  0  0  0  0  0  0  0  0  0  0  # atno 6908 bound_to 6896
  152.4732  133.8032  159.7020 H   0  0  0  0  0  0  0  0  0  0  0  0  # atno 6909 bound_to 6896
  145.1675  139.3120  143.4485 H   0  0  0  0  0  0  0  0  0  0  0  0  # atno 7974 bound_to 7965
  155.7942  140.0882  157.1992 H   0  0  0  0  0  0  0  0  0  0  0  0  # atno 8008 bound_to 7997
  154.3984  140.1484  156.3257 H   0  0  0  0  0  0  0  0  0  0  0  0  # atno 8009 bound_to 7997
  155.8528  140.3434  155.5707 H   0  0  0  0  0  0  0  0  0  0  0  0  # atno 8010 bound_to 7997
  140.2823  143.3274  152.0429 H   0  0  0  0  0  0  0  0  0  0  0  0  # atno 10167 bound_to 10162
  156.1102  130.6243  150.9284 H   0  0  0  0  0  0  0  0  0  0  0  0  # atno 10718 bound_to 10713
  153.1549  135.4588  154.9690 H   0  0  0  0  0  0  0  0  0  0  0  0  # atno 10763 bound_to 10752
  154.7853  135.3202  154.7901 H   0  0  0  0  0  0  0  0  0  0  0  0  # atno 10764 bound_to 10752
  153.8400  135.6931  153.4858 H   0  0  0  0  0  0  0  0  0  0  0  0  # atno 10765 bound_to 10752
  140.8217  134.2623  157.4897 H   0  0  0  0  0  0  0  0  0  0  0  0  # atno 11005 bound_to 11000
  146.3473  140.1809  142.8589 LP  0  0  0  0  0  0  0  0  0  0  0  0  # atno 17320 bound_to 7965
  145.0267  140.8837  143.5134 LP  0  0  0  0  0  0  0  0  0  0  0  0  # atno 17321 bound_to 7965
  139.4959  144.6583  151.6522 LP  0  0  0  0  0  0  0  0  0  0  0  0  # atno 17342 bound_to 10162
  140.5801  143.9960  150.6264 LP  0  0  0  0  0  0  0  0  0  0  0  0  # atno 17343 bound_to 10162
  157.6283  131.0923  150.8491 LP  0  0  0  0  0  0  0  0  0  0  0  0  # atno 17370 bound_to 10713
  156.8603  130.5111  149.5304 LP  0  0  0  0  0  0  0  0  0  0  0  0  # atno 17371 bound_to 10713
  139.8708  134.9539  156.4158 LP  0  0  0  0  0  0  0  0  0  0  0  0  # atno 17394 bound_to 11000
  140.9092  133.7724  155.9771 LP  0  0  0  0  0  0  0  0  0  0  0  0  # atno 17395 bound_to 11000

$$$$
