AV-unprocessed.smi:2248|AV-procd|sdf|9097|dock7
  -GOLD-   2272012293D 1   1.00000     0.00000
 Structure written by MMmdl.
 35 36  0  0  0  0  0  0  0  0  1 V2000
  153.4119  141.6810  161.0575 C   0  0  0  0  0  0  0  0  0  0  0  0
  152.5546  142.7615  160.4329 C   0  0  0  0  0  0  0  0  0  0  0  0
  152.4591  144.0390  161.0187 C   0  0  0  0  0  0  0  0  0  0  0  0
  151.6492  144.9990  160.3861 C   0  0  0  0  0  0  0  0  0  0  0  0
  150.9742  144.6453  159.2020 C   0  0  0  0  0  0  0  0  0  0  0  0
  151.1235  143.3405  158.6800 C   0  0  0  0  0  0  0  0  0  0  0  0
  150.4042  143.0851  157.4825 N   0  0  0  0  0  0  0  0  0  0  0  0
  150.4753  142.0056  156.6841 C   0  0  0  0  0  0  0  0  0  0  0  0
  151.1828  141.0169  156.8813 O   0  0  0  0  0  0  0  0  0  0  0  0
  149.6674  142.1344  155.6222 N   0  0  0  0  0  0  0  0  0  0  0  0
  149.5284  141.1503  154.5549 C   0  0  1  0  0  0  0  0  0  0  0  0
  149.4712  139.7602  155.1296 C   0  0  0  0  0  0  0  0  0  0  0  0
  148.3554  139.1121  154.8023 C   0  0  0  0  0  0  0  0  0  0  0  0
  147.4318  139.9426  153.9492 C   0  0  1  0  0  0  0  0  0  0  0  0
  146.0160  140.0756  154.5419 C   0  0  0  0  0  0  0  0  0  0  0  0
  145.2179  138.9444  154.2533 O   0  0  0  0  0  0  0  0  0  0  0  0
  148.1863  141.2873  153.7870 C   0  0  0  0  0  0  0  0  0  0  0  0
  151.9073  142.4218  159.2976 N   0  0  0  0  0  0  0  0  0  0  0  0
  150.3776  141.2097  153.8720 H   0  0  0  0  0  0  0  0  0  0  0  0
  147.3590  139.4541  152.9769 H   0  0  0  0  0  0  0  0  0  0  0  0
  153.6978  141.9448  162.0763 H   0  0  0  0  0  0  0  0  0  0  0  0
  154.3210  141.5376  160.4731 H   0  0  0  0  0  0  0  0  0  0  0  0
  152.8719  140.7343  161.0919 H   0  0  0  0  0  0  0  0  0  0  0  0
  152.9911  144.2793  161.9276 H   0  0  0  0  0  0  0  0  0  0  0  0
  151.5478  145.9910  160.8010 H   0  0  0  0  0  0  0  0  0  0  0  0
  150.3489  145.3715  158.7032 H   0  0  0  0  0  0  0  0  0  0  0  0
  149.7675  143.8135  157.1951 H   0  0  0  0  0  0  0  0  0  0  0  0
  149.1226  142.9797  155.5346 H   0  0  0  0  0  0  0  0  0  0  0  0
  150.2706  139.3539  155.7316 H   0  0  0  0  0  0  0  0  0  0  0  0
  148.1119  138.1031  155.1006 H   0  0  0  0  0  0  0  0  0  0  0  0
  146.0702  140.2023  155.6236 H   0  0  0  0  0  0  0  0  0  0  0  0
  145.5217  140.9614  154.1423 H   0  0  0  0  0  0  0  0  0  0  0  0
  144.5403  139.2019  153.6470 H   0  0  0  0  0  0  0  0  0  0  0  0
  147.5923  142.1231  154.1596 H   0  0  0  0  0  0  0  0  0  0  0  0
  148.3748  141.4917  152.7326 H   0  0  0  0  0  0  0  0  0  0  0  0
  1  2  1  0  0  0  0
  1 21  1  0  0  0  0
  1 22  1  0  0  0  0
  1 23  1  0  0  0  0
  2 18  1  0  0  0  0
  2  3  2  0  0  0  0
  3  4  1  0  0  0  0
  3 24  1  0  0  0  0
  4  5  2  0  0  0  0
  4 25  1  0  0  0  0
  5  6  1  0  0  0  0
  5 26  1  0  0  0  0
  6  7  1  0  0  0  0
  6 18  2  0  0  0  0
  7  8  1  0  0  0  0
  7 27  1  0  0  0  0
  8  9  2  0  0  0  0
  8 10  1  0  0  0  0
 10 11  1  0  0  0  0
 10 28  1  0  0  0  0
 11 19  1  0  0  0  0
 11 17  1  0  0  0  0
 11 12  1  0  0  0  0
 12 13  2  0  0  0  0
 12 29  1  0  0  0  0
 13 14  1  0  0  0  0
 13 30  1  0  0  0  0
 14 20  1  0  0  0  0
 14 15  1  0  0  0  0
 14 17  1  0  0  0  0
 15 16  1  0  0  0  0
 15 31  1  0  0  0  0
 15 32  1  0  0  0  0
 16 33  1  0  0  0  0
 17 34  1  0  0  0  0
 17 35  1  0  0  0  0
M  END
> <s_m_source_file>
AV-unprocessed.smi

> <i_m_source_file_index>
2248

> <i_lp_mmshare_version>
43012

> <i_f3d_flags>
0

> <s_epik_input>
W0NIM11jMVtjSF1bY0hdW2NIXWMobjEpW05IXUMoPU8pW05IXVtDQEBIXTJbQ0hdPVtDSF1bQ0BASF0oW0NIMl0yKVtDSDJdW09IXQ==

> <s_epik_cmdline>
J2VwaWtfcHl0aG9uJywgJy1waCcsICc3LjAnLCAnLXRuJywgJzgnLCAnLW1hJywgJzIwMCcsICctbWV0YWxfYmluZGluZycsICctaW1hZScsICc8aW5maWxlLm1hZT4nLCAnLW9tYWUnLCAnPG91dGZpbGUubWFlPic=

> <r_lp_tautomer_probability>
1

> <r_epik_Ionization_Penalty>
8.36606e-05

> <r_epik_Ionization_Penalty_Charging>
0

> <r_epik_Ionization_Penalty_Neutral>
8.36606e-05

> <r_epik_State_Penalty>
-0

> <r_epik_Charging_Adjusted_Penalty>
0

> <i_epik_Tot_Q>
0

> <i_epik_Tot_abs_Q>
0

> <r_epik_Metal_State_Penalty>
-0

> <b_epik_Metal_Only>
0

> <s_lp_Force_Field>
OPLS_2005

> <r_lp_Energy>
18.8307

> <b_lp_Chiralities_Consistent>
1

> <s_lp_Variant>
AV-unprocessed.smi:2248-4

> <Gold.Version>
5.8.1

> <Gold.Id.Protein>
6NUR|6NUR_protein|mol2

> <Gold.PLP.Fitness>
44.3488

> <Gold.PLP.PLP>
-36.4955

> <Gold.PLP.part.hbond>
-3.0000

> <Gold.PLP.part.metal>
0.0000

> <Gold.PLP.part.buried>
-4.1748

> <Gold.PLP.part.nonpolar>
-29.3277

> <Gold.PLP.part.repulsive>
0.1943

> <Gold.PLP.ligand.clash>
0.0000

> <Gold.PLP.ligand.torsion>
0.4950

> <Gold.PLP.Chemscore.Hbond>
2.9440

> <Gold.PLP.Chemscore.CHOScore>
0.0000

> <Gold.PLP.Chemscore.Metal>
0.0000

> <Gold.Chemscore.Hbonds>
donor molecule, donor type, donor heavy atom, donor atom, acceptor molecule, acceptor atom, score
      L1  H     7    27       P1  8028  0.94
      L1  H    10    28       P1  8028  1.00
      L1  H    16    33       P1 10175  1.00

> <Gold.PLP.Chemscore.Internal.Correction>
0.0114

> <Gold.Rescore>
     Score         DG    S(hbond)    S(metal)    S(lipo)     H(rot)  DE(clash)    DE(int)     intcor
     17.53     -20.69       2.80        0.00      89.78       1.82       0.06       3.10       ----

> <Gold.Chemscore.Fitness>
17.5276

> <Gold.Chemscore.DG>
-20.6873

> <Gold.Chemscore.ZeroCoef>
-5.4800

> <Gold.Chemscore.Hbond>
2.8017

> <Gold.Chemscore.Metal>
0.0000

> <Gold.Chemscore.Lipo>
89.7846

> <Gold.Chemscore.Internal_Hbond>
0.0000

> <Gold.Chemscore.DEClash>
0.0599

> <Gold.Chemscore.DEInternal>
3.0999

> <Gold.Chemscore.Rot>
1.8184

> <Gold.Chemscore.Internal.Correction>
   9.000000E+99

> <Gold.Chemscore.Hbonds>
donor molecule, donor type, donor heavy atom, donor atom, acceptor molecule, acceptor atom, score
      L1  H     7    27       P1  8028  0.73
      L1  H    10    28       P1  8028  0.98
      L1  H    16    33       P1 10175  0.96

> <Gold.Chemscore.Hbond.Weighted>
-9.3576

> <Gold.Chemscore.Metal.Weighted>
-0.0000

> <Gold.Chemscore.Lipo.Weighted>
-10.5048

> <Gold.Chemscore.Internal_Hbond.Weighted>
0.0000

> <Gold.Chemscore.DEClash.Weighted>
0.0599

> <Gold.Chemscore.DEInternal.Weighted>
3.0999

> <Gold.Chemscore.Rot.Weighted>
4.6551

> <Gold.Chemscore.Internal.Correction.Weighted>
   9.000000E+99

> <Gold.Protein.RotatedTorsions>
[ 6907 6896 6895 6894 ] final -174.27 input  -60.11 | X-H torsion
[ 7974 7965 7964 7962 ] final  155.66 input  175.53 | X-H torsion
[ 8008 7997 7996 7995 ] final  156.82 input   59.86 | X-H torsion
[ 10167 10162 10161 10158 ] final  -70.70 input  -65.29 | X-H torsion
[ 10718 10713 10712 10709 ] final  100.57 input   66.30 | X-H torsion
[ 10763 10752 10751 10750 ] final  -53.46 input  -60.55 | X-H torsion
[ 11005 11000 10999 10996 ] final  173.51 input  -57.11 | X-H torsion

> <Gold.Protein.ActiveResidues>
 VAL166  LYS551  ARG553  GLY616  TRP617  ASP618  TYR619  PRO620  LYS621  CYS622 
 ASP623  PHE694  ASN695  SER759  ASP760  ASP761  ALA762  ILE779  LEU786  VAL792 
 PHE793  MET794  SER795  GLU796  ALA797  LYS798  CYS799  TRP800  GLU811  SER814 

> <Gold.Protein.RotatedAtoms>
  151.5696  133.3392  159.2986 H   0  0  0  0  0  0  0  0  0  0  0  0  # atno 6907 bound_to 6896
  150.8375  134.7657  159.6916 H   0  0  0  0  0  0  0  0  0  0  0  0  # atno 6908 bound_to 6896
  152.4449  134.5522  159.9921 H   0  0  0  0  0  0  0  0  0  0  0  0  # atno 6909 bound_to 6896
  144.8011  139.7098  143.6181 H   0  0  0  0  0  0  0  0  0  0  0  0  # atno 7974 bound_to 7965
  156.2400  140.1902  156.7014 H   0  0  0  0  0  0  0  0  0  0  0  0  # atno 8008 bound_to 7997
  154.6179  140.0612  156.9605 H   0  0  0  0  0  0  0  0  0  0  0  0  # atno 8009 bound_to 7997
  155.1909  140.3284  155.4361 H   0  0  0  0  0  0  0  0  0  0  0  0  # atno 8010 bound_to 7997
  140.5331  143.2320  151.7226 H   0  0  0  0  0  0  0  0  0  0  0  0  # atno 10167 bound_to 10162
  157.6851  131.0702  150.5120 H   0  0  0  0  0  0  0  0  0  0  0  0  # atno 10718 bound_to 10713
  154.1591  135.6477  153.4981 H   0  0  0  0  0  0  0  0  0  0  0  0  # atno 10763 bound_to 10752
  153.0115  135.5356  154.6729 H   0  0  0  0  0  0  0  0  0  0  0  0  # atno 10764 bound_to 10752
  154.6038  135.2946  155.0479 H   0  0  0  0  0  0  0  0  0  0  0  0  # atno 10765 bound_to 10752
  140.3413  134.7274  157.4204 H   0  0  0  0  0  0  0  0  0  0  0  0  # atno 11005 bound_to 11000
  146.2292  139.5781  142.9566 LP  0  0  0  0  0  0  0  0  0  0  0  0  # atno 17320 bound_to 7965
  145.5551  141.0410  143.2257 LP  0  0  0  0  0  0  0  0  0  0  0  0  # atno 17321 bound_to 7965
  139.4961  144.4084  152.0107 LP  0  0  0  0  0  0  0  0  0  0  0  0  # atno 17342 bound_to 10162
  140.3187  144.3453  150.6015 LP  0  0  0  0  0  0  0  0  0  0  0  0  # atno 17343 bound_to 10162
  156.5437  130.4214  149.6141 LP  0  0  0  0  0  0  0  0  0  0  0  0  # atno 17370 bound_to 10713
  156.2963  130.7152  151.2013 LP  0  0  0  0  0  0  0  0  0  0  0  0  # atno 17371 bound_to 10713
  140.0779  134.5772  155.8572 LP  0  0  0  0  0  0  0  0  0  0  0  0  # atno 17394 bound_to 11000
  141.2038  133.6634  156.6081 LP  0  0  0  0  0  0  0  0  0  0  0  0  # atno 17395 bound_to 11000

$$$$
