AV-unprocessed.smi:1|AV-procd|sdf|16|dock10
  -GOLD-   2262015113D 1   1.00000     0.00000
 Structure written by MMmdl.
 57 62  0  0  0  0  0  0  0  0  1 V2000
  149.4949  129.0225  155.4724 O   0  0  0  0  0  0  0  0  0  0  0  0
  148.9648  129.8687  154.7471 C   0  0  0  0  0  0  0  0  0  0  0  0
  149.0516  131.2530  154.8180 N   0  0  0  0  0  0  0  0  0  0  0  0
  149.9465  131.8122  155.5751 C   0  0  0  0  0  0  0  0  0  0  0  0
  150.9458  131.2882  156.4057 N   0  0  0  0  0  0  0  0  0  0  0  0
  151.8659  132.0345  157.1587 C   0  0  0  0  0  0  0  0  0  0  0  0
  151.9174  133.3395  157.1955 N   0  0  0  0  0  0  0  0  0  0  0  0
  150.9367  133.9089  156.3956 C   0  0  0  0  0  0  0  0  0  0  0  0
  149.9847  133.2899  155.6154 C   0  0  0  0  0  0  0  0  0  0  0  0
  149.1850  134.2294  154.9741 N   0  0  0  0  0  0  0  0  0  0  0  0
  149.6920  135.3832  155.4008 C   0  0  0  0  0  0  0  0  0  0  0  0
  150.7318  135.2776  156.2522 N   0  0  0  0  0  0  0  0  0  0  0  0
  151.5162  136.3776  156.9045 C   0  0  1  0  0  0  0  0  0  0  0  0
  151.4199  137.5259  156.1140 O   0  0  0  0  0  0  0  0  0  0  0  0
  150.4687  138.4153  156.6826 C   0  0  2  0  0  0  0  0  0  0  0  0
  150.6575  139.8441  156.1554 C   0  0  0  0  0  0  0  0  0  0  0  0
  150.6373  140.7734  157.2275 O   0  0  0  0  0  0  0  0  0  0  0  0
  151.7572  141.0142  157.9351 C   0  0  0  0  0  0  0  0  0  0  0  0
  152.7225  140.2483  157.9668 O   0  0  0  0  0  0  0  0  0  0  0  0
  151.7080  142.3088  158.6737 C   0  0  0  0  0  0  0  0  0  0  0  0
  150.6946  143.2456  158.3638 C   0  0  0  0  0  0  0  0  0  0  0  0
  150.6205  144.4750  159.0470 C   0  0  0  0  0  0  0  0  0  0  0  0
  151.5602  144.7834  160.0478 C   0  0  0  0  0  0  0  0  0  0  0  0
  152.5741  143.8607  160.3646 C   0  0  0  0  0  0  0  0  0  0  0  0
  152.6493  142.6302  159.6831 C   0  0  0  0  0  0  0  0  0  0  0  0
  150.6587  138.2341  158.1898 C   0  0  1  0  0  0  0  0  0  0  0  0
  149.4803  138.5356  158.9160 O   0  0  0  0  0  0  0  0  0  0  0  0
  148.6129  137.1274  159.1501 S   0  0  0  0  0  0  0  0  0  0  0  0
  148.4632  136.9138  160.5976 O   0  0  0  0  0  0  0  0  0  0  0  0
  147.4681  137.1312  158.2268 O   0  0  0  0  0  0  0  0  0  0  0  0
  149.7404  136.0405  158.5737 O   0  0  0  0  0  0  0  0  0  0  0  0
  150.9514  136.7302  158.2992 C   0  0  1  0  0  0  0  0  0  0  0  0
  148.1475  129.3874  153.5925 C   0  0  0  0  0  0  0  0  0  0  0  0
  146.9803  130.0844  153.2137 C   0  0  0  0  0  0  0  0  0  0  0  0
  146.2051  129.6276  152.1298 C   0  0  0  0  0  0  0  0  0  0  0  0
  146.5928  128.4727  151.4231 C   0  0  0  0  0  0  0  0  0  0  0  0
  147.7552  127.7728  151.8012 C   0  0  0  0  0  0  0  0  0  0  0  0
  148.5318  128.2286  152.8846 C   0  0  0  0  0  0  0  0  0  0  0  0
  152.5648  131.4256  157.7340 H   0  0  0  0  0  0  0  0  0  0  0  0
  149.2896  136.3326  155.0803 H   0  0  0  0  0  0  0  0  0  0  0  0
  152.5426  136.0096  156.9221 H   0  0  0  0  0  0  0  0  0  0  0  0
  149.4767  138.0636  156.3964 H   0  0  0  0  0  0  0  0  0  0  0  0
  151.6024  139.9230  155.6163 H   0  0  0  0  0  0  0  0  0  0  0  0
  149.8586  140.0817  155.4515 H   0  0  0  0  0  0  0  0  0  0  0  0
  149.9618  143.0309  157.5993 H   0  0  0  0  0  0  0  0  0  0  0  0
  149.8413  145.1819  158.8025 H   0  0  0  0  0  0  0  0  0  0  0  0
  151.5035  145.7261  160.5717 H   0  0  0  0  0  0  0  0  0  0  0  0
  153.2962  144.0962  161.1324 H   0  0  0  0  0  0  0  0  0  0  0  0
  153.4403  141.9452  159.9511 H   0  0  0  0  0  0  0  0  0  0  0  0
  151.5063  138.8092  158.5635 H   0  0  0  0  0  0  0  0  0  0  0  0
  151.6862  136.5088  159.0737 H   0  0  0  0  0  0  0  0  0  0  0  0
  146.6750  130.9697  153.7525 H   0  0  0  0  0  0  0  0  0  0  0  0
  145.3120  130.1625  151.8415 H   0  0  0  0  0  0  0  0  0  0  0  0
  145.9974  128.1228  150.5927 H   0  0  0  0  0  0  0  0  0  0  0  0
  148.0511  126.8857  151.2609 H   0  0  0  0  0  0  0  0  0  0  0  0
  149.4212  127.6851  153.1697 H   0  0  0  0  0  0  0  0  0  0  0  0
  151.0130  130.2821  156.4622 H   0  0  0  0  0  0  0  0  0  0  0  0
  1  2  2  0  0  0  0
  2  3  1  0  0  0  0
  2 33  1  0  0  0  0
  3  4  2  0  0  0  0
  4  9  1  0  0  0  0
  4  5  1  0  0  0  0
  5  6  1  0  0  0  0
  5 57  1  0  0  0  0
  6  7  2  0  0  0  0
  6 39  1  0  0  0  0
  7  8  1  0  0  0  0
  8 12  1  0  0  0  0
  8  9  2  0  0  0  0
  9 10  1  0  0  0  0
 10 11  2  0  0  0  0
 11 12  1  0  0  0  0
 11 40  1  0  0  0  0
 12 13  1  0  0  0  0
 13 32  1  0  0  0  0
 13 14  1  0  0  0  0
 13 41  1  0  0  0  0
 14 15  1  0  0  0  0
 15 16  1  0  0  0  0
 15 26  1  0  0  0  0
 15 42  1  0  0  0  0
 16 17  1  0  0  0  0
 16 43  1  0  0  0  0
 16 44  1  0  0  0  0
 17 18  1  0  0  0  0
 18 19  2  0  0  0  0
 18 20  1  0  0  0  0
 20 25  1  0  0  0  0
 20 21  2  0  0  0  0
 21 22  1  0  0  0  0
 21 45  1  0  0  0  0
 22 23  2  0  0  0  0
 22 46  1  0  0  0  0
 23 24  1  0  0  0  0
 23 47  1  0  0  0  0
 24 25  2  0  0  0  0
 24 48  1  0  0  0  0
 25 49  1  0  0  0  0
 26 32  1  0  0  0  0
 26 27  1  0  0  0  0
 26 50  1  0  0  0  0
 27 28  1  0  0  0  0
 28 29  2  0  0  0  0
 28 30  2  0  0  0  0
 28 31  1  0  0  0  0
 31 32  1  0  0  0  0
 32 51  1  0  0  0  0
 33 38  1  0  0  0  0
 33 34  2  0  0  0  0
 34 35  1  0  0  0  0
 34 52  1  0  0  0  0
 35 36  2  0  0  0  0
 35 53  1  0  0  0  0
 36 37  1  0  0  0  0
 36 54  1  0  0  0  0
 37 38  2  0  0  0  0
 37 55  1  0  0  0  0
 38 56  1  0  0  0  0
M  END
> <s_m_source_file>
AV-unprocessed.smi

> <i_m_source_file_index>
1

> <i_lp_mmshare_version>
43012

> <i_f3d_flags>
0

> <s_epik_input>
W2NIXTFbY0hdW2NIXVtjSF1bY0hdYzFDKD1PKVtOSF1jKG5bY0hdbjIpYyhjMjMpbltjSF1uM1tDQEBIXShbQ0BIXShbQ0BIXTQ1KU9TKE81KSg9Tyk9TylPW0NASF00W0NIMl1PQyg9TyljNltjSF1bY0hdW2NIXVtjSF1bY0hdNg==

> <s_epik_cmdline>
J2VwaWtfcHl0aG9uJywgJy1waCcsICc3LjAnLCAnLXRuJywgJzgnLCAnLW1hJywgJzIwMCcsICctbWV0YWxfYmluZGluZycsICctaW1hZScsICc8aW5maWxlLm1hZT4nLCAnLW9tYWUnLCAnPG91dGZpbGUubWFlPic=

> <r_epik_Ionization_Penalty>
0.122545

> <r_epik_Ionization_Penalty_Charging>
0.122545

> <r_epik_Ionization_Penalty_Neutral>
7.8935e-16

> <r_epik_State_Penalty>
2.69178

> <r_epik_Charging_Adjusted_Penalty>
2.81433

> <i_epik_Tot_Q>
0

> <i_epik_Tot_abs_Q>
0

> <r_epik_Metal_State_Penalty>
3.02665

> <b_epik_Metal_Only>
0

> <s_epik_Chemistry_Notes>
This compound has an ester and may undergo hydrolysis at high or low pH. This compound contains an acetal/aminal-like group ( X-CH(R)-Y where X, Y are N, S, or O) that may be acid/base labile, releasing an aldehyde.

> <s_lp_Force_Field>
OPLS_2005

> <r_lp_Energy>
59.1261

> <b_lp_Chiralities_Consistent>
1

> <s_lp_Variant>
AV-unprocessed.smi:1-16

> <Gold.Version>
5.8.1

> <Gold.Id.Protein>
6NUR|6NUR_protein|mol2

> <Gold.PLP.Fitness>
60.1768

> <Gold.PLP.PLP>
-58.5099

> <Gold.PLP.part.hbond>
-4.6090

> <Gold.PLP.part.metal>
0.0000

> <Gold.PLP.part.buried>
-8.4533

> <Gold.PLP.part.nonpolar>
-46.7871

> <Gold.PLP.part.repulsive>
0.2125

> <Gold.PLP.ligand.clash>
0.0000

> <Gold.PLP.ligand.torsion>
2.4436

> <Gold.PLP.Chemscore.Hbond>
2.0515

> <Gold.PLP.Chemscore.CHOScore>
0.0000

> <Gold.PLP.Chemscore.Metal>
0.0000

> <Gold.Chemscore.Hbonds>
donor molecule, donor type, donor heavy atom, donor atom, acceptor molecule, acceptor atom, score
      P1  H  6896  6908       L1     7  0.31
      P1  H  6931  6943       L1    29  0.88
      P1  H  7997  8010       L1    19  0.84

> <Gold.PLP.Chemscore.Internal.Correction>
0.3996

> <Gold.Rescore>
     Score         DG    S(hbond)    S(metal)    S(lipo)     H(rot)  DE(clash)    DE(int)     intcor
     17.60     -21.54       1.77        0.00     133.47       2.13       0.69       3.24       ----

> <Gold.Chemscore.Fitness>
17.6022

> <Gold.Chemscore.DG>
-21.5357

> <Gold.Chemscore.ZeroCoef>
-5.4800

> <Gold.Chemscore.Hbond>
1.7668

> <Gold.Chemscore.Metal>
0.0000

> <Gold.Chemscore.Lipo>
133.4705

> <Gold.Chemscore.Internal_Hbond>
0.0000

> <Gold.Chemscore.DEClash>
0.6916

> <Gold.Chemscore.DEInternal>
3.2419

> <Gold.Chemscore.Rot>
2.1333

> <Gold.Chemscore.Internal.Correction>
   9.000000E+99

> <Gold.Chemscore.Hbonds>
donor molecule, donor type, donor heavy atom, donor atom, acceptor molecule, acceptor atom, score
      P1  H  6896  6908       L1     7  0.02
      P1  H  6931  6943       L1    29  0.84
      P1  H  7997  8010       L1    19  0.79

> <Gold.Chemscore.Hbond.Weighted>
-5.9010

> <Gold.Chemscore.Metal.Weighted>
-0.0000

> <Gold.Chemscore.Lipo.Weighted>
-15.6161

> <Gold.Chemscore.Internal_Hbond.Weighted>
0.0000

> <Gold.Chemscore.DEClash.Weighted>
0.6916

> <Gold.Chemscore.DEInternal.Weighted>
3.2419

> <Gold.Chemscore.Rot.Weighted>
5.4614

> <Gold.Chemscore.Internal.Correction.Weighted>
   9.000000E+99

> <Gold.Protein.RotatedTorsions>
[ 6907 6896 6895 6894 ] final   69.22 input  -60.11 | X-H torsion
[ 7974 7965 7964 7962 ] final -129.23 input  175.53 | X-H torsion
[ 8008 7997 7996 7995 ] final   40.55 input   59.86 | X-H torsion
[ 10167 10162 10161 10158 ] final  -89.04 input  -65.29 | X-H torsion
[ 10718 10713 10712 10709 ] final  -17.92 input   66.30 | X-H torsion
[ 10763 10752 10751 10750 ] final  -91.66 input  -60.55 | X-H torsion
[ 11005 11000 10999 10996 ] final  -55.68 input  -57.11 | X-H torsion

> <Gold.Protein.ActiveResidues>
 VAL166  LYS551  ARG553  GLY616  TRP617  ASP618  TYR619  PRO620  LYS621  CYS622 
 ASP623  PHE694  ASN695  SER759  ASP760  ASP761  ALA762  ILE779  LEU786  VAL792 
 PHE793  MET794  SER795  GLU796  ALA797  LYS798  CYS799  TRP800  GLU811  SER814 

> <Gold.Protein.RotatedAtoms>
  152.4672  134.5047  159.9735 H   0  0  0  0  0  0  0  0  0  0  0  0  # atno 6907 bound_to 6896
  151.5082  133.3484  159.2888 H   0  0  0  0  0  0  0  0  0  0  0  0  # atno 6908 bound_to 6896
  150.8663  134.8055  159.7183 H   0  0  0  0  0  0  0  0  0  0  0  0  # atno 6909 bound_to 6896
  144.9593  140.7429  143.4739 H   0  0  0  0  0  0  0  0  0  0  0  0  # atno 7974 bound_to 7965
  155.2549  140.3355  155.4278 H   0  0  0  0  0  0  0  0  0  0  0  0  # atno 8008 bound_to 7997
  156.2200  140.1805  156.7543 H   0  0  0  0  0  0  0  0  0  0  0  0  # atno 8009 bound_to 7997
  154.5810  140.0653  156.9089 H   0  0  0  0  0  0  0  0  0  0  0  0  # atno 8010 bound_to 7997
  140.3687  143.2805  151.9526 H   0  0  0  0  0  0  0  0  0  0  0  0  # atno 10167 bound_to 10162
  156.5668  130.4739  149.6381 H   0  0  0  0  0  0  0  0  0  0  0  0  # atno 10718 bound_to 10713
  154.6783  135.5259  153.8229 H   0  0  0  0  0  0  0  0  0  0  0  0  # atno 10763 bound_to 10752
  153.0547  135.6546  154.0615 H   0  0  0  0  0  0  0  0  0  0  0  0  # atno 10764 bound_to 10752
  154.0506  135.2969  155.3321 H   0  0  0  0  0  0  0  0  0  0  0  0  # atno 10765 bound_to 10752
  141.1085  133.6612  156.4505 H   0  0  0  0  0  0  0  0  0  0  0  0  # atno 11005 bound_to 11000
  145.2725  139.1949  143.4834 LP  0  0  0  0  0  0  0  0  0  0  0  0  # atno 17320 bound_to 7965
  146.3347  140.2673  142.8604 LP  0  0  0  0  0  0  0  0  0  0  0  0  # atno 17321 bound_to 7965
  139.4806  144.5927  151.7744 LP  0  0  0  0  0  0  0  0  0  0  0  0  # atno 17342 bound_to 10162
  140.5055  144.1105  150.5981 LP  0  0  0  0  0  0  0  0  0  0  0  0  # atno 17343 bound_to 10162
  156.2750  130.7038  151.1846 LP  0  0  0  0  0  0  0  0  0  0  0  0  # atno 17370 bound_to 10713
  157.7357  131.0570  150.5457 LP  0  0  0  0  0  0  0  0  0  0  0  0  # atno 17371 bound_to 10713
  140.4839  134.6639  157.5182 LP  0  0  0  0  0  0  0  0  0  0  0  0  # atno 17394 bound_to 11000
  139.9966  134.6901  155.9599 LP  0  0  0  0  0  0  0  0  0  0  0  0  # atno 17395 bound_to 11000

$$$$
