AV-unprocessed.smi:2448|AV-procd|sdf|9654|dock7
  -GOLD-   2272013283D 1   1.00000     0.00000
 Structure written by MMmdl.
 37 38  0  0  0  0  0  0  0  0  1 V2000
  146.3465  140.2831  151.8078 O   0  0  0  0  0  0  0  0  0  0  0  0
  146.5999  139.5323  152.9824 C   0  0  2  0  0  0  0  0  0  0  0  0
  146.0020  138.1231  152.7977 C   0  0  0  0  0  0  0  0  0  0  0  0
  144.6048  138.0556  153.2358 N   0  0  0  0  0  0  0  0  0  0  0  0
  143.9133  136.7837  152.9805 C   0  0  1  0  0  0  0  0  0  0  0  0
  144.8203  135.5548  153.2484 C   0  0  0  0  0  0  0  0  0  0  0  0
  144.8100  134.4941  152.1623 C   0  0  0  0  0  0  0  0  0  0  0  0
  146.0072  134.0973  151.5317 C   0  0  0  0  0  0  0  0  0  0  0  0
  145.9445  133.1017  150.5360 C   0  0  0  0  0  0  0  0  0  0  0  0
  144.7940  132.5075  150.1529 N   0  0  0  0  0  0  0  0  0  0  0  0
  143.6504  132.8970  150.7561 C   0  0  0  0  0  0  0  0  0  0  0  0
  143.6027  133.8841  151.7607 C   0  0  0  0  0  0  0  0  0  0  0  0
  142.6315  136.7148  153.8374 C   0  0  0  0  0  0  0  0  0  0  0  0
  142.9520  136.7189  155.1318 F   0  0  0  0  0  0  0  0  0  0  0  0
  141.8584  137.7746  153.5999 F   0  0  0  0  0  0  0  0  0  0  0  0
  141.9405  135.6059  153.5692 F   0  0  0  0  0  0  0  0  0  0  0  0
  146.0547  140.2816  154.2116 C   0  0  0  0  0  0  0  0  0  0  0  0
  146.9723  141.4788  154.4781 C   0  0  0  0  0  0  0  0  0  0  0  0
  148.6533  140.9975  154.0109 S   0  0  0  0  0  0  0  0  0  0  0  0
  148.1245  139.4744  153.1817 C   0  0  0  0  0  0  0  0  0  0  0  0
  147.1404  140.7338  151.5638 H   0  0  0  0  0  0  0  0  0  0  0  0
  146.0799  137.8241  151.7516 H   0  0  0  0  0  0  0  0  0  0  0  0
  146.6128  137.4208  153.3579 H   0  0  0  0  0  0  0  0  0  0  0  0
  144.0850  138.8086  152.7963 H   0  0  0  0  0  0  0  0  0  0  0  0
  143.5858  136.7574  151.9401 H   0  0  0  0  0  0  0  0  0  0  0  0
  145.8450  135.8827  153.4288 H   0  0  0  0  0  0  0  0  0  0  0  0
  144.5046  135.0601  154.1670 H   0  0  0  0  0  0  0  0  0  0  0  0
  146.9535  134.5412  151.8046 H   0  0  0  0  0  0  0  0  0  0  0  0
  146.8430  132.7736  150.0349 H   0  0  0  0  0  0  0  0  0  0  0  0
  142.7453  132.4065  150.4298 H   0  0  0  0  0  0  0  0  0  0  0  0
  142.6618  134.1558  152.2162 H   0  0  0  0  0  0  0  0  0  0  0  0
  145.0179  140.5951  154.0841 H   0  0  0  0  0  0  0  0  0  0  0  0
  146.0807  139.6173  155.0767 H   0  0  0  0  0  0  0  0  0  0  0  0
  146.6763  142.3231  153.8549 H   0  0  0  0  0  0  0  0  0  0  0  0
  146.9319  141.8038  155.5178 H   0  0  0  0  0  0  0  0  0  0  0  0
  148.3843  138.6469  153.8432 H   0  0  0  0  0  0  0  0  0  0  0  0
  148.6686  139.3235  152.2485 H   0  0  0  0  0  0  0  0  0  0  0  0
  1  2  1  0  0  0  0
  1 21  1  0  0  0  0
  2 20  1  0  0  0  0
  2  3  1  0  0  0  0
  2 17  1  0  0  0  0
  3  4  1  0  0  0  0
  3 22  1  0  0  0  0
  3 23  1  0  0  0  0
  4  5  1  0  0  0  0
  4 24  1  0  0  0  0
  5  6  1  0  0  0  0
  5 13  1  0  0  0  0
  5 25  1  0  0  0  0
  6  7  1  0  0  0  0
  6 26  1  0  0  0  0
  6 27  1  0  0  0  0
  7 12  1  0  0  0  0
  7  8  2  0  0  0  0
  8  9  1  0  0  0  0
  8 28  1  0  0  0  0
  9 10  2  0  0  0  0
  9 29  1  0  0  0  0
 10 11  1  0  0  0  0
 11 12  2  0  0  0  0
 11 30  1  0  0  0  0
 12 31  1  0  0  0  0
 13 14  1  0  0  0  0
 13 15  1  0  0  0  0
 13 16  1  0  0  0  0
 17 18  1  0  0  0  0
 17 32  1  0  0  0  0
 17 33  1  0  0  0  0
 18 19  1  0  0  0  0
 18 34  1  0  0  0  0
 18 35  1  0  0  0  0
 19 20  1  0  0  0  0
 20 36  1  0  0  0  0
 20 37  1  0  0  0  0
M  END
> <s_m_source_file>
AV-unprocessed.smi

> <i_m_source_file_index>
2448

> <i_lp_mmshare_version>
43012

> <i_f3d_flags>
0

> <s_epik_input>
W0NIMl0xU1tDSDJdW0NIMl1bQ0BAXTEoW09IXSlbQ0gyXVtOSF1bQ0BASF0oQyhGKShGKUYpW0NIMl1jMltjSF1bY0hdbltjSF1bY0hdMg==

> <s_epik_cmdline>
J2VwaWtfcHl0aG9uJywgJy1waCcsICc3LjAnLCAnLXRuJywgJzgnLCAnLW1hJywgJzIwMCcsICctbWV0YWxfYmluZGluZycsICctaW1hZScsICc8aW5maWxlLm1hZT4nLCAnLW9tYWUnLCAnPG91dGZpbGUubWFlPic=

> <r_epik_Ionization_Penalty>
0.187708

> <r_epik_Ionization_Penalty_Charging>
0

> <r_epik_Ionization_Penalty_Neutral>
0.187708

> <r_epik_State_Penalty>
0.22769

> <r_epik_Charging_Adjusted_Penalty>
0.22769

> <i_epik_Tot_Q>
0

> <i_epik_Tot_abs_Q>
0

> <r_epik_Metal_State_Penalty>
0.176206

> <b_epik_Metal_Only>
0

> <s_lp_Force_Field>
OPLS_2005

> <r_lp_Energy>
32.1686

> <b_lp_Chiralities_Consistent>
1

> <s_lp_Variant>
AV-unprocessed.smi:2448-4

> <Gold.Version>
5.8.1

> <Gold.Id.Protein>
6NUR|6NUR_protein|mol2

> <Gold.PLP.Fitness>
41.5029

> <Gold.PLP.PLP>
-33.2468

> <Gold.PLP.part.hbond>
-2.4051

> <Gold.PLP.part.metal>
0.0000

> <Gold.PLP.part.buried>
-4.3943

> <Gold.PLP.part.nonpolar>
-26.6544

> <Gold.PLP.part.repulsive>
0.1380

> <Gold.PLP.ligand.clash>
0.0101

> <Gold.PLP.ligand.torsion>
1.3199

> <Gold.PLP.Chemscore.Hbond>
2.0000

> <Gold.PLP.Chemscore.CHOScore>
1.4476

> <Gold.PLP.Chemscore.Metal>
0.0000

> <Gold.Chemscore.Hbonds>
donor molecule, donor type, donor heavy atom, donor atom, acceptor molecule, acceptor atom, score
      L1  H     4    24       P1 10175  1.00
      L1  C     9    29       P1 10747  0.17
      L1  C    11    30       P1 10186  0.18

> <Gold.PLP.Chemscore.Internal.Correction>
0.5633

> <Gold.Rescore>
     Score         DG    S(hbond)    S(metal)    S(lipo)     H(rot)  DE(clash)    DE(int)     intcor
     13.21     -14.99       1.97        0.00      75.51       2.31       0.21       1.57       ----

> <Gold.Chemscore.Fitness>
13.2099

> <Gold.Chemscore.DG>
-14.9906

> <Gold.Chemscore.ZeroCoef>
-5.4800

> <Gold.Chemscore.Hbond>
1.9739

> <Gold.Chemscore.Metal>
0.0000

> <Gold.Chemscore.Lipo>
75.5064

> <Gold.Chemscore.Internal_Hbond>
0.0000

> <Gold.Chemscore.DEClash>
0.2073

> <Gold.Chemscore.DEInternal>
1.5734

> <Gold.Chemscore.Rot>
2.3111

> <Gold.Chemscore.Internal.Correction>
   9.000000E+99

> <Gold.Chemscore.Hbonds>
donor molecule, donor type, donor heavy atom, donor atom, acceptor molecule, acceptor atom, score
      L1  H     4    24       P1 10175  0.99

> <Gold.Chemscore.Hbond.Weighted>
-6.5927

> <Gold.Chemscore.Metal.Weighted>
-0.0000

> <Gold.Chemscore.Lipo.Weighted>
-8.8342

> <Gold.Chemscore.Internal_Hbond.Weighted>
0.0000

> <Gold.Chemscore.DEClash.Weighted>
0.2073

> <Gold.Chemscore.DEInternal.Weighted>
1.5734

> <Gold.Chemscore.Rot.Weighted>
5.9164

> <Gold.Chemscore.Internal.Correction.Weighted>
   9.000000E+99

> <Gold.Protein.RotatedTorsions>
[ 6907 6896 6895 6894 ] final   42.33 input  -60.11 | X-H torsion
[ 7974 7965 7964 7962 ] final  -77.46 input  175.53 | X-H torsion
[ 8008 7997 7996 7995 ] final  108.49 input   59.86 | X-H torsion
[ 10167 10162 10161 10158 ] final  100.32 input  -65.29 | X-H torsion
[ 10718 10713 10712 10709 ] final -165.93 input   66.30 | X-H torsion
[ 10763 10752 10751 10750 ] final -129.41 input  -60.55 | X-H torsion
[ 11005 11000 10999 10996 ] final   86.07 input  -57.11 | X-H torsion

> <Gold.Protein.ActiveResidues>
 VAL166  LYS551  ARG553  GLY616  TRP617  ASP618  TYR619  PRO620  LYS621  CYS622 
 ASP623  PHE694  ASN695  SER759  ASP760  ASP761  ALA762  ILE779  LEU786  VAL792 
 PHE793  MET794  SER795  GLU796  ALA797  LYS798  CYS799  TRP800  GLU811  SER814 

> <Gold.Protein.RotatedAtoms>
  152.2065  134.8540  160.0501 H   0  0  0  0  0  0  0  0  0  0  0  0  # atno 6907 bound_to 6896
  151.9375  133.3623  159.3961 H   0  0  0  0  0  0  0  0  0  0  0  0  # atno 6908 bound_to 6896
  150.6966  134.4398  159.5331 H   0  0  0  0  0  0  0  0  0  0  0  0  # atno 6909 bound_to 6896
  145.5993  140.9412  143.1249 H   0  0  0  0  0  0  0  0  0  0  0  0  # atno 7974 bound_to 7965
  156.1907  140.3075  155.9327 H   0  0  0  0  0  0  0  0  0  0  0  0  # atno 8008 bound_to 7997
  155.3180  140.0454  157.3055 H   0  0  0  0  0  0  0  0  0  0  0  0  # atno 8009 bound_to 7997
  154.5449  140.2273  155.8589 H   0  0  0  0  0  0  0  0  0  0  0  0  # atno 8010 bound_to 7997
  139.7538  144.6976  151.0393 H   0  0  0  0  0  0  0  0  0  0  0  0  # atno 10167 bound_to 10162
  156.6605  130.9044  151.3028 H   0  0  0  0  0  0  0  0  0  0  0  0  # atno 10718 bound_to 10713
  154.8757  135.3896  154.3915 H   0  0  0  0  0  0  0  0  0  0  0  0  # atno 10763 bound_to 10752
  153.4650  135.7029  153.6033 H   0  0  0  0  0  0  0  0  0  0  0  0  # atno 10764 bound_to 10752
  153.4515  135.3833  155.2254 H   0  0  0  0  0  0  0  0  0  0  0  0  # atno 10765 bound_to 10752
  139.8954  134.8330  156.2669 H   0  0  0  0  0  0  0  0  0  0  0  0  # atno 11005 bound_to 11000
  144.7317  139.7707  143.7345 LP  0  0  0  0  0  0  0  0  0  0  0  0  # atno 17320 bound_to 7965
  146.1588  139.4695  143.0001 LP  0  0  0  0  0  0  0  0  0  0  0  0  # atno 17321 bound_to 7965
  140.7800  143.4777  151.0059 LP  0  0  0  0  0  0  0  0  0  0  0  0  # atno 17342 bound_to 10162
  139.8465  143.7495  152.3179 LP  0  0  0  0  0  0  0  0  0  0  0  0  # atno 17343 bound_to 10162
  157.7111  130.9441  150.1093 LP  0  0  0  0  0  0  0  0  0  0  0  0  # atno 17370 bound_to 10713
  156.2014  130.3660  149.8783 LP  0  0  0  0  0  0  0  0  0  0  0  0  # atno 17371 bound_to 10713
  141.0126  133.7087  156.1136 LP  0  0  0  0  0  0  0  0  0  0  0  0  # atno 17394 bound_to 11000
  140.7346  134.4217  157.5562 LP  0  0  0  0  0  0  0  0  0  0  0  0  # atno 17395 bound_to 11000

$$$$
