AV-unprocessed.smi:2083|AV-procd|sdf|8500|dock3
  -GOLD-   2272011213D 1   1.00000     0.00000
 Structure written by MMmdl.
 44 45  0  0  0  0  0  0  0  0  3 V2000
  146.5945  136.1811  162.8259 C   0  0  0  0  0  0  0  0  0  0  0  0
  147.2126  135.9647  161.4871 C   0  0  0  0  0  0  0  0  0  0  0  0
  147.6272  134.8427  160.8275 C   0  0  0  0  0  0  0  0  0  0  0  0
  148.1112  135.3530  159.5918 C   0  0  0  0  0  0  0  0  0  0  0  0
  148.6381  134.6308  158.5911 N   0  5  0  0  0  0  0  0  0  0  0  0
  148.3181  134.9138  157.3082 C   0  0  0  0  0  0  0  0  0  0  0  0
  148.7916  135.8194  156.6177 O   0  0  0  0  0  0  0  0  0  0  0  0
  147.3863  134.0995  156.7926 N   0  0  0  0  0  0  0  0  0  0  0  0
  146.8399  134.1786  155.4409 C   0  0  0  0  0  0  0  0  0  0  0  0
  145.7060  133.1459  155.1866 C   0  0  2  0  0  0  0  0  0  0  0  0
  146.2455  131.7074  155.3539 C   0  0  0  0  0  0  0  0  0  0  0  0
  145.0336  133.2820  153.8528 N   0  3  2  0  0  0  0  0  0  0  0  0
  145.7454  132.6707  152.6925 C   0  0  0  0  0  0  0  0  0  0  0  0
  144.9015  132.7400  151.4085 C   0  0  0  0  0  0  0  0  0  0  0  0
  144.4733  134.1775  151.0925 C   0  0  0  0  0  0  0  0  0  0  0  0
  143.7780  134.8219  152.3025 C   0  0  1  0  0  0  0  0  0  0  0  0
  142.3564  134.2817  152.5385 C   0  0  0  0  0  0  0  0  0  0  0  0
  144.6658  134.6975  153.5564 C   0  0  0  0  0  0  0  0  0  0  0  0
  148.0157  136.6698  159.5162 N   0  0  0  0  0  0  0  0  0  0  0  0
  147.4352  137.0697  160.7257 O   0  0  0  0  0  0  0  0  0  0  0  0
  147.3085  135.9596  163.6191 H   0  0  0  0  0  0  0  0  0  0  0  0
  145.7278  135.5338  162.9591 H   0  0  0  0  0  0  0  0  0  0  0  0
  146.2656  137.2137  162.9454 H   0  0  0  0  0  0  0  0  0  0  0  0
  147.5874  133.8199  161.1712 H   0  0  0  0  0  0  0  0  0  0  0  0
  147.0292  133.3679  157.3900 H   0  0  0  0  0  0  0  0  0  0  0  0
  146.4920  135.2016  155.2904 H   0  0  0  0  0  0  0  0  0  0  0  0
  147.6608  134.0170  154.7415 H   0  0  0  0  0  0  0  0  0  0  0  0
  144.9448  133.3150  155.9498 H   0  0  0  0  0  0  0  0  0  0  0  0
  146.6780  131.5501  156.3421 H   0  0  0  0  0  0  0  0  0  0  0  0
  147.0212  131.4931  154.6182 H   0  0  0  0  0  0  0  0  0  0  0  0
  145.4700  130.9520  155.2413 H   0  0  0  0  0  0  0  0  0  0  0  0
  146.7044  133.1700  152.5456 H   0  0  0  0  0  0  0  0  0  0  0  0
  145.9504  131.6160  152.8720 H   0  0  0  0  0  0  0  0  0  0  0  0
  145.4689  132.3326  150.5712 H   0  0  0  0  0  0  0  0  0  0  0  0
  144.0212  132.1054  151.5142 H   0  0  0  0  0  0  0  0  0  0  0  0
  145.3558  134.7630  150.8301 H   0  0  0  0  0  0  0  0  0  0  0  0
  143.8217  134.1978  150.2182 H   0  0  0  0  0  0  0  0  0  0  0  0
  143.6697  135.8849  152.0833 H   0  0  0  0  0  0  0  0  0  0  0  0
  142.3594  133.2228  152.7971 H   0  0  0  0  0  0  0  0  0  0  0  0
  141.7380  134.4043  151.6491 H   0  0  0  0  0  0  0  0  0  0  0  0
  141.8669  134.8161  153.3532 H   0  0  0  0  0  0  0  0  0  0  0  0
  144.1493  135.1559  154.3981 H   0  0  0  0  0  0  0  0  0  0  0  0
  145.5807  135.2751  153.4138 H   0  0  0  0  0  0  0  0  0  0  0  0
  144.1677  132.7688  153.9341 H   0  0  0  0  0  0  0  0  0  0  0  0
  1  2  1  0  0  0  0
  1 21  1  0  0  0  0
  1 22  1  0  0  0  0
  1 23  1  0  0  0  0
  2 20  1  0  0  0  0
  2  3  2  0  0  0  0
  3  4  1  0  0  0  0
  3 24  1  0  0  0  0
  4  5  1  0  0  0  0
  4 19  2  0  0  0  0
  5  6  1  0  0  0  0
  6  7  2  0  0  0  0
  6  8  1  0  0  0  0
  8  9  1  0  0  0  0
  8 25  1  0  0  0  0
  9 10  1  0  0  0  0
  9 26  1  0  0  0  0
  9 27  1  0  0  0  0
 10 11  1  0  0  0  0
 10 12  1  0  0  0  0
 10 28  1  0  0  0  0
 11 29  1  0  0  0  0
 11 30  1  0  0  0  0
 11 31  1  0  0  0  0
 12 18  1  0  0  0  0
 12 13  1  0  0  0  0
 12 44  1  0  0  0  0
 13 14  1  0  0  0  0
 13 32  1  0  0  0  0
 13 33  1  0  0  0  0
 14 15  1  0  0  0  0
 14 34  1  0  0  0  0
 14 35  1  0  0  0  0
 15 16  1  0  0  0  0
 15 36  1  0  0  0  0
 15 37  1  0  0  0  0
 16 17  1  0  0  0  0
 16 18  1  0  0  0  0
 16 38  1  0  0  0  0
 17 39  1  0  0  0  0
 17 40  1  0  0  0  0
 17 41  1  0  0  0  0
 18 42  1  0  0  0  0
 18 43  1  0  0  0  0
 19 20  1  0  0  0  0
M  CHG  1   5  -1
M  CHG  1  12   1
M  END
> <s_m_source_file>
AV-unprocessed.smi

> <i_m_source_file_index>
2083

> <i_lp_mmshare_version>
43012

> <i_f3d_flags>
0

> <s_epik_input>
W0NIM11jMVtjSF1jKG5vMSlbTkhdQyg9TylbTkhdW0NIMl1bQ0BIXShbQ0gzXSlOMltDSDJdW0NIMl1bQ0gyXVtDQEBIXShbQ0gzXSlbQ0gyXTI=

> <s_epik_cmdline>
J2VwaWtfcHl0aG9uJywgJy1waCcsICc3LjAnLCAnLXRuJywgJzgnLCAnLW1hJywgJzIwMCcsICctbWV0YWxfYmluZGluZycsICctaW1hZScsICc8aW5maWxlLm1hZT4nLCAnLW9tYWUnLCAnPG91dGZpbGUubWFlPic=

> <r_epik_Ionization_Penalty>
6.22434

> <r_epik_Ionization_Penalty_Charging>
6.22425

> <r_epik_Ionization_Penalty_Neutral>
9.62407e-05

> <r_epik_State_Penalty>
6.22423

> <r_epik_Charging_Adjusted_Penalty>
12.4485

> <i_epik_Tot_Q>
0

> <i_epik_Tot_abs_Q>
2

> <r_epik_Metal_State_Penalty>
2.16764

> <b_epik_Metal_Only>
1

> <s_lp_Force_Field>
OPLS_2005

> <r_lp_Energy>
12.2094

> <b_lp_Chiralities_Consistent>
1

> <s_lp_Variant>
AV-unprocessed.smi:2083-11

> <Gold.Version>
5.8.1

> <Gold.Id.Protein>
6NUR|6NUR_protein|mol2

> <Gold.PLP.Fitness>
39.5499

> <Gold.PLP.PLP>
-25.1701

> <Gold.PLP.part.hbond>
-4.0000

> <Gold.PLP.part.metal>
0.0000

> <Gold.PLP.part.buried>
-4.6510

> <Gold.PLP.part.nonpolar>
-17.2114

> <Gold.PLP.part.repulsive>
0.0119

> <Gold.PLP.ligand.clash>
0.0000

> <Gold.PLP.ligand.torsion>
1.2992

> <Gold.PLP.Chemscore.Hbond>
5.6160

> <Gold.PLP.Chemscore.CHOScore>
0.0000

> <Gold.PLP.Chemscore.Metal>
0.0000

> <Gold.Chemscore.Hbonds>
donor molecule, donor type, donor heavy atom, donor atom, acceptor molecule, acceptor atom, score
      L1  H    12    44       P1 10957  2.00
      P1  H  6896  6909       L1     5  0.91
      P1  H  6931  6943       L1    20  0.26
      P1  H  6934  6947       L1    20  1.00

> <Gold.PLP.Chemscore.Internal.Correction>
0.1302

> <Gold.Rescore>
     Score         DG    S(hbond)    S(metal)    S(lipo)     H(rot)  DE(clash)    DE(int)     intcor
     16.54     -18.07       3.08        0.00      52.88       1.52       0.07       1.47       ----

> <Gold.Chemscore.Fitness>
16.5370

> <Gold.Chemscore.DG>
-18.0709

> <Gold.Chemscore.ZeroCoef>
-5.4800

> <Gold.Chemscore.Hbond>
3.0817

> <Gold.Chemscore.Metal>
0.0000

> <Gold.Chemscore.Lipo>
52.8784

> <Gold.Chemscore.Internal_Hbond>
0.0000

> <Gold.Chemscore.DEClash>
0.0679

> <Gold.Chemscore.DEInternal>
1.4660

> <Gold.Chemscore.Rot>
1.5190

> <Gold.Chemscore.Internal.Correction>
   9.000000E+99

> <Gold.Chemscore.Hbonds>
donor molecule, donor type, donor heavy atom, donor atom, acceptor molecule, acceptor atom, score
      L1  H    12    44       P1 10957  0.83
      P1  H  6896  6909       L1     5  0.20
      P1  H  6931  6943       L1    20  0.07
      P1  H  6934  6947       L1    20  0.86

> <Gold.Chemscore.Hbond.Weighted>
-10.2928

> <Gold.Chemscore.Metal.Weighted>
-0.0000

> <Gold.Chemscore.Lipo.Weighted>
-6.1868

> <Gold.Chemscore.Internal_Hbond.Weighted>
0.0000

> <Gold.Chemscore.DEClash.Weighted>
0.0679

> <Gold.Chemscore.DEInternal.Weighted>
1.4660

> <Gold.Chemscore.Rot.Weighted>
3.8886

> <Gold.Chemscore.Internal.Correction.Weighted>
   9.000000E+99

> <Gold.Protein.RotatedTorsions>
[ 6907 6896 6895 6894 ] final   14.44 input  -60.11 | X-H torsion
[ 7974 7965 7964 7962 ] final   -6.74 input  175.53 | X-H torsion
[ 8008 7997 7996 7995 ] final  -44.41 input   59.86 | X-H torsion
[ 10167 10162 10161 10158 ] final   23.79 input  -65.29 | X-H torsion
[ 10718 10713 10712 10709 ] final  -33.10 input   66.30 | X-H torsion
[ 10763 10752 10751 10750 ] final  -38.06 input  -60.55 | X-H torsion
[ 11005 11000 10999 10996 ] final  -79.39 input  -57.11 | X-H torsion

> <Gold.Protein.ActiveResidues>
 VAL166  LYS551  ARG553  GLY616  TRP617  ASP618  TYR619  PRO620  LYS621  CYS622 
 ASP623  PHE694  ASN695  SER759  ASP760  ASP761  ALA762  ILE779  LEU786  VAL792 
 PHE793  MET794  SER795  GLU796  ALA797  LYS798  CYS799  TRP800  GLU811  SER814 

> <Gold.Protein.RotatedAtoms>
  151.8023  135.0705  160.0401 H   0  0  0  0  0  0  0  0  0  0  0  0  # atno 6907 bound_to 6896
  152.3080  133.5719  159.5670 H   0  0  0  0  0  0  0  0  0  0  0  0  # atno 6908 bound_to 6896
  150.7306  134.0110  159.3711 H   0  0  0  0  0  0  0  0  0  0  0  0  # atno 6909 bound_to 6896
  146.2324  140.2215  142.8337 H   0  0  0  0  0  0  0  0  0  0  0  0  # atno 7974 bound_to 7965
  154.3997  140.1423  156.3678 H   0  0  0  0  0  0  0  0  0  0  0  0  # atno 8008 bound_to 7997
  155.8121  140.3472  155.5443 H   0  0  0  0  0  0  0  0  0  0  0  0  # atno 8009 bound_to 7997
  155.8376  140.0921  157.1745 H   0  0  0  0  0  0  0  0  0  0  0  0  # atno 8010 bound_to 7997
  140.5240  143.9954  150.6431 H   0  0  0  0  0  0  0  0  0  0  0  0  # atno 10167 bound_to 10162
  156.3668  130.4333  149.7578 H   0  0  0  0  0  0  0  0  0  0  0  0  # atno 10718 bound_to 10713
  153.9066  135.6797  153.4753 H   0  0  0  0  0  0  0  0  0  0  0  0  # atno 10763 bound_to 10752
  153.1101  135.4787  154.9017 H   0  0  0  0  0  0  0  0  0  0  0  0  # atno 10764 bound_to 10752
  154.7548  135.3194  154.8445 H   0  0  0  0  0  0  0  0  0  0  0  0  # atno 10765 bound_to 10752
  141.1667  133.7104  156.8115 H   0  0  0  0  0  0  0  0  0  0  0  0  # atno 11005 bound_to 11000
  144.9628  140.8292  143.5503 LP  0  0  0  0  0  0  0  0  0  0  0  0  # atno 17320 bound_to 7965
  145.2188  139.2169  143.5104 LP  0  0  0  0  0  0  0  0  0  0  0  0  # atno 17321 bound_to 7965
  140.3311  143.3077  152.0686 LP  0  0  0  0  0  0  0  0  0  0  0  0  # atno 17342 bound_to 10162
  139.4932  144.6508  151.6679 LP  0  0  0  0  0  0  0  0  0  0  0  0  # atno 17343 bound_to 10162
  156.4721  130.8001  151.3019 LP  0  0  0  0  0  0  0  0  0  0  0  0  # atno 17370 bound_to 10713
  157.7479  131.0032  150.3031 LP  0  0  0  0  0  0  0  0  0  0  0  0  # atno 17371 bound_to 10713
  140.2184  134.8775  157.3350 LP  0  0  0  0  0  0  0  0  0  0  0  0  # atno 17394 bound_to 11000
  140.2014  134.4250  155.7661 LP  0  0  0  0  0  0  0  0  0  0  0  0  # atno 17395 bound_to 11000

$$$$
