AV-unprocessed.smi:2988|AV-procd|sdf|11389|dock7
  -GOLD-   2272016313D 1   1.00000     0.00000
 Structure written by MMmdl.
 37 38  0  0  0  0  0  0  0  0  1 V2000
  152.6370  142.5768  162.4943 C   0  0  0  0  0  0  0  0  0  0  0  0
  152.7919  143.4966  161.2706 C   0  0  2  0  0  0  0  0  0  0  0  0
  151.5074  144.3104  161.0098 C   0  0  0  0  0  0  0  0  0  0  0  0
  151.6850  145.2856  159.8351 C   0  0  0  0  0  0  0  0  0  0  0  0
  152.1371  144.5539  158.5625 C   0  0  0  0  0  0  0  0  0  0  0  0
  153.4161  143.7354  158.8139 C   0  0  0  0  0  0  0  0  0  0  0  0
  153.2569  142.7518  159.9909 C   0  0  2  0  0  0  0  0  0  0  0  0
  152.3351  141.6793  159.6122 N   0  0  0  0  0  0  0  0  0  0  0  0
  152.6739  140.4364  159.2369 C   0  0  0  0  0  0  0  0  0  0  0  0
  153.8383  140.0476  159.1395 O   0  0  0  0  0  0  0  0  0  0  0  0
  151.5117  139.4888  158.9140 C   0  0  0  0  0  0  0  0  0  0  0  0
  150.8181  139.8582  157.6721 N   0  0  0  0  0  0  0  0  0  0  0  0
  150.3327  141.1541  157.6569 N   0  0  0  0  0  0  0  0  0  0  0  0
  149.7258  141.5913  156.6079 C   0  0  0  0  0  0  0  0  0  0  0  0
  149.5253  140.7694  155.4347 C   0  0  0  0  0  0  0  0  0  0  0  0
  148.7052  141.4115  154.0554 Cl  0  0  0  0  0  0  0  0  0  0  0  0
  149.9966  139.4975  155.4639 C   0  0  0  0  0  0  0  0  0  0  0  0
  149.7926  138.4523  154.0999 Cl  0  0  0  0  0  0  0  0  0  0  0  0
  150.6923  138.9642  156.6431 C   0  0  0  0  0  0  0  0  0  0  0  0
  151.1296  137.8145  156.7106 O   0  0  0  0  0  0  0  0  0  0  0  0
  151.8098  141.8770  162.3733 H   0  0  0  0  0  0  0  0  0  0  0  0
  152.4428  143.1577  163.3961 H   0  0  0  0  0  0  0  0  0  0  0  0
  153.5437  141.9962  162.6665 H   0  0  0  0  0  0  0  0  0  0  0  0
  153.5776  144.2110  161.5214 H   0  0  0  0  0  0  0  0  0  0  0  0
  150.6743  143.6368  160.8044 H   0  0  0  0  0  0  0  0  0  0  0  0
  151.2336  144.8698  161.9051 H   0  0  0  0  0  0  0  0  0  0  0  0
  150.7503  145.8146  159.6469 H   0  0  0  0  0  0  0  0  0  0  0  0
  152.4218  146.0452  160.0999 H   0  0  0  0  0  0  0  0  0  0  0  0
  151.3387  143.8968  158.2157 H   0  0  0  0  0  0  0  0  0  0  0  0
  152.3093  145.2742  157.7624 H   0  0  0  0  0  0  0  0  0  0  0  0
  153.6993  143.1978  157.9082 H   0  0  0  0  0  0  0  0  0  0  0  0
  154.2386  144.4191  159.0280 H   0  0  0  0  0  0  0  0  0  0  0  0
  154.2405  142.3202  160.1846 H   0  0  0  0  0  0  0  0  0  0  0  0
  151.3509  141.8996  159.6599 H   0  0  0  0  0  0  0  0  0  0  0  0
  151.8685  138.4589  158.8495 H   0  0  0  0  0  0  0  0  0  0  0  0
  150.8190  139.5053  159.7573 H   0  0  0  0  0  0  0  0  0  0  0  0
  149.3304  142.6054  156.5484 H   0  0  0  0  0  0  0  0  0  0  0  0
  1  2  1  0  0  0  0
  1 21  1  0  0  0  0
  1 22  1  0  0  0  0
  1 23  1  0  0  0  0
  2  7  1  0  0  0  0
  2  3  1  0  0  0  0
  2 24  1  0  0  0  0
  3  4  1  0  0  0  0
  3 25  1  0  0  0  0
  3 26  1  0  0  0  0
  4  5  1  0  0  0  0
  4 27  1  0  0  0  0
  4 28  1  0  0  0  0
  5  6  1  0  0  0  0
  5 29  1  0  0  0  0
  5 30  1  0  0  0  0
  6  7  1  0  0  0  0
  6 31  1  0  0  0  0
  6 32  1  0  0  0  0
  7  8  1  0  0  0  0
  7 33  1  0  0  0  0
  8  9  1  0  0  0  0
  8 34  1  0  0  0  0
  9 10  2  0  0  0  0
  9 11  1  0  0  0  0
 11 12  1  0  0  0  0
 11 35  1  0  0  0  0
 11 36  1  0  0  0  0
 12 19  1  0  0  0  0
 12 13  1  0  0  0  0
 13 14  2  0  0  0  0
 14 15  1  0  0  0  0
 14 37  1  0  0  0  0
 15 16  1  0  0  0  0
 15 17  2  0  0  0  0
 17 18  1  0  0  0  0
 17 19  1  0  0  0  0
 19 20  2  0  0  0  0
M  END
> <s_m_source_file>
AV-unprocessed.smi

> <i_m_source_file_index>
2988

> <i_lp_mmshare_version>
43012

> <i_f3d_flags>
0

> <s_epik_input>
W0NIM11bQ0BASF0xW0NIMl1bQ0gyXVtDSDJdW0NIMl1bQ0BIXTFbTkhdQyg9TylbQ0gyXW4ybltjSF1jKENsKWMoQ2wpYzI9Tw==

> <s_epik_cmdline>
J2VwaWtfcHl0aG9uJywgJy1waCcsICc3LjAnLCAnLXRuJywgJzgnLCAnLW1hJywgJzIwMCcsICctbWV0YWxfYmluZGluZycsICctaW1hZScsICc8aW5maWxlLm1hZT4nLCAnLW9tYWUnLCAnPG91dGZpbGUubWFlPic=

> <r_lp_tautomer_probability>
1

> <r_epik_Ionization_Penalty>
1.90782e-08

> <r_epik_Ionization_Penalty_Charging>
3.13143e-11

> <r_epik_Ionization_Penalty_Neutral>
1.90469e-08

> <r_epik_State_Penalty>
-0

> <r_epik_Charging_Adjusted_Penalty>
3.13143e-11

> <i_epik_Tot_Q>
0

> <i_epik_Tot_abs_Q>
0

> <r_epik_Metal_State_Penalty>
-0

> <b_epik_Metal_Only>
0

> <s_lp_Force_Field>
OPLS_2005

> <r_lp_Energy>
23.4163

> <b_lp_Chiralities_Consistent>
1

> <s_lp_Variant>
AV-unprocessed.smi:2988-3

> <Gold.Version>
5.8.1

> <Gold.Id.Protein>
6NUR|6NUR_protein|mol2

> <Gold.PLP.Fitness>
47.0696

> <Gold.PLP.PLP>
-41.7467

> <Gold.PLP.part.hbond>
-1.0000

> <Gold.PLP.part.metal>
0.0000

> <Gold.PLP.part.buried>
-4.5902

> <Gold.PLP.part.nonpolar>
-36.2176

> <Gold.PLP.part.repulsive>
0.1513

> <Gold.PLP.ligand.clash>
0.0000

> <Gold.PLP.ligand.torsion>
0.3299

> <Gold.PLP.Chemscore.Hbond>
0.9920

> <Gold.PLP.Chemscore.CHOScore>
1.0000

> <Gold.PLP.Chemscore.Metal>
0.0000

> <Gold.Chemscore.Hbonds>
donor molecule, donor type, donor heavy atom, donor atom, acceptor molecule, acceptor atom, score
      P1  H  7997  8008       L1    10  0.70
      L1  C    14    37       P1  8028  1.00

> <Gold.PLP.Chemscore.Internal.Correction>
0.0067

> <Gold.Rescore>
     Score         DG    S(hbond)    S(metal)    S(lipo)     H(rot)  DE(clash)    DE(int)     intcor
     17.38     -19.12       0.89        0.00     123.85       1.50       0.05       1.69       ----

> <Gold.Chemscore.Fitness>
17.3821

> <Gold.Chemscore.DG>
-19.1208

> <Gold.Chemscore.ZeroCoef>
-5.4800

> <Gold.Chemscore.Hbond>
0.8936

> <Gold.Chemscore.Metal>
0.0000

> <Gold.Chemscore.Lipo>
123.8498

> <Gold.Chemscore.Internal_Hbond>
0.0000

> <Gold.Chemscore.DEClash>
0.0476

> <Gold.Chemscore.DEInternal>
1.6911

> <Gold.Chemscore.Rot>
1.4977

> <Gold.Chemscore.Internal.Correction>
   9.000000E+99

> <Gold.Chemscore.Hbonds>
donor molecule, donor type, donor heavy atom, donor atom, acceptor molecule, acceptor atom, score
      P1  H  7997  8008       L1    10  0.65

> <Gold.Chemscore.Hbond.Weighted>
-2.9845

> <Gold.Chemscore.Metal.Weighted>
-0.0000

> <Gold.Chemscore.Lipo.Weighted>
-14.4904

> <Gold.Chemscore.Internal_Hbond.Weighted>
0.0000

> <Gold.Chemscore.DEClash.Weighted>
0.0476

> <Gold.Chemscore.DEInternal.Weighted>
1.6911

> <Gold.Chemscore.Rot.Weighted>
3.8341

> <Gold.Chemscore.Internal.Correction.Weighted>
   9.000000E+99

> <Gold.Protein.RotatedTorsions>
[ 6907 6896 6895 6894 ] final -162.67 input  -60.11 | X-H torsion
[ 7974 7965 7964 7962 ] final   67.75 input  175.53 | X-H torsion
[ 8008 7997 7996 7995 ] final -105.57 input   59.86 | X-H torsion
[ 10167 10162 10161 10158 ] final  -17.03 input  -65.29 | X-H torsion
[ 10718 10713 10712 10709 ] final  -37.55 input   66.30 | X-H torsion
[ 10763 10752 10751 10750 ] final   44.77 input  -60.55 | X-H torsion
[ 11005 11000 10999 10996 ] final   46.57 input  -57.11 | X-H torsion

> <Gold.Protein.ActiveResidues>
 VAL166  LYS551  ARG553  GLY616  TRP617  ASP618  TYR619  PRO620  LYS621  CYS622 
 ASP623  PHE694  ASN695  SER759  ASP760  ASP761  ALA762  ILE779  LEU786  VAL792 
 PHE793  MET794  SER795  GLU796  ALA797  LYS798  CYS799  TRP800  GLU811  SER814 

> <Gold.Protein.RotatedAtoms>
  151.3839  133.3811  159.2712 H   0  0  0  0  0  0  0  0  0  0  0  0  # atno 6907 bound_to 6896
  150.9556  134.8952  159.7709 H   0  0  0  0  0  0  0  0  0  0  0  0  # atno 6908 bound_to 6896
  152.5129  134.3797  159.9399 H   0  0  0  0  0  0  0  0  0  0  0  0  # atno 6909 bound_to 6896
  145.8109  139.3032  143.1099 H   0  0  0  0  0  0  0  0  0  0  0  0  # atno 7974 bound_to 7965
  154.9019  140.0412  157.1897 H   0  0  0  0  0  0  0  0  0  0  0  0  # atno 8008 bound_to 7997
  154.8436  140.2918  155.5622 H   0  0  0  0  0  0  0  0  0  0  0  0  # atno 8009 bound_to 7997
  156.2993  140.2478  156.3382 H   0  0  0  0  0  0  0  0  0  0  0  0  # atno 8010 bound_to 7997
  140.7242  143.5057  150.9813 H   0  0  0  0  0  0  0  0  0  0  0  0  # atno 10167 bound_to 10162
  156.3140  130.4256  149.8023 H   0  0  0  0  0  0  0  0  0  0  0  0  # atno 10718 bound_to 10713
  152.9835  135.6060  154.3328 H   0  0  0  0  0  0  0  0  0  0  0  0  # atno 10763 bound_to 10752
  154.3030  135.2772  155.2604 H   0  0  0  0  0  0  0  0  0  0  0  0  # atno 10764 bound_to 10752
  154.4847  135.5908  153.6471 H   0  0  0  0  0  0  0  0  0  0  0  0  # atno 10765 bound_to 10752
  140.1357  134.4648  155.8487 H   0  0  0  0  0  0  0  0  0  0  0  0  # atno 11005 bound_to 11000
  145.9778  140.8708  143.0130 LP  0  0  0  0  0  0  0  0  0  0  0  0  # atno 17320 bound_to 7965
  144.6757  140.2037  143.7384 LP  0  0  0  0  0  0  0  0  0  0  0  0  # atno 17321 bound_to 7965
  139.8768  143.7122  152.3161 LP  0  0  0  0  0  0  0  0  0  0  0  0  # atno 17342 bound_to 10162
  139.7390  144.7564  151.0682 LP  0  0  0  0  0  0  0  0  0  0  0  0  # atno 17343 bound_to 10162
  156.5356  130.8277  151.3252 LP  0  0  0  0  0  0  0  0  0  0  0  0  # atno 17370 bound_to 10713
  157.7397  130.9837  150.2332 LP  0  0  0  0  0  0  0  0  0  0  0  0  # atno 17371 bound_to 10713
  141.2178  133.6813  156.7152 LP  0  0  0  0  0  0  0  0  0  0  0  0  # atno 17394 bound_to 11000
  140.2786  134.8335  157.3912 LP  0  0  0  0  0  0  0  0  0  0  0  0  # atno 17395 bound_to 11000

$$$$
