AV-unprocessed.smi:2044|AV-procd|sdf|8302|dock1
  -GOLD-   2272010563D 1   1.00000     0.00000
 Structure written by MMmdl.
 38 39  0  0  0  0  0  0  0  0  2 V2000
  143.9310  143.5886  162.8176 C   0  0  0  0  0  0  0  0  0  0  0  0
  144.9781  143.4162  161.7711 C   0  0  0  0  0  0  0  0  0  0  0  0
  146.0249  144.1962  161.3688 C   0  0  0  0  0  0  0  0  0  0  0  0
  146.6115  143.4365  160.3201 C   0  0  0  0  0  0  0  0  0  0  0  0
  147.6936  143.7828  159.6064 N   0  5  0  0  0  0  0  0  0  0  0  0
  148.7750  144.3131  160.2229 C   0  0  0  0  0  0  0  0  0  0  0  0
  148.9105  144.4954  161.4350 O   0  0  0  0  0  0  0  0  0  0  0  0
  149.7625  144.6521  159.3843 N   0  0  0  0  0  0  0  0  0  0  0  0
  151.0405  145.2356  159.7789 C   0  0  0  0  0  0  0  0  0  0  0  0
  152.2378  144.4342  159.2094 C   0  0  2  0  0  0  0  0  0  0  0  0
  152.2734  144.6445  157.6789 C   0  0  0  0  0  0  0  0  0  0  0  0
  152.2547  143.0095  159.6086 N   0  0  0  0  0  0  0  0  0  0  0  0
  153.6138  142.4886  159.7829 C   0  0  0  0  0  0  0  0  0  0  0  0
  153.6304  141.0035  160.1838 C   0  0  0  0  0  0  0  0  0  0  0  0
  152.9285  140.2370  159.2138 O   0  0  0  0  0  0  0  0  0  0  0  0
  151.5815  140.6662  159.0631 C   0  0  0  0  0  0  0  0  0  0  0  0
  151.5531  142.1485  158.6528 C   0  0  0  0  0  0  0  0  0  0  0  0
  145.9871  142.2885  160.1163 N   0  0  0  0  0  0  0  0  0  0  0  0
  144.9334  142.2712  161.0380 O   0  0  0  0  0  0  0  0  0  0  0  0
  144.3722  143.9367  163.7515 H   0  0  0  0  0  0  0  0  0  0  0  0
  143.4171  142.6482  163.0175 H   0  0  0  0  0  0  0  0  0  0  0  0
  143.1875  144.3200  162.5006 H   0  0  0  0  0  0  0  0  0  0  0  0
  146.3225  145.1584  161.7578 H   0  0  0  0  0  0  0  0  0  0  0  0
  149.6197  144.4858  158.3988 H   0  0  0  0  0  0  0  0  0  0  0  0
  151.0777  146.2658  159.4217 H   0  0  0  0  0  0  0  0  0  0  0  0
  151.0976  145.3076  160.8653 H   0  0  0  0  0  0  0  0  0  0  0  0
  153.1380  144.9044  159.6083 H   0  0  0  0  0  0  0  0  0  0  0  0
  152.1485  145.6967  157.4218 H   0  0  0  0  0  0  0  0  0  0  0  0
  151.4787  144.0885  157.1805 H   0  0  0  0  0  0  0  0  0  0  0  0
  153.2239  144.3374  157.2440 H   0  0  0  0  0  0  0  0  0  0  0  0
  154.1819  142.6217  158.8611 H   0  0  0  0  0  0  0  0  0  0  0  0
  154.1388  143.0412  160.5609 H   0  0  0  0  0  0  0  0  0  0  0  0
  154.6563  140.6413  160.2494 H   0  0  0  0  0  0  0  0  0  0  0  0
  153.1779  140.8644  161.1670 H   0  0  0  0  0  0  0  0  0  0  0  0
  151.0955  140.0537  158.3035 H   0  0  0  0  0  0  0  0  0  0  0  0
  151.0357  140.5131  159.9955 H   0  0  0  0  0  0  0  0  0  0  0  0
  150.5086  142.4442  158.5662 H   0  0  0  0  0  0  0  0  0  0  0  0
  151.9958  142.2581  157.6615 H   0  0  0  0  0  0  0  0  0  0  0  0
  1  2  1  0  0  0  0
  1 20  1  0  0  0  0
  1 21  1  0  0  0  0
  1 22  1  0  0  0  0
  2 19  1  0  0  0  0
  2  3  2  0  0  0  0
  3  4  1  0  0  0  0
  3 23  1  0  0  0  0
  4  5  1  0  0  0  0
  4 18  2  0  0  0  0
  5  6  1  0  0  0  0
  6  7  2  0  0  0  0
  6  8  1  0  0  0  0
  8  9  1  0  0  0  0
  8 24  1  0  0  0  0
  9 10  1  0  0  0  0
  9 25  1  0  0  0  0
  9 26  1  0  0  0  0
 10 11  1  0  0  0  0
 10 12  1  0  0  0  0
 10 27  1  0  0  0  0
 11 28  1  0  0  0  0
 11 29  1  0  0  0  0
 11 30  1  0  0  0  0
 12 17  1  0  0  0  0
 12 13  1  0  0  0  0
 13 14  1  0  0  0  0
 13 31  1  0  0  0  0
 13 32  1  0  0  0  0
 14 15  1  0  0  0  0
 14 33  1  0  0  0  0
 14 34  1  0  0  0  0
 15 16  1  0  0  0  0
 16 17  1  0  0  0  0
 16 35  1  0  0  0  0
 16 36  1  0  0  0  0
 17 37  1  0  0  0  0
 17 38  1  0  0  0  0
 18 19  1  0  0  0  0
M  CHG  1   5  -1
M  END
> <s_m_source_file>
AV-unprocessed.smi

> <i_m_source_file_index>
2044

> <i_lp_mmshare_version>
43012

> <i_f3d_flags>
0

> <s_epik_input>
W0NIM11jMVtjSF1jKG5vMSlbTkhdQyg9TylbTkhdW0NIMl1bQ0BIXShbQ0gzXSlOMltDSDJdW0NIMl1PW0NIMl1bQ0gyXTI=

> <s_epik_cmdline>
J2VwaWtfcHl0aG9uJywgJy1waCcsICc3LjAnLCAnLXRuJywgJzgnLCAnLW1hJywgJzIwMCcsICctbWV0YWxfYmluZGluZycsICctaW1hZScsICc8aW5maWxlLm1hZT4nLCAnLW9tYWUnLCAnPG91dGZpbGUubWFlPic=

> <r_epik_Ionization_Penalty>
6.88367

> <r_epik_Ionization_Penalty_Charging>
6.57198

> <r_epik_Ionization_Penalty_Neutral>
0.311681

> <r_epik_State_Penalty>
6.77619

> <r_epik_Charging_Adjusted_Penalty>
13.3482

> <i_epik_Tot_Q>
-1

> <i_epik_Tot_abs_Q>
1

> <r_epik_Metal_State_Penalty>
2.70533

> <b_epik_Metal_Only>
1

> <s_lp_Force_Field>
OPLS_2005

> <r_lp_Energy>
25.764

> <b_lp_Chiralities_Consistent>
1

> <s_lp_Variant>
AV-unprocessed.smi:2044-5

> <Gold.Version>
5.8.1

> <Gold.Id.Protein>
6NUR|6NUR_protein|mol2

> <Gold.PLP.Fitness>
43.6735

> <Gold.PLP.PLP>
-42.9148

> <Gold.PLP.part.hbond>
-2.8892

> <Gold.PLP.part.metal>
0.0000

> <Gold.PLP.part.buried>
-8.0292

> <Gold.PLP.part.nonpolar>
-33.5123

> <Gold.PLP.part.repulsive>
0.6603

> <Gold.PLP.ligand.clash>
0.0000

> <Gold.PLP.ligand.torsion>
1.1661

> <Gold.PLP.Chemscore.Hbond>
1.0131

> <Gold.PLP.Chemscore.CHOScore>
0.0000

> <Gold.PLP.Chemscore.Metal>
0.0000

> <Gold.Chemscore.Hbonds>
donor molecule, donor type, donor heavy atom, donor atom, acceptor molecule, acceptor atom, score
      P1  H  6933  6944       L1     7  0.05
      P1  H  6934  6946       L1    18  0.95

> <Gold.PLP.Chemscore.Internal.Correction>
0.0517

> <Gold.Rescore>
     Score         DG    S(hbond)    S(metal)    S(lipo)     H(rot)  DE(clash)    DE(int)     intcor
     10.36     -13.04       0.14        0.00      94.56       1.55       0.43       2.25       ----

> <Gold.Chemscore.Fitness>
10.3630

> <Gold.Chemscore.DG>
-13.0439

> <Gold.Chemscore.ZeroCoef>
-5.4800

> <Gold.Chemscore.Hbond>
0.1381

> <Gold.Chemscore.Metal>
0.0000

> <Gold.Chemscore.Lipo>
94.5561

> <Gold.Chemscore.Internal_Hbond>
0.0000

> <Gold.Chemscore.DEClash>
0.4280

> <Gold.Chemscore.DEInternal>
2.2529

> <Gold.Chemscore.Rot>
1.5470

> <Gold.Chemscore.Internal.Correction>
   9.000000E+99

> <Gold.Chemscore.Hbonds>
donor molecule, donor type, donor heavy atom, donor atom, acceptor molecule, acceptor atom, score
      P1  H  6934  6946       L1    18  0.18

> <Gold.Chemscore.Hbond.Weighted>
-0.4611

> <Gold.Chemscore.Metal.Weighted>
-0.0000

> <Gold.Chemscore.Lipo.Weighted>
-11.0631

> <Gold.Chemscore.Internal_Hbond.Weighted>
0.0000

> <Gold.Chemscore.DEClash.Weighted>
0.4280

> <Gold.Chemscore.DEInternal.Weighted>
2.2529

> <Gold.Chemscore.Rot.Weighted>
3.9603

> <Gold.Chemscore.Internal.Correction.Weighted>
   9.000000E+99

> <Gold.Protein.RotatedTorsions>
[ 6907 6896 6895 6894 ] final -139.96 input  -60.11 | X-H torsion
[ 7974 7965 7964 7962 ] final   57.43 input  175.53 | X-H torsion
[ 8008 7997 7996 7995 ] final   -3.84 input   59.86 | X-H torsion
[ 10167 10162 10161 10158 ] final -121.53 input  -65.29 | X-H torsion
[ 10718 10713 10712 10709 ] final   77.68 input   66.30 | X-H torsion
[ 10763 10752 10751 10750 ] final  -61.31 input  -60.55 | X-H torsion
[ 11005 11000 10999 10996 ] final   67.49 input  -57.11 | X-H torsion

> <Gold.Protein.ActiveResidues>
 VAL166  LYS551  ARG553  GLY616  TRP617  ASP618  TYR619  PRO620  LYS621  CYS622 
 ASP623  PHE694  ASN695  SER759  ASP760  ASP761  ALA762  ILE779  LEU786  VAL792 
 PHE793  MET794  SER795  GLU796  ALA797  LYS798  CYS799  TRP800  GLU811  SER814 

> <Gold.Protein.RotatedAtoms>
  151.0545  133.5596  159.2639 H   0  0  0  0  0  0  0  0  0  0  0  0  # atno 6907 bound_to 6896
  151.2594  135.0648  159.9102 H   0  0  0  0  0  0  0  0  0  0  0  0  # atno 6908 bound_to 6896
  152.5387  134.0293  159.8071 H   0  0  0  0  0  0  0  0  0  0  0  0  # atno 6909 bound_to 6896
  145.9291  139.3793  143.0432 H   0  0  0  0  0  0  0  0  0  0  0  0  # atno 7974 bound_to 7965
  154.6206  140.2499  155.7554 H   0  0  0  0  0  0  0  0  0  0  0  0  # atno 8008 bound_to 7997
  156.2425  140.2927  156.0432 H   0  0  0  0  0  0  0  0  0  0  0  0  # atno 8009 bound_to 7997
  155.1902  140.0391  157.2889 H   0  0  0  0  0  0  0  0  0  0  0  0  # atno 8010 bound_to 7997
  140.0241  143.5315  152.2207 H   0  0  0  0  0  0  0  0  0  0  0  0  # atno 10167 bound_to 10162
  157.6719  130.9833  150.1676 H   0  0  0  0  0  0  0  0  0  0  0  0  # atno 10718 bound_to 10713
  154.2827  135.6269  153.5353 H   0  0  0  0  0  0  0  0  0  0  0  0  # atno 10763 bound_to 10752
  152.9863  135.5637  154.5478 H   0  0  0  0  0  0  0  0  0  0  0  0  # atno 10764 bound_to 10752
  154.5072  135.2875  155.1348 H   0  0  0  0  0  0  0  0  0  0  0  0  # atno 10765 bound_to 10752
  139.9768  134.6810  156.0339 H   0  0  0  0  0  0  0  0  0  0  0  0  # atno 11005 bound_to 11000
  145.8449  140.9560  143.0780 LP  0  0  0  0  0  0  0  0  0  0  0  0  # atno 17320 bound_to 7965
  144.6762  140.0332  143.7482 LP  0  0  0  0  0  0  0  0  0  0  0  0  # atno 17321 bound_to 7965
  139.6120  144.7611  151.2931 LP  0  0  0  0  0  0  0  0  0  0  0  0  # atno 17342 bound_to 10162
  140.7330  143.6807  150.8003 LP  0  0  0  0  0  0  0  0  0  0  0  0  # atno 17343 bound_to 10162
  156.2438  130.3693  149.8308 LP  0  0  0  0  0  0  0  0  0  0  0  0  # atno 17370 bound_to 10713
  156.6100  130.8583  151.3452 LP  0  0  0  0  0  0  0  0  0  0  0  0  # atno 17371 bound_to 10713
  141.1444  133.6558  156.3823 LP  0  0  0  0  0  0  0  0  0  0  0  0  # atno 17394 bound_to 11000
  140.5179  134.6332  157.5308 LP  0  0  0  0  0  0  0  0  0  0  0  0  # atno 17395 bound_to 11000

$$$$
