AV-unprocessed.smi:2301|AV-procd|sdf|9235|dock4
  -GOLD-   2272012453D 1   1.00000     0.00000
 Structure written by MMmdl.
 37 38  0  0  0  0  0  0  0  0  1 V2000
  153.6152  141.2860  160.1945 C   0  0  0  0  0  0  0  0  0  0  0  0
  152.7802  142.4224  159.6433 C   0  0  0  0  0  0  0  0  0  0  0  0
  152.8464  143.7112  160.2083 C   0  0  0  0  0  0  0  0  0  0  0  0
  152.0460  144.7224  159.6477 C   0  0  0  0  0  0  0  0  0  0  0  0
  151.2188  144.4059  158.5528 C   0  0  0  0  0  0  0  0  0  0  0  0
  151.2131  143.0875  158.0436 C   0  0  0  0  0  0  0  0  0  0  0  0
  150.3489  142.8731  156.9367 N   0  0  0  0  0  0  0  0  0  0  0  0
  150.1392  141.7336  156.2537 C   0  0  0  0  0  0  0  0  0  0  0  0
  150.6723  140.6499  156.4946 O   0  0  0  0  0  0  0  0  0  0  0  0
  149.2652  141.9219  155.2537 N   0  0  0  0  0  0  0  0  0  0  0  0
  148.8322  140.8984  154.3064 C   0  0  1  0  0  0  0  0  0  0  0  0
  148.5037  139.5989  155.0638 C   0  0  0  0  0  0  0  0  0  0  0  0
  147.9903  138.5036  154.1123 C   0  0  0  0  0  0  0  0  0  0  0  0
  146.7869  138.9753  153.2744 C   0  0  1  0  0  0  0  0  0  0  0  0
  145.6474  139.1215  154.0993 O   0  0  0  0  0  0  0  0  0  0  0  0
  147.0877  140.3000  152.5483 C   0  0  0  0  0  0  0  0  0  0  0  0
  147.6086  141.3865  153.5051 C   0  0  0  0  0  0  0  0  0  0  0  0
  151.9886  142.1190  158.5922 N   0  0  0  0  0  0  0  0  0  0  0  0
  149.6478  140.6872  153.6118 H   0  0  0  0  0  0  0  0  0  0  0  0
  146.5463  138.2111  152.5346 H   0  0  0  0  0  0  0  0  0  0  0  0
  154.0974  141.5681  161.1310 H   0  0  0  0  0  0  0  0  0  0  0  0
  154.3911  141.0077  159.4808 H   0  0  0  0  0  0  0  0  0  0  0  0
  152.9920  140.4114  160.3844 H   0  0  0  0  0  0  0  0  0  0  0  0
  153.4923  143.9221  161.0480 H   0  0  0  0  0  0  0  0  0  0  0  0
  152.0658  145.7246  160.0495 H   0  0  0  0  0  0  0  0  0  0  0  0
  150.5980  145.1713  158.1101 H   0  0  0  0  0  0  0  0  0  0  0  0
  149.8396  143.6852  156.6209 H   0  0  0  0  0  0  0  0  0  0  0  0
  148.8772  142.8456  155.1297 H   0  0  0  0  0  0  0  0  0  0  0  0
  149.3897  139.2394  155.5882 H   0  0  0  0  0  0  0  0  0  0  0  0
  147.7525  139.7963  155.8299 H   0  0  0  0  0  0  0  0  0  0  0  0
  148.7988  138.2149  153.4394 H   0  0  0  0  0  0  0  0  0  0  0  0
  147.7313  137.6067  154.6763 H   0  0  0  0  0  0  0  0  0  0  0  0
  144.9120  139.3617  153.5564 H   0  0  0  0  0  0  0  0  0  0  0  0
  147.8397  140.1195  151.7791 H   0  0  0  0  0  0  0  0  0  0  0  0
  146.1991  140.6558  152.0255 H   0  0  0  0  0  0  0  0  0  0  0  0
  146.8118  141.6804  154.1899 H   0  0  0  0  0  0  0  0  0  0  0  0
  147.8654  142.2792  152.9337 H   0  0  0  0  0  0  0  0  0  0  0  0
  1  2  1  0  0  0  0
  1 21  1  0  0  0  0
  1 22  1  0  0  0  0
  1 23  1  0  0  0  0
  2 18  1  0  0  0  0
  2  3  2  0  0  0  0
  3  4  1  0  0  0  0
  3 24  1  0  0  0  0
  4  5  2  0  0  0  0
  4 25  1  0  0  0  0
  5  6  1  0  0  0  0
  5 26  1  0  0  0  0
  6  7  1  0  0  0  0
  6 18  2  0  0  0  0
  7  8  1  0  0  0  0
  7 27  1  0  0  0  0
  8  9  2  0  0  0  0
  8 10  1  0  0  0  0
 10 11  1  0  0  0  0
 10 28  1  0  0  0  0
 11 19  1  0  0  0  0
 11 17  1  0  0  0  0
 11 12  1  0  0  0  0
 12 13  1  0  0  0  0
 12 29  1  0  0  0  0
 12 30  1  0  0  0  0
 13 14  1  0  0  0  0
 13 31  1  0  0  0  0
 13 32  1  0  0  0  0
 14 20  1  0  0  0  0
 14 15  1  0  0  0  0
 14 16  1  0  0  0  0
 15 33  1  0  0  0  0
 16 17  1  0  0  0  0
 16 34  1  0  0  0  0
 16 35  1  0  0  0  0
 17 36  1  0  0  0  0
 17 37  1  0  0  0  0
M  END
> <s_m_source_file>
AV-unprocessed.smi

> <i_m_source_file_index>
2301

> <i_lp_mmshare_version>
43012

> <i_f3d_flags>
0

> <s_epik_input>
W0NIM11jMVtjSF1bY0hdW2NIXWMobjEpW05IXUMoPU8pW05IXVtDQEhdMltDSDJdW0NIMl1bQ0BIXShbT0hdKVtDSDJdW0NIMl0y

> <s_epik_cmdline>
J2VwaWtfcHl0aG9uJywgJy1waCcsICc3LjAnLCAnLXRuJywgJzgnLCAnLW1hJywgJzIwMCcsICctbWV0YWxfYmluZGluZycsICctaW1hZScsICc8aW5maWxlLm1hZT4nLCAnLW9tYWUnLCAnPG91dGZpbGUubWFlPic=

> <r_lp_tautomer_probability>
1

> <r_epik_Ionization_Penalty>
9.15533e-05

> <r_epik_Ionization_Penalty_Charging>
0

> <r_epik_Ionization_Penalty_Neutral>
9.15533e-05

> <r_epik_State_Penalty>
-0

> <r_epik_Charging_Adjusted_Penalty>
0

> <i_epik_Tot_Q>
0

> <i_epik_Tot_abs_Q>
0

> <r_epik_Metal_State_Penalty>
-0

> <b_epik_Metal_Only>
0

> <s_lp_Force_Field>
OPLS_2005

> <r_lp_Energy>
13.5369

> <b_lp_Chiralities_Consistent>
1

> <s_lp_Variant>
AV-unprocessed.smi:2301-2

> <Gold.Version>
5.8.1

> <Gold.Id.Protein>
6NUR|6NUR_protein|mol2

> <Gold.PLP.Fitness>
46.6266

> <Gold.PLP.PLP>
-38.0178

> <Gold.PLP.part.hbond>
-3.0000

> <Gold.PLP.part.metal>
0.0000

> <Gold.PLP.part.buried>
-4.4568

> <Gold.PLP.part.nonpolar>
-31.9334

> <Gold.PLP.part.repulsive>
0.2252

> <Gold.PLP.ligand.clash>
0.0000

> <Gold.PLP.ligand.torsion>
0.1610

> <Gold.PLP.Chemscore.Hbond>
2.9760

> <Gold.PLP.Chemscore.CHOScore>
0.0000

> <Gold.PLP.Chemscore.Metal>
0.0000

> <Gold.Chemscore.Hbonds>
donor molecule, donor type, donor heavy atom, donor atom, acceptor molecule, acceptor atom, score
      L1  H     7    27       P1  8028  1.00
      L1  H    10    28       P1  8028  0.98
      L1  H    15    33       P1 10175  1.00

> <Gold.PLP.Chemscore.Internal.Correction>
0.0027

> <Gold.Rescore>
     Score         DG    S(hbond)    S(metal)    S(lipo)     H(rot)  DE(clash)    DE(int)     intcor
     19.82     -22.78       2.96        0.00      94.82       1.44       0.19       2.76       ----

> <Gold.Chemscore.Fitness>
19.8216

> <Gold.Chemscore.DG>
-22.7768

> <Gold.Chemscore.ZeroCoef>
-5.4800

> <Gold.Chemscore.Hbond>
2.9612

> <Gold.Chemscore.Metal>
0.0000

> <Gold.Chemscore.Lipo>
94.8158

> <Gold.Chemscore.Internal_Hbond>
0.0000

> <Gold.Chemscore.DEClash>
0.1927

> <Gold.Chemscore.DEInternal>
2.7625

> <Gold.Chemscore.Rot>
1.4402

> <Gold.Chemscore.Internal.Correction>
   9.000000E+99

> <Gold.Chemscore.Hbonds>
donor molecule, donor type, donor heavy atom, donor atom, acceptor molecule, acceptor atom, score
      L1  H     7    27       P1  8028  1.00
      L1  H    10    28       P1  8028  0.93
      L1  H    15    33       P1 10175  0.98

> <Gold.Chemscore.Hbond.Weighted>
-9.8903

> <Gold.Chemscore.Metal.Weighted>
-0.0000

> <Gold.Chemscore.Lipo.Weighted>
-11.0935

> <Gold.Chemscore.Internal_Hbond.Weighted>
0.0000

> <Gold.Chemscore.DEClash.Weighted>
0.1927

> <Gold.Chemscore.DEInternal.Weighted>
2.7625

> <Gold.Chemscore.Rot.Weighted>
3.6869

> <Gold.Chemscore.Internal.Correction.Weighted>
   9.000000E+99

> <Gold.Protein.RotatedTorsions>
[ 6907 6896 6895 6894 ] final -118.97 input  -60.11 | X-H torsion
[ 7974 7965 7964 7962 ] final -160.91 input  175.53 | X-H torsion
[ 8008 7997 7996 7995 ] final  161.10 input   59.86 | X-H torsion
[ 10167 10162 10161 10158 ] final  -96.88 input  -65.29 | X-H torsion
[ 10718 10713 10712 10709 ] final -125.93 input   66.30 | X-H torsion
[ 10763 10752 10751 10750 ] final -173.78 input  -60.55 | X-H torsion
[ 11005 11000 10999 10996 ] final   31.32 input  -57.11 | X-H torsion

> <Gold.Protein.ActiveResidues>
 VAL166  LYS551  ARG553  GLY616  TRP617  ASP618  TYR619  PRO620  LYS621  CYS622 
 ASP623  PHE694  ASN695  SER759  ASP760  ASP761  ALA762  ILE779  LEU786  VAL792 
 PHE793  MET794  SER795  GLU796  ALA797  LYS798  CYS799  TRP800  GLU811  SER814 

> <Gold.Protein.RotatedAtoms>
  150.8265  133.8164  159.3116 H   0  0  0  0  0  0  0  0  0  0  0  0  # atno 6907 bound_to 6896
  151.5906  135.1052  160.0047 H   0  0  0  0  0  0  0  0  0  0  0  0  # atno 6908 bound_to 6896
  152.4349  133.7302  159.6639 H   0  0  0  0  0  0  0  0  0  0  0  0  # atno 6909 bound_to 6896
  144.7410  140.3473  143.6122 H   0  0  0  0  0  0  0  0  0  0  0  0  # atno 7974 bound_to 7965
  156.2126  140.1786  156.7660 H   0  0  0  0  0  0  0  0  0  0  0  0  # atno 8008 bound_to 7997
  154.5745  140.0677  156.9043 H   0  0  0  0  0  0  0  0  0  0  0  0  # atno 8009 bound_to 7997
  155.2613  140.3336  155.4275 H   0  0  0  0  0  0  0  0  0  0  0  0  # atno 8010 bound_to 7997
  140.2892  143.3232  152.0363 H   0  0  0  0  0  0  0  0  0  0  0  0  # atno 10167 bound_to 10162
  156.1719  130.6673  151.0192 H   0  0  0  0  0  0  0  0  0  0  0  0  # atno 10718 bound_to 10713
  154.6039  135.2857  155.0505 H   0  0  0  0  0  0  0  0  0  0  0  0  # atno 10763 bound_to 10752
  154.1760  135.6464  153.5025 H   0  0  0  0  0  0  0  0  0  0  0  0  # atno 10764 bound_to 10752
  153.0168  135.5412  154.6768 H   0  0  0  0  0  0  0  0  0  0  0  0  # atno 10765 bound_to 10752
  140.2851  134.2928  155.7790 H   0  0  0  0  0  0  0  0  0  0  0  0  # atno 11005 bound_to 11000
  145.7312  139.1737  143.2429 LP  0  0  0  0  0  0  0  0  0  0  0  0  # atno 17320 bound_to 7965
  146.1205  140.7315  142.9460 LP  0  0  0  0  0  0  0  0  0  0  0  0  # atno 17321 bound_to 7965
  139.4942  144.6537  151.6619 LP  0  0  0  0  0  0  0  0  0  0  0  0  # atno 17342 bound_to 10162
  140.5747  144.0049  150.6235 LP  0  0  0  0  0  0  0  0  0  0  0  0  # atno 17343 bound_to 10162
  157.6809  131.0838  150.7372 LP  0  0  0  0  0  0  0  0  0  0  0  0  # atno 17370 bound_to 10713
  156.7431  130.4745  149.5473 LP  0  0  0  0  0  0  0  0  0  0  0  0  # atno 17371 bound_to 10713
  141.2156  133.7549  156.9539 LP  0  0  0  0  0  0  0  0  0  0  0  0  # atno 17394 bound_to 11000
  140.1247  134.9394  157.2253 LP  0  0  0  0  0  0  0  0  0  0  0  0  # atno 17395 bound_to 11000

$$$$
