AV-unprocessed.smi:3335|AV-procd|sdf|12850|dock9
  -GOLD-   2272019243D 1   1.00000     0.00000
 Structure written by MMmdl.
 46 47  0  0  0  0  0  0  0  0  1 V2000
  146.7339  133.6066  162.3176 C   0  0  0  0  0  0  0  0  0  0  0  0
  147.3635  134.7447  161.5676 C   0  0  0  0  0  0  0  0  0  0  0  0
  147.5999  136.0710  162.0263 C   0  0  0  0  0  0  0  0  0  0  0  0
  148.1830  136.8323  161.1161 N   0  0  0  0  0  0  0  0  0  0  0  0
  148.3330  136.0280  160.0391 N   0  0  0  0  0  0  0  0  0  0  0  0
  148.9824  136.5172  158.8242 C   0  0  1  0  0  0  0  0  0  0  0  0
  148.8970  135.5036  157.6657 C   0  0  0  0  0  0  0  0  0  0  0  0
  148.5292  137.9479  158.4228 C   0  0  2  0  0  0  0  0  0  0  0  0
  147.0107  138.0131  158.1601 C   0  0  0  0  0  0  0  0  0  0  0  0
  149.3108  138.4001  157.2677 N   0  0  0  0  0  0  0  0  0  0  0  0
  150.6354  138.9853  157.5425 C   0  0  1  0  0  0  0  0  0  0  0  0
  151.7260  138.0537  156.9920 C   0  0  0  0  0  0  0  0  0  0  0  0
  150.8027  140.3888  156.9228 C   0  0  0  0  0  0  0  0  0  0  0  0
  150.6163  140.5271  155.7124 O   0  0  0  0  0  0  0  0  0  0  0  0
  151.1371  141.4313  157.7139 N   0  0  0  0  0  0  0  0  0  0  0  0
  151.2706  142.7994  157.2161 C   0  0  0  0  0  0  0  0  0  0  0  0
  151.3972  143.6837  158.4562 C   0  0  0  0  0  0  0  0  0  0  0  0
  151.9713  142.7552  159.5160 C   0  0  0  0  0  0  0  0  0  0  0  0
  151.4139  141.3799  159.1492 C   0  0  0  0  0  0  0  0  0  0  0  0
  147.8518  134.7593  160.2920 C   0  0  0  0  0  0  0  0  0  0  0  0
  146.4958  133.8805  163.3456 H   0  0  0  0  0  0  0  0  0  0  0  0
  147.3940  132.7404  162.3610 H   0  0  0  0  0  0  0  0  0  0  0  0
  145.8052  133.2816  161.8486 H   0  0  0  0  0  0  0  0  0  0  0  0
  147.3702  136.4997  162.9907 H   0  0  0  0  0  0  0  0  0  0  0  0
  150.0439  136.5888  159.0662 H   0  0  0  0  0  0  0  0  0  0  0  0
  149.4721  135.8467  156.8052 H   0  0  0  0  0  0  0  0  0  0  0  0
  147.8708  135.3456  157.3331 H   0  0  0  0  0  0  0  0  0  0  0  0
  149.3000  134.5355  157.9639 H   0  0  0  0  0  0  0  0  0  0  0  0
  148.7551  138.6044  159.2643 H   0  0  0  0  0  0  0  0  0  0  0  0
  146.4563  137.5260  158.9624 H   0  0  0  0  0  0  0  0  0  0  0  0
  146.7389  137.5217  157.2254 H   0  0  0  0  0  0  0  0  0  0  0  0
  146.6522  139.0407  158.1183 H   0  0  0  0  0  0  0  0  0  0  0  0
  148.7563  138.9705  156.6443 H   0  0  0  0  0  0  0  0  0  0  0  0
  150.7612  139.0207  158.6235 H   0  0  0  0  0  0  0  0  0  0  0  0
  152.7232  138.4425  157.2018 H   0  0  0  0  0  0  0  0  0  0  0  0
  151.6393  137.9260  155.9119 H   0  0  0  0  0  0  0  0  0  0  0  0
  151.6603  137.0649  157.4471 H   0  0  0  0  0  0  0  0  0  0  0  0
  152.1697  142.8681  156.6020 H   0  0  0  0  0  0  0  0  0  0  0  0
  150.4179  143.0984  156.6045 H   0  0  0  0  0  0  0  0  0  0  0  0
  152.0149  144.5658  158.2854 H   0  0  0  0  0  0  0  0  0  0  0  0
  150.4078  144.0226  158.7659 H   0  0  0  0  0  0  0  0  0  0  0  0
  153.0591  142.7417  159.4377 H   0  0  0  0  0  0  0  0  0  0  0  0
  151.7131  143.0597  160.5306 H   0  0  0  0  0  0  0  0  0  0  0  0
  150.4823  141.1934  159.6856 H   0  0  0  0  0  0  0  0  0  0  0  0
  152.1228  140.5913  159.4049 H   0  0  0  0  0  0  0  0  0  0  0  0
  147.9012  133.9760  159.5501 H   0  0  0  0  0  0  0  0  0  0  0  0
  1  2  1  0  0  0  0
  1 21  1  0  0  0  0
  1 22  1  0  0  0  0
  1 23  1  0  0  0  0
  2 20  2  0  0  0  0
  2  3  1  0  0  0  0
  3  4  2  0  0  0  0
  3 24  1  0  0  0  0
  4  5  1  0  0  0  0
  5  6  1  0  0  0  0
  5 20  1  0  0  0  0
  6  7  1  0  0  0  0
  6  8  1  0  0  0  0
  6 25  1  0  0  0  0
  7 26  1  0  0  0  0
  7 27  1  0  0  0  0
  7 28  1  0  0  0  0
  8  9  1  0  0  0  0
  8 10  1  0  0  0  0
  8 29  1  0  0  0  0
  9 30  1  0  0  0  0
  9 31  1  0  0  0  0
  9 32  1  0  0  0  0
 10 11  1  0  0  0  0
 10 33  1  0  0  0  0
 11 12  1  0  0  0  0
 11 13  1  0  0  0  0
 11 34  1  0  0  0  0
 12 35  1  0  0  0  0
 12 36  1  0  0  0  0
 12 37  1  0  0  0  0
 13 14  2  0  0  0  0
 13 15  1  0  0  0  0
 15 19  1  0  0  0  0
 15 16  1  0  0  0  0
 16 17  1  0  0  0  0
 16 38  1  0  0  0  0
 16 39  1  0  0  0  0
 17 18  1  0  0  0  0
 17 40  1  0  0  0  0
 17 41  1  0  0  0  0
 18 19  1  0  0  0  0
 18 42  1  0  0  0  0
 18 43  1  0  0  0  0
 19 44  1  0  0  0  0
 19 45  1  0  0  0  0
 20 46  1  0  0  0  0
M  END
> <s_m_source_file>
AV-unprocessed.smi

> <i_m_source_file_index>
3335

> <i_lp_mmshare_version>
43012

> <i_f3d_flags>
0

> <s_epik_input>
W0NIM11jMVtjSF1ubihbY0hdMSlbQ0BIXShbQ0gzXSlbQ0BIXShbQ0gzXSlbTkhdW0NASF0oW0NIM10pQyg9TylOMltDSDJdW0NIMl1bQ0gyXVtDSDJdMg==

> <s_epik_cmdline>
J2VwaWtfcHl0aG9uJywgJy1waCcsICc3LjAnLCAnLXRuJywgJzgnLCAnLW1hJywgJzIwMCcsICctbWV0YWxfYmluZGluZycsICctaW1hZScsICc8aW5maWxlLm1hZT4nLCAnLW9tYWUnLCAnPG91dGZpbGUubWFlPic=

> <r_lp_tautomer_probability>
1

> <r_epik_Ionization_Penalty>
0.918803

> <r_epik_Ionization_Penalty_Charging>
0

> <r_epik_Ionization_Penalty_Neutral>
0.918803

> <r_epik_State_Penalty>
0.958258

> <r_epik_Charging_Adjusted_Penalty>
0.958258

> <i_epik_Tot_Q>
0

> <i_epik_Tot_abs_Q>
0

> <r_epik_Metal_State_Penalty>
0.956786

> <b_epik_Metal_Only>
0

> <s_lp_Force_Field>
OPLS_2005

> <r_lp_Energy>
40.2433

> <b_lp_Chiralities_Consistent>
1

> <s_lp_Variant>
AV-unprocessed.smi:3335-14

> <Gold.Version>
5.8.1

> <Gold.Id.Protein>
6NUR|6NUR_protein|mol2

> <Gold.PLP.Fitness>
39.0770

> <Gold.PLP.PLP>
-35.0067

> <Gold.PLP.part.hbond>
-2.7697

> <Gold.PLP.part.metal>
0.0000

> <Gold.PLP.part.buried>
-3.6362

> <Gold.PLP.part.nonpolar>
-28.8093

> <Gold.PLP.part.repulsive>
0.0350

> <Gold.PLP.ligand.clash>
0.0000

> <Gold.PLP.ligand.torsion>
1.4189

> <Gold.PLP.Chemscore.Hbond>
2.2215

> <Gold.PLP.Chemscore.CHOScore>
0.0000

> <Gold.PLP.Chemscore.Metal>
0.0000

> <Gold.Chemscore.Hbonds>
donor molecule, donor type, donor heavy atom, donor atom, acceptor molecule, acceptor atom, score
      P1  H  6931  6943       L1     4  1.00
      P1  H  6934  6947       L1     4  0.03

> <Gold.PLP.Chemscore.Internal.Correction>
0.2435

> <Gold.Rescore>
     Score         DG    S(hbond)    S(metal)    S(lipo)     H(rot)  DE(clash)    DE(int)     intcor
     15.59     -17.31       1.79        0.00      85.57       1.62       0.19       1.53       ----

> <Gold.Chemscore.Fitness>
15.5880

> <Gold.Chemscore.DG>
-17.3105

> <Gold.Chemscore.ZeroCoef>
-5.4800

> <Gold.Chemscore.Hbond>
1.7867

> <Gold.Chemscore.Metal>
0.0000

> <Gold.Chemscore.Lipo>
85.5655

> <Gold.Chemscore.Internal_Hbond>
0.0000

> <Gold.Chemscore.DEClash>
0.1887

> <Gold.Chemscore.DEInternal>
1.5338

> <Gold.Chemscore.Rot>
1.6204

> <Gold.Chemscore.Internal.Correction>
   9.000000E+99

> <Gold.Chemscore.Hbonds>
donor molecule, donor type, donor heavy atom, donor atom, acceptor molecule, acceptor atom, score
      P1  H  6931  6943       L1     4  0.78
      P1  H  6934  6947       L1     4  0.06
      P1  H  7989  7998       L1    14  0.04

> <Gold.Chemscore.Hbond.Weighted>
-5.9675

> <Gold.Chemscore.Metal.Weighted>
-0.0000

> <Gold.Chemscore.Lipo.Weighted>
-10.0112

> <Gold.Chemscore.Internal_Hbond.Weighted>
0.0000

> <Gold.Chemscore.DEClash.Weighted>
0.1887

> <Gold.Chemscore.DEInternal.Weighted>
1.5338

> <Gold.Chemscore.Rot.Weighted>
4.1482

> <Gold.Chemscore.Internal.Correction.Weighted>
   9.000000E+99

> <Gold.Protein.RotatedTorsions>
[ 6907 6896 6895 6894 ] final   80.15 input  -60.11 | X-H torsion
[ 7974 7965 7964 7962 ] final -122.68 input  175.53 | X-H torsion
[ 8008 7997 7996 7995 ] final   58.65 input   59.86 | X-H torsion
[ 10167 10162 10161 10158 ] final   41.02 input  -65.29 | X-H torsion
[ 10718 10713 10712 10709 ] final -158.19 input   66.30 | X-H torsion
[ 10763 10752 10751 10750 ] final -100.72 input  -60.55 | X-H torsion
[ 11005 11000 10999 10996 ] final  153.88 input  -57.11 | X-H torsion

> <Gold.Protein.ActiveResidues>
 VAL166  LYS551  ARG553  GLY616  TRP617  ASP618  TYR619  PRO620  LYS621  CYS622 
 ASP623  PHE694  ASN695  SER759  ASP760  ASP761  ALA762  ILE779  LEU786  VAL792 
 PHE793  MET794  SER795  GLU796  ALA797  LYS798  CYS799  TRP800  GLU811  SER814 

> <Gold.Protein.RotatedAtoms>
  152.5225  134.3401  159.9213 H   0  0  0  0  0  0  0  0  0  0  0  0  # atno 6907 bound_to 6896
  151.3351  133.3978  159.2674 H   0  0  0  0  0  0  0  0  0  0  0  0  # atno 6908 bound_to 6896
  150.9849  134.9214  159.7923 H   0  0  0  0  0  0  0  0  0  0  0  0  # atno 6909 bound_to 6896
  145.0268  140.8034  143.4347 H   0  0  0  0  0  0  0  0  0  0  0  0  # atno 7974 bound_to 7965
  155.5534  140.3487  155.4474 H   0  0  0  0  0  0  0  0  0  0  0  0  # atno 8008 bound_to 7997
  156.0567  140.1330  157.0014 H   0  0  0  0  0  0  0  0  0  0  0  0  # atno 8009 bound_to 7997
  154.4460  140.0993  156.6441 H   0  0  0  0  0  0  0  0  0  0  0  0  # atno 8010 bound_to 7997
  140.3685  144.2136  150.6134 H   0  0  0  0  0  0  0  0  0  0  0  0  # atno 10167 bound_to 10162
  156.5507  130.8604  151.2779 H   0  0  0  0  0  0  0  0  0  0  0  0  # atno 10718 bound_to 10713
  154.7602  135.4924  153.9449 H   0  0  0  0  0  0  0  0  0  0  0  0  # atno 10763 bound_to 10752
  153.1242  135.6738  153.9292 H   0  0  0  0  0  0  0  0  0  0  0  0  # atno 10764 bound_to 10752
  153.9015  135.3109  155.3427 H   0  0  0  0  0  0  0  0  0  0  0  0  # atno 10765 bound_to 10752
  140.1438  134.8721  157.2366 H   0  0  0  0  0  0  0  0  0  0  0  0  # atno 11005 bound_to 11000
  145.1823  139.2345  143.5286 LP  0  0  0  0  0  0  0  0  0  0  0  0  # atno 17320 bound_to 7965
  146.3493  140.1599  142.8591 LP  0  0  0  0  0  0  0  0  0  0  0  0  # atno 17321 bound_to 7965
  140.5057  143.2305  151.8611 LP  0  0  0  0  0  0  0  0  0  0  0  0  # atno 17342 bound_to 10162
  139.4806  144.5008  151.9063 LP  0  0  0  0  0  0  0  0  0  0  0  0  # atno 17343 bound_to 10162
  157.7388  130.9820  150.2274 LP  0  0  0  0  0  0  0  0  0  0  0  0  # atno 17370 bound_to 10713
  156.2887  130.3743  149.7863 LP  0  0  0  0  0  0  0  0  0  0  0  0  # atno 17371 bound_to 10713
  140.2688  134.3484  155.7380 LP  0  0  0  0  0  0  0  0  0  0  0  0  # atno 17394 bound_to 11000
  141.2190  133.7411  156.9192 LP  0  0  0  0  0  0  0  0  0  0  0  0  # atno 17395 bound_to 11000

$$$$
