AV-unprocessed.smi:2442|AV-procd|sdf|9630|dock9
  -GOLD-   2272013263D 1   1.00000     0.00000
 Structure written by MMmdl.
 47 48  0  0  0  0  0  0  0  0  2 V2000
  152.5369  138.8026  155.0795 C   0  0  0  0  0  0  0  0  0  0  0  0
  151.6373  139.8294  154.6927 O   0  0  0  0  0  0  0  0  0  0  0  0
  150.5572  140.0332  155.5967 C   0  0  1  0  0  0  0  0  0  0  0  0
  151.0925  140.6168  156.9217 C   0  0  0  0  0  0  0  0  0  0  0  0
  149.9521  140.9886  157.8807 C   0  0  0  0  0  0  0  0  0  0  0  0
  148.9705  141.9643  157.2172 C   0  0  0  0  0  0  0  0  0  0  0  0
  148.4199  141.3850  155.9061 C   0  0  0  0  0  0  0  0  0  0  0  0
  149.5501  141.0002  154.9318 C   0  0  2  0  0  0  0  0  0  0  0  0
  148.9592  140.3770  153.7494 N   0  0  0  0  0  0  0  0  0  0  0  0
  148.0726  139.3719  153.7598 C   0  0  0  0  0  0  0  0  0  0  0  0
  147.6542  138.8251  154.7805 O   0  0  0  0  0  0  0  0  0  0  0  0
  147.6870  139.0373  152.5206 N   0  0  0  0  0  0  0  0  0  0  0  0
  146.7265  137.9872  152.2036 C   0  0  0  0  0  0  0  0  0  0  0  0
  145.5182  138.0153  153.1556 C   0  0  0  0  0  0  0  0  0  0  0  0
  144.8447  136.6562  153.2664 C   0  0  0  0  0  0  0  0  0  0  0  0
  145.6448  135.5139  153.4939 C   0  0  0  0  0  0  0  0  0  0  0  0
  145.0360  134.2476  153.5955 C   0  0  0  0  0  0  0  0  0  0  0  0
  143.6963  134.1363  153.4756 N   0  3  0  0  0  0  0  0  0  0  0  0
  142.8915  135.1983  153.2562 C   0  0  0  0  0  0  0  0  0  0  0  0
  143.4397  136.4949  153.1417 C   0  0  0  0  0  0  0  0  0  0  0  0
  142.5155  137.6732  152.8916 C   0  0  0  0  0  0  0  0  0  0  0  0
  153.3177  138.7032  154.3260 H   0  0  0  0  0  0  0  0  0  0  0  0
  152.0260  137.8423  155.1580 H   0  0  0  0  0  0  0  0  0  0  0  0
  153.0203  139.0215  156.0313 H   0  0  0  0  0  0  0  0  0  0  0  0
  150.0480  139.0873  155.7948 H   0  0  0  0  0  0  0  0  0  0  0  0
  151.7561  139.9063  157.4139 H   0  0  0  0  0  0  0  0  0  0  0  0
  151.6923  141.5035  156.7127 H   0  0  0  0  0  0  0  0  0  0  0  0
  149.4222  140.0862  158.1879 H   0  0  0  0  0  0  0  0  0  0  0  0
  150.3604  141.4331  158.7889 H   0  0  0  0  0  0  0  0  0  0  0  0
  148.1495  142.1867  157.8993 H   0  0  0  0  0  0  0  0  0  0  0  0
  149.4725  142.9118  157.0175 H   0  0  0  0  0  0  0  0  0  0  0  0
  147.8108  140.5080  156.1304 H   0  0  0  0  0  0  0  0  0  0  0  0
  147.7543  142.1106  155.4370 H   0  0  0  0  0  0  0  0  0  0  0  0
  150.0742  141.9159  154.6504 H   0  0  0  0  0  0  0  0  0  0  0  0
  149.2355  140.7549  152.8552 H   0  0  0  0  0  0  0  0  0  0  0  0
  148.0857  139.5439  151.7436 H   0  0  0  0  0  0  0  0  0  0  0  0
  146.3970  138.1299  151.1743 H   0  0  0  0  0  0  0  0  0  0  0  0
  147.2195  137.0140  152.2389 H   0  0  0  0  0  0  0  0  0  0  0  0
  145.8372  138.3201  154.1534 H   0  0  0  0  0  0  0  0  0  0  0  0
  144.8006  138.7706  152.8352 H   0  0  0  0  0  0  0  0  0  0  0  0
  146.7174  135.6064  153.5883 H   0  0  0  0  0  0  0  0  0  0  0  0
  145.5761  133.3282  153.7682 H   0  0  0  0  0  0  0  0  0  0  0  0
  141.8367  134.9777  153.1781 H   0  0  0  0  0  0  0  0  0  0  0  0
  141.4994  137.3387  152.6795 H   0  0  0  0  0  0  0  0  0  0  0  0
  142.8564  138.2595  152.0383 H   0  0  0  0  0  0  0  0  0  0  0  0
  142.4801  138.3213  153.7675 H   0  0  0  0  0  0  0  0  0  0  0  0
  143.2739  133.2107  153.5535 H   0  0  0  0  0  0  0  0  0  0  0  0
  1  2  1  0  0  0  0
  1 22  1  0  0  0  0
  1 23  1  0  0  0  0
  1 24  1  0  0  0  0
  2  3  1  0  0  0  0
  3  8  1  0  0  0  0
  3  4  1  0  0  0  0
  3 25  1  0  0  0  0
  4  5  1  0  0  0  0
  4 26  1  0  0  0  0
  4 27  1  0  0  0  0
  5  6  1  0  0  0  0
  5 28  1  0  0  0  0
  5 29  1  0  0  0  0
  6  7  1  0  0  0  0
  6 30  1  0  0  0  0
  6 31  1  0  0  0  0
  7  8  1  0  0  0  0
  7 32  1  0  0  0  0
  7 33  1  0  0  0  0
  8  9  1  0  0  0  0
  8 34  1  0  0  0  0
  9 10  1  0  0  0  0
  9 35  1  0  0  0  0
 10 11  2  0  0  0  0
 10 12  1  0  0  0  0
 12 13  1  0  0  0  0
 12 36  1  0  0  0  0
 13 14  1  0  0  0  0
 13 37  1  0  0  0  0
 13 38  1  0  0  0  0
 14 15  1  0  0  0  0
 14 39  1  0  0  0  0
 14 40  1  0  0  0  0
 15 20  1  0  0  0  0
 15 16  2  0  0  0  0
 16 17  1  0  0  0  0
 16 41  1  0  0  0  0
 17 18  2  0  0  0  0
 17 42  1  0  0  0  0
 18 19  1  0  0  0  0
 18 47  1  0  0  0  0
 19 20  2  0  0  0  0
 19 43  1  0  0  0  0
 20 21  1  0  0  0  0
 21 44  1  0  0  0  0
 21 45  1  0  0  0  0
 21 46  1  0  0  0  0
M  CHG  1  18   1
M  END
> <s_m_source_file>
AV-unprocessed.smi

> <i_m_source_file_index>
2442

> <i_lp_mmshare_version>
43012

> <i_f3d_flags>
0

> <s_epik_input>
W0NIM11PW0NAQEhdMVtDSDJdW0NIMl1bQ0gyXVtDSDJdW0NASF0xW05IXUMoPU8pW05IXVtDSDJdW0NIMl1jMltjSF1bY0hdbltjSF1jMltDSDNd

> <s_epik_cmdline>
J2VwaWtfcHl0aG9uJywgJy1waCcsICc3LjAnLCAnLXRuJywgJzgnLCAnLW1hJywgJzIwMCcsICctbWV0YWxfYmluZGluZycsICctaW1hZScsICc8aW5maWxlLm1hZT4nLCAnLW9tYWUnLCAnPG91dGZpbGUubWFlPic=

> <r_epik_Ionization_Penalty>
1.07145

> <r_epik_Ionization_Penalty_Charging>
1.0714

> <r_epik_Ionization_Penalty_Neutral>
4.9109e-05

> <r_epik_State_Penalty>
1.12601

> <r_epik_Charging_Adjusted_Penalty>
2.19741

> <i_epik_Tot_Q>
1

> <i_epik_Tot_abs_Q>
1

> <r_epik_Metal_State_Penalty>
1.2173

> <b_epik_Metal_Only>
0

> <s_lp_Force_Field>
OPLS_2005

> <r_lp_Energy>
14.6153

> <b_lp_Chiralities_Consistent>
1

> <s_lp_Variant>
AV-unprocessed.smi:2442-8

> <Gold.Version>
5.8.1

> <Gold.Id.Protein>
6NUR|6NUR_protein|mol2

> <Gold.PLP.Fitness>
42.8236

> <Gold.PLP.PLP>
-29.9793

> <Gold.PLP.part.hbond>
-4.8178

> <Gold.PLP.part.metal>
0.0000

> <Gold.PLP.part.buried>
-0.8607

> <Gold.PLP.part.nonpolar>
-24.4904

> <Gold.PLP.part.repulsive>
0.3686

> <Gold.PLP.ligand.clash>
0.0000

> <Gold.PLP.ligand.torsion>
0.5253

> <Gold.PLP.Chemscore.Hbond>
4.6160

> <Gold.PLP.Chemscore.CHOScore>
0.0000

> <Gold.PLP.Chemscore.Metal>
0.0000

> <Gold.Chemscore.Hbonds>
donor molecule, donor type, donor heavy atom, donor atom, acceptor molecule, acceptor atom, score
      L1  H     9    35       P1  7957  0.72
      L1  H    12    36       P1  7957  0.83
      L1  H    18    47       P1 10957  1.89
      P1  H  7989  7998       L1     2  1.00

> <Gold.PLP.Chemscore.Internal.Correction>
0.0470

> <Gold.Rescore>
     Score         DG    S(hbond)    S(metal)    S(lipo)     H(rot)  DE(clash)    DE(int)     intcor
     16.70     -21.21       3.65        0.00      68.11       1.72       1.52       3.00       ----

> <Gold.Chemscore.Fitness>
16.6999

> <Gold.Chemscore.DG>
-21.2135

> <Gold.Chemscore.ZeroCoef>
-5.4800

> <Gold.Chemscore.Hbond>
3.6464

> <Gold.Chemscore.Metal>
0.0000

> <Gold.Chemscore.Lipo>
68.1120

> <Gold.Chemscore.Internal_Hbond>
0.0000

> <Gold.Chemscore.DEClash>
1.5162

> <Gold.Chemscore.DEInternal>
2.9975

> <Gold.Chemscore.Rot>
1.7244

> <Gold.Chemscore.Internal.Correction>
   9.000000E+99

> <Gold.Chemscore.Hbonds>
donor molecule, donor type, donor heavy atom, donor atom, acceptor molecule, acceptor atom, score
      L1  H     9    35       P1  7957  0.72
      L1  H    12    36       P1  7957  0.81
      L1  H    18    47       P1 10957  0.86
      P1  H  7989  7998       L1     2  0.85

> <Gold.Chemscore.Hbond.Weighted>
-12.1789

> <Gold.Chemscore.Metal.Weighted>
-0.0000

> <Gold.Chemscore.Lipo.Weighted>
-7.9691

> <Gold.Chemscore.Internal_Hbond.Weighted>
0.0000

> <Gold.Chemscore.DEClash.Weighted>
1.5162

> <Gold.Chemscore.DEInternal.Weighted>
2.9975

> <Gold.Chemscore.Rot.Weighted>
4.4145

> <Gold.Chemscore.Internal.Correction.Weighted>
   9.000000E+99

> <Gold.Protein.RotatedTorsions>
[ 6907 6896 6895 6894 ] final -174.38 input  -60.11 | X-H torsion
[ 7974 7965 7964 7962 ] final   28.20 input  175.53 | X-H torsion
[ 8008 7997 7996 7995 ] final  142.53 input   59.86 | X-H torsion
[ 10167 10162 10161 10158 ] final -163.00 input  -65.29 | X-H torsion
[ 10718 10713 10712 10709 ] final  -36.89 input   66.30 | X-H torsion
[ 10763 10752 10751 10750 ] final -123.71 input  -60.55 | X-H torsion
[ 11005 11000 10999 10996 ] final -141.28 input  -57.11 | X-H torsion

> <Gold.Protein.ActiveResidues>
 VAL166  LYS551  ARG553  GLY616  TRP617  ASP618  TYR619  PRO620  LYS621  CYS622 
 ASP623  PHE694  ASN695  SER759  ASP760  ASP761  ALA762  ILE779  LEU786  VAL792 
 PHE793  MET794  SER795  GLU796  ALA797  LYS798  CYS799  TRP800  GLU811  SER814 

> <Gold.Protein.RotatedAtoms>
  151.5714  133.3389  159.2990 H   0  0  0  0  0  0  0  0  0  0  0  0  # atno 6907 bound_to 6896
  150.8365  134.7643  159.6908 H   0  0  0  0  0  0  0  0  0  0  0  0  # atno 6908 bound_to 6896
  152.4441  134.5538  159.9926 H   0  0  0  0  0  0  0  0  0  0  0  0  # atno 6909 bound_to 6896
  146.1742  139.7089  142.8946 H   0  0  0  0  0  0  0  0  0  0  0  0  # atno 7974 bound_to 7965
  156.2947  140.2286  156.4743 H   0  0  0  0  0  0  0  0  0  0  0  0  # atno 8008 bound_to 7997
  154.7908  140.0454  157.1220 H   0  0  0  0  0  0  0  0  0  0  0  0  # atno 8009 bound_to 7997
  154.9648  140.3059  155.5018 H   0  0  0  0  0  0  0  0  0  0  0  0  # atno 8010 bound_to 7997
  139.6352  144.0364  152.2048 H   0  0  0  0  0  0  0  0  0  0  0  0  # atno 10167 bound_to 10162
  156.3216  130.4266  149.7955 H   0  0  0  0  0  0  0  0  0  0  0  0  # atno 10718 bound_to 10713
  154.8712  135.4088  154.2988 H   0  0  0  0  0  0  0  0  0  0  0  0  # atno 10763 bound_to 10752
  153.3851  135.7013  153.6541 H   0  0  0  0  0  0  0  0  0  0  0  0  # atno 10764 bound_to 10752
  153.5347  135.3660  155.2663 H   0  0  0  0  0  0  0  0  0  0  0  0  # atno 10765 bound_to 10752
  140.8340  134.2483  157.4843 H   0  0  0  0  0  0  0  0  0  0  0  0  # atno 11005 bound_to 11000
  145.4257  141.0410  143.2939 LP  0  0  0  0  0  0  0  0  0  0  0  0  # atno 17320 bound_to 7965
  144.8210  139.5791  143.6986 LP  0  0  0  0  0  0  0  0  0  0  0  0  # atno 17321 bound_to 7965
  140.0040  144.6273  150.7705 LP  0  0  0  0  0  0  0  0  0  0  0  0  # atno 17342 bound_to 10162
  140.7461  143.2886  151.3395 LP  0  0  0  0  0  0  0  0  0  0  0  0  # atno 17343 bound_to 10162
  156.5261  130.8237  151.3221 LP  0  0  0  0  0  0  0  0  0  0  0  0  # atno 17370 bound_to 10713
  157.7413  130.9867  150.2434 LP  0  0  0  0  0  0  0  0  0  0  0  0  # atno 17371 bound_to 10713
  139.8704  134.9601  156.4353 LP  0  0  0  0  0  0  0  0  0  0  0  0  # atno 17394 bound_to 11000
  140.8967  133.7808  155.9634 LP  0  0  0  0  0  0  0  0  0  0  0  0  # atno 17395 bound_to 11000

$$$$
