#       Name:                AV-unprocessed.smi:283
#       Creating user name   scv26
#       Creation time:       Thu Mar 26 21:44:49 2020


#       File generated by GOLD software.
#

@<TRIPOS>MOLECULE
AV-unprocessed.smi:283
    59    62     1
SMALL
NO_CHARGES


@<TRIPOS>ATOM
      1 ****        -5.2245  -0.0154  -1.4754 C.3            1 S1                 0.0000
      2 ****        -3.7187  -0.1431  -1.2102 C.3            1 S1                 0.0000
      3 ****        -3.0682   1.1500  -1.4159 N.pl3          1 S1                 0.0000
      4 ****        -1.7417   1.2888  -1.1984 C.ar           1 S1                 0.0000
      5 ****        -1.3401   2.5061  -0.7618 N.ar           1 S1                 0.0000
      6 ****        -0.0529   2.7256  -0.4811 C.ar           1 S1                 0.0000
      7 ****         0.9753   1.8807  -0.5706 N.ar           1 S1                 0.0000
      8 ****         0.5844   0.6570  -1.0303 C.ar           1 S1                 0.0000
      9 ****        -0.7470   0.2817  -1.3707 C.ar           1 S1                 0.0000
     10 ****        -0.7540  -1.0370  -1.8101 N.2            1 S1                 0.0000
     11 ****         0.4897  -1.4181  -1.7143 C.2            1 S1                 0.0000
     12 ****         1.3632  -0.4634  -1.2473 N.pl3          1 S1                 0.0000
     13 ****         2.8352  -0.6194  -1.0218 C.3            1 S1                 0.0000
     14 ****         3.4883   0.5823  -1.3031 O.3            1 S1                 0.0000
     15 ****         4.5337   0.8284  -0.3588 C.3            1 S1                 0.0000
     16 ****         4.2042   2.1420   0.3794 C.3            1 S1                 0.0000
     17 ****         5.3521   2.6551   1.0228 O.3            1 S1                 0.0000
     18 ****         4.5919  -0.4418   0.5109 C.3            1 S1                 0.0000
     19 ****         5.0363  -0.2612   1.8426 O.3            1 S1                 0.0000
     20 ****         3.1856  -1.0096   0.4190 C.3            1 S1                 0.0000
     21 ****         2.3009  -0.4633   1.3841 O.3            1 S1                 0.0000
     22 ****        -3.4710  -0.7710   0.1652 C.ar           1 S1                 0.0000
     23 ****        -3.4293   0.0509   1.3159 C.ar           1 S1                 0.0000
     24 ****        -3.1881  -0.5028   2.5868 C.ar           1 S1                 0.0000
     25 ****        -2.9951  -1.8891   2.7237 C.ar           1 S1                 0.0000
     26 ****        -3.0524  -2.7191   1.5892 C.ar           1 S1                 0.0000
     27 ****        -3.2941  -2.1701   0.3139 C.ar           1 S1                 0.0000
     28 ****        -3.3686  -3.2420  -1.0410 Cl             1 S1                 0.0000
     29 ****         3.1533  -1.3708  -1.7460 H              1 S1                 0.0000
     30 ****         5.4670   0.9509  -0.9102 H              1 S1                 0.0000
     31 ****         5.2732  -1.1454   0.0301 H              1 S1                 0.0000
     32 ****         3.1738  -2.0955   0.5179 H              1 S1                 0.0000
     33 ****        -5.7162  -0.9867  -1.4141 H              1 S1                 0.0000
     34 ****        -5.4160   0.3870  -2.4706 H              1 S1                 0.0000
     35 ****        -5.7014   0.6451  -0.7505 H              1 S1                 0.0000
     36 ****        -3.3226  -0.8028  -1.9800 H              1 S1                 0.0000
     37 ****        -3.6939   1.9415  -1.3793 H              1 S1                 0.0000
     38 ****         0.1874   3.7182  -0.1297 H              1 S1                 0.0000
     39 ****         0.8049  -2.4169  -1.9792 H              1 S1                 0.0000
     40 ****         3.8692   2.8939  -0.3356 H              1 S1                 0.0000
     41 ****         3.3988   2.0101   1.1015 H              1 S1                 0.0000
     42 ****         5.6577   2.0139   1.6466 H              1 S1                 0.0000
     43 ****         4.3960   0.2643   2.2985 H              1 S1                 0.0000
     44 ****         1.4222  -0.7420   1.1752 H              1 S1                 0.0000
     45 ****        -3.5769   1.1174   1.2291 H              1 S1                 0.0000
     46 ****        -3.1513   0.1370   3.4562 H              1 S1                 0.0000
     47 ****        -2.8088  -2.3159   3.6981 H              1 S1                 0.0000
     48 ****        -2.9115  -3.7843   1.6993 H              1 S1                 0.0000
     49 ****        -2.0082   3.2416  -0.6494 LP             1 S1                 0.0000
     50 ****         1.9172   2.1155  -0.3303 LP             1 S1                 0.0000
     51 ****        -1.5362  -1.5727  -2.1280 LP             1 S1                 0.0000
     52 ****         2.8272   1.3315  -1.2623 LP             1 S1                 0.0000
     53 ****         3.8813   0.5341  -2.2214 LP             1 S1                 0.0000
     54 ****         5.1215   3.5045   1.4975 LP             1 S1                 0.0000
     55 ****         6.0662   2.8348   0.3462 LP             1 S1                 0.0000
     56 ****         5.9206   0.2056   1.8441 LP             1 S1                 0.0000
     57 ****         5.1276  -1.1496   2.2925 LP             1 S1                 0.0000
     58 ****         2.3526   0.5351   1.3627 LP             1 S1                 0.0000
     59 ****         2.5513  -0.7906   2.2953 LP             1 S1                 0.0000
@<TRIPOS>BOND
    1    1    2 1     
    2    1   33 1     
    3    1   34 1     
    4    1   35 1     
    5    2    3 1     
    6    2   22 1     
    7    2   36 1     
    8    3    4 1     
    9    3   37 1     
   10    4    9 ar    
   11    4    5 ar    
   12    5    6 ar    
   13    6    7 ar    
   14    6   38 1     
   15    7    8 ar    
   16    8   12 1     
   17    8    9 ar    
   18    9   10 1     
   19   10   11 2     
   20   11   12 1     
   21   11   39 1     
   22   12   13 1     
   23   13   29 1     
   24   13   20 1     
   25   13   14 1     
   26   14   15 1     
   27   15   30 1     
   28   15   16 1     
   29   15   18 1     
   30   16   17 1     
   31   16   40 1     
   32   16   41 1     
   33   17   42 1     
   34   18   31 1     
   35   18   19 1     
   36   18   20 1     
   37   19   43 1     
   38   20   32 1     
   39   20   21 1     
   40   21   44 1     
   41   22   27 ar    
   42   22   23 ar    
   43   23   24 ar    
   44   23   45 1     
   45   24   25 ar    
   46   24   46 1     
   47   25   26 ar    
   48   25   47 1     
   49   26   27 ar    
   50   26   48 1     
   51   27   28 1     
   52    5   49 1     
   53    7   50 1     
   54   10   51 1     
   55   14   52 1     
   56   14   53 1     
   57   17   54 1     
   58   17   55 1     
   59   19   56 1     
   60   19   57 1     
   61   21   58 1     
   62   21   59 1     
@<TRIPOS>SUBSTRUCTURE
      1 S1             1
@<TRIPOS>SET
LONE_PAIRS      STATIC     ATOMS    <user>   **** ""
11 49 50 51 52 53 54 55 56 57 58 59
DONOR_HYDROGENS      STATIC     ATOMS    <user>   **** ""
4 37 42 43 44
ATOM$BLUE        STATIC     ATOMS    COLORGROUP SYSTEM
11 49 50 51 52 53 54 55 56 57 58 59
ATOM$RED        STATIC     ATOMS    COLORGROUP SYSTEM
4 37 42 43 44
