AV-unprocessed.smi:3291|AV-procd|sdf|12619|dock10
  -GOLD-   2272018553D 1   1.00000     0.00000
 Structure written by MMmdl.
 43 45  0  0  0  0  0  0  0  0  2 V2000
  147.8844  142.0560  153.8989 C   0  0  0  0  0  0  0  0  0  0  0  0
  148.6161  140.7442  153.9149 C   0  0  0  0  0  0  0  0  0  0  0  0
  148.2163  139.7681  153.1188 N   0  0  0  0  0  0  0  0  0  0  0  0
  149.0838  138.7003  153.3598 O   0  0  0  0  0  0  0  0  0  0  0  0
  149.9842  139.0780  154.3020 C   0  0  0  0  0  0  0  0  0  0  0  0
  150.9967  138.0503  154.6857 C   0  0  0  0  0  0  0  0  0  0  0  0
  149.7427  140.3672  154.7033 C   0  0  0  0  0  0  0  0  0  0  0  0
  150.4642  141.2223  155.7212 C   0  0  2  0  0  0  0  0  0  0  0  0
  151.7960  140.5619  156.1186 C   0  0  0  0  0  0  0  0  0  0  0  0
  149.5683  141.5085  156.9415 C   0  0  0  0  0  0  0  0  0  0  0  0
  149.8344  142.8440  157.5164 N   0  3  0  0  0  0  0  0  0  0  0  0
  151.2092  143.0476  158.0219 C   0  0  0  0  0  0  0  0  0  0  0  0
  151.4220  142.1651  159.2386 C   0  0  0  0  0  0  0  0  0  0  0  0
  152.8013  141.9539  159.8197 C   0  0  0  0  0  0  0  0  0  0  0  0
  152.0959  140.8180  159.1182 C   0  0  0  0  0  0  0  0  0  0  0  0
  151.4451  144.5111  158.3655 C   0  0  0  0  0  0  0  0  0  0  0  0
  152.0293  144.9259  159.6975 C   0  0  0  0  0  0  0  0  0  0  0  0
  150.5834  145.2215  159.3853 C   0  0  0  0  0  0  0  0  0  0  0  0
  148.5499  142.8684  153.6070 H   0  0  0  0  0  0  0  0  0  0  0  0
  147.4852  142.2913  154.8856 H   0  0  0  0  0  0  0  0  0  0  0  0
  147.0480  142.0460  153.1987 H   0  0  0  0  0  0  0  0  0  0  0  0
  151.9849  138.4945  154.8007 H   0  0  0  0  0  0  0  0  0  0  0  0
  151.0693  137.2706  153.9269 H   0  0  0  0  0  0  0  0  0  0  0  0
  150.7256  137.5753  155.6285 H   0  0  0  0  0  0  0  0  0  0  0  0
  150.7076  142.1851  155.2700 H   0  0  0  0  0  0  0  0  0  0  0  0
  152.4217  140.3902  155.2419 H   0  0  0  0  0  0  0  0  0  0  0  0
  151.6396  139.5998  156.6059 H   0  0  0  0  0  0  0  0  0  0  0  0
  152.3665  141.1891  156.8038 H   0  0  0  0  0  0  0  0  0  0  0  0
  148.5187  141.4631  156.6468 H   0  0  0  0  0  0  0  0  0  0  0  0
  149.7215  140.7473  157.7048 H   0  0  0  0  0  0  0  0  0  0  0  0
  149.6368  143.5488  156.8205 H   0  0  0  0  0  0  0  0  0  0  0  0
  151.9197  142.7426  157.2516 H   0  0  0  0  0  0  0  0  0  0  0  0
  150.6157  142.2272  159.9678 H   0  0  0  0  0  0  0  0  0  0  0  0
  153.6503  142.4013  159.3070 H   0  0  0  0  0  0  0  0  0  0  0  0
  152.8860  141.9023  160.9032 H   0  0  0  0  0  0  0  0  0  0  0  0
  151.7134  140.0073  159.7351 H   0  0  0  0  0  0  0  0  0  0  0  0
  152.4731  140.5221  158.1411 H   0  0  0  0  0  0  0  0  0  0  0  0
  151.7350  145.1165  157.5081 H   0  0  0  0  0  0  0  0  0  0  0  0
  152.2343  144.1461  160.4286 H   0  0  0  0  0  0  0  0  0  0  0  0
  152.7267  145.7612  159.7001 H   0  0  0  0  0  0  0  0  0  0  0  0
  150.3139  146.2557  159.1810 H   0  0  0  0  0  0  0  0  0  0  0  0
  149.8335  144.6421  159.9195 H   0  0  0  0  0  0  0  0  0  0  0  0
  149.1988  142.9721  158.2907 H   0  0  0  0  0  0  0  0  0  0  0  0
  1  2  1  0  0  0  0
  1 19  1  0  0  0  0
  1 20  1  0  0  0  0
  1 21  1  0  0  0  0
  2  7  1  0  0  0  0
  2  3  2  0  0  0  0
  3  4  1  0  0  0  0
  4  5  1  0  0  0  0
  5  6  1  0  0  0  0
  5  7  2  0  0  0  0
  6 22  1  0  0  0  0
  6 23  1  0  0  0  0
  6 24  1  0  0  0  0
  7  8  1  0  0  0  0
  8  9  1  0  0  0  0
  8 10  1  0  0  0  0
  8 25  1  0  0  0  0
  9 26  1  0  0  0  0
  9 27  1  0  0  0  0
  9 28  1  0  0  0  0
 10 11  1  0  0  0  0
 10 29  1  0  0  0  0
 10 30  1  0  0  0  0
 11 12  1  0  0  0  0
 11 31  1  0  0  0  0
 11 43  1  0  0  0  0
 12 13  1  0  0  0  0
 12 16  1  0  0  0  0
 12 32  1  0  0  0  0
 13 15  1  0  0  0  0
 13 14  1  0  0  0  0
 13 33  1  0  0  0  0
 14 15  1  0  0  0  0
 14 34  1  0  0  0  0
 14 35  1  0  0  0  0
 15 36  1  0  0  0  0
 15 37  1  0  0  0  0
 16 18  1  0  0  0  0
 16 17  1  0  0  0  0
 16 38  1  0  0  0  0
 17 18  1  0  0  0  0
 17 39  1  0  0  0  0
 17 40  1  0  0  0  0
 18 41  1  0  0  0  0
 18 42  1  0  0  0  0
M  CHG  1  11   1
M  END
> <s_m_source_file>
AV-unprocessed.smi

> <i_m_source_file_index>
3291

> <i_lp_mmshare_version>
43012

> <i_f3d_flags>
0

> <s_epik_input>
W0NIM11jMW5vYyhbQ0gzXSljMVtDQEhdKFtDSDNdKVtDSDJdW05IXVtDSF0oW0NIXTJbQ0gyXVtDSDJdMilbQ0hdM1tDSDJdW0NIMl0z

> <s_epik_cmdline>
J2VwaWtfcHl0aG9uJywgJy1waCcsICc3LjAnLCAnLXRuJywgJzgnLCAnLW1hJywgJzIwMCcsICctbWV0YWxfYmluZGluZycsICctaW1hZScsICc8aW5maWxlLm1hZT4nLCAnLW9tYWUnLCAnPG91dGZpbGUubWFlPic=

> <r_lp_tautomer_probability>
1

> <r_epik_Ionization_Penalty>
0.000158108

> <r_epik_Ionization_Penalty_Charging>
0.000158108

> <r_epik_Ionization_Penalty_Neutral>
1.14678e-10

> <r_epik_State_Penalty>
-0

> <r_epik_Charging_Adjusted_Penalty>
0.000158108

> <i_epik_Tot_Q>
1

> <i_epik_Tot_abs_Q>
1

> <r_epik_Metal_State_Penalty>
-0

> <b_epik_Metal_Only>
0

> <s_lp_Force_Field>
OPLS_2005

> <r_lp_Energy>
25.2548

> <b_lp_Chiralities_Consistent>
1

> <s_lp_Variant>
AV-unprocessed.smi:3291-1

> <Gold.Version>
5.8.1

> <Gold.Id.Protein>
6NUR|6NUR_protein|mol2

> <Gold.PLP.Fitness>
46.5164

> <Gold.PLP.PLP>
-42.1212

> <Gold.PLP.part.hbond>
-1.0000

> <Gold.PLP.part.metal>
0.0000

> <Gold.PLP.part.buried>
-7.0728

> <Gold.PLP.part.nonpolar>
-36.9360

> <Gold.PLP.part.repulsive>
2.0831

> <Gold.PLP.ligand.clash>
0.0000

> <Gold.PLP.ligand.torsion>
1.9188

> <Gold.PLP.Chemscore.Hbond>
2.0000

> <Gold.PLP.Chemscore.CHOScore>
0.0000

> <Gold.PLP.Chemscore.Metal>
0.0000

> <Gold.Chemscore.Hbonds>
donor molecule, donor type, donor heavy atom, donor atom, acceptor molecule, acceptor atom, score
      L1  H    11    31       P1  8028  2.00

> <Gold.PLP.Chemscore.Internal.Correction>
2.2329

> <Gold.Rescore>
     Score         DG    S(hbond)    S(metal)    S(lipo)     H(rot)  DE(clash)    DE(int)     intcor
     17.14     -19.72       0.99        0.00     126.18       1.50       0.17       2.41       ----

> <Gold.Chemscore.Fitness>
17.1417

> <Gold.Chemscore.DG>
-19.7204

> <Gold.Chemscore.ZeroCoef>
-5.4800

> <Gold.Chemscore.Hbond>
0.9945

> <Gold.Chemscore.Metal>
0.0000

> <Gold.Chemscore.Lipo>
126.1759

> <Gold.Chemscore.Internal_Hbond>
0.0000

> <Gold.Chemscore.DEClash>
0.1736

> <Gold.Chemscore.DEInternal>
2.4051

> <Gold.Chemscore.Rot>
1.5015

> <Gold.Chemscore.Internal.Correction>
   9.000000E+99

> <Gold.Chemscore.Hbonds>
donor molecule, donor type, donor heavy atom, donor atom, acceptor molecule, acceptor atom, score
      L1  H    11    31       P1  8028  0.99

> <Gold.Chemscore.Hbond.Weighted>
-3.3217

> <Gold.Chemscore.Metal.Weighted>
-0.0000

> <Gold.Chemscore.Lipo.Weighted>
-14.7626

> <Gold.Chemscore.Internal_Hbond.Weighted>
0.0000

> <Gold.Chemscore.DEClash.Weighted>
0.1736

> <Gold.Chemscore.DEInternal.Weighted>
2.4051

> <Gold.Chemscore.Rot.Weighted>
3.8438

> <Gold.Chemscore.Internal.Correction.Weighted>
   9.000000E+99

> <Gold.Protein.RotatedTorsions>
[ 6907 6896 6895 6894 ] final   87.67 input  -60.11 | X-H torsion
[ 7974 7965 7964 7962 ] final  -63.08 input  175.53 | X-H torsion
[ 8008 7997 7996 7995 ] final   45.03 input   59.86 | X-H torsion
[ 10167 10162 10161 10158 ] final  148.73 input  -65.29 | X-H torsion
[ 10718 10713 10712 10709 ] final    1.67 input   66.30 | X-H torsion
[ 10763 10752 10751 10750 ] final   33.63 input  -60.55 | X-H torsion
[ 11005 11000 10999 10996 ] final   73.70 input  -57.11 | X-H torsion

> <Gold.Protein.ActiveResidues>
 VAL166  LYS551  ARG553  GLY616  TRP617  ASP618  TYR619  PRO620  LYS621  CYS622 
 ASP623  PHE694  ASN695  SER759  ASP760  ASP761  ALA762  ILE779  LEU786  VAL792 
 PHE793  MET794  SER795  GLU796  ALA797  LYS798  CYS799  TRP800  GLU811  SER814 

> <Gold.Protein.RotatedAtoms>
  152.5414  134.2241  159.8798 H   0  0  0  0  0  0  0  0  0  0  0  0  # atno 6907 bound_to 6896
  151.2216  133.4492  159.2608 H   0  0  0  0  0  0  0  0  0  0  0  0  # atno 6908 bound_to 6896
  151.0800  134.9865  159.8407 H   0  0  0  0  0  0  0  0  0  0  0  0  # atno 6909 bound_to 6896
  145.7835  140.8749  143.0318 H   0  0  0  0  0  0  0  0  0  0  0  0  # atno 7974 bound_to 7965
  155.3291  140.3401  155.4240 H   0  0  0  0  0  0  0  0  0  0  0  0  # atno 8008 bound_to 7997
  156.1871  140.1684  156.8201 H   0  0  0  0  0  0  0  0  0  0  0  0  # atno 8009 bound_to 7997
  154.5398  140.0727  156.8474 H   0  0  0  0  0  0  0  0  0  0  0  0  # atno 8010 bound_to 7997
  139.4871  144.5657  151.7149 H   0  0  0  0  0  0  0  0  0  0  0  0  # atno 10167 bound_to 10162
  156.8517  130.5556  149.5669 H   0  0  0  0  0  0  0  0  0  0  0  0  # atno 10718 bound_to 10713
  153.0202  135.6382  154.1542 H   0  0  0  0  0  0  0  0  0  0  0  0  # atno 10763 bound_to 10752
  154.1277  135.2842  155.3194 H   0  0  0  0  0  0  0  0  0  0  0  0  # atno 10764 bound_to 10752
  154.6217  135.5522  153.7644 H   0  0  0  0  0  0  0  0  0  0  0  0  # atno 10765 bound_to 10752
  139.9427  134.7370  156.1059 H   0  0  0  0  0  0  0  0  0  0  0  0  # atno 11005 bound_to 11000
  144.6793  140.0022  143.7484 LP  0  0  0  0  0  0  0  0  0  0  0  0  # atno 17320 bound_to 7965
  146.0050  139.3122  143.0905 LP  0  0  0  0  0  0  0  0  0  0  0  0  # atno 17321 bound_to 7965
  140.5235  144.0842  150.6030 LP  0  0  0  0  0  0  0  0  0  0  0  0  # atno 17342 bound_to 10162
  140.3808  143.2803  152.0172 LP  0  0  0  0  0  0  0  0  0  0  0  0  # atno 17343 bound_to 10162
  156.0825  130.5831  150.9588 LP  0  0  0  0  0  0  0  0  0  0  0  0  # atno 17370 bound_to 10713
  157.6300  131.0922  150.8460 LP  0  0  0  0  0  0  0  0  0  0  0  0  # atno 17371 bound_to 10713
  141.1067  133.6657  156.2880 LP  0  0  0  0  0  0  0  0  0  0  0  0  # atno 17394 bound_to 11000
  140.5912  134.5649  157.5500 LP  0  0  0  0  0  0  0  0  0  0  0  0  # atno 17395 bound_to 11000

$$$$
