AV-unprocessed.smi:72|AV-procd|sdf|669|dock7
  -GOLD-   2262016573D 1   1.00000     0.00000
 Structure written by MMmdl.
 29 30  0  0  0  0  0  0  0  0  1 V2000
  144.7542  138.2263  153.8664 N   0  0  0  0  0  0  0  0  0  0  0  0
  145.8814  138.7748  154.1501 C   0  0  0  0  0  0  0  0  0  0  0  0
  146.9751  138.1223  154.7375 N   0  0  0  0  0  0  0  0  0  0  0  0
  148.0476  138.8071  154.9905 C   0  0  0  0  0  0  0  0  0  0  0  0
  148.1450  140.2345  154.7085 N   0  0  0  0  0  0  0  0  0  0  0  0
  149.4058  141.0421  154.9772 C   0  0  2  0  0  0  0  0  0  0  0  0
  150.5205  140.4012  154.4328 O   0  0  0  0  0  0  0  0  0  0  0  0
  151.1385  139.5933  155.4267 C   0  0  1  0  0  0  0  0  0  0  0  0
  152.5838  139.2749  155.0170 C   0  0  0  0  0  0  0  0  0  0  0  0
  153.2743  138.6956  156.1035 O   0  0  0  0  0  0  0  0  0  0  0  0
  151.0301  140.4803  156.6678 C   0  0  2  0  0  0  0  0  0  0  0  0
  151.0372  139.6892  157.8394 O   0  0  0  0  0  0  0  0  0  0  0  0
  149.6800  141.1732  156.4929 C   0  0  1  0  0  0  0  0  0  0  0  0
  149.7711  142.5259  156.8899 O   0  0  0  0  0  0  0  0  0  0  0  0
  147.0683  140.8904  154.0605 C   0  0  0  0  0  0  0  0  0  0  0  0
  147.1190  142.0765  153.7351 O   0  0  0  0  0  0  0  0  0  0  0  0
  145.9758  140.1332  153.8227 N   0  0  0  0  0  0  0  0  0  0  0  0
  149.2386  141.9910  154.4639 H   0  0  0  0  0  0  0  0  0  0  0  0
  150.5629  138.6776  155.5763 H   0  0  0  0  0  0  0  0  0  0  0  0
  151.8463  141.2048  156.6879 H   0  0  0  0  0  0  0  0  0  0  0  0
  148.8984  140.6693  157.0641 H   0  0  0  0  0  0  0  0  0  0  0  0
  144.1281  138.8980  153.4475 H   0  0  0  0  0  0  0  0  0  0  0  0
  148.9352  138.3489  155.4266 H   0  0  0  0  0  0  0  0  0  0  0  0
  152.6156  138.6153  154.1494 H   0  0  0  0  0  0  0  0  0  0  0  0
  153.1080  140.1922  154.7475 H   0  0  0  0  0  0  0  0  0  0  0  0
  152.7004  138.6862  156.8539 H   0  0  0  0  0  0  0  0  0  0  0  0
  151.4619  138.8683  157.6414 H   0  0  0  0  0  0  0  0  0  0  0  0
  149.4202  143.0638  156.1960 H   0  0  0  0  0  0  0  0  0  0  0  0
  145.1894  140.5794  153.3738 H   0  0  0  0  0  0  0  0  0  0  0  0
  1  2  2  0  0  0  0
  1 22  1  0  0  0  0
  2 17  1  0  0  0  0
  2  3  1  0  0  0  0
  3  4  2  0  0  0  0
  4  5  1  0  0  0  0
  4 23  1  0  0  0  0
  5  6  1  0  0  0  0
  5 15  1  0  0  0  0
  6 18  1  0  0  0  0
  6 13  1  0  0  0  0
  6  7  1  0  0  0  0
  7  8  1  0  0  0  0
  8 19  1  0  0  0  0
  8  9  1  0  0  0  0
  8 11  1  0  0  0  0
  9 10  1  0  0  0  0
  9 24  1  0  0  0  0
  9 25  1  0  0  0  0
 10 26  1  0  0  0  0
 11 20  1  0  0  0  0
 11 12  1  0  0  0  0
 11 13  1  0  0  0  0
 12 27  1  0  0  0  0
 13 21  1  0  0  0  0
 13 14  1  0  0  0  0
 14 28  1  0  0  0  0
 15 16  2  0  0  0  0
 15 17  1  0  0  0  0
 17 29  1  0  0  0  0
M  END
> <s_m_source_file>
AV-unprocessed.smi

> <i_m_source_file_index>
72

> <i_lp_mmshare_version>
43012

> <i_f3d_flags>
0

> <s_epik_input>
W05IMl1jMW5bY0hdbihjKD1PKW4xKVtDQEBIXTJPW0NASF0oW0NIMl1bT0hdKVtDQEBIXShbT0hdKVtDQEhdMltPSF0=

> <s_epik_cmdline>
J2VwaWtfcHl0aG9uJywgJy1waCcsICc3LjAnLCAnLXRuJywgJzgnLCAnLW1hJywgJzIwMCcsICctbWV0YWxfYmluZGluZycsICctaW1hZScsICc8aW5maWxlLm1hZT4nLCAnLW9tYWUnLCAnPG91dGZpbGUubWFlPic=

> <r_lp_tautomer_probability>
7.17554e-07

> <r_epik_Ionization_Penalty>
0.0066451

> <r_epik_Ionization_Penalty_Charging>
0.00663793

> <r_epik_Ionization_Penalty_Neutral>
7.17052e-06

> <r_epik_State_Penalty>
0.419231

> <r_epik_Charging_Adjusted_Penalty>
0.425868

> <i_epik_Tot_Q>
0

> <i_epik_Tot_abs_Q>
0

> <r_epik_Metal_State_Penalty>
1.44144

> <b_epik_Metal_Only>
0

> <s_epik_Chemistry_Notes>
This compound contains an acetal/aminal-like group ( X-CH(R)-Y where X, Y are N, S, or O) that may be acid/base labile, releasing an aldehyde.

> <s_lp_Force_Field>
OPLS_2005

> <r_lp_Energy>
35.5906

> <b_lp_Chiralities_Consistent>
1

> <s_lp_Variant>
AV-unprocessed.smi:72-7

> <Gold.Version>
5.8.1

> <Gold.Id.Protein>
6NUR|6NUR_protein|mol2

> <Gold.PLP.Fitness>
36.2174

> <Gold.PLP.PLP>
-21.6353

> <Gold.PLP.part.hbond>
-4.8157

> <Gold.PLP.part.metal>
0.0000

> <Gold.PLP.part.buried>
-2.1606

> <Gold.PLP.part.nonpolar>
-14.8484

> <Gold.PLP.part.repulsive>
0.3646

> <Gold.PLP.ligand.clash>
0.0000

> <Gold.PLP.ligand.torsion>
0.1337

> <Gold.PLP.Chemscore.Hbond>
4.9360

> <Gold.PLP.Chemscore.CHOScore>
0.0000

> <Gold.PLP.Chemscore.Metal>
0.0000

> <Gold.Chemscore.Hbonds>
donor molecule, donor type, donor heavy atom, donor atom, acceptor molecule, acceptor atom, score
      L1  H     1    22       P1 10175  1.00
      L1  H    14    28       P1  8028  0.94
      L1  H    17    29       P1 10175  1.00
      P1  H  7989  7998       L1     7  0.98
      P1  H  7997  8010       L1    10  0.88

> <Gold.PLP.Chemscore.Internal.Correction>
0.0414

> <Gold.Rescore>
     Score         DG    S(hbond)    S(metal)    S(lipo)     H(rot)  DE(clash)    DE(int)     intcor
     12.85     -13.40       4.68        0.00      22.79       4.06       0.03       0.52       ----

> <Gold.Chemscore.Fitness>
12.8543

> <Gold.Chemscore.DG>
-13.3965

> <Gold.Chemscore.ZeroCoef>
-5.4800

> <Gold.Chemscore.Hbond>
4.6838

> <Gold.Chemscore.Metal>
0.0000

> <Gold.Chemscore.Lipo>
22.7878

> <Gold.Chemscore.Internal_Hbond>
0.0000

> <Gold.Chemscore.DEClash>
0.0270

> <Gold.Chemscore.DEInternal>
0.5152

> <Gold.Chemscore.Rot>
4.0600

> <Gold.Chemscore.Internal.Correction>
   9.000000E+99

> <Gold.Chemscore.Hbonds>
donor molecule, donor type, donor heavy atom, donor atom, acceptor molecule, acceptor atom, score
      L1  H     1    22       P1 10175  0.99
      L1  H    14    28       P1  8028  0.91
      L1  H    17    29       P1 10175  0.91
      P1  H  7989  7998       L1     7  0.54
      P1  H  7997  8010       L1    10  0.07

> <Gold.Chemscore.Hbond.Weighted>
-15.6439

> <Gold.Chemscore.Metal.Weighted>
-0.0000

> <Gold.Chemscore.Lipo.Weighted>
-2.6662

> <Gold.Chemscore.Internal_Hbond.Weighted>
0.0000

> <Gold.Chemscore.DEClash.Weighted>
0.0270

> <Gold.Chemscore.DEInternal.Weighted>
0.5152

> <Gold.Chemscore.Rot.Weighted>
10.3936

> <Gold.Chemscore.Internal.Correction.Weighted>
   9.000000E+99

> <Gold.Protein.RotatedTorsions>
[ 6907 6896 6895 6894 ] final  138.58 input  -60.11 | X-H torsion
[ 7974 7965 7964 7962 ] final  139.43 input  175.53 | X-H torsion
[ 8008 7997 7996 7995 ] final   69.28 input   59.86 | X-H torsion
[ 10167 10162 10161 10158 ] final   32.01 input  -65.29 | X-H torsion
[ 10718 10713 10712 10709 ] final  153.21 input   66.30 | X-H torsion
[ 10763 10752 10751 10750 ] final  151.79 input  -60.55 | X-H torsion
[ 11005 11000 10999 10996 ] final  142.59 input  -57.11 | X-H torsion

> <Gold.Protein.ActiveResidues>
 VAL166  LYS551  ARG553  GLY616  TRP617  ASP618  TYR619  PRO620  LYS621  CYS622 
 ASP623  PHE694  ASN695  SER759  ASP760  ASP761  ALA762  ILE779  LEU786  VAL792 
 PHE793  MET794  SER795  GLU796  ALA797  LYS798  CYS799  TRP800  GLU811  SER814 

> <Gold.Protein.RotatedAtoms>
  152.2649  133.5330  159.5403 H   0  0  0  0  0  0  0  0  0  0  0  0  # atno 6907 bound_to 6896
  150.7138  134.0778  159.3896 H   0  0  0  0  0  0  0  0  0  0  0  0  # atno 6908 bound_to 6896
  151.8695  135.0495  160.0528 H   0  0  0  0  0  0  0  0  0  0  0  0  # atno 6909 bound_to 6896
  144.9280  139.5083  143.5631 H   0  0  0  0  0  0  0  0  0  0  0  0  # atno 7974 bound_to 7965
  155.7212  140.3493  155.5017 H   0  0  0  0  0  0  0  0  0  0  0  0  # atno 8008 bound_to 7997
  155.9268  140.1077  157.1186 H   0  0  0  0  0  0  0  0  0  0  0  0  # atno 8009 bound_to 7997
  154.4078  140.1239  156.4737 H   0  0  0  0  0  0  0  0  0  0  0  0  # atno 8010 bound_to 7997
  140.4537  144.1010  150.6197 H   0  0  0  0  0  0  0  0  0  0  0  0  # atno 10167 bound_to 10162
  157.2477  131.0772  151.1751 H   0  0  0  0  0  0  0  0  0  0  0  0  # atno 10718 bound_to 10713
  154.1095  135.2840  155.3234 H   0  0  0  0  0  0  0  0  0  0  0  0  # atno 10763 bound_to 10752
  154.6500  135.5372  153.7893 H   0  0  0  0  0  0  0  0  0  0  0  0  # atno 10764 bound_to 10752
  153.0350  135.6507  154.1254 H   0  0  0  0  0  0  0  0  0  0  0  0  # atno 10765 bound_to 10752
  140.0488  134.9266  157.0980 H   0  0  0  0  0  0  0  0  0  0  0  0  # atno 11005 bound_to 11000
  146.3234  139.8208  142.8927 LP  0  0  0  0  0  0  0  0  0  0  0  0  # atno 17320 bound_to 7965
  145.3189  141.0239  143.3512 LP  0  0  0  0  0  0  0  0  0  0  0  0  # atno 17321 bound_to 7965
  140.4176  143.2627  151.9755 LP  0  0  0  0  0  0  0  0  0  0  0  0  # atno 17342 bound_to 10162
  139.4799  144.5859  151.7853 LP  0  0  0  0  0  0  0  0  0  0  0  0  # atno 17343 bound_to 10162
  157.3311  130.6986  149.6325 LP  0  0  0  0  0  0  0  0  0  0  0  0  # atno 17370 bound_to 10713
  155.9667  130.4307  150.4888 LP  0  0  0  0  0  0  0  0  0  0  0  0  # atno 17371 bound_to 10713
  140.3950  134.2144  155.7165 LP  0  0  0  0  0  0  0  0  0  0  0  0  # atno 17394 bound_to 11000
  141.1920  133.8182  157.0855 LP  0  0  0  0  0  0  0  0  0  0  0  0  # atno 17395 bound_to 11000

$$$$
