AV-unprocessed.smi:1301|AV-procd|sdf|5424|dock2
  -GOLD-   22720 4583D 1   1.00000     0.00000
 Structure written by MMmdl.
 44 45  0  0  0  0  0  0  0  0  3 V2000
  145.6759  133.6672  162.4215 C   0  0  0  0  0  0  0  0  0  0  0  0
  146.6482  134.4648  161.6221 C   0  0  0  0  0  0  0  0  0  0  0  0
  147.2177  135.6924  161.8089 C   0  0  0  0  0  0  0  0  0  0  0  0
  148.0532  135.8392  160.6681 C   0  0  0  0  0  0  0  0  0  0  0  0
  148.8235  136.9003  160.3832 N   0  5  0  0  0  0  0  0  0  0  0  0
  149.5969  136.9013  159.2739 C   0  0  0  0  0  0  0  0  0  0  0  0
  149.7855  135.9518  158.5100 O   0  0  0  0  0  0  0  0  0  0  0  0
  150.1821  138.0826  159.0314 N   0  0  0  0  0  0  0  0  0  0  0  0
  151.0445  138.4064  157.8954 C   0  0  2  0  0  0  0  0  0  0  0  0
  152.3224  139.1090  158.3837 C   0  0  0  0  0  0  0  0  0  0  0  0
  152.0321  140.5277  158.9083 C   0  0  0  0  0  0  0  0  0  0  0  0
  151.3386  141.3534  157.8861 N   0  3  2  0  0  0  0  0  0  0  0  0
  151.1652  142.7620  158.3264 C   0  0  0  0  0  0  0  0  0  0  0  0
  152.4814  143.4173  158.7995 C   0  0  0  0  0  0  0  0  0  0  0  0
  152.7864  143.0953  160.2722 C   0  0  0  0  0  0  0  0  0  0  0  0
  152.4360  144.9373  158.5822 C   0  0  0  0  0  0  0  0  0  0  0  0
  150.0714  140.7180  157.4360 C   0  0  0  0  0  0  0  0  0  0  0  0
  150.3273  139.3095  156.8728 C   0  0  0  0  0  0  0  0  0  0  0  0
  147.9840  134.8001  159.8530 N   0  0  0  0  0  0  0  0  0  0  0  0
  147.0891  133.9114  160.4605 O   0  0  0  0  0  0  0  0  0  0  0  0
  144.6580  134.0155  162.2475 H   0  0  0  0  0  0  0  0  0  0  0  0
  145.8872  133.7554  163.4873 H   0  0  0  0  0  0  0  0  0  0  0  0
  145.7228  132.6110  162.1552 H   0  0  0  0  0  0  0  0  0  0  0  0
  147.0654  136.3746  162.6317 H   0  0  0  0  0  0  0  0  0  0  0  0
  150.0036  138.8229  159.6941 H   0  0  0  0  0  0  0  0  0  0  0  0
  151.3299  137.4714  157.4099 H   0  0  0  0  0  0  0  0  0  0  0  0
  152.8079  138.5149  159.1590 H   0  0  0  0  0  0  0  0  0  0  0  0
  153.0346  139.1718  157.5599 H   0  0  0  0  0  0  0  0  0  0  0  0
  151.4251  140.4828  159.8141 H   0  0  0  0  0  0  0  0  0  0  0  0
  152.9749  141.0012  159.1849 H   0  0  0  0  0  0  0  0  0  0  0  0
  150.7174  143.3372  157.5142 H   0  0  0  0  0  0  0  0  0  0  0  0
  150.4520  142.8008  159.1512 H   0  0  0  0  0  0  0  0  0  0  0  0
  153.3074  143.0415  158.1967 H   0  0  0  0  0  0  0  0  0  0  0  0
  151.9907  143.4482  160.9288 H   0  0  0  0  0  0  0  0  0  0  0  0
  153.7147  143.5696  160.5924 H   0  0  0  0  0  0  0  0  0  0  0  0
  152.9001  142.0229  160.4320 H   0  0  0  0  0  0  0  0  0  0  0  0
  151.6386  145.3992  159.1652 H   0  0  0  0  0  0  0  0  0  0  0  0
  152.2649  145.1801  157.5331 H   0  0  0  0  0  0  0  0  0  0  0  0
  153.3759  145.4053  158.8766 H   0  0  0  0  0  0  0  0  0  0  0  0
  149.3686  140.6698  158.2693 H   0  0  0  0  0  0  0  0  0  0  0  0
  149.5968  141.3206  156.6630 H   0  0  0  0  0  0  0  0  0  0  0  0
  150.9406  139.3902  155.9743 H   0  0  0  0  0  0  0  0  0  0  0  0
  149.3866  138.8605  156.5526 H   0  0  0  0  0  0  0  0  0  0  0  0
  151.9539  141.3800  157.0858 H   0  0  0  0  0  0  0  0  0  0  0  0
  1  2  1  0  0  0  0
  1 21  1  0  0  0  0
  1 22  1  0  0  0  0
  1 23  1  0  0  0  0
  2 20  1  0  0  0  0
  2  3  2  0  0  0  0
  3  4  1  0  0  0  0
  3 24  1  0  0  0  0
  4  5  1  0  0  0  0
  4 19  2  0  0  0  0
  5  6  1  0  0  0  0
  6  7  2  0  0  0  0
  6  8  1  0  0  0  0
  8  9  1  0  0  0  0
  8 25  1  0  0  0  0
  9 18  1  0  0  0  0
  9 10  1  0  0  0  0
  9 26  1  0  0  0  0
 10 11  1  0  0  0  0
 10 27  1  0  0  0  0
 10 28  1  0  0  0  0
 11 12  1  0  0  0  0
 11 29  1  0  0  0  0
 11 30  1  0  0  0  0
 12 13  1  0  0  0  0
 12 17  1  0  0  0  0
 12 44  1  0  0  0  0
 13 14  1  0  0  0  0
 13 31  1  0  0  0  0
 13 32  1  0  0  0  0
 14 15  1  0  0  0  0
 14 16  1  0  0  0  0
 14 33  1  0  0  0  0
 15 34  1  0  0  0  0
 15 35  1  0  0  0  0
 15 36  1  0  0  0  0
 16 37  1  0  0  0  0
 16 38  1  0  0  0  0
 16 39  1  0  0  0  0
 17 18  1  0  0  0  0
 17 40  1  0  0  0  0
 17 41  1  0  0  0  0
 18 42  1  0  0  0  0
 18 43  1  0  0  0  0
 19 20  1  0  0  0  0
M  CHG  1   5  -1
M  CHG  1  12   1
M  END
> <s_m_source_file>
AV-unprocessed.smi

> <i_m_source_file_index>
1301

> <i_lp_mmshare_version>
43012

> <i_f3d_flags>
0

> <s_epik_input>
W0NIM11jMVtjSF1jKG5vMSlbTkhdQyg9TylbTkhdW0NIXTJbQ0gyXVtDSDJdTihbQ0gyXVtDSDJdMilbQ0gyXVtDSF0oW0NIM10pW0NIM10=

> <s_epik_cmdline>
J2VwaWtfcHl0aG9uJywgJy1waCcsICc3LjAnLCAnLXRuJywgJzgnLCAnLW1hJywgJzIwMCcsICctbWV0YWxfYmluZGluZycsICctaW1hZScsICc8aW5maWxlLm1hZT4nLCAnLW9tYWUnLCAnPG91dGZpbGUubWFlPic=

> <r_epik_Ionization_Penalty>
6.28597

> <r_epik_Ionization_Penalty_Charging>
6.28587

> <r_epik_Ionization_Penalty_Neutral>
9.69304e-05

> <r_epik_State_Penalty>
6.28524

> <r_epik_Charging_Adjusted_Penalty>
12.5711

> <i_epik_Tot_Q>
0

> <i_epik_Tot_abs_Q>
2

> <r_epik_Metal_State_Penalty>
2.21973

> <b_epik_Metal_Only>
1

> <s_lp_Force_Field>
OPLS_2005

> <r_lp_Energy>
6.70583

> <b_lp_Chiralities_Consistent>
1

> <s_lp_Variant>
AV-unprocessed.smi:1301-4

> <Gold.Version>
5.8.1

> <Gold.Id.Protein>
6NUR|6NUR_protein|mol2

> <Gold.PLP.Fitness>
43.9138

> <Gold.PLP.PLP>
-37.3018

> <Gold.PLP.part.hbond>
-2.0000

> <Gold.PLP.part.metal>
0.0000

> <Gold.PLP.part.buried>
-6.1335

> <Gold.PLP.part.nonpolar>
-29.8506

> <Gold.PLP.part.repulsive>
0.2774

> <Gold.PLP.ligand.clash>
0.0000

> <Gold.PLP.ligand.torsion>
0.4700

> <Gold.PLP.Chemscore.Hbond>
2.4400

> <Gold.PLP.Chemscore.CHOScore>
0.0000

> <Gold.PLP.Chemscore.Metal>
0.0000

> <Gold.Chemscore.Hbonds>
donor molecule, donor type, donor heavy atom, donor atom, acceptor molecule, acceptor atom, score
      P1  H  6896  6909       L1     7  1.00
      P1  H  6931  6943       L1     5  1.47

> <Gold.PLP.Chemscore.Internal.Correction>
0.2319

> <Gold.Rescore>
     Score         DG    S(hbond)    S(metal)    S(lipo)     H(rot)  DE(clash)    DE(int)     intcor
     16.41     -18.96       1.78        0.00      95.13       1.41       0.16       2.39       ----

> <Gold.Chemscore.Fitness>
16.4064

> <Gold.Chemscore.DG>
-18.9626

> <Gold.Chemscore.ZeroCoef>
-5.4800

> <Gold.Chemscore.Hbond>
1.7821

> <Gold.Chemscore.Metal>
0.0000

> <Gold.Chemscore.Lipo>
95.1322

> <Gold.Chemscore.Internal_Hbond>
0.0000

> <Gold.Chemscore.DEClash>
0.1634

> <Gold.Chemscore.DEInternal>
2.3928

> <Gold.Chemscore.Rot>
1.4063

> <Gold.Chemscore.Internal.Correction>
   9.000000E+99

> <Gold.Chemscore.Hbonds>
donor molecule, donor type, donor heavy atom, donor atom, acceptor molecule, acceptor atom, score
      P1  H  6896  6909       L1     7  0.58
      P1  H  6931  6943       L1     5  0.63

> <Gold.Chemscore.Hbond.Weighted>
-5.9523

> <Gold.Chemscore.Metal.Weighted>
-0.0000

> <Gold.Chemscore.Lipo.Weighted>
-11.1305

> <Gold.Chemscore.Internal_Hbond.Weighted>
0.0000

> <Gold.Chemscore.DEClash.Weighted>
0.1634

> <Gold.Chemscore.DEInternal.Weighted>
2.3928

> <Gold.Chemscore.Rot.Weighted>
3.6002

> <Gold.Chemscore.Internal.Correction.Weighted>
   9.000000E+99

> <Gold.Protein.RotatedTorsions>
[ 6907 6896 6895 6894 ] final   47.99 input  -60.11 | X-H torsion
[ 7974 7965 7964 7962 ] final  149.41 input  175.53 | X-H torsion
[ 8008 7997 7996 7995 ] final -133.39 input   59.86 | X-H torsion
[ 10167 10162 10161 10158 ] final   79.51 input  -65.29 | X-H torsion
[ 10718 10713 10712 10709 ] final  124.42 input   66.30 | X-H torsion
[ 10763 10752 10751 10750 ] final  -28.46 input  -60.55 | X-H torsion
[ 11005 11000 10999 10996 ] final  153.82 input  -57.11 | X-H torsion

> <Gold.Protein.ActiveResidues>
 VAL166  LYS551  ARG553  GLY616  TRP617  ASP618  TYR619  PRO620  LYS621  CYS622 
 ASP623  PHE694  ASN695  SER759  ASP760  ASP761  ALA762  ILE779  LEU786  VAL792 
 PHE793  MET794  SER795  GLU796  ALA797  LYS798  CYS799  TRP800  GLU811  SER814 

> <Gold.Protein.RotatedAtoms>
  152.2744  134.7898  160.0408 H   0  0  0  0  0  0  0  0  0  0  0  0  # atno 6907 bound_to 6896
  151.8499  133.3433  159.3678 H   0  0  0  0  0  0  0  0  0  0  0  0  # atno 6908 bound_to 6896
  150.7164  134.5237  159.5710 H   0  0  0  0  0  0  0  0  0  0  0  0  # atno 6909 bound_to 6896
  144.8440  139.6277  143.6004 H   0  0  0  0  0  0  0  0  0  0  0  0  # atno 7974 bound_to 7965
  155.3447  140.0474  157.3045 H   0  0  0  0  0  0  0  0  0  0  0  0  # atno 8008 bound_to 7997
  154.5258  140.2240  155.8857 H   0  0  0  0  0  0  0  0  0  0  0  0  # atno 8009 bound_to 7997
  156.1738  140.3090  155.9028 H   0  0  0  0  0  0  0  0  0  0  0  0  # atno 8010 bound_to 7997
  139.9596  144.5970  150.8084 H   0  0  0  0  0  0  0  0  0  0  0  0  # atno 10167 bound_to 10162
  157.5586  131.1090  150.8578 H   0  0  0  0  0  0  0  0  0  0  0  0  # atno 10718 bound_to 10713
  153.7487  135.6927  153.4950 H   0  0  0  0  0  0  0  0  0  0  0  0  # atno 10763 bound_to 10752
  153.2019  135.4433  155.0275 H   0  0  0  0  0  0  0  0  0  0  0  0  # atno 10764 bound_to 10752
  154.8195  135.3415  154.7008 H   0  0  0  0  0  0  0  0  0  0  0  0  # atno 10765 bound_to 10752
  140.1432  134.8725  157.2359 H   0  0  0  0  0  0  0  0  0  0  0  0  # atno 11005 bound_to 11000
  146.2728  139.6677  142.9284 LP  0  0  0  0  0  0  0  0  0  0  0  0  # atno 17320 bound_to 7965
  145.4636  141.0434  143.2738 LP  0  0  0  0  0  0  0  0  0  0  0  0  # atno 17321 bound_to 7965
  140.7557  143.3052  151.2980 LP  0  0  0  0  0  0  0  0  0  0  0  0  # atno 17342 bound_to 10162
  139.6564  144.0268  152.2663 LP  0  0  0  0  0  0  0  0  0  0  0  0  # atno 17343 bound_to 10162
  156.9082  130.5271  149.5281 LP  0  0  0  0  0  0  0  0  0  0  0  0  # atno 17370 bound_to 10713
  156.0642  130.5688  150.9254 LP  0  0  0  0  0  0  0  0  0  0  0  0  # atno 17371 bound_to 10713
  140.2696  134.3476  155.7378 LP  0  0  0  0  0  0  0  0  0  0  0  0  # atno 17394 bound_to 11000
  141.2189  133.7415  156.9202 LP  0  0  0  0  0  0  0  0  0  0  0  0  # atno 17395 bound_to 11000

$$$$
