AV-unprocessed.smi:1492|AV-procd|sdf|6039|dock5
  -GOLD-   22720 6143D 1   1.00000     0.00000
 Structure written by MMmdl.
 53 54  0  0  0  0  0  0  0  0  2 V2000
  143.0170  137.4631  153.4433 C   0  0  0  0  0  0  0  0  0  0  0  0
  143.8943  136.3016  152.9423 C   0  0  0  0  0  0  0  0  0  0  0  0
  145.4272  136.4616  153.1844 C   0  0  2  0  0  0  0  0  0  0  0  0
  145.6434  136.5672  154.7171 C   0  0  0  0  0  0  0  0  0  0  0  0
  145.9204  137.7740  152.4991 C   0  0  0  0  0  0  0  0  0  0  0  0
  147.3265  138.0750  152.7615 N   0  0  0  0  0  0  0  0  0  0  0  0
  147.7923  139.1215  153.4603 C   0  0  0  0  0  0  0  0  0  0  0  0
  147.0683  139.9770  153.9682 O   0  0  0  0  0  0  0  0  0  0  0  0
  149.3123  139.2243  153.5902 C   0  0  0  0  0  0  0  0  0  0  0  0
  149.8147  140.1557  154.6919 C   0  0  0  0  0  0  0  0  0  0  0  0
  150.7026  139.7608  155.6508 C   0  0  0  0  0  0  0  0  0  0  0  0
  151.2737  138.3550  155.7149 C   0  0  0  0  0  0  0  0  0  0  0  0
  151.1452  140.6399  156.6491 N   0  0  0  0  0  0  0  0  0  0  0  0
  150.6952  141.8513  156.6549 C   0  0  0  0  0  0  0  0  0  0  0  0
  151.0959  142.8962  157.6749 C   0  0  0  0  0  0  0  0  0  0  0  0
  149.7876  142.3178  155.7052 N   0  0  0  0  0  0  0  0  0  0  0  0
  149.3140  141.5440  154.7033 C   0  0  0  0  0  0  0  0  0  0  0  0
  148.5325  142.0084  153.8743 O   0  0  0  0  0  0  0  0  0  0  0  0
  146.1688  135.2655  152.6409 N   0  3  0  0  0  0  0  0  0  0  0  0
  146.3627  134.1325  153.5900 C   0  0  0  0  0  0  0  0  0  0  0  0
  147.3108  133.0835  152.9877 C   0  0  0  0  0  0  0  0  0  0  0  0
  146.7766  132.6125  151.7587 O   0  0  0  0  0  0  0  0  0  0  0  0
  146.6553  133.6575  150.8040 C   0  0  0  0  0  0  0  0  0  0  0  0
  145.6947  134.7384  151.3295 C   0  0  0  0  0  0  0  0  0  0  0  0
  149.4736  143.2759  155.7577 H   0  0  0  0  0  0  0  0  0  0  0  0
  141.9665  137.2638  153.2309 H   0  0  0  0  0  0  0  0  0  0  0  0
  143.2712  138.4033  152.9547 H   0  0  0  0  0  0  0  0  0  0  0  0
  143.1070  137.6075  154.5199 H   0  0  0  0  0  0  0  0  0  0  0  0
  143.5336  135.3716  153.3807 H   0  0  0  0  0  0  0  0  0  0  0  0
  143.7029  136.1864  151.8747 H   0  0  0  0  0  0  0  0  0  0  0  0
  144.9413  137.2633  155.1773 H   0  0  0  0  0  0  0  0  0  0  0  0
  146.6405  136.9309  154.9660 H   0  0  0  0  0  0  0  0  0  0  0  0
  145.5111  135.6054  155.2132 H   0  0  0  0  0  0  0  0  0  0  0  0
  145.7431  137.7450  151.4236 H   0  0  0  0  0  0  0  0  0  0  0  0
  145.3599  138.6319  152.8686 H   0  0  0  0  0  0  0  0  0  0  0  0
  148.0052  137.4318  152.3786 H   0  0  0  0  0  0  0  0  0  0  0  0
  149.7182  138.2208  153.7264 H   0  0  0  0  0  0  0  0  0  0  0  0
  149.7189  139.5540  152.6338 H   0  0  0  0  0  0  0  0  0  0  0  0
  150.4842  137.6304  155.9152 H   0  0  0  0  0  0  0  0  0  0  0  0
  152.0174  138.2654  156.5075 H   0  0  0  0  0  0  0  0  0  0  0  0
  151.7571  138.0913  154.7742 H   0  0  0  0  0  0  0  0  0  0  0  0
  152.1724  143.0638  157.6367 H   0  0  0  0  0  0  0  0  0  0  0  0
  150.8369  142.5599  158.6792 H   0  0  0  0  0  0  0  0  0  0  0  0
  150.5958  143.8488  157.4944 H   0  0  0  0  0  0  0  0  0  0  0  0
  146.7894  134.4670  154.5332 H   0  0  0  0  0  0  0  0  0  0  0  0
  145.4071  133.6595  153.8175 H   0  0  0  0  0  0  0  0  0  0  0  0
  148.3076  133.5004  152.8339 H   0  0  0  0  0  0  0  0  0  0  0  0
  147.4201  132.2409  153.6706 H   0  0  0  0  0  0  0  0  0  0  0  0
  147.6364  134.0822  150.5850 H   0  0  0  0  0  0  0  0  0  0  0  0
  146.2754  133.2395  149.8717 H   0  0  0  0  0  0  0  0  0  0  0  0
  144.6940  134.3177  151.4302 H   0  0  0  0  0  0  0  0  0  0  0  0
  145.6399  135.5216  150.5757 H   0  0  0  0  0  0  0  0  0  0  0  0
  147.0981  135.6153  152.4568 H   0  0  0  0  0  0  0  0  0  0  0  0
  1  2  1  0  0  0  0
  1 26  1  0  0  0  0
  1 27  1  0  0  0  0
  1 28  1  0  0  0  0
  2  3  1  0  0  0  0
  2 29  1  0  0  0  0
  2 30  1  0  0  0  0
  3  4  1  0  0  0  0
  3  5  1  0  0  0  0
  3 19  1  0  0  0  0
  4 31  1  0  0  0  0
  4 32  1  0  0  0  0
  4 33  1  0  0  0  0
  5  6  1  0  0  0  0
  5 34  1  0  0  0  0
  5 35  1  0  0  0  0
  6  7  1  0  0  0  0
  6 36  1  0  0  0  0
  7  8  2  0  0  0  0
  7  9  1  0  0  0  0
  9 10  1  0  0  0  0
  9 37  1  0  0  0  0
  9 38  1  0  0  0  0
 10 17  1  0  0  0  0
 10 11  2  0  0  0  0
 11 12  1  0  0  0  0
 11 13  1  0  0  0  0
 12 39  1  0  0  0  0
 12 40  1  0  0  0  0
 12 41  1  0  0  0  0
 13 14  2  0  0  0  0
 14 15  1  0  0  0  0
 14 16  1  0  0  0  0
 15 42  1  0  0  0  0
 15 43  1  0  0  0  0
 15 44  1  0  0  0  0
 16 25  1  0  0  0  0
 16 17  1  0  0  0  0
 17 18  2  0  0  0  0
 19 24  1  0  0  0  0
 19 20  1  0  0  0  0
 19 53  1  0  0  0  0
 20 21  1  0  0  0  0
 20 45  1  0  0  0  0
 20 46  1  0  0  0  0
 21 22  1  0  0  0  0
 21 47  1  0  0  0  0
 21 48  1  0  0  0  0
 22 23  1  0  0  0  0
 23 24  1  0  0  0  0
 23 49  1  0  0  0  0
 23 50  1  0  0  0  0
 24 51  1  0  0  0  0
 24 52  1  0  0  0  0
M  CHG  1  19   1
M  END
> <s_m_source_file>
AV-unprocessed.smi

> <i_m_source_file_index>
1492

> <i_lp_mmshare_version>
43012

> <i_f3d_flags>
0

> <s_epik_input>
W0NIMl0xW0NIMl1PW0NIMl1bQ0gyXU4xW0NAQF0oW0NIM10pKFtDSDJdW0NIM10pW0NIMl1bTkhdQyg9TylbQ0gyXWMyYyhbQ0gzXSluYyhbQ0gzXSlbbkhdYzI9Tw==

> <s_epik_cmdline>
J2VwaWtfcHl0aG9uJywgJy1waCcsICc3LjAnLCAnLXRuJywgJzgnLCAnLW1hJywgJzIwMCcsICctbWV0YWxfYmluZGluZycsICctaW1hZScsICc8aW5maWxlLm1hZT4nLCAnLW9tYWUnLCAnPG91dGZpbGUubWFlPic=

> <r_lp_tautomer_probability>
0.839158

> <r_epik_Ionization_Penalty>
0.506959

> <r_epik_Ionization_Penalty_Charging>
0.506936

> <r_epik_Ionization_Penalty_Neutral>
2.27768e-05

> <r_epik_State_Penalty>
0.6046

> <r_epik_Charging_Adjusted_Penalty>
1.11154

> <i_epik_Tot_Q>
1

> <i_epik_Tot_abs_Q>
1

> <r_epik_Metal_State_Penalty>
0.783136

> <b_epik_Metal_Only>
0

> <s_lp_Force_Field>
OPLS_2005

> <r_lp_Energy>
29.7621

> <b_lp_Chiralities_Consistent>
1

> <s_lp_Variant>
AV-unprocessed.smi:1492-4

> <Gold.Version>
5.8.1

> <Gold.Id.Protein>
6NUR|6NUR_protein|mol2

> <Gold.PLP.Fitness>
44.6351

> <Gold.PLP.PLP>
-33.6057

> <Gold.PLP.part.hbond>
-3.9886

> <Gold.PLP.part.metal>
0.0000

> <Gold.PLP.part.buried>
-1.0148

> <Gold.PLP.part.nonpolar>
-29.5816

> <Gold.PLP.part.repulsive>
0.7154

> <Gold.PLP.ligand.clash>
0.0000

> <Gold.PLP.ligand.torsion>
1.1702

> <Gold.PLP.Chemscore.Hbond>
4.4142

> <Gold.PLP.Chemscore.CHOScore>
0.0000

> <Gold.PLP.Chemscore.Metal>
0.0000

> <Gold.Chemscore.Hbonds>
donor molecule, donor type, donor heavy atom, donor atom, acceptor molecule, acceptor atom, score
      L1  H     6    36       P1  7948  1.00
      L1  H    16    25       P1  8028  1.00
      L1  H    19    53       P1  7948  2.00
      P1  H  8011  8017       L1    18  0.42

> <Gold.PLP.Chemscore.Internal.Correction>
0.1274

> <Gold.Rescore>
     Score         DG    S(hbond)    S(metal)    S(lipo)     H(rot)  DE(clash)    DE(int)     intcor
     14.36     -19.04       3.31        0.00      69.28       2.19       1.49       3.20       ----

> <Gold.Chemscore.Fitness>
14.3589

> <Gold.Chemscore.DG>
-19.0424

> <Gold.Chemscore.ZeroCoef>
-5.4800

> <Gold.Chemscore.Hbond>
3.3141

> <Gold.Chemscore.Metal>
0.0000

> <Gold.Chemscore.Lipo>
69.2841

> <Gold.Chemscore.Internal_Hbond>
0.0000

> <Gold.Chemscore.DEClash>
1.4864

> <Gold.Chemscore.DEInternal>
3.1971

> <Gold.Chemscore.Rot>
2.1926

> <Gold.Chemscore.Internal.Correction>
   9.000000E+99

> <Gold.Chemscore.Hbonds>
donor molecule, donor type, donor heavy atom, donor atom, acceptor molecule, acceptor atom, score
      L1  H     6    36       P1  7948  0.99
      L1  H    16    25       P1  8028  0.96
      L1  H    19    53       P1  7948  0.93
      P1  H  8011  8017       L1    18  0.14

> <Gold.Chemscore.Hbond.Weighted>
-11.0692

> <Gold.Chemscore.Metal.Weighted>
-0.0000

> <Gold.Chemscore.Lipo.Weighted>
-8.1062

> <Gold.Chemscore.Internal_Hbond.Weighted>
0.0000

> <Gold.Chemscore.DEClash.Weighted>
1.4864

> <Gold.Chemscore.DEInternal.Weighted>
3.1971

> <Gold.Chemscore.Rot.Weighted>
5.6129

> <Gold.Chemscore.Internal.Correction.Weighted>
   9.000000E+99

> <Gold.Protein.RotatedTorsions>
[ 6907 6896 6895 6894 ] final  -92.68 input  -60.11 | X-H torsion
[ 7974 7965 7964 7962 ] final -142.95 input  175.53 | X-H torsion
[ 8008 7997 7996 7995 ] final  164.38 input   59.86 | X-H torsion
[ 10167 10162 10161 10158 ] final   96.61 input  -65.29 | X-H torsion
[ 10718 10713 10712 10709 ] final  135.19 input   66.30 | X-H torsion
[ 10763 10752 10751 10750 ] final  -13.73 input  -60.55 | X-H torsion
[ 11005 11000 10999 10996 ] final  -21.36 input  -57.11 | X-H torsion

> <Gold.Protein.ActiveResidues>
 VAL166  LYS551  ARG553  GLY616  TRP617  ASP618  TYR619  PRO620  LYS621  CYS622 
 ASP623  PHE694  ASN695  SER759  ASP760  ASP761  ALA762  ILE779  LEU786  VAL792 
 PHE793  MET794  SER795  GLU796  ALA797  LYS798  CYS799  TRP800  GLU811  SER814 

> <Gold.Protein.RotatedAtoms>
  150.6910  134.2085  159.4349 H   0  0  0  0  0  0  0  0  0  0  0  0  # atno 6907 bound_to 6896
  152.0047  134.9906  160.0575 H   0  0  0  0  0  0  0  0  0  0  0  0  # atno 6908 bound_to 6896
  152.1545  133.4508  159.4867 H   0  0  0  0  0  0  0  0  0  0  0  0  # atno 6909 bound_to 6896
  144.8405  140.5894  143.5455 H   0  0  0  0  0  0  0  0  0  0  0  0  # atno 7974 bound_to 7965
  156.1884  140.1698  156.8140 H   0  0  0  0  0  0  0  0  0  0  0  0  # atno 8008 bound_to 7997
  154.5442  140.0730  156.8593 H   0  0  0  0  0  0  0  0  0  0  0  0  # atno 8009 bound_to 7997
  155.3155  140.3370  155.4245 H   0  0  0  0  0  0  0  0  0  0  0  0  # atno 8010 bound_to 7997
  139.7878  144.6864  150.9934 H   0  0  0  0  0  0  0  0  0  0  0  0  # atno 10167 bound_to 10162
  157.4596  131.1072  150.9936 H   0  0  0  0  0  0  0  0  0  0  0  0  # atno 10718 bound_to 10713
  153.5177  135.7016  153.5748 H   0  0  0  0  0  0  0  0  0  0  0  0  # atno 10763 bound_to 10752
  153.3810  135.3920  155.1857 H   0  0  0  0  0  0  0  0  0  0  0  0  # atno 10764 bound_to 10752
  154.8697  135.3835  154.4663 H   0  0  0  0  0  0  0  0  0  0  0  0  # atno 10765 bound_to 10752
  140.8553  133.7827  156.0012 H   0  0  0  0  0  0  0  0  0  0  0  0  # atno 11005 bound_to 11000
  145.4704  139.1504  143.3817 LP  0  0  0  0  0  0  0  0  0  0  0  0  # atno 17320 bound_to 7965
  146.2698  140.4837  142.8819 LP  0  0  0  0  0  0  0  0  0  0  0  0  # atno 17321 bound_to 7965
  140.7820  143.4413  151.0547 LP  0  0  0  0  0  0  0  0  0  0  0  0  # atno 17342 bound_to 10162
  139.8091  143.7976  152.3170 LP  0  0  0  0  0  0  0  0  0  0  0  0  # atno 17343 bound_to 10162
  157.0738  130.5875  149.5407 LP  0  0  0  0  0  0  0  0  0  0  0  0  # atno 17370 bound_to 10713
  156.0022  130.5103  150.7705 LP  0  0  0  0  0  0  0  0  0  0  0  0  # atno 17371 bound_to 10713
  140.8744  134.2687  157.5175 LP  0  0  0  0  0  0  0  0  0  0  0  0  # atno 17394 bound_to 11000
  139.8705  134.9583  156.4297 LP  0  0  0  0  0  0  0  0  0  0  0  0  # atno 17395 bound_to 11000

$$$$
