#       Name:                AV-unprocessed.smi:3116
#       Creating user name   scv26
#       Creation time:       Fri Mar 27 17:25:16 2020


#       File generated by GOLD software.
#

@<TRIPOS>MOLECULE
AV-unprocessed.smi:3116
    37    37     1
SMALL
NO_CHARGES


@<TRIPOS>ATOM
      1 ****        -1.7332   1.9801  -1.9305 C.3            1 S1                 0.0000
      2 ****        -1.9823   1.2522  -0.5931 C.3            1 S1                 0.0000
      3 ****        -1.3091  -0.0559  -0.5517 N.3            1 S1                 0.0000
      4 ****         0.1462   0.0204  -0.4426 C.3            1 S1                 0.0000
      5 ****         0.7397  -0.5043  -1.7648 C.3            1 S1                 0.0000
      6 ****         0.5922  -0.7916   0.8029 C.3            1 S1                 0.0000
      7 ****         0.1388  -0.1405   2.1244 C.3            1 S1                 0.0000
      8 ****         2.0322  -1.0199   0.8224 N.pl3          1 S1                 0.0000
      9 ****         2.7059  -2.2198   0.7219 C.2            1 S1                 0.0000
     10 ****         4.0422  -1.9452   0.7777 C.2            1 S1                 0.0000
     11 ****         4.0905  -0.5301   0.9158 C.2            1 S1                 0.0000
     12 ****         2.8881   0.0210   0.9409 N.2            1 S1                 0.0000
     13 ****        -3.4806   1.0692  -0.3132 C.2            1 S1                 0.0000
     14 ****        -3.8271   0.8079   0.9499 N.am           1 S1                 0.0000
     15 ****        -4.3153   1.1462  -1.2133 O.2            1 S1                 0.0000
     16 ****        -2.2949   2.9136  -1.9836 H              1 S1                 0.0000
     17 ****        -2.0268   1.3662  -2.7832 H              1 S1                 0.0000
     18 ****        -0.6815   2.2376  -2.0556 H              1 S1                 0.0000
     19 ****        -1.5941   1.8748   0.2153 H              1 S1                 0.0000
     20 ****        -1.5665  -0.6360  -1.3374 H              1 S1                 0.0000
     21 ****         0.4734   1.0532  -0.3109 H              1 S1                 0.0000
     22 ****         1.8242  -0.3974  -1.7878 H              1 S1                 0.0000
     23 ****         0.3513   0.0446  -2.6229 H              1 S1                 0.0000
     24 ****         0.5073  -1.5593  -1.9140 H              1 S1                 0.0000
     25 ****         0.1278  -1.7779   0.7481 H              1 S1                 0.0000
     26 ****        -0.9478  -0.0795   2.1854 H              1 S1                 0.0000
     27 ****         0.5315   0.8715   2.2280 H              1 S1                 0.0000
     28 ****         0.4792  -0.7195   2.9834 H              1 S1                 0.0000
     29 ****         2.1837  -3.1594   0.6177 H              1 S1                 0.0000
     30 ****         4.8605  -2.6481   0.7270 H              1 S1                 0.0000
     31 ****         4.9574   0.1089   0.9967 H              1 S1                 0.0000
     32 ****        -4.8002   0.6822   1.1877 H              1 S1                 0.0000
     33 ****        -3.1145   0.7405   1.6619 H              1 S1                 0.0000
     34 ****        -1.6365  -0.4793   0.2929 LP             1 S1                 0.0000
     35 ****         2.6622   0.9913   1.0280 LP             1 S1                 0.0000
     36 ****        -4.0232   1.3316  -2.1516 LP             1 S1                 0.0000
     37 ****        -5.2860   1.0234  -1.0069 LP             1 S1                 0.0000
@<TRIPOS>BOND
    1    1    2 1     
    2    1   16 1     
    3    1   17 1     
    4    1   18 1     
    5    2    3 1     
    6    2   13 1     
    7    2   19 1     
    8    3    4 1     
    9    3   20 1     
   10    4    5 1     
   11    4    6 1     
   12    4   21 1     
   13    5   22 1     
   14    5   23 1     
   15    5   24 1     
   16    6    7 1     
   17    6    8 1     
   18    6   25 1     
   19    7   26 1     
   20    7   27 1     
   21    7   28 1     
   22    8   12 1     
   23    8    9 1     
   24    9   10 2     
   25    9   29 1     
   26   10   11 1     
   27   10   30 1     
   28   11   12 2     
   29   11   31 1     
   30   13   14 am    
   31   13   15 2     
   32   14   32 1     
   33   14   33 1     
   34    3   34 1     
   35   12   35 1     
   36   15   36 1     
   37   15   37 1     
@<TRIPOS>SUBSTRUCTURE
      1 S1             1
@<TRIPOS>SET
LONE_PAIRS      STATIC     ATOMS    <user>   **** ""
4 34 35 36 37
DONOR_HYDROGENS      STATIC     ATOMS    <user>   **** ""
3 20 32 33
ATOM$BLUE        STATIC     ATOMS    COLORGROUP SYSTEM
4 34 35 36 37
ATOM$RED        STATIC     ATOMS    COLORGROUP SYSTEM
3 20 32 33
