AV-unprocessed.smi:1294|AV-procd|sdf|5400|dock4
  -GOLD-   22720 4563D 1   1.00000     0.00000
 Structure written by MMmdl.
 45 46  0  0  0  0  0  0  0  0  1 V2000
  144.9215  141.3279  156.4609 C   0  0  0  0  0  0  0  0  0  0  0  0
  144.7897  142.5044  155.5366 C   0  0  0  0  0  0  0  0  0  0  0  0
  143.8633  143.4181  155.7755 N   0  0  0  0  0  0  0  0  0  0  0  0
  144.0094  144.3229  154.7869 N   0  0  0  0  0  0  0  0  0  0  0  0
  143.1390  145.4819  154.7490 C   0  0  0  0  0  0  0  0  0  0  0  0
  145.0295  143.9793  153.9210 C   0  0  0  0  0  0  0  0  0  0  0  0
  145.3939  144.8241  152.7433 C   0  0  0  0  0  0  0  0  0  0  0  0
  145.5593  142.8005  154.3735 C   0  0  0  0  0  0  0  0  0  0  0  0
  146.6931  141.9921  153.7947 C   0  0  0  0  0  0  0  0  0  0  0  0
  147.7337  141.6987  154.8774 C   0  0  0  0  0  0  0  0  0  0  0  0
  147.5373  142.0633  156.0370 O   0  0  0  0  0  0  0  0  0  0  0  0
  148.8364  141.0427  154.4832 N   0  0  0  0  0  0  0  0  0  0  0  0
  149.9605  140.6749  155.3387 C   0  0  0  0  0  0  0  0  0  0  0  0
  150.6256  141.9054  155.9763 C   0  0  0  0  0  0  0  0  0  0  0  0
  151.6554  141.4778  157.4101 S   0  0  0  0  0  0  0  0  0  0  0  0
  151.3568  142.9192  158.4726 C   0  0  0  0  0  0  0  0  0  0  0  0
  151.9401  144.2044  157.8875 C   0  0  0  0  0  0  0  0  0  0  0  0
  152.0510  145.1530  159.0835 C   0  0  0  0  0  0  0  0  0  0  0  0
  152.2167  144.2584  160.3217 C   0  0  0  0  0  0  0  0  0  0  0  0
  152.0319  142.8119  159.8427 C   0  0  0  0  0  0  0  0  0  0  0  0
  145.9591  141.1848  156.7630 H   0  0  0  0  0  0  0  0  0  0  0  0
  144.5882  140.4117  155.9736 H   0  0  0  0  0  0  0  0  0  0  0  0
  144.3292  141.4566  157.3676 H   0  0  0  0  0  0  0  0  0  0  0  0
  142.6755  145.5621  153.7654 H   0  0  0  0  0  0  0  0  0  0  0  0
  143.7220  146.3823  154.9435 H   0  0  0  0  0  0  0  0  0  0  0  0
  142.3541  145.3996  155.5019 H   0  0  0  0  0  0  0  0  0  0  0  0
  146.3175  144.4785  152.2794 H   0  0  0  0  0  0  0  0  0  0  0  0
  145.5411  145.8627  153.0400 H   0  0  0  0  0  0  0  0  0  0  0  0
  144.6078  144.7945  151.9889 H   0  0  0  0  0  0  0  0  0  0  0  0
  146.3401  141.0414  153.3942 H   0  0  0  0  0  0  0  0  0  0  0  0
  147.1597  142.5144  152.9582 H   0  0  0  0  0  0  0  0  0  0  0  0
  148.9046  140.7825  153.5099 H   0  0  0  0  0  0  0  0  0  0  0  0
  149.5665  140.0344  156.1278 H   0  0  0  0  0  0  0  0  0  0  0  0
  150.6966  140.0741  154.8017 H   0  0  0  0  0  0  0  0  0  0  0  0
  151.2313  142.4359  155.2405 H   0  0  0  0  0  0  0  0  0  0  0  0
  149.8537  142.5991  156.3090 H   0  0  0  0  0  0  0  0  0  0  0  0
  150.2815  143.0470  158.6045 H   0  0  0  0  0  0  0  0  0  0  0  0
  152.9355  144.0122  157.4837 H   0  0  0  0  0  0  0  0  0  0  0  0
  151.3293  144.6152  157.0829 H   0  0  0  0  0  0  0  0  0  0  0  0
  152.8760  145.8563  158.9678 H   0  0  0  0  0  0  0  0  0  0  0  0
  151.1343  145.7370  159.1754 H   0  0  0  0  0  0  0  0  0  0  0  0
  153.1959  144.3909  160.7834 H   0  0  0  0  0  0  0  0  0  0  0  0
  151.4666  144.5144  161.0709 H   0  0  0  0  0  0  0  0  0  0  0  0
  151.4521  142.2155  160.5476 H   0  0  0  0  0  0  0  0  0  0  0  0
  153.0099  142.3396  159.7389 H   0  0  0  0  0  0  0  0  0  0  0  0
  1  2  1  0  0  0  0
  1 21  1  0  0  0  0
  1 22  1  0  0  0  0
  1 23  1  0  0  0  0
  2  8  1  0  0  0  0
  2  3  2  0  0  0  0
  3  4  1  0  0  0  0
  4  5  1  0  0  0  0
  4  6  1  0  0  0  0
  5 24  1  0  0  0  0
  5 25  1  0  0  0  0
  5 26  1  0  0  0  0
  6  7  1  0  0  0  0
  6  8  2  0  0  0  0
  7 27  1  0  0  0  0
  7 28  1  0  0  0  0
  7 29  1  0  0  0  0
  8  9  1  0  0  0  0
  9 10  1  0  0  0  0
  9 30  1  0  0  0  0
  9 31  1  0  0  0  0
 10 11  2  0  0  0  0
 10 12  1  0  0  0  0
 12 13  1  0  0  0  0
 12 32  1  0  0  0  0
 13 14  1  0  0  0  0
 13 33  1  0  0  0  0
 13 34  1  0  0  0  0
 14 15  1  0  0  0  0
 14 35  1  0  0  0  0
 14 36  1  0  0  0  0
 15 16  1  0  0  0  0
 16 20  1  0  0  0  0
 16 17  1  0  0  0  0
 16 37  1  0  0  0  0
 17 18  1  0  0  0  0
 17 38  1  0  0  0  0
 17 39  1  0  0  0  0
 18 19  1  0  0  0  0
 18 40  1  0  0  0  0
 18 41  1  0  0  0  0
 19 20  1  0  0  0  0
 19 42  1  0  0  0  0
 19 43  1  0  0  0  0
 20 44  1  0  0  0  0
 20 45  1  0  0  0  0
M  END
> <s_m_source_file>
AV-unprocessed.smi

> <i_m_source_file_index>
1294

> <i_lp_mmshare_version>
43012

> <i_f3d_flags>
0

> <s_epik_input>
W0NIM11jMW5uKFtDSDNdKWMoW0NIM10pYzFbQ0gyXUMoPU8pW05IXVtDSDJdW0NIMl1TW0NIXTJbQ0gyXVtDSDJdW0NIMl1bQ0gyXTI=

> <s_epik_cmdline>
J2VwaWtfcHl0aG9uJywgJy1waCcsICc3LjAnLCAnLXRuJywgJzgnLCAnLW1hJywgJzIwMCcsICctbWV0YWxfYmluZGluZycsICctaW1hZScsICc8aW5maWxlLm1hZT4nLCAnLW9tYWUnLCAnPG91dGZpbGUubWFlPic=

> <r_lp_tautomer_probability>
1

> <r_epik_Ionization_Penalty>
0.00302432

> <r_epik_Ionization_Penalty_Charging>
0

> <r_epik_Ionization_Penalty_Neutral>
0.00302432

> <r_epik_State_Penalty>
0.0021246

> <r_epik_Charging_Adjusted_Penalty>
0.0021246

> <i_epik_Tot_Q>
0

> <i_epik_Tot_abs_Q>
0

> <r_epik_Metal_State_Penalty>
-0

> <b_epik_Metal_Only>
0

> <s_lp_Force_Field>
OPLS_2005

> <r_lp_Energy>
15.1488

> <b_lp_Chiralities_Consistent>
1

> <s_lp_Variant>
AV-unprocessed.smi:1294-1

> <Gold.Version>
5.8.1

> <Gold.Id.Protein>
6NUR|6NUR_protein|mol2

> <Gold.PLP.Fitness>
44.7858

> <Gold.PLP.PLP>
-45.5544

> <Gold.PLP.part.hbond>
0.0000

> <Gold.PLP.part.metal>
0.0000

> <Gold.PLP.part.buried>
-6.1388

> <Gold.PLP.part.nonpolar>
-40.6616

> <Gold.PLP.part.repulsive>
1.3793

> <Gold.PLP.ligand.clash>
0.0000

> <Gold.PLP.ligand.torsion>
0.4070

> <Gold.PLP.Chemscore.Hbond>
0.0000

> <Gold.PLP.Chemscore.CHOScore>
0.0000

> <Gold.PLP.Chemscore.Metal>
0.0000

> <Gold.PLP.Chemscore.Internal.Correction>
0.0454

> <Gold.Rescore>
     Score         DG    S(hbond)    S(metal)    S(lipo)     H(rot)  DE(clash)    DE(int)     intcor
     12.30     -15.69       0.00        0.00     121.82       1.58       0.31       3.09       ----

> <Gold.Chemscore.Fitness>
12.2989

> <Gold.Chemscore.DG>
-15.6941

> <Gold.Chemscore.ZeroCoef>
-5.4800

> <Gold.Chemscore.Hbond>
0.0001

> <Gold.Chemscore.Metal>
0.0000

> <Gold.Chemscore.Lipo>
121.8151

> <Gold.Chemscore.Internal_Hbond>
0.0000

> <Gold.Chemscore.DEClash>
0.3052

> <Gold.Chemscore.DEInternal>
3.0901

> <Gold.Chemscore.Rot>
1.5776

> <Gold.Chemscore.Internal.Correction>
   9.000000E+99

> <Gold.Chemscore.Hbond.Weighted>
-0.0004

> <Gold.Chemscore.Metal.Weighted>
-0.0000

> <Gold.Chemscore.Lipo.Weighted>
-14.2524

> <Gold.Chemscore.Internal_Hbond.Weighted>
0.0000

> <Gold.Chemscore.DEClash.Weighted>
0.3052

> <Gold.Chemscore.DEInternal.Weighted>
3.0901

> <Gold.Chemscore.Rot.Weighted>
4.0387

> <Gold.Chemscore.Internal.Correction.Weighted>
   9.000000E+99

> <Gold.Protein.RotatedTorsions>
[ 6907 6896 6895 6894 ] final -145.84 input  -60.11 | X-H torsion
[ 7974 7965 7964 7962 ] final  140.90 input  175.53 | X-H torsion
[ 8008 7997 7996 7995 ] final -152.32 input   59.86 | X-H torsion
[ 10167 10162 10161 10158 ] final  148.66 input  -65.29 | X-H torsion
[ 10718 10713 10712 10709 ] final -127.07 input   66.30 | X-H torsion
[ 10763 10752 10751 10750 ] final  178.63 input  -60.55 | X-H torsion
[ 11005 11000 10999 10996 ] final   24.79 input  -57.11 | X-H torsion

> <Gold.Protein.ActiveResidues>
 VAL166  LYS551  ARG553  GLY616  TRP617  ASP618  TYR619  PRO620  LYS621  CYS622 
 ASP623  PHE694  ASN695  SER759  ASP760  ASP761  ALA762  ILE779  LEU786  VAL792 
 PHE793  MET794  SER795  GLU796  ALA797  LYS798  CYS799  TRP800  GLU811  SER814 

> <Gold.Protein.RotatedAtoms>
  151.1333  133.5021  159.2598 H   0  0  0  0  0  0  0  0  0  0  0  0  # atno 6907 bound_to 6896
  151.1734  135.0328  159.8771 H   0  0  0  0  0  0  0  0  0  0  0  0  # atno 6908 bound_to 6896
  152.5460  134.1194  159.8445 H   0  0  0  0  0  0  0  0  0  0  0  0  # atno 6909 bound_to 6896
  144.9144  139.5249  143.5693 H   0  0  0  0  0  0  0  0  0  0  0  0  # atno 7974 bound_to 7965
  155.6533  140.0714  157.2579 H   0  0  0  0  0  0  0  0  0  0  0  0  # atno 8008 bound_to 7997
  154.4158  140.1729  156.1748 H   0  0  0  0  0  0  0  0  0  0  0  0  # atno 8009 bound_to 7997
  155.9758  140.3358  155.6621 H   0  0  0  0  0  0  0  0  0  0  0  0  # atno 8010 bound_to 7997
  139.4872  144.5662  151.7140 H   0  0  0  0  0  0  0  0  0  0  0  0  # atno 10167 bound_to 10162
  156.1823  130.6740  151.0320 H   0  0  0  0  0  0  0  0  0  0  0  0  # atno 10718 bound_to 10713
  154.5102  135.2788  155.1349 H   0  0  0  0  0  0  0  0  0  0  0  0  # atno 10763 bound_to 10752
  154.2947  135.6260  153.5403 H   0  0  0  0  0  0  0  0  0  0  0  0  # atno 10764 bound_to 10752
  152.9917  135.5682  154.5566 H   0  0  0  0  0  0  0  0  0  0  0  0  # atno 10765 bound_to 10752
  140.3548  134.2189  155.7677 H   0  0  0  0  0  0  0  0  0  0  0  0  # atno 11005 bound_to 11000
  146.3175  139.7976  142.8972 LP  0  0  0  0  0  0  0  0  0  0  0  0  # atno 17320 bound_to 7965
  145.3399  141.0285  143.3398 LP  0  0  0  0  0  0  0  0  0  0  0  0  # atno 17321 bound_to 7965
  140.5240  144.0834  150.6032 LP  0  0  0  0  0  0  0  0  0  0  0  0  # atno 17342 bound_to 10162
  140.3802  143.2807  152.0179 LP  0  0  0  0  0  0  0  0  0  0  0  0  # atno 17343 bound_to 10162
  157.6876  131.0820  150.7199 LP  0  0  0  0  0  0  0  0  0  0  0  0  # atno 17370 bound_to 10713
  156.7256  130.4694  149.5512 LP  0  0  0  0  0  0  0  0  0  0  0  0  # atno 17371 bound_to 10713
  141.2001  133.7994  157.0503 LP  0  0  0  0  0  0  0  0  0  0  0  0  # atno 17394 bound_to 11000
  140.0674  134.9721  157.1409 LP  0  0  0  0  0  0  0  0  0  0  0  0  # atno 17395 bound_to 11000

$$$$
