#       Name:                AV-unprocessed.smi:1809
#       Creating user name   scv26
#       Creation time:       Fri Mar 27 08:58:06 2020


#       File generated by GOLD software.
#

@<TRIPOS>MOLECULE
AV-unprocessed.smi:1809
    46    48     1
SMALL
NO_CHARGES


@<TRIPOS>ATOM
      1 ****        -7.1271   2.8088  -0.7330 C.3            1 S1                 0.0000
      2 ****        -5.7919   2.6146  -1.3659 C.2            1 S1                 0.0000
      3 ****        -5.6335   2.4506  -2.6814 N.2            1 S1                 0.0000
      4 ****        -4.3013   2.2816  -3.0303 N.2            1 S1                 0.0000
      5 ****        -3.4738   2.3110  -1.9758 C.2            1 S1                 0.0000
      6 ****        -2.1441   2.1657  -2.0998 N.pl3          1 S1                -1.0000
      7 ****        -1.5710   0.9642  -1.8656 C.2            1 S1                 0.0000
      8 ****        -2.1511  -0.0687  -1.5224 O.2            1 S1                 0.0000
      9 ****        -0.2411   0.9591  -2.0322 N.am           1 S1                 0.0000
     10 ****         0.6372  -0.1881  -1.8299 C.3            1 S1                 0.0000
     11 ****         0.8885  -0.4538  -0.3355 C.3            1 S1                 0.0000
     12 ****         1.7285  -1.7201  -0.1095 C.3            1 S1                 0.0000
     13 ****         1.9883  -1.9441   1.3351 N.4            1 S1                 1.0000
     14 ****         3.0206  -2.9789   1.5654 C.3            1 S1                 0.0000
     15 ****         4.3455  -2.2344   1.8142 C.3            1 S1                 0.0000
     16 ****         3.9911  -0.7431   1.8061 C.3            1 S1                 0.0000
     17 ****         2.4791  -0.7339   2.0306 C.3            1 S1                 0.0000
     18 ****         1.7398   0.5541   1.6126 C.3            1 S1                 0.0000
     19 ****         1.6195   0.6421   0.2006 O.3            1 S1                 0.0000
     20 ****        -4.3000   2.5790  -0.4410 S.3            1 S1                 0.0000
     21 ****        -7.6462   1.8531  -0.6594 H              1 S1                 0.0000
     22 ****        -7.7316   3.4933  -1.3285 H              1 S1                 0.0000
     23 ****        -7.0149   3.2246   0.2683 H              1 S1                 0.0000
     24 ****         0.1938   1.8249  -2.3160 H              1 S1                 0.0000
     25 ****         0.2004  -1.0678  -2.3054 H              1 S1                 0.0000
     26 ****         1.5802   0.0043  -2.3422 H              1 S1                 0.0000
     27 ****        -0.0678  -0.5565   0.1807 H              1 S1                 0.0000
     28 ****         1.2146  -2.5920  -0.5159 H              1 S1                 0.0000
     29 ****         2.6738  -1.6299  -0.6475 H              1 S1                 0.0000
     30 ****         2.7455  -3.5437   2.4569 H              1 S1                 0.0000
     31 ****         3.0901  -3.6911   0.7416 H              1 S1                 0.0000
     32 ****         4.7651  -2.5265   2.7776 H              1 S1                 0.0000
     33 ****         5.0882  -2.4641   1.0494 H              1 S1                 0.0000
     34 ****         4.5325  -0.1772   2.5649 H              1 S1                 0.0000
     35 ****         4.2317  -0.3105   0.8338 H              1 S1                 0.0000
     36 ****         2.3093  -0.8884   3.0977 H              1 S1                 0.0000
     37 ****         0.7448   0.5813   2.0601 H              1 S1                 0.0000
     38 ****         2.2695   1.4321   1.9829 H              1 S1                 0.0000
     39 ****         1.1169  -2.2327   1.7569 H              1 S1                 0.0000
     40 ****        -6.3872   2.4497  -3.3386 LP             1 S1                 0.0000
     41 ****        -3.9902   2.1513  -3.9717 LP             1 S1                 0.0000
     42 ****        -1.5783   2.9464  -2.3653 LP             1 S1                 0.0000
     43 ****        -3.1425  -0.0656  -1.3920 LP             1 S1                 0.0000
     44 ****        -1.6299  -0.9092  -1.3744 LP             1 S1                 0.0000
     45 ****         1.1462   1.4918  -0.0317 LP             1 S1                 0.0000
     46 ****         2.5346   0.6493  -0.2025 LP             1 S1                 0.0000
@<TRIPOS>BOND
    1    1    2 1     
    2    1   21 1     
    3    1   22 1     
    4    1   23 1     
    5    2   20 1     
    6    2    3 2     
    7    3    4 1     
    8    4    5 2     
    9    5    6 1     
   10    5   20 1     
   11    6    7 1     
   12    7    8 2     
   13    7    9 am    
   14    9   10 1     
   15    9   24 1     
   16   10   11 1     
   17   10   25 1     
   18   10   26 1     
   19   11   19 1     
   20   11   12 1     
   21   11   27 1     
   22   12   13 1     
   23   12   28 1     
   24   12   29 1     
   25   13   17 1     
   26   13   14 1     
   27   13   39 1     
   28   14   15 1     
   29   14   30 1     
   30   14   31 1     
   31   15   16 1     
   32   15   32 1     
   33   15   33 1     
   34   16   17 1     
   35   16   34 1     
   36   16   35 1     
   37   17   18 1     
   38   17   36 1     
   39   18   19 1     
   40   18   37 1     
   41   18   38 1     
   42    3   40 1     
   43    4   41 1     
   44    6   42 1     
   45    8   43 1     
   46    8   44 1     
   47   19   45 1     
   48   19   46 1     
@<TRIPOS>SUBSTRUCTURE
      1 S1             1
@<TRIPOS>SET
LONE_PAIRS      STATIC     ATOMS    <user>   **** ""
7 40 41 42 43 44 45 46
DONOR_HYDROGENS      STATIC     ATOMS    <user>   **** ""
2 24 39
ATOM$BLUE        STATIC     ATOMS    COLORGROUP SYSTEM
7 40 41 42 43 44 45 46
ATOM$RED        STATIC     ATOMS    COLORGROUP SYSTEM
2 24 39
