#       Name:                AV-unprocessed.smi:1439
#       Creating user name   scv26
#       Creation time:       Fri Mar 27 05:54:41 2020


#       File generated by GOLD software.
#

@<TRIPOS>MOLECULE
AV-unprocessed.smi:1439
    43    44     1
SMALL
NO_CHARGES


@<TRIPOS>ATOM
      1 ****        -5.6432  -1.8761   0.7936 N.am           1 S1                 0.0000
      2 ****        -5.4598  -2.4630  -0.3936 C.2            1 S1                 0.0000
      3 ****        -5.3807  -3.6841  -0.5100 O.2            1 S1                 0.0000
      4 ****        -5.3817  -1.5632  -1.6330 C.3            1 S1                 0.0000
      5 ****        -4.4244  -0.4217  -1.4329 C.2            1 S1                 0.0000
      6 ****        -4.7470   0.8832  -1.1609 C.2            1 S1                 0.0000
      7 ****        -3.3282   1.8778  -1.0001 S.3            1 S1                 0.0000
      8 ****        -2.3168   0.4659  -1.3130 C.2            1 S1                 0.0000
      9 ****        -0.9753   0.4745  -1.3511 N.pl3          1 S1                -1.0000
     10 ****        -0.2744   0.3970  -0.1949 C.2            1 S1                 0.0000
     11 ****        -0.7013   0.3172   0.9591 O.2            1 S1                 0.0000
     12 ****         1.2371   0.4195  -0.4625 C.3            1 S1                 0.0000
     13 ****         2.0949   0.3336   0.8144 C.3            1 S1                 0.0000
     14 ****         3.6009   0.3343   0.5147 C.3            1 S1                 0.0000
     15 ****         4.4802   0.1924   1.7537 C.3            1 S1                 0.0000
     16 ****         5.8067   0.7794   1.3018 C.3            1 S1                 0.0000
     17 ****         5.4373   1.6473   0.0941 C.3            1 S1                 0.0000
     18 ****         4.0200   1.5868  -0.0033 O.3            1 S1                 0.0000
     19 ****        -3.0459  -0.6346  -1.5287 N.2            1 S1                 0.0000
     20 ****        -5.6712  -2.4382   1.6316 H              1 S1                 0.0000
     21 ****        -5.7252  -0.8714   0.8507 H              1 S1                 0.0000
     22 ****        -5.0803  -2.1626  -2.4932 H              1 S1                 0.0000
     23 ****        -6.3826  -1.1914  -1.8544 H              1 S1                 0.0000
     24 ****        -5.7279   1.3181  -1.0429 H              1 S1                 0.0000
     25 ****         1.4874  -0.4122  -1.1230 H              1 S1                 0.0000
     26 ****         1.4826   1.3346  -1.0039 H              1 S1                 0.0000
     27 ****         1.8563   1.1642   1.4804 H              1 S1                 0.0000
     28 ****         1.8456  -0.5805   1.3555 H              1 S1                 0.0000
     29 ****         3.8470  -0.4499  -0.2039 H              1 S1                 0.0000
     30 ****         4.0760   0.7893   2.5727 H              1 S1                 0.0000
     31 ****         4.5652  -0.8389   2.0972 H              1 S1                 0.0000
     32 ****         6.2783   1.3580   2.0967 H              1 S1                 0.0000
     33 ****         6.4992  -0.0080   1.0025 H              1 S1                 0.0000
     34 ****         5.7705   2.6795   0.2052 H              1 S1                 0.0000
     35 ****         5.8796   1.2438  -0.8178 H              1 S1                 0.0000
     36 ****        -5.4537  -4.2691   0.2977 LP             1 S1                 0.0000
     37 ****        -5.2432  -4.0925  -1.4124 LP             1 S1                 0.0000
     38 ****        -0.4967   0.5377  -2.2269 LP             1 S1                 0.0000
     39 ****        -1.6868   0.3035   1.1278 LP             1 S1                 0.0000
     40 ****        -0.0619   0.2662   1.7263 LP             1 S1                 0.0000
     41 ****         3.6109   2.3285   0.5282 LP             1 S1                 0.0000
     42 ****         3.7413   1.6693  -0.9602 LP             1 S1                 0.0000
     43 ****        -2.6430  -1.5255  -1.7387 LP             1 S1                 0.0000
@<TRIPOS>BOND
    1    1    2 am    
    2    1   20 1     
    3    1   21 1     
    4    2    3 2     
    5    2    4 1     
    6    4    5 1     
    7    4   22 1     
    8    4   23 1     
    9    5   19 1     
   10    5    6 2     
   11    6    7 1     
   12    6   24 1     
   13    7    8 1     
   14    8    9 1     
   15    8   19 2     
   16    9   10 1     
   17   10   11 2     
   18   10   12 1     
   19   12   13 1     
   20   12   25 1     
   21   12   26 1     
   22   13   14 1     
   23   13   27 1     
   24   13   28 1     
   25   14   18 1     
   26   14   15 1     
   27   14   29 1     
   28   15   16 1     
   29   15   30 1     
   30   15   31 1     
   31   16   17 1     
   32   16   32 1     
   33   16   33 1     
   34   17   18 1     
   35   17   34 1     
   36   17   35 1     
   37    3   36 1     
   38    3   37 1     
   39    9   38 1     
   40   11   39 1     
   41   11   40 1     
   42   18   41 1     
   43   18   42 1     
   44   19   43 1     
@<TRIPOS>SUBSTRUCTURE
      1 S1             1
@<TRIPOS>SET
LONE_PAIRS      STATIC     ATOMS    <user>   **** ""
8 36 37 38 39 40 41 42 43
DONOR_HYDROGENS      STATIC     ATOMS    <user>   **** ""
2 20 21
ATOM$BLUE        STATIC     ATOMS    COLORGROUP SYSTEM
8 36 37 38 39 40 41 42 43
ATOM$RED        STATIC     ATOMS    COLORGROUP SYSTEM
2 20 21
