#       Name:                AV-unprocessed.smi:3011
#       Creating user name   scv26
#       Creation time:       Fri Mar 27 16:39:43 2020


#       File generated by GOLD software.
#

@<TRIPOS>MOLECULE
AV-unprocessed.smi:3011
    53    55     1
SMALL
NO_CHARGES


@<TRIPOS>ATOM
      1 ****         4.9922   0.3093   5.4013 C.3            1 S1                 0.0000
      2 ****         5.6386   1.2412   4.5471 O.3            1 S1                 0.0000
      3 ****         6.6989   1.9657   5.0512 C.ar           1 S1                 0.0000
      4 ****         7.1744   1.8388   6.3812 C.ar           1 S1                 0.0000
      5 ****         8.2674   2.6046   6.8249 C.ar           1 S1                 0.0000
      6 ****         8.8985   3.5022   5.9473 C.ar           1 S1                 0.0000
      7 ****         8.4345   3.6372   4.6264 C.ar           1 S1                 0.0000
      8 ****         7.3305   2.8735   4.1697 C.ar           1 S1                 0.0000
      9 ****         6.8170   2.9606   2.8927 O.3            1 S1                 0.0000
     10 ****         7.4898   3.7756   1.9427 C.3            1 S1                 0.0000
     11 ****         6.7422   3.6995   0.6050 C.3            1 S1                 0.0000
     12 ****         5.3650   4.2057   0.7112 N.pl3          1 S1                 0.0000
     13 ****         4.1918   3.5556   0.9720 C.2            1 S1                 0.0000
     14 ****         3.9992   2.0857   1.2096 C.3            1 S1                 0.0000
     15 ****         3.1130   1.8382   2.4396 C.3            1 S1                 0.0000
     16 ****         3.4127   1.4276   0.0488 N.am           1 S1                 0.0000
     17 ****         4.0846   1.1288  -1.0698 C.2            1 S1                 0.0000
     18 ****         5.2761   1.3832  -1.2246 O.2            1 S1                 0.0000
     19 ****         3.2014   4.4935   0.9441 N.pl3          1 S1                 1.0000
     20 ****         3.7447   5.7527   0.6927 C.ar           1 S1                 0.0000
     21 ****         3.1398   7.0013   0.5861 C.ar           1 S1                 0.0000
     22 ****         3.9902   8.0960   0.3271 C.ar           1 S1                 0.0000
     23 ****         5.3825   7.9260   0.1840 C.ar           1 S1                 0.0000
     24 ****         5.9836   6.6544   0.2916 C.ar           1 S1                 0.0000
     25 ****         5.1353   5.5768   0.5467 C.ar           1 S1                 0.0000
     26 ****         4.1880  -0.1812   4.8534 H              1 S1                 0.0000
     27 ****         4.5477   0.8035   6.2661 H              1 S1                 0.0000
     28 ****         5.6804  -0.4661   5.7403 H              1 S1                 0.0000
     29 ****         6.7175   1.1583   7.0832 H              1 S1                 0.0000
     30 ****         8.6230   2.5016   7.8396 H              1 S1                 0.0000
     31 ****         9.7387   4.0891   6.2879 H              1 S1                 0.0000
     32 ****         8.9437   4.3378   3.9826 H              1 S1                 0.0000
     33 ****         7.5260   4.8116   2.2828 H              1 S1                 0.0000
     34 ****         8.5145   3.4263   1.8093 H              1 S1                 0.0000
     35 ****         7.2680   4.2600  -0.1681 H              1 S1                 0.0000
     36 ****         6.7006   2.6687   0.2548 H              1 S1                 0.0000
     37 ****         4.9703   1.6314   1.4108 H              1 S1                 0.0000
     38 ****         3.5306   2.3173   3.3254 H              1 S1                 0.0000
     39 ****         3.0271   0.7721   2.6519 H              1 S1                 0.0000
     40 ****         2.1050   2.2290   2.2968 H              1 S1                 0.0000
     41 ****         2.4342   1.1829   0.0984 H              1 S1                 0.0000
     42 ****         3.4441   0.6341  -1.8164 H              1 S1                 0.0000
     43 ****         2.0736   7.1339   0.6971 H              1 S1                 0.0000
     44 ****         3.5662   9.0858   0.2381 H              1 S1                 0.0000
     45 ****         6.0026   8.7888  -0.0119 H              1 S1                 0.0000
     46 ****         7.0515   6.5366   0.1821 H              1 S1                 0.0000
     47 ****         2.2235   4.2827   1.0955 H              1 S1                 0.0000
     48 ****         4.9465   1.8983   4.2484 LP             1 S1                 0.0000
     49 ****         5.9778   0.7317   3.7563 LP             1 S1                 0.0000
     50 ****         5.8840   3.3111   2.9735 LP             1 S1                 0.0000
     51 ****         6.7934   2.0326   2.5207 LP             1 S1                 0.0000
     52 ****         5.7899   1.8344  -0.4949 LP             1 S1                 0.0000
     53 ****         5.7324   1.1391  -2.0802 LP             1 S1                 0.0000
@<TRIPOS>BOND
    1    1    2 1     
    2    1   26 1     
    3    1   27 1     
    4    1   28 1     
    5    2    3 1     
    6    3    8 ar    
    7    3    4 ar    
    8    4    5 ar    
    9    4   29 1     
   10    5    6 ar    
   11    5   30 1     
   12    6    7 ar    
   13    6   31 1     
   14    7    8 ar    
   15    7   32 1     
   16    8    9 1     
   17    9   10 1     
   18   10   11 1     
   19   10   33 1     
   20   10   34 1     
   21   11   12 1     
   22   11   35 1     
   23   11   36 1     
   24   12   25 1     
   25   12   13 1     
   26   13   14 1     
   27   13   19 2     
   28   14   15 1     
   29   14   16 1     
   30   14   37 1     
   31   15   38 1     
   32   15   39 1     
   33   15   40 1     
   34   16   17 am    
   35   16   41 1     
   36   17   18 2     
   37   17   42 1     
   38   19   20 1     
   39   19   47 1     
   40   20   25 ar    
   41   20   21 ar    
   42   21   22 ar    
   43   21   43 1     
   44   22   23 ar    
   45   22   44 1     
   46   23   24 ar    
   47   23   45 1     
   48   24   25 ar    
   49   24   46 1     
   50    2   48 1     
   51    2   49 1     
   52    9   50 1     
   53    9   51 1     
   54   18   52 1     
   55   18   53 1     
@<TRIPOS>SUBSTRUCTURE
      1 S1             1
@<TRIPOS>SET
LONE_PAIRS      STATIC     ATOMS    <user>   **** ""
6 48 49 50 51 52 53
DONOR_HYDROGENS      STATIC     ATOMS    <user>   **** ""
2 41 47
ATOM$BLUE        STATIC     ATOMS    COLORGROUP SYSTEM
6 48 49 50 51 52 53
ATOM$RED        STATIC     ATOMS    COLORGROUP SYSTEM
2 41 47
