#       Name:                AV-unprocessed.smi:2267
#       Creating user name   scv26
#       Creation time:       Fri Mar 27 12:35:35 2020


#       File generated by GOLD software.
#

@<TRIPOS>MOLECULE
AV-unprocessed.smi:2267
    48    49     1
SMALL
NO_CHARGES


@<TRIPOS>ATOM
      1 ****        -6.4228  -0.2997   0.0930 C.3            1 S1                 0.0000
      2 ****        -5.4062   0.8203   0.0120 C.ar           1 S1                 0.0000
      3 ****        -5.8207   2.1384  -0.2652 C.ar           1 S1                 0.0000
      4 ****        -4.8696   3.1723  -0.3401 C.ar           1 S1                 0.0000
      5 ****        -3.5052   2.8904  -0.1383 C.ar           1 S1                 0.0000
      6 ****        -3.0728   1.5775   0.1396 C.ar           1 S1                 0.0000
      7 ****        -1.7193   1.3918   0.3241 O.3            1 S1                 0.0000
      8 ****        -1.2505   0.0805   0.6098 C.3            1 S1                 0.0000
      9 ****         0.2768   0.1256   0.7874 C.3            1 S1                 0.0000
     10 ****         0.5305   0.5866   2.1002 O.3            1 S1                 0.0000
     11 ****         0.9155  -1.2748   0.6450 C.3            1 S1                 0.0000
     12 ****         2.3576  -1.2011   0.3542 N.am           1 S1                 0.0000
     13 ****         3.2227  -1.3714   1.4475 C.2            1 S1                 0.0000
     14 ****         4.5075  -1.3281   1.3107 N.2            1 S1                 0.0000
     15 ****         5.0671  -1.1024   0.0498 C.2            1 S1                 0.0000
     16 ****         6.5846  -1.0700   0.0020 C.3            1 S1                 0.0000
     17 ****         4.2845  -0.9226  -1.0491 C.2            1 S1                 0.0000
     18 ****         4.8377  -0.6703  -2.4462 C.3            1 S1                 0.0000
     19 ****         2.8199  -0.9676  -0.9083 C.2            1 S1                 0.0000
     20 ****         2.0515  -0.8055  -1.8584 O.2            1 S1                 0.0000
     21 ****        -4.0383   0.5412   0.2120 C.ar           1 S1                 0.0000
     22 ****        -7.4403   0.0901   0.1340 H              1 S1                 0.0000
     23 ****        -6.2553  -0.9022   0.9862 H              1 S1                 0.0000
     24 ****        -6.3389  -0.9475  -0.7798 H              1 S1                 0.0000
     25 ****        -6.8662   2.3610  -0.4211 H              1 S1                 0.0000
     26 ****        -5.1861   4.1828  -0.5524 H              1 S1                 0.0000
     27 ****        -2.7820   3.6907  -0.1975 H              1 S1                 0.0000
     28 ****        -1.7321  -0.3379   1.4956 H              1 S1                 0.0000
     29 ****        -1.5001  -0.5588  -0.2387 H              1 S1                 0.0000
     30 ****         0.7062   0.8167   0.0608 H              1 S1                 0.0000
     31 ****         0.1000   0.0082   2.7110 H              1 S1                 0.0000
     32 ****         0.7034  -1.8848   1.5258 H              1 S1                 0.0000
     33 ****         0.4338  -1.8150  -0.1721 H              1 S1                 0.0000
     34 ****         2.7363  -1.5377   2.4102 H              1 S1                 0.0000
     35 ****         6.9636  -1.8426  -0.6678 H              1 S1                 0.0000
     36 ****         7.0165  -1.2425   0.9887 H              1 S1                 0.0000
     37 ****         6.9344  -0.0992  -0.3502 H              1 S1                 0.0000
     38 ****         4.4870   0.2919  -2.8205 H              1 S1                 0.0000
     39 ****         4.4955  -1.4460  -3.1319 H              1 S1                 0.0000
     40 ****         5.9258  -0.6589  -2.4822 H              1 S1                 0.0000
     41 ****        -3.7527  -0.4787   0.4199 H              1 S1                 0.0000
     42 ****        -1.4413   1.9777   1.0853 LP             1 S1                 0.0000
     43 ****        -1.2625   1.6935  -0.5128 LP             1 S1                 0.0000
     44 ****         0.1737   1.5147   2.2063 LP             1 S1                 0.0000
     45 ****         1.5155   0.5864   2.2729 LP             1 S1                 0.0000
     46 ****         5.1002  -1.4559   2.1059 LP             1 S1                 0.0000
     47 ****         1.0627  -0.8437  -1.7139 LP             1 S1                 0.0000
     48 ****         2.4169  -0.6359  -2.7737 LP             1 S1                 0.0000
@<TRIPOS>BOND
    1    1    2 1     
    2    1   22 1     
    3    1   23 1     
    4    1   24 1     
    5    2   21 ar    
    6    2    3 ar    
    7    3    4 ar    
    8    3   25 1     
    9    4    5 ar    
   10    4   26 1     
   11    5    6 ar    
   12    5   27 1     
   13    6    7 1     
   14    6   21 ar    
   15    7    8 1     
   16    8    9 1     
   17    8   28 1     
   18    8   29 1     
   19    9   10 1     
   20    9   11 1     
   21    9   30 1     
   22   10   31 1     
   23   11   12 1     
   24   11   32 1     
   25   11   33 1     
   26   12   19 am    
   27   12   13 1     
   28   13   14 2     
   29   13   34 1     
   30   14   15 1     
   31   15   16 1     
   32   15   17 2     
   33   16   35 1     
   34   16   36 1     
   35   16   37 1     
   36   17   18 1     
   37   17   19 1     
   38   18   38 1     
   39   18   39 1     
   40   18   40 1     
   41   19   20 2     
   42   21   41 1     
   43    7   42 1     
   44    7   43 1     
   45   10   44 1     
   46   10   45 1     
   47   14   46 1     
   48   20   47 1     
   49   20   48 1     
@<TRIPOS>SUBSTRUCTURE
      1 S1             1
@<TRIPOS>SET
LONE_PAIRS      STATIC     ATOMS    <user>   **** ""
7 42 43 44 45 46 47 48
DONOR_HYDROGENS      STATIC     ATOMS    <user>   **** ""
1 31
ATOM$BLUE        STATIC     ATOMS    COLORGROUP SYSTEM
7 42 43 44 45 46 47 48
ATOM$RED        STATIC     ATOMS    COLORGROUP SYSTEM
1 31
