AV-unprocessed.smi:2270|AV-procd|sdf|9159|dock8
  -GOLD-   2272012373D 1   1.00000     0.00000
 Structure written by MMmdl.
 52 53  0  0  0  0  0  0  0  0  1 V2000
  145.9588  131.8145  149.3739 C   0  0  0  0  0  0  0  0  0  0  0  0
  145.3608  132.8263  150.3283 C   0  0  0  0  0  0  0  0  0  0  0  0
  144.0523  132.6682  150.8254 C   0  0  0  0  0  0  0  0  0  0  0  0
  143.5589  133.6401  151.7141 C   0  0  0  0  0  0  0  0  0  0  0  0
  144.3888  134.7212  152.0682 C   0  0  0  0  0  0  0  0  0  0  0  0
  145.6899  134.8063  151.5229 C   0  0  0  0  0  0  0  0  0  0  0  0
  146.4501  135.9278  151.9479 N   0  0  0  0  0  0  0  0  0  0  0  0
  146.0009  137.1190  152.3814 C   0  0  0  0  0  0  0  0  0  0  0  0
  144.8175  137.4140  152.5499 O   0  0  0  0  0  0  0  0  0  0  0  0
  147.0173  137.9625  152.6139 N   0  0  0  0  0  0  0  0  0  0  0  0
  146.8962  139.3431  153.0750 C   0  0  0  0  0  0  0  0  0  0  0  0
  147.3533  139.5156  154.5506 C   0  0  1  0  0  0  0  0  0  0  0  0
  148.8817  139.7817  154.7171 C   0  0  0  0  0  0  0  0  0  0  0  0
  149.2603  141.2126  154.2985 C   0  0  0  0  0  0  0  0  0  0  0  0
  149.8312  138.7561  154.0709 C   0  0  0  0  0  0  0  0  0  0  0  0
  146.4919  140.3958  155.3634 N   0  0  0  0  0  0  0  0  0  0  0  0
  146.8935  140.5484  156.7676 C   0  0  0  0  0  0  0  0  0  0  0  0
  145.8635  141.3793  157.5549 C   0  0  0  0  0  0  0  0  0  0  0  0
  145.6892  142.7077  156.9702 N   0  0  0  0  0  0  0  0  0  0  0  0
  144.7198  143.4965  157.7149 C   0  0  0  0  0  0  0  0  0  0  0  0
  145.3006  142.5630  155.5688 C   0  0  0  0  0  0  0  0  0  0  0  0
  146.3307  141.7316  154.7822 C   0  0  0  0  0  0  0  0  0  0  0  0
  146.1563  133.8636  150.6664 N   0  0  0  0  0  0  0  0  0  0  0  0
  145.1937  131.1480  148.9752 H   0  0  0  0  0  0  0  0  0  0  0  0
  146.7058  131.2094  149.8881 H   0  0  0  0  0  0  0  0  0  0  0  0
  146.4413  132.3173  148.5351 H   0  0  0  0  0  0  0  0  0  0  0  0
  143.4418  131.8254  150.5357 H   0  0  0  0  0  0  0  0  0  0  0  0
  142.5611  133.5579  152.1191 H   0  0  0  0  0  0  0  0  0  0  0  0
  144.0261  135.4754  152.7515 H   0  0  0  0  0  0  0  0  0  0  0  0
  147.4518  135.8179  151.8944 H   0  0  0  0  0  0  0  0  0  0  0  0
  147.9547  137.6267  152.4482 H   0  0  0  0  0  0  0  0  0  0  0  0
  147.4327  140.0240  152.4137 H   0  0  0  0  0  0  0  0  0  0  0  0
  145.8438  139.6054  152.9731 H   0  0  0  0  0  0  0  0  0  0  0  0
  147.2367  138.5196  154.9808 H   0  0  0  0  0  0  0  0  0  0  0  0
  149.0866  139.7364  155.7865 H   0  0  0  0  0  0  0  0  0  0  0  0
  149.1358  141.3614  153.2255 H   0  0  0  0  0  0  0  0  0  0  0  0
  150.3006  141.4298  154.5425 H   0  0  0  0  0  0  0  0  0  0  0  0
  148.6427  141.9507  154.8108 H   0  0  0  0  0  0  0  0  0  0  0  0
  149.9151  138.9018  152.9950 H   0  0  0  0  0  0  0  0  0  0  0  0
  149.5208  137.7288  154.2546 H   0  0  0  0  0  0  0  0  0  0  0  0
  150.8372  138.8634  154.4773 H   0  0  0  0  0  0  0  0  0  0  0  0
  147.0034  139.5837  157.2525 H   0  0  0  0  0  0  0  0  0  0  0  0
  147.8662  141.0375  156.8313 H   0  0  0  0  0  0  0  0  0  0  0  0
  144.9087  140.8513  157.5774 H   0  0  0  0  0  0  0  0  0  0  0  0
  146.1921  141.4736  158.5905 H   0  0  0  0  0  0  0  0  0  0  0  0
  144.6139  144.4901  157.2785 H   0  0  0  0  0  0  0  0  0  0  0  0
  145.0376  143.6210  158.7505 H   0  0  0  0  0  0  0  0  0  0  0  0
  143.7390  143.0190  157.7150 H   0  0  0  0  0  0  0  0  0  0  0  0
  144.3203  142.0889  155.4991 H   0  0  0  0  0  0  0  0  0  0  0  0
  145.2044  143.5473  155.1097 H   0  0  0  0  0  0  0  0  0  0  0  0
  147.2846  142.2593  154.7645 H   0  0  0  0  0  0  0  0  0  0  0  0
  145.9997  141.6488  153.7466 H   0  0  0  0  0  0  0  0  0  0  0  0
  1  2  1  0  0  0  0
  1 24  1  0  0  0  0
  1 25  1  0  0  0  0
  1 26  1  0  0  0  0
  2 23  1  0  0  0  0
  2  3  2  0  0  0  0
  3  4  1  0  0  0  0
  3 27  1  0  0  0  0
  4  5  2  0  0  0  0
  4 28  1  0  0  0  0
  5  6  1  0  0  0  0
  5 29  1  0  0  0  0
  6  7  1  0  0  0  0
  6 23  2  0  0  0  0
  7  8  1  0  0  0  0
  7 30  1  0  0  0  0
  8  9  2  0  0  0  0
  8 10  1  0  0  0  0
 10 11  1  0  0  0  0
 10 31  1  0  0  0  0
 11 12  1  0  0  0  0
 11 32  1  0  0  0  0
 11 33  1  0  0  0  0
 12 13  1  0  0  0  0
 12 16  1  0  0  0  0
 12 34  1  0  0  0  0
 13 14  1  0  0  0  0
 13 15  1  0  0  0  0
 13 35  1  0  0  0  0
 14 36  1  0  0  0  0
 14 37  1  0  0  0  0
 14 38  1  0  0  0  0
 15 39  1  0  0  0  0
 15 40  1  0  0  0  0
 15 41  1  0  0  0  0
 16 22  1  0  0  0  0
 16 17  1  0  0  0  0
 17 18  1  0  0  0  0
 17 42  1  0  0  0  0
 17 43  1  0  0  0  0
 18 19  1  0  0  0  0
 18 44  1  0  0  0  0
 18 45  1  0  0  0  0
 19 20  1  0  0  0  0
 19 21  1  0  0  0  0
 20 46  1  0  0  0  0
 20 47  1  0  0  0  0
 20 48  1  0  0  0  0
 21 22  1  0  0  0  0
 21 49  1  0  0  0  0
 21 50  1  0  0  0  0
 22 51  1  0  0  0  0
 22 52  1  0  0  0  0
M  END
> <s_m_source_file>
AV-unprocessed.smi

> <i_m_source_file_index>
2270

> <i_lp_mmshare_version>
43012

> <i_f3d_flags>
0

> <s_epik_input>
W0NIM11jMVtjSF1bY0hdW2NIXWMobjEpW05IXUMoPU8pW05IXVtDSDJdW0NASF0oW0NIXShbQ0gzXSlbQ0gzXSlOMltDSDJdW0NIMl1OKFtDSDNdKVtDSDJdW0NIMl0y

> <s_epik_cmdline>
J2VwaWtfcHl0aG9uJywgJy1waCcsICc3LjAnLCAnLXRuJywgJzgnLCAnLW1hJywgJzIwMCcsICctbWV0YWxfYmluZGluZycsICctaW1hZScsICc8aW5maWxlLm1hZT4nLCAnLW9tYWUnLCAnPG91dGZpbGUubWFlPic=

> <r_epik_Ionization_Penalty>
2.57754

> <r_epik_Ionization_Penalty_Charging>
0

> <r_epik_Ionization_Penalty_Neutral>
2.57754

> <r_epik_State_Penalty>
2.00874

> <r_epik_Charging_Adjusted_Penalty>
2.00874

> <i_epik_Tot_Q>
0

> <i_epik_Tot_abs_Q>
0

> <r_epik_Metal_State_Penalty>
2.00874

> <b_epik_Metal_Only>
0

> <s_lp_Force_Field>
OPLS_2005

> <r_lp_Energy>
49.2336

> <b_lp_Chiralities_Consistent>
1

> <s_lp_Variant>
AV-unprocessed.smi:2270-6

> <Gold.Version>
5.8.1

> <Gold.Id.Protein>
6NUR|6NUR_protein|mol2

> <Gold.PLP.Fitness>
39.8823

> <Gold.PLP.PLP>
-35.3620

> <Gold.PLP.part.hbond>
-2.0000

> <Gold.PLP.part.metal>
0.0000

> <Gold.PLP.part.buried>
-5.1523

> <Gold.PLP.part.nonpolar>
-29.5452

> <Gold.PLP.part.repulsive>
0.9393

> <Gold.PLP.ligand.clash>
0.0000

> <Gold.PLP.ligand.torsion>
0.8659

> <Gold.PLP.Chemscore.Hbond>
1.9440

> <Gold.PLP.Chemscore.CHOScore>
0.0000

> <Gold.PLP.Chemscore.Metal>
0.0000

> <Gold.Chemscore.Hbonds>
donor molecule, donor type, donor heavy atom, donor atom, acceptor molecule, acceptor atom, score
      L1  H     7    30       P1  7948  0.99
      L1  H    10    31       P1  7948  0.91

> <Gold.PLP.Chemscore.Internal.Correction>
0.4202

> <Gold.Rescore>
     Score         DG    S(hbond)    S(metal)    S(lipo)     H(rot)  DE(clash)    DE(int)     intcor
     15.37     -17.87       1.94        0.00      84.57       1.56       0.06       2.45       ----

> <Gold.Chemscore.Fitness>
15.3708

> <Gold.Chemscore.DG>
-17.8722

> <Gold.Chemscore.ZeroCoef>
-5.4800

> <Gold.Chemscore.Hbond>
1.9445

> <Gold.Chemscore.Metal>
0.0000

> <Gold.Chemscore.Lipo>
84.5670

> <Gold.Chemscore.Internal_Hbond>
0.0000

> <Gold.Chemscore.DEClash>
0.0563

> <Gold.Chemscore.DEInternal>
2.4451

> <Gold.Chemscore.Rot>
1.5612

> <Gold.Chemscore.Internal.Correction>
   9.000000E+99

> <Gold.Chemscore.Hbonds>
donor molecule, donor type, donor heavy atom, donor atom, acceptor molecule, acceptor atom, score
      L1  H     7    30       P1  7948  0.92
      L1  H    10    31       P1  7948  0.90

> <Gold.Chemscore.Hbond.Weighted>
-6.4945

> <Gold.Chemscore.Metal.Weighted>
-0.0000

> <Gold.Chemscore.Lipo.Weighted>
-9.8943

> <Gold.Chemscore.Internal_Hbond.Weighted>
0.0000

> <Gold.Chemscore.DEClash.Weighted>
0.0563

> <Gold.Chemscore.DEInternal.Weighted>
2.4451

> <Gold.Chemscore.Rot.Weighted>
3.9966

> <Gold.Chemscore.Internal.Correction.Weighted>
   9.000000E+99

> <Gold.Protein.RotatedTorsions>
[ 6907 6896 6895 6894 ] final -114.42 input  -60.11 | X-H torsion
[ 7974 7965 7964 7962 ] final   53.82 input  175.53 | X-H torsion
[ 8008 7997 7996 7995 ] final   20.74 input   59.86 | X-H torsion
[ 10167 10162 10161 10158 ] final  -26.55 input  -65.29 | X-H torsion
[ 10718 10713 10712 10709 ] final  179.84 input   66.30 | X-H torsion
[ 10763 10752 10751 10750 ] final -136.57 input  -60.55 | X-H torsion
[ 11005 11000 10999 10996 ] final    3.33 input  -57.11 | X-H torsion

> <Gold.Protein.ActiveResidues>
 VAL166  LYS551  ARG553  GLY616  TRP617  ASP618  TYR619  PRO620  LYS621  CYS622 
 ASP623  PHE694  ASN695  SER759  ASP760  ASP761  ALA762  ILE779  LEU786  VAL792 
 PHE793  MET794  SER795  GLU796  ALA797  LYS798  CYS799  TRP800  GLU811  SER814 

> <Gold.Protein.RotatedAtoms>
  150.7901  133.8803  159.3283 H   0  0  0  0  0  0  0  0  0  0  0  0  # atno 6907 bound_to 6896
  151.6643  135.0983  160.0195 H   0  0  0  0  0  0  0  0  0  0  0  0  # atno 6908 bound_to 6896
  152.3973  133.6727  159.6322 H   0  0  0  0  0  0  0  0  0  0  0  0  # atno 6909 bound_to 6896
  145.9672  139.4115  143.0212 H   0  0  0  0  0  0  0  0  0  0  0  0  # atno 7974 bound_to 7965
  154.9401  140.3052  155.5125 H   0  0  0  0  0  0  0  0  0  0  0  0  # atno 8008 bound_to 7997
  156.2996  140.2338  156.4406 H   0  0  0  0  0  0  0  0  0  0  0  0  # atno 8009 bound_to 7997
  154.8154  140.0426  157.1361 H   0  0  0  0  0  0  0  0  0  0  0  0  # atno 8010 bound_to 7997
  140.7282  143.4168  151.1015 H   0  0  0  0  0  0  0  0  0  0  0  0  # atno 10167 bound_to 10162
  156.8698  130.9780  151.3074 H   0  0  0  0  0  0  0  0  0  0  0  0  # atno 10718 bound_to 10713
  154.8681  135.3668  154.5082 H   0  0  0  0  0  0  0  0  0  0  0  0  # atno 10763 bound_to 10752
  153.5718  135.7020  153.5506 H   0  0  0  0  0  0  0  0  0  0  0  0  # atno 10764 bound_to 10752
  153.3535  135.4065  155.1627 H   0  0  0  0  0  0  0  0  0  0  0  0  # atno 10765 bound_to 10752
  140.5944  133.9894  155.8103 H   0  0  0  0  0  0  0  0  0  0  0  0  # atno 11005 bound_to 11000
  145.7957  140.9794  143.1025 LP  0  0  0  0  0  0  0  0  0  0  0  0  # atno 17320 bound_to 7965
  144.6828  139.9738  143.7482 LP  0  0  0  0  0  0  0  0  0  0  0  0  # atno 17321 bound_to 7965
  139.7809  143.8357  152.3137 LP  0  0  0  0  0  0  0  0  0  0  0  0  # atno 17342 bound_to 10162
  139.8307  144.7255  150.9454 LP  0  0  0  0  0  0  0  0  0  0  0  0  # atno 17343 bound_to 10162
  157.6202  130.8649  149.9096 LP  0  0  0  0  0  0  0  0  0  0  0  0  # atno 17370 bound_to 10713
  156.0732  130.3682  150.0731 LP  0  0  0  0  0  0  0  0  0  0  0  0  # atno 17371 bound_to 10713
  141.0914  133.9911  157.3231 LP  0  0  0  0  0  0  0  0  0  0  0  0  # atno 17394 bound_to 11000
  139.9260  135.0201  156.8235 LP  0  0  0  0  0  0  0  0  0  0  0  0  # atno 17395 bound_to 11000

$$$$
