AV-unprocessed.smi:3052|AV-procd|sdf|11635|dock2
  -GOLD-   2272017 23D 1   1.00000     0.00000
 Structure written by MMmdl.
 41 43  0  0  0  0  0  0  0  0  1 V2000
  147.2973  141.3954  153.8862 C   0  0  0  0  0  0  0  0  0  0  0  0
  148.5939  140.6905  154.1733 C   0  0  0  0  0  0  0  0  0  0  0  0
  149.6245  141.3946  154.6171 N   0  0  0  0  0  0  0  0  0  0  0  0
  150.7009  140.5021  154.7354 O   0  0  0  0  0  0  0  0  0  0  0  0
  150.2937  139.2652  154.3483 C   0  0  0  0  0  0  0  0  0  0  0  0
  151.3157  138.1771  154.3978 C   0  0  0  0  0  0  0  0  0  0  0  0
  151.9547  137.7699  155.7021 C   0  0  0  0  0  0  0  0  0  0  0  0
  152.7788  138.4640  154.6397 C   0  0  0  0  0  0  0  0  0  0  0  0
  148.9705  139.3239  154.0203 C   0  0  0  0  0  0  0  0  0  0  0  0
  148.2016  138.2266  153.5592 N   0  0  0  0  0  0  0  0  0  0  0  0
  146.9568  137.9006  153.9374 C   0  0  0  0  0  0  0  0  0  0  0  0
  146.2933  138.5219  154.7665 O   0  0  0  0  0  0  0  0  0  0  0  0
  146.5389  136.7888  153.3104 N   0  0  0  0  0  0  0  0  0  0  0  0
  145.2592  136.0817  153.4556 C   0  0  1  0  0  0  0  0  0  0  0  0
  145.3072  135.3970  154.8439 C   0  0  0  0  0  0  0  0  0  0  0  0
  144.0859  137.0994  153.4371 C   0  0  0  0  0  0  0  0  0  0  0  0
  143.9629  137.7678  152.1959 O   0  0  0  0  0  0  0  0  0  0  0  0
  145.0286  135.0688  152.3203 C   0  0  0  0  0  0  0  0  0  0  0  0
  146.1387  134.3296  151.6083 C   0  0  0  0  0  0  0  0  0  0  0  0
  145.3002  135.3490  150.8605 C   0  0  0  0  0  0  0  0  0  0  0  0
  146.7718  140.9316  153.0515 H   0  0  0  0  0  0  0  0  0  0  0  0
  147.4610  142.4413  153.6247 H   0  0  0  0  0  0  0  0  0  0  0  0
  146.6382  141.3719  154.7539 H   0  0  0  0  0  0  0  0  0  0  0  0
  151.0753  137.3854  153.6909 H   0  0  0  0  0  0  0  0  0  0  0  0
  151.6988  138.3425  156.5916 H   0  0  0  0  0  0  0  0  0  0  0  0
  152.1321  136.7088  155.8647 H   0  0  0  0  0  0  0  0  0  0  0  0
  153.5040  137.8639  154.0941 H   0  0  0  0  0  0  0  0  0  0  0  0
  153.0790  139.4905  154.8398 H   0  0  0  0  0  0  0  0  0  0  0  0
  148.6827  137.5658  152.9669 H   0  0  0  0  0  0  0  0  0  0  0  0
  147.1876  136.3697  152.6606 H   0  0  0  0  0  0  0  0  0  0  0  0
  144.3638  134.9137  155.0964 H   0  0  0  0  0  0  0  0  0  0  0  0
  145.5067  136.1190  155.6365 H   0  0  0  0  0  0  0  0  0  0  0  0
  146.0969  134.6496  154.9083 H   0  0  0  0  0  0  0  0  0  0  0  0
  143.1354  136.6158  153.6633 H   0  0  0  0  0  0  0  0  0  0  0  0
  144.2332  137.8530  154.2115 H   0  0  0  0  0  0  0  0  0  0  0  0
  143.6093  138.6299  152.3538 H   0  0  0  0  0  0  0  0  0  0  0  0
  144.1499  134.4518  152.4965 H   0  0  0  0  0  0  0  0  0  0  0  0
  147.1728  134.5923  151.8145 H   0  0  0  0  0  0  0  0  0  0  0  0
  145.9700  133.2794  151.3788 H   0  0  0  0  0  0  0  0  0  0  0  0
  144.5785  134.9708  150.1396 H   0  0  0  0  0  0  0  0  0  0  0  0
  145.7789  136.2836  150.5806 H   0  0  0  0  0  0  0  0  0  0  0  0
  1  2  1  0  0  0  0
  1 21  1  0  0  0  0
  1 22  1  0  0  0  0
  1 23  1  0  0  0  0
  2  9  1  0  0  0  0
  2  3  2  0  0  0  0
  3  4  1  0  0  0  0
  4  5  1  0  0  0  0
  5  6  1  0  0  0  0
  5  9  2  0  0  0  0
  6  8  1  0  0  0  0
  6  7  1  0  0  0  0
  6 24  1  0  0  0  0
  7  8  1  0  0  0  0
  7 25  1  0  0  0  0
  7 26  1  0  0  0  0
  8 27  1  0  0  0  0
  8 28  1  0  0  0  0
  9 10  1  0  0  0  0
 10 11  1  0  0  0  0
 10 29  1  0  0  0  0
 11 12  2  0  0  0  0
 11 13  1  0  0  0  0
 13 14  1  0  0  0  0
 13 30  1  0  0  0  0
 14 15  1  0  0  0  0
 14 16  1  0  0  0  0
 14 18  1  0  0  0  0
 15 31  1  0  0  0  0
 15 32  1  0  0  0  0
 15 33  1  0  0  0  0
 16 17  1  0  0  0  0
 16 34  1  0  0  0  0
 16 35  1  0  0  0  0
 17 36  1  0  0  0  0
 18 20  1  0  0  0  0
 18 19  1  0  0  0  0
 18 37  1  0  0  0  0
 19 20  1  0  0  0  0
 19 38  1  0  0  0  0
 19 39  1  0  0  0  0
 20 40  1  0  0  0  0
 20 41  1  0  0  0  0
M  END
> <s_m_source_file>
AV-unprocessed.smi

> <i_m_source_file_index>
3052

> <i_lp_mmshare_version>
43012

> <i_f3d_flags>
0

> <s_epik_input>
W0NIM11jMW5vYyhbQ0hdMltDSDJdW0NIMl0yKWMxW05IXUMoPU8pW05IXVtDQEBdKFtDSDNdKShbQ0gyXVtPSF0pW0NIXTNbQ0gyXVtDSDJdMw==

> <s_epik_cmdline>
J2VwaWtfcHl0aG9uJywgJy1waCcsICc3LjAnLCAnLXRuJywgJzgnLCAnLW1hJywgJzIwMCcsICctbWV0YWxfYmluZGluZycsICctaW1hZScsICc8aW5maWxlLm1hZT4nLCAnLW9tYWUnLCAnPG91dGZpbGUubWFlPic=

> <r_lp_tautomer_probability>
1

> <r_epik_Ionization_Penalty>
3.5887e-05

> <r_epik_Ionization_Penalty_Charging>
0

> <r_epik_Ionization_Penalty_Neutral>
3.5887e-05

> <r_epik_State_Penalty>
-0

> <r_epik_Charging_Adjusted_Penalty>
0

> <i_epik_Tot_Q>
0

> <i_epik_Tot_abs_Q>
0

> <r_epik_Metal_State_Penalty>
-0

> <b_epik_Metal_Only>
0

> <s_lp_Force_Field>
OPLS_2005

> <r_lp_Energy>
30.0106

> <b_lp_Chiralities_Consistent>
1

> <s_lp_Variant>
AV-unprocessed.smi:3052-1

> <Gold.Version>
5.8.1

> <Gold.Id.Protein>
6NUR|6NUR_protein|mol2

> <Gold.PLP.Fitness>
45.7040

> <Gold.PLP.PLP>
-34.5124

> <Gold.PLP.part.hbond>
-6.0559

> <Gold.PLP.part.metal>
0.0000

> <Gold.PLP.part.buried>
-3.0357

> <Gold.PLP.part.nonpolar>
-25.4968

> <Gold.PLP.part.repulsive>
0.3500

> <Gold.PLP.ligand.clash>
0.0000

> <Gold.PLP.ligand.torsion>
1.4326

> <Gold.PLP.Chemscore.Hbond>
4.0000

> <Gold.PLP.Chemscore.CHOScore>
0.0000

> <Gold.PLP.Chemscore.Metal>
0.0000

> <Gold.Chemscore.Hbonds>
donor molecule, donor type, donor heavy atom, donor atom, acceptor molecule, acceptor atom, score
      L1  H    10    29       P1  7948  1.00
      L1  H    13    30       P1  7948  1.00
      L1  H    17    36       P1 10175  1.00
      P1  H  7989  7998       L1     4  1.00

> <Gold.PLP.Chemscore.Internal.Correction>
2.0569

> <Gold.Rescore>
     Score         DG    S(hbond)    S(metal)    S(lipo)     H(rot)  DE(clash)    DE(int)     intcor
     16.37     -18.49       3.00        0.00      72.85       2.16       0.08       2.04       ----

> <Gold.Chemscore.Fitness>
16.3657

> <Gold.Chemscore.DG>
-18.4869

> <Gold.Chemscore.ZeroCoef>
-5.4800

> <Gold.Chemscore.Hbond>
2.9957

> <Gold.Chemscore.Metal>
0.0000

> <Gold.Chemscore.Lipo>
72.8453

> <Gold.Chemscore.Internal_Hbond>
0.0000

> <Gold.Chemscore.DEClash>
0.0775

> <Gold.Chemscore.DEInternal>
2.0437

> <Gold.Chemscore.Rot>
2.1569

> <Gold.Chemscore.Internal.Correction>
   9.000000E+99

> <Gold.Chemscore.Hbonds>
donor molecule, donor type, donor heavy atom, donor atom, acceptor molecule, acceptor atom, score
      L1  H    10    29       P1  7948  1.00
      L1  H    13    30       P1  7948  0.96
      L1  H    17    36       P1 10175  0.99
      P1  H  7989  7998       L1     4  0.10

> <Gold.Chemscore.Hbond.Weighted>
-10.0058

> <Gold.Chemscore.Metal.Weighted>
-0.0000

> <Gold.Chemscore.Lipo.Weighted>
-8.5229

> <Gold.Chemscore.Internal_Hbond.Weighted>
0.0000

> <Gold.Chemscore.DEClash.Weighted>
0.0775

> <Gold.Chemscore.DEInternal.Weighted>
2.0437

> <Gold.Chemscore.Rot.Weighted>
5.5218

> <Gold.Chemscore.Internal.Correction.Weighted>
   9.000000E+99

> <Gold.Protein.RotatedTorsions>
[ 6907 6896 6895 6894 ] final  -58.30 input  -60.11 | X-H torsion
[ 7974 7965 7964 7962 ] final  161.29 input  175.53 | X-H torsion
[ 8008 7997 7996 7995 ] final  177.66 input   59.86 | X-H torsion
[ 10167 10162 10161 10158 ] final  128.68 input  -65.29 | X-H torsion
[ 10718 10713 10712 10709 ] final  150.74 input   66.30 | X-H torsion
[ 10763 10752 10751 10750 ] final   98.52 input  -60.55 | X-H torsion
[ 11005 11000 10999 10996 ] final  -19.20 input  -57.11 | X-H torsion

> <Gold.Protein.ActiveResidues>
 VAL166  LYS551  ARG553  GLY616  TRP617  ASP618  TYR619  PRO620  LYS621  CYS622 
 ASP623  PHE694  ASN695  SER759  ASP760  ASP761  ALA762  ILE779  LEU786  VAL792 
 PHE793  MET794  SER795  GLU796  ALA797  LYS798  CYS799  TRP800  GLU811  SER814 

> <Gold.Protein.RotatedAtoms>
  150.8018  134.7116  159.6606 H   0  0  0  0  0  0  0  0  0  0  0  0  # atno 6907 bound_to 6896
  152.4135  134.6080  160.0027 H   0  0  0  0  0  0  0  0  0  0  0  0  # atno 6908 bound_to 6896
  151.6316  133.3294  159.3146 H   0  0  0  0  0  0  0  0  0  0  0  0  # atno 6909 bound_to 6896
  144.7693  139.7877  143.6303 H   0  0  0  0  0  0  0  0  0  0  0  0  # atno 7974 bound_to 7965
  156.0632  140.1353  156.9916 H   0  0  0  0  0  0  0  0  0  0  0  0  # atno 8008 bound_to 7997
  154.4492  140.0987  156.6619 H   0  0  0  0  0  0  0  0  0  0  0  0  # atno 8009 bound_to 7997
  155.5345  140.3459  155.4435 H   0  0  0  0  0  0  0  0  0  0  0  0  # atno 8010 bound_to 7997
  139.5515  144.6816  151.4310 H   0  0  0  0  0  0  0  0  0  0  0  0  # atno 10167 bound_to 10162
  157.2796  131.0833  151.1541 H   0  0  0  0  0  0  0  0  0  0  0  0  # atno 10718 bound_to 10713
  153.2900  135.4145  155.1158 H   0  0  0  0  0  0  0  0  0  0  0  0  # atno 10763 bound_to 10752
  154.8517  135.3516  154.5994 H   0  0  0  0  0  0  0  0  0  0  0  0  # atno 10764 bound_to 10752
  153.6416  135.7056  153.5297 H   0  0  0  0  0  0  0  0  0  0  0  0  # atno 10765 bound_to 10752
  140.8344  133.7973  155.9792 H   0  0  0  0  0  0  0  0  0  0  0  0  # atno 11005 bound_to 11000
  146.1827  139.5028  142.9856 LP  0  0  0  0  0  0  0  0  0  0  0  0  # atno 17320 bound_to 7965
  145.6372  141.0292  143.1831 LP  0  0  0  0  0  0  0  0  0  0  0  0  # atno 17321 bound_to 7965
  140.6778  143.8149  150.7082 LP  0  0  0  0  0  0  0  0  0  0  0  0  # atno 17342 bound_to 10162
  140.1594  143.4289  152.2077 LP  0  0  0  0  0  0  0  0  0  0  0  0  # atno 17343 bound_to 10162
  157.2980  130.6829  149.6149 LP  0  0  0  0  0  0  0  0  0  0  0  0  # atno 17370 bound_to 10713
  155.9664  130.4400  150.5284 LP  0  0  0  0  0  0  0  0  0  0  0  0  # atno 17371 bound_to 10713
  140.8964  134.2433  157.5066 LP  0  0  0  0  0  0  0  0  0  0  0  0  # atno 17394 bound_to 11000
  139.8704  134.9686  156.4636 LP  0  0  0  0  0  0  0  0  0  0  0  0  # atno 17395 bound_to 11000

$$$$
