AV-unprocessed.smi:1244|AV-procd|sdf|5224|dock6
  -GOLD-   22720 4323D 1   1.00000     0.00000
 Structure written by MMmdl.
 55 57  0  0  0  0  0  0  0  0  2 V2000
  148.3732  141.4621  155.5125 C   0  0  0  0  0  0  0  0  0  0  0  0
  149.7938  141.4746  154.9202 C   0  0  2  0  0  0  0  0  0  0  0  0
  150.1492  140.1905  154.1448 C   0  0  0  0  0  0  0  0  0  0  0  0
  150.3930  139.0561  155.0672 N   0  3  1  0  0  0  0  0  0  0  0  0
  150.6672  137.7894  154.3441 C   0  0  0  0  0  0  0  0  0  0  0  0
  150.4915  136.5492  155.2418 C   0  0  0  0  0  0  0  0  0  0  0  0
  149.7367  135.5005  154.5663 N   0  0  0  0  0  0  0  0  0  0  0  0
  149.7893  134.1988  154.8816 C   0  0  0  0  0  0  0  0  0  0  0  0
  150.4759  133.7515  155.8005 O   0  0  0  0  0  0  0  0  0  0  0  0
  148.9889  133.4704  154.0861 N   0  0  0  0  0  0  0  0  0  0  0  0
  148.7523  132.0672  154.1308 C   0  0  0  0  0  0  0  0  0  0  0  0
  149.6749  131.1806  154.7382 C   0  0  0  0  0  0  0  0  0  0  0  0
  149.4326  129.7970  154.6963 C   0  0  0  0  0  0  0  0  0  0  0  0
  148.2809  129.3443  154.0317 C   0  0  0  0  0  0  0  0  0  0  0  0
  147.4004  130.1735  153.4367 N   0  0  0  0  0  0  0  0  0  0  0  0
  147.6128  131.5119  153.4809 C   0  0  0  0  0  0  0  0  0  0  0  0
  146.6478  132.3336  152.8550 N   0  0  0  0  0  0  0  0  0  0  0  0
  147.0419  133.2718  151.8092 C   0  0  0  0  0  0  0  0  0  0  0  0
  145.7380  133.6677  151.1233 C   0  0  0  0  0  0  0  0  0  0  0  0
  144.9373  132.3701  151.1749 C   0  0  0  0  0  0  0  0  0  0  0  0
  145.3664  131.7303  152.4994 C   0  0  0  0  0  0  0  0  0  0  0  0
  151.4343  139.4168  156.0591 C   0  0  0  0  0  0  0  0  0  0  0  0
  151.0234  140.6849  156.8291 C   0  0  1  0  0  0  0  0  0  0  0  0
  152.1108  141.1408  157.8082 C   0  0  0  0  0  0  0  0  0  0  0  0
  150.7894  141.7460  155.9068 O   0  0  0  0  0  0  0  0  0  0  0  0
  147.6264  141.3889  154.7215 H   0  0  0  0  0  0  0  0  0  0  0  0
  148.1753  142.3801  156.0665 H   0  0  0  0  0  0  0  0  0  0  0  0
  148.2119  140.6222  156.1875 H   0  0  0  0  0  0  0  0  0  0  0  0
  149.8322  142.3070  154.2169 H   0  0  0  0  0  0  0  0  0  0  0  0
  149.3469  139.9455  153.4474 H   0  0  0  0  0  0  0  0  0  0  0  0
  151.0462  140.3595  153.5466 H   0  0  0  0  0  0  0  0  0  0  0  0
  149.9733  137.7107  153.5059 H   0  0  0  0  0  0  0  0  0  0  0  0
  151.6692  137.8170  153.9127 H   0  0  0  0  0  0  0  0  0  0  0  0
  151.4578  136.1255  155.5123 H   0  0  0  0  0  0  0  0  0  0  0  0
  149.9976  136.8198  156.1768 H   0  0  0  0  0  0  0  0  0  0  0  0
  149.1439  135.7826  153.7989 H   0  0  0  0  0  0  0  0  0  0  0  0
  148.4088  133.9853  153.4398 H   0  0  0  0  0  0  0  0  0  0  0  0
  150.5753  131.5371  155.2145 H   0  0  0  0  0  0  0  0  0  0  0  0
  150.1205  129.0997  155.1511 H   0  0  0  0  0  0  0  0  0  0  0  0
  148.0636  128.2883  153.9700 H   0  0  0  0  0  0  0  0  0  0  0  0
  147.5606  134.1364  152.2246 H   0  0  0  0  0  0  0  0  0  0  0  0
  147.7003  132.7914  151.0841 H   0  0  0  0  0  0  0  0  0  0  0  0
  145.2314  134.4421  151.7011 H   0  0  0  0  0  0  0  0  0  0  0  0
  145.8864  134.0404  150.1095 H   0  0  0  0  0  0  0  0  0  0  0  0
  143.8608  132.5302  151.1111 H   0  0  0  0  0  0  0  0  0  0  0  0
  145.2310  131.7265  150.3447 H   0  0  0  0  0  0  0  0  0  0  0  0
  145.4326  130.6446  152.4132 H   0  0  0  0  0  0  0  0  0  0  0  0
  144.6389  131.9644  153.2771 H   0  0  0  0  0  0  0  0  0  0  0  0
  151.5835  138.6032  156.7680 H   0  0  0  0  0  0  0  0  0  0  0  0
  152.3861  139.5742  155.5487 H   0  0  0  0  0  0  0  0  0  0  0  0
  150.1170  140.4873  157.4017 H   0  0  0  0  0  0  0  0  0  0  0  0
  152.3259  140.3664  158.5448 H   0  0  0  0  0  0  0  0  0  0  0  0
  151.7982  142.0346  158.3490 H   0  0  0  0  0  0  0  0  0  0  0  0
  153.0397  141.3748  157.2873 H   0  0  0  0  0  0  0  0  0  0  0  0
  149.5323  138.9157  155.5770 H   0  0  0  0  0  0  0  0  0  0  0  0
  1  2  1  0  0  0  0
  1 26  1  0  0  0  0
  1 27  1  0  0  0  0
  1 28  1  0  0  0  0
  2 25  1  0  0  0  0
  2  3  1  0  0  0  0
  2 29  1  0  0  0  0
  3  4  1  0  0  0  0
  3 30  1  0  0  0  0
  3 31  1  0  0  0  0
  4  5  1  0  0  0  0
  4 22  1  0  0  0  0
  4 55  1  0  0  0  0
  5  6  1  0  0  0  0
  5 32  1  0  0  0  0
  5 33  1  0  0  0  0
  6  7  1  0  0  0  0
  6 34  1  0  0  0  0
  6 35  1  0  0  0  0
  7  8  1  0  0  0  0
  7 36  1  0  0  0  0
  8  9  2  0  0  0  0
  8 10  1  0  0  0  0
 10 11  1  0  0  0  0
 10 37  1  0  0  0  0
 11 16  1  0  0  0  0
 11 12  2  0  0  0  0
 12 13  1  0  0  0  0
 12 38  1  0  0  0  0
 13 14  2  0  0  0  0
 13 39  1  0  0  0  0
 14 15  1  0  0  0  0
 14 40  1  0  0  0  0
 15 16  2  0  0  0  0
 16 17  1  0  0  0  0
 17 21  1  0  0  0  0
 17 18  1  0  0  0  0
 18 19  1  0  0  0  0
 18 41  1  0  0  0  0
 18 42  1  0  0  0  0
 19 20  1  0  0  0  0
 19 43  1  0  0  0  0
 19 44  1  0  0  0  0
 20 21  1  0  0  0  0
 20 45  1  0  0  0  0
 20 46  1  0  0  0  0
 21 47  1  0  0  0  0
 21 48  1  0  0  0  0
 22 23  1  0  0  0  0
 22 49  1  0  0  0  0
 22 50  1  0  0  0  0
 23 24  1  0  0  0  0
 23 25  1  0  0  0  0
 23 51  1  0  0  0  0
 24 52  1  0  0  0  0
 24 53  1  0  0  0  0
 24 54  1  0  0  0  0
M  CHG  1   4   1
M  END
> <s_m_source_file>
AV-unprocessed.smi

> <i_m_source_file_index>
1244

> <i_lp_mmshare_version>
43012

> <i_f3d_flags>
0

> <s_epik_input>
W0NIM11bQ0BASF0xW0NIMl1OKFtDSDJdW0NASF0oTzEpW0NIM10pW0NIMl1bQ0gyXVtOSF1DKD1PKVtOSF1jMltjSF1bY0hdW2NIXW5jMk4zW0NIMl1bQ0gyXVtDSDJdW0NIMl0z

> <s_epik_cmdline>
J2VwaWtfcHl0aG9uJywgJy1waCcsICc3LjAnLCAnLXRuJywgJzgnLCAnLW1hJywgJzIwMCcsICctbWV0YWxfYmluZGluZycsICctaW1hZScsICc8aW5maWxlLm1hZT4nLCAnLW9tYWUnLCAnPG91dGZpbGUubWFlPic=

> <r_lp_tautomer_probability>
1

> <r_epik_Ionization_Penalty>
0.684913

> <r_epik_Ionization_Penalty_Charging>
0.602531

> <r_epik_Ionization_Penalty_Neutral>
0.0823829

> <r_epik_State_Penalty>
0.678827

> <r_epik_Charging_Adjusted_Penalty>
1.28136

> <i_epik_Tot_Q>
1

> <i_epik_Tot_abs_Q>
1

> <r_epik_Metal_State_Penalty>
0.67806

> <b_epik_Metal_Only>
0

> <s_lp_Force_Field>
OPLS_2005

> <r_lp_Energy>
45.4431

> <b_lp_Chiralities_Consistent>
1

> <s_lp_Variant>
AV-unprocessed.smi:1244-4

> <Gold.Version>
5.8.1

> <Gold.Id.Protein>
6NUR|6NUR_protein|mol2

> <Gold.PLP.Fitness>
41.5594

> <Gold.PLP.PLP>
-39.9972

> <Gold.PLP.part.hbond>
-1.0444

> <Gold.PLP.part.metal>
0.0000

> <Gold.PLP.part.buried>
-4.4536

> <Gold.PLP.part.nonpolar>
-34.9884

> <Gold.PLP.part.repulsive>
0.4274

> <Gold.PLP.ligand.clash>
0.0000

> <Gold.PLP.ligand.torsion>
0.8674

> <Gold.PLP.Chemscore.Hbond>
0.9760

> <Gold.PLP.Chemscore.CHOScore>
0.0000

> <Gold.PLP.Chemscore.Metal>
0.0000

> <Gold.Chemscore.Hbonds>
donor molecule, donor type, donor heavy atom, donor atom, acceptor molecule, acceptor atom, score
      L1  H     7    36       P1  7948  0.94

> <Gold.PLP.Chemscore.Internal.Correction>
0.3690

> <Gold.Rescore>
     Score         DG    S(hbond)    S(metal)    S(lipo)     H(rot)  DE(clash)    DE(int)     intcor
     11.42     -14.03       0.65        0.00      89.56       1.60       0.33       2.28       ----

> <Gold.Chemscore.Fitness>
11.4204

> <Gold.Chemscore.DG>
-14.0307

> <Gold.Chemscore.ZeroCoef>
-5.4800

> <Gold.Chemscore.Hbond>
0.6474

> <Gold.Chemscore.Metal>
0.0000

> <Gold.Chemscore.Lipo>
89.5632

> <Gold.Chemscore.Internal_Hbond>
0.0000

> <Gold.Chemscore.DEClash>
0.3287

> <Gold.Chemscore.DEInternal>
2.2816

> <Gold.Chemscore.Rot>
1.5978

> <Gold.Chemscore.Internal.Correction>
   9.000000E+99

> <Gold.Chemscore.Hbonds>
donor molecule, donor type, donor heavy atom, donor atom, acceptor molecule, acceptor atom, score
      L1  H     7    36       P1  7948  0.73

> <Gold.Chemscore.Hbond.Weighted>
-2.1622

> <Gold.Chemscore.Metal.Weighted>
-0.0000

> <Gold.Chemscore.Lipo.Weighted>
-10.4789

> <Gold.Chemscore.Internal_Hbond.Weighted>
0.0000

> <Gold.Chemscore.DEClash.Weighted>
0.3287

> <Gold.Chemscore.DEInternal.Weighted>
2.2816

> <Gold.Chemscore.Rot.Weighted>
4.0905

> <Gold.Chemscore.Internal.Correction.Weighted>
   9.000000E+99

> <Gold.Protein.RotatedTorsions>
[ 6907 6896 6895 6894 ] final  147.72 input  -60.11 | X-H torsion
[ 7974 7965 7964 7962 ] final  -72.57 input  175.53 | X-H torsion
[ 8008 7997 7996 7995 ] final -110.13 input   59.86 | X-H torsion
[ 10167 10162 10161 10158 ] final  -97.46 input  -65.29 | X-H torsion
[ 10718 10713 10712 10709 ] final -116.35 input   66.30 | X-H torsion
[ 10763 10752 10751 10750 ] final  124.02 input  -60.55 | X-H torsion
[ 11005 11000 10999 10996 ] final -146.60 input  -57.11 | X-H torsion

> <Gold.Protein.ActiveResidues>
 VAL166  LYS551  ARG553  GLY616  TRP617  ASP618  TYR619  PRO620  LYS621  CYS622 
 ASP623  PHE694  ASN695  SER759  ASP760  ASP761  ALA762  ILE779  LEU786  VAL792 
 PHE793  MET794  SER795  GLU796  ALA797  LYS798  CYS799  TRP800  GLU811  SER814 

> <Gold.Protein.RotatedAtoms>
  152.1510  133.4522  159.4813 H   0  0  0  0  0  0  0  0  0  0  0  0  # atno 6907 bound_to 6896
  150.6895  134.2189  159.4398 H   0  0  0  0  0  0  0  0  0  0  0  0  # atno 6908 bound_to 6896
  152.0086  134.9889  160.0618 H   0  0  0  0  0  0  0  0  0  0  0  0  # atno 6909 bound_to 6896
  145.6634  140.9245  143.0921 H   0  0  0  0  0  0  0  0  0  0  0  0  # atno 7974 bound_to 7965
  154.9699  140.0398  157.2229 H   0  0  0  0  0  0  0  0  0  0  0  0  # atno 8008 bound_to 7997
  154.7811  140.2819  155.6041 H   0  0  0  0  0  0  0  0  0  0  0  0  # atno 8009 bound_to 7997
  156.2936  140.2591  156.2636 H   0  0  0  0  0  0  0  0  0  0  0  0  # atno 8010 bound_to 7997
  140.2831  143.3269  152.0421 H   0  0  0  0  0  0  0  0  0  0  0  0  # atno 10167 bound_to 10162
  156.0958  130.6131  150.9024 H   0  0  0  0  0  0  0  0  0  0  0  0  # atno 10718 bound_to 10713
  153.6547  135.3356  155.3110 H   0  0  0  0  0  0  0  0  0  0  0  0  # atno 10763 bound_to 10752
  154.8529  135.4349  154.1867 H   0  0  0  0  0  0  0  0  0  0  0  0  # atno 10764 bound_to 10752
  153.2819  135.7009  153.7452 H   0  0  0  0  0  0  0  0  0  0  0  0  # atno 10765 bound_to 10752
  140.7803  134.3087  157.5047 H   0  0  0  0  0  0  0  0  0  0  0  0  # atno 11005 bound_to 11000
  144.7081  139.8479  143.7423 LP  0  0  0  0  0  0  0  0  0  0  0  0  # atno 17320 bound_to 7965
  146.1106  139.4110  143.0290 LP  0  0  0  0  0  0  0  0  0  0  0  0  # atno 17321 bound_to 7965
  139.4957  144.6577  151.6534 LP  0  0  0  0  0  0  0  0  0  0  0  0  # atno 17342 bound_to 10162
  140.5795  143.9971  150.6260 LP  0  0  0  0  0  0  0  0  0  0  0  0  # atno 17343 bound_to 10162
  157.6118  131.0936  150.8781 LP  0  0  0  0  0  0  0  0  0  0  0  0  # atno 17370 bound_to 10713
  156.8920  130.5216  149.5286 LP  0  0  0  0  0  0  0  0  0  0  0  0  # atno 17371 bound_to 10713
  139.8743  134.9314  156.3527 LP  0  0  0  0  0  0  0  0  0  0  0  0  # atno 17394 bound_to 11000
  140.9489  133.7464  156.0245 LP  0  0  0  0  0  0  0  0  0  0  0  0  # atno 17395 bound_to 11000

$$$$
