#       Name:                AV-unprocessed.smi:3161
#       Creating user name   scv26
#       Creation time:       Fri Mar 27 17:48:46 2020


#       File generated by GOLD software.
#

@<TRIPOS>MOLECULE
AV-unprocessed.smi:3161
    44    45     1
SMALL
NO_CHARGES


@<TRIPOS>ATOM
      1 ****        -3.4959   3.2624  -2.9310 C.3            1 S1                 0.0000
      2 ****        -3.2612   2.0290  -2.1075 C.2            1 S1                 0.0000
      3 ****        -3.4804   1.8534  -0.7115 C.2            1 S1                 0.0000
      4 ****        -3.1750   0.6366  -0.2917 N.2            1 S1                 0.0000
      5 ****        -2.7452  -0.0044  -1.3996 N.pl3          1 S1                 0.0000
      6 ****        -2.3133  -1.3889  -1.3154 C.3            1 S1                 0.0000
      7 ****        -0.7779  -1.5294  -1.3319 C.3            1 S1                 0.0000
      8 ****        -0.3790  -3.0124  -1.4407 C.3            1 S1                 0.0000
      9 ****        -0.1993  -0.8987  -0.1401 N.3            1 S1                 0.0000
     10 ****         1.2596  -0.8160  -0.1105 C.3            1 S1                 0.0000
     11 ****         1.7376  -0.0734   1.1453 C.3            1 S1                 0.0000
     12 ****         3.2234   0.3215   1.0438 C.3            1 S1                 0.0000
     13 ****         3.6950   0.9821   2.3445 C.3            1 S1                 0.0000
     14 ****         3.3700   0.0724   3.5338 C.3            1 S1                 0.0000
     15 ****         1.8866  -0.3278   3.5100 C.3            1 S1                 0.0000
     16 ****         1.5700  -0.9422   2.2646 O.3            1 S1                 0.0000
     17 ****        -2.7894   0.8116  -2.5099 C.2            1 S1                 0.0000
     18 ****        -3.7413   4.1242  -2.3097 H              1 S1                 0.0000
     19 ****        -4.3200   3.1260  -3.6313 H              1 S1                 0.0000
     20 ****        -2.6160   3.5293  -3.5164 H              1 S1                 0.0000
     21 ****        -3.8523   2.5707   0.0052 H              1 S1                 0.0000
     22 ****        -2.7344  -1.8453  -0.4176 H              1 S1                 0.0000
     23 ****        -2.7467  -1.9193  -2.1643 H              1 S1                 0.0000
     24 ****        -0.4048  -1.0184  -2.2204 H              1 S1                 0.0000
     25 ****        -0.8730  -3.4867  -2.2891 H              1 S1                 0.0000
     26 ****        -0.6601  -3.5664  -0.5443 H              1 S1                 0.0000
     27 ****         0.6928  -3.1377  -1.5922 H              1 S1                 0.0000
     28 ****        -0.5295  -1.3710   0.6959 H              1 S1                 0.0000
     29 ****         1.7127  -1.8067  -0.1369 H              1 S1                 0.0000
     30 ****         1.6060  -0.2862  -0.9985 H              1 S1                 0.0000
     31 ****         1.1363   0.8276   1.2835 H              1 S1                 0.0000
     32 ****         3.8274  -0.5647   0.8446 H              1 S1                 0.0000
     33 ****         3.3783   1.0009   0.2051 H              1 S1                 0.0000
     34 ****         4.7651   1.1873   2.3021 H              1 S1                 0.0000
     35 ****         3.1954   1.9435   2.4700 H              1 S1                 0.0000
     36 ****         3.9890  -0.8245   3.4893 H              1 S1                 0.0000
     37 ****         3.6115   0.5741   4.4713 H              1 S1                 0.0000
     38 ****         1.6762  -1.0328   4.3143 H              1 S1                 0.0000
     39 ****         1.2460   0.5403   3.6728 H              1 S1                 0.0000
     40 ****        -2.4824   0.4617  -3.4845 H              1 S1                 0.0000
     41 ****        -3.2465   0.2732   0.6372 LP             1 S1                 0.0000
     42 ****        -0.5146   0.0496  -0.1756 LP             1 S1                 0.0000
     43 ****         2.1660  -1.7357   2.1420 LP             1 S1                 0.0000
     44 ****         0.6166  -1.2427   2.2926 LP             1 S1                 0.0000
@<TRIPOS>BOND
    1    1    2 1     
    2    1   18 1     
    3    1   19 1     
    4    1   20 1     
    5    2   17 2     
    6    2    3 1     
    7    3    4 2     
    8    3   21 1     
    9    4    5 1     
   10    5    6 1     
   11    5   17 1     
   12    6    7 1     
   13    6   22 1     
   14    6   23 1     
   15    7    8 1     
   16    7    9 1     
   17    7   24 1     
   18    8   25 1     
   19    8   26 1     
   20    8   27 1     
   21    9   10 1     
   22    9   28 1     
   23   10   11 1     
   24   10   29 1     
   25   10   30 1     
   26   11   16 1     
   27   11   12 1     
   28   11   31 1     
   29   12   13 1     
   30   12   32 1     
   31   12   33 1     
   32   13   14 1     
   33   13   34 1     
   34   13   35 1     
   35   14   15 1     
   36   14   36 1     
   37   14   37 1     
   38   15   16 1     
   39   15   38 1     
   40   15   39 1     
   41   17   40 1     
   42    4   41 1     
   43    9   42 1     
   44   16   43 1     
   45   16   44 1     
@<TRIPOS>SUBSTRUCTURE
      1 S1             1
@<TRIPOS>SET
LONE_PAIRS      STATIC     ATOMS    <user>   **** ""
4 41 42 43 44
DONOR_HYDROGENS      STATIC     ATOMS    <user>   **** ""
1 28
ATOM$BLUE        STATIC     ATOMS    COLORGROUP SYSTEM
4 41 42 43 44
ATOM$RED        STATIC     ATOMS    COLORGROUP SYSTEM
1 28
