#       Name:                AV-unprocessed.smi:835
#       Creating user name   scv26
#       Creation time:       Fri Mar 27 01:34:26 2020


#       File generated by GOLD software.
#

@<TRIPOS>MOLECULE
AV-unprocessed.smi:835
    44    46     1
SMALL
NO_CHARGES


@<TRIPOS>ATOM
      1 ****        -6.6748  -1.4775   0.6238 C.3            1 S1                 0.0000
      2 ****        -5.4737  -0.5791   0.5959 C.2            1 S1                 0.0000
      3 ****        -4.1215  -0.9299   0.3131 C.2            1 S1                 0.0000
      4 ****        -3.4698   0.2675   0.4286 C.2            1 S1                 0.0000
      5 ****        -2.1498   0.5406   0.2519 N.am           1 S1                 0.0000
      6 ****        -1.1307  -0.3224   0.0975 C.2            1 S1                 0.0000
      7 ****        -1.2263  -1.5498   0.1023 O.2            1 S1                 0.0000
      8 ****         0.0348   0.3224  -0.0546 N.am           1 S1                 0.0000
      9 ****         1.3275  -0.3338  -0.2187 C.3            1 S1                 0.0000
     10 ****         1.9083  -0.9196   1.0648 C.3            1 S1                 0.0000
     11 ****         3.3984  -1.0440   0.7293 C.3            1 S1                 0.0000
     12 ****         3.6997   0.0073  -0.2744 N.4            1 S1                 1.0000
     13 ****         4.4758  -0.4867  -1.4325 C.3            1 S1                 0.0000
     14 ****         5.9658  -0.5198  -1.1894 C.3            1 S1                 0.0000
     15 ****         5.3630   0.5634  -2.0576 C.3            1 S1                 0.0000
     16 ****         2.4183   0.6465  -0.6478 C.3            1 S1                 0.0000
     17 ****        -4.3856   1.2443   0.7498 N.pl3          1 S1                 0.0000
     18 ****        -4.1811   2.6626   0.9705 C.3            1 S1                 0.0000
     19 ****        -5.6238   0.7151   0.8548 N.2            1 S1                 0.0000
     20 ****        -6.3966  -2.5132   0.4278 H              1 S1                 0.0000
     21 ****        -7.4038  -1.1818  -0.1308 H              1 S1                 0.0000
     22 ****        -7.1676  -1.4449   1.5958 H              1 S1                 0.0000
     23 ****        -3.7205  -1.9010   0.0652 H              1 S1                 0.0000
     24 ****        -1.9093   1.5208   0.2625 H              1 S1                 0.0000
     25 ****         0.0271   1.3320  -0.0499 H              1 S1                 0.0000
     26 ****         1.2468  -1.1205  -0.9721 H              1 S1                 0.0000
     27 ****         1.7701  -0.2261   1.8961 H              1 S1                 0.0000
     28 ****         1.4568  -1.8731   1.3412 H              1 S1                 0.0000
     29 ****         4.0274  -0.9340   1.6130 H              1 S1                 0.0000
     30 ****         3.5931  -2.0323   0.3094 H              1 S1                 0.0000
     31 ****         3.9981  -1.2462  -2.0494 H              1 S1                 0.0000
     32 ****         6.3340  -0.2298  -0.2069 H              1 S1                 0.0000
     33 ****         6.5401  -1.2969  -1.6898 H              1 S1                 0.0000
     34 ****         5.5402   0.4982  -3.1293 H              1 S1                 0.0000
     35 ****         5.3296   1.5734  -1.6524 H              1 S1                 0.0000
     36 ****         2.3614   0.8952  -1.7089 H              1 S1                 0.0000
     37 ****         2.3347   1.5789  -0.0870 H              1 S1                 0.0000
     38 ****        -3.4040   2.8091   1.7211 H              1 S1                 0.0000
     39 ****        -5.1011   3.1334   1.3201 H              1 S1                 0.0000
     40 ****        -3.8718   3.1366   0.0387 H              1 S1                 0.0000
     41 ****         4.2607   0.7147   0.1784 H              1 S1                 0.0000
     42 ****        -2.1195  -1.9812   0.2288 LP             1 S1                 0.0000
     43 ****        -0.4107  -2.1153  -0.0203 LP             1 S1                 0.0000
     44 ****        -6.4720   1.1949   1.0794 LP             1 S1                 0.0000
@<TRIPOS>BOND
    1    1    2 1     
    2    1   20 1     
    3    1   21 1     
    4    1   22 1     
    5    2   19 2     
    6    2    3 1     
    7    3    4 2     
    8    3   23 1     
    9    4    5 1     
   10    4   17 1     
   11    5    6 am    
   12    5   24 1     
   13    6    7 2     
   14    6    8 am    
   15    8    9 1     
   16    8   25 1     
   17    9   16 1     
   18    9   10 1     
   19    9   26 1     
   20   10   11 1     
   21   10   27 1     
   22   10   28 1     
   23   11   12 1     
   24   11   29 1     
   25   11   30 1     
   26   12   13 1     
   27   12   16 1     
   28   12   41 1     
   29   13   15 1     
   30   13   14 1     
   31   13   31 1     
   32   14   15 1     
   33   14   32 1     
   34   14   33 1     
   35   15   34 1     
   36   15   35 1     
   37   16   36 1     
   38   16   37 1     
   39   17   18 1     
   40   17   19 1     
   41   18   38 1     
   42   18   39 1     
   43   18   40 1     
   44    7   42 1     
   45    7   43 1     
   46   19   44 1     
@<TRIPOS>SUBSTRUCTURE
      1 S1             1
@<TRIPOS>SET
LONE_PAIRS      STATIC     ATOMS    <user>   **** ""
3 42 43 44
DONOR_HYDROGENS      STATIC     ATOMS    <user>   **** ""
3 24 25 41
ATOM$BLUE        STATIC     ATOMS    COLORGROUP SYSTEM
3 42 43 44
ATOM$RED        STATIC     ATOMS    COLORGROUP SYSTEM
3 24 25 41
