AV-unprocessed.smi:2513|AV-procd|sdf|9891|dock10
  -GOLD-   2272013523D 1   1.00000     0.00000
 Structure written by MMmdl.
 35 36  0  0  0  0  0  0  0  0  1 V2000
  145.9006  143.1172  153.7638 C   0  0  0  0  0  0  0  0  0  0  0  0
  147.1532  142.7553  154.3266 O   0  0  0  0  0  0  0  0  0  0  0  0
  147.6192  141.4723  154.1143 C   0  0  0  0  0  0  0  0  0  0  0  0
  146.9703  140.5314  153.2743 C   0  0  0  0  0  0  0  0  0  0  0  0
  147.5206  139.2471  153.1222 C   0  0  0  0  0  0  0  0  0  0  0  0
  148.7042  138.9460  153.8153 C   0  0  0  0  0  0  0  0  0  0  0  0
  149.3316  139.8301  154.6154 N   0  0  0  0  0  0  0  0  0  0  0  0
  148.8117  141.0732  154.7726 C   0  0  0  0  0  0  0  0  0  0  0  0
  149.4126  142.0625  155.5996 N   0  0  0  0  0  0  0  0  0  0  0  0
  150.3869  141.9101  156.5135 C   0  0  0  0  0  0  0  0  0  0  0  0
  150.9404  140.8471  156.7961 O   0  0  0  0  0  0  0  0  0  0  0  0
  150.6931  143.0796  157.0936 N   0  0  0  0  0  0  0  0  0  0  0  0
  151.7066  143.2660  158.1276 C   0  0  2  0  0  0  0  0  0  0  0  0
  151.6343  142.1132  159.1400 C   0  0  0  0  0  0  0  0  0  0  0  0
  152.6001  142.3741  160.3013 C   0  0  0  0  0  0  0  0  0  0  0  0
  152.3513  143.7657  160.9040 C   0  0  0  0  0  0  0  0  0  0  0  0
  152.4723  144.7596  159.8920 O   0  0  0  0  0  0  0  0  0  0  0  0
  151.5121  144.6157  158.8502 C   0  0  0  0  0  0  0  0  0  0  0  0
  145.6784  144.1535  154.0185 H   0  0  0  0  0  0  0  0  0  0  0  0
  145.0924  142.5001  154.1588 H   0  0  0  0  0  0  0  0  0  0  0  0
  145.9155  143.0416  152.6757 H   0  0  0  0  0  0  0  0  0  0  0  0
  146.0608  140.7678  152.7436 H   0  0  0  0  0  0  0  0  0  0  0  0
  147.0464  138.5110  152.4899 H   0  0  0  0  0  0  0  0  0  0  0  0
  149.1595  137.9706  153.7263 H   0  0  0  0  0  0  0  0  0  0  0  0
  149.0546  142.9982  155.4770 H   0  0  0  0  0  0  0  0  0  0  0  0
  150.1882  143.9029  156.7998 H   0  0  0  0  0  0  0  0  0  0  0  0
  152.6959  143.2533  157.6661 H   0  0  0  0  0  0  0  0  0  0  0  0
  150.6188  142.0219  159.5288 H   0  0  0  0  0  0  0  0  0  0  0  0
  151.8727  141.1643  158.6577 H   0  0  0  0  0  0  0  0  0  0  0  0
  152.4866  141.6053  161.0660 H   0  0  0  0  0  0  0  0  0  0  0  0
  153.6286  142.3114  159.9437 H   0  0  0  0  0  0  0  0  0  0  0  0
  151.3640  143.8194  161.3657 H   0  0  0  0  0  0  0  0  0  0  0  0
  153.0805  143.9703  161.6880 H   0  0  0  0  0  0  0  0  0  0  0  0
  151.6378  145.4434  158.1515 H   0  0  0  0  0  0  0  0  0  0  0  0
  150.5047  144.6989  159.2615 H   0  0  0  0  0  0  0  0  0  0  0  0
  1  2  1  0  0  0  0
  1 19  1  0  0  0  0
  1 20  1  0  0  0  0
  1 21  1  0  0  0  0
  2  3  1  0  0  0  0
  3  8  1  0  0  0  0
  3  4  2  0  0  0  0
  4  5  1  0  0  0  0
  4 22  1  0  0  0  0
  5  6  2  0  0  0  0
  5 23  1  0  0  0  0
  6  7  1  0  0  0  0
  6 24  1  0  0  0  0
  7  8  2  0  0  0  0
  8  9  1  0  0  0  0
  9 10  1  0  0  0  0
  9 25  1  0  0  0  0
 10 11  2  0  0  0  0
 10 12  1  0  0  0  0
 12 13  1  0  0  0  0
 12 26  1  0  0  0  0
 13 18  1  0  0  0  0
 13 14  1  0  0  0  0
 13 27  1  0  0  0  0
 14 15  1  0  0  0  0
 14 28  1  0  0  0  0
 14 29  1  0  0  0  0
 15 16  1  0  0  0  0
 15 30  1  0  0  0  0
 15 31  1  0  0  0  0
 16 17  1  0  0  0  0
 16 32  1  0  0  0  0
 16 33  1  0  0  0  0
 17 18  1  0  0  0  0
 18 34  1  0  0  0  0
 18 35  1  0  0  0  0
M  END
> <s_m_source_file>
AV-unprocessed.smi

> <i_m_source_file_index>
2513

> <i_lp_mmshare_version>
43012

> <i_f3d_flags>
0

> <s_epik_input>
W0NIM11PYzFbY0hdW2NIXVtjSF1uYzFbTkhdQyg9TylbTkhdW0NAQEhdMltDSDJdW0NIMl1bQ0gyXU9bQ0gyXTI=

> <s_epik_cmdline>
J2VwaWtfcHl0aG9uJywgJy1waCcsICc3LjAnLCAnLXRuJywgJzgnLCAnLW1hJywgJzIwMCcsICctbWV0YWxfYmluZGluZycsICctaW1hZScsICc8aW5maWxlLm1hZT4nLCAnLW9tYWUnLCAnPG91dGZpbGUubWFlPic=

> <r_lp_tautomer_probability>
1

> <r_epik_Ionization_Penalty>
3.98976e-05

> <r_epik_Ionization_Penalty_Charging>
0

> <r_epik_Ionization_Penalty_Neutral>
3.98976e-05

> <r_epik_State_Penalty>
-0

> <r_epik_Charging_Adjusted_Penalty>
0

> <i_epik_Tot_Q>
0

> <i_epik_Tot_abs_Q>
0

> <r_epik_Metal_State_Penalty>
-0

> <b_epik_Metal_Only>
0

> <s_lp_Force_Field>
OPLS_2005

> <r_lp_Energy>
12.9865

> <b_lp_Chiralities_Consistent>
1

> <s_lp_Variant>
AV-unprocessed.smi:2513-1

> <Gold.Version>
5.8.1

> <Gold.Id.Protein>
6NUR|6NUR_protein|mol2

> <Gold.PLP.Fitness>
43.8905

> <Gold.PLP.PLP>
-35.4938

> <Gold.PLP.part.hbond>
-2.0075

> <Gold.PLP.part.metal>
0.0000

> <Gold.PLP.part.buried>
-2.3080

> <Gold.PLP.part.nonpolar>
-33.2151

> <Gold.PLP.part.repulsive>
1.9963

> <Gold.PLP.ligand.clash>
0.0000

> <Gold.PLP.ligand.torsion>
0.3031

> <Gold.PLP.Chemscore.Hbond>
2.0000

> <Gold.PLP.Chemscore.CHOScore>
1.0000

> <Gold.PLP.Chemscore.Metal>
0.0000

> <Gold.Chemscore.Hbonds>
donor molecule, donor type, donor heavy atom, donor atom, acceptor molecule, acceptor atom, score
      L1  H     9    25       P1  8028  1.00
      L1  H    12    26       P1  8028  1.00
      L1  C     6    24       P1  7948  0.99

> <Gold.PLP.Chemscore.Internal.Correction>
0.0030

> <Gold.Rescore>
     Score         DG    S(hbond)    S(metal)    S(lipo)     H(rot)  DE(clash)    DE(int)     intcor
     16.12     -19.30       1.96        0.00      89.61       1.25       0.13       3.05       ----

> <Gold.Chemscore.Fitness>
16.1229

> <Gold.Chemscore.DG>
-19.3014

> <Gold.Chemscore.ZeroCoef>
-5.4800

> <Gold.Chemscore.Hbond>
1.9603

> <Gold.Chemscore.Metal>
0.0000

> <Gold.Chemscore.Lipo>
89.6120

> <Gold.Chemscore.Internal_Hbond>
0.0000

> <Gold.Chemscore.DEClash>
0.1276

> <Gold.Chemscore.DEInternal>
3.0508

> <Gold.Chemscore.Rot>
1.2542

> <Gold.Chemscore.Internal.Correction>
   9.000000E+99

> <Gold.Chemscore.Hbonds>
donor molecule, donor type, donor heavy atom, donor atom, acceptor molecule, acceptor atom, score
      L1  H     9    25       P1  8028  1.00
      L1  H    12    26       P1  8028  0.95

> <Gold.Chemscore.Hbond.Weighted>
-6.5474

> <Gold.Chemscore.Metal.Weighted>
-0.0000

> <Gold.Chemscore.Lipo.Weighted>
-10.4846

> <Gold.Chemscore.Internal_Hbond.Weighted>
0.0000

> <Gold.Chemscore.DEClash.Weighted>
0.1276

> <Gold.Chemscore.DEInternal.Weighted>
3.0508

> <Gold.Chemscore.Rot.Weighted>
3.2107

> <Gold.Chemscore.Internal.Correction.Weighted>
   9.000000E+99

> <Gold.Protein.RotatedTorsions>
[ 6907 6896 6895 6894 ] final   15.39 input  -60.11 | X-H torsion
[ 7974 7965 7964 7962 ] final  -41.14 input  175.53 | X-H torsion
[ 8008 7997 7996 7995 ] final  148.57 input   59.86 | X-H torsion
[ 10167 10162 10161 10158 ] final  -77.32 input  -65.29 | X-H torsion
[ 10718 10713 10712 10709 ] final  100.66 input   66.30 | X-H torsion
[ 10763 10752 10751 10750 ] final   78.06 input  -60.55 | X-H torsion
[ 11005 11000 10999 10996 ] final  139.80 input  -57.11 | X-H torsion

> <Gold.Protein.ActiveResidues>
 VAL166  LYS551  ARG553  GLY616  TRP617  ASP618  TYR619  PRO620  LYS621  CYS622 
 ASP623  PHE694  ASN695  SER759  ASP760  ASP761  ALA762  ILE779  LEU786  VAL792 
 PHE793  MET794  SER795  GLU796  ALA797  LYS798  CYS799  TRP800  GLU811  SER814 

> <Gold.Protein.RotatedAtoms>
  151.8173  135.0662  160.0420 H   0  0  0  0  0  0  0  0  0  0  0  0  # atno 6907 bound_to 6896
  152.2977  133.5619  159.5606 H   0  0  0  0  0  0  0  0  0  0  0  0  # atno 6908 bound_to 6896
  150.7259  134.0253  159.3757 H   0  0  0  0  0  0  0  0  0  0  0  0  # atno 6909 bound_to 6896
  146.0238  140.6816  142.9165 H   0  0  0  0  0  0  0  0  0  0  0  0  # atno 7974 bound_to 7965
  156.2786  140.2125  156.5720 H   0  0  0  0  0  0  0  0  0  0  0  0  # atno 8008 bound_to 7997
  154.7128  140.0510  157.0589 H   0  0  0  0  0  0  0  0  0  0  0  0  # atno 8009 bound_to 7997
  155.0582  140.3163  155.4672 H   0  0  0  0  0  0  0  0  0  0  0  0  # atno 8010 bound_to 7997
  140.4780  143.2409  151.8102 H   0  0  0  0  0  0  0  0  0  0  0  0  # atno 10167 bound_to 10162
  157.6848  131.0704  150.5134 H   0  0  0  0  0  0  0  0  0  0  0  0  # atno 10718 bound_to 10713
  153.0846  135.4891  154.8570 H   0  0  0  0  0  0  0  0  0  0  0  0  # atno 10763 bound_to 10752
  154.7194  135.3036  154.9074 H   0  0  0  0  0  0  0  0  0  0  0  0  # atno 10764 bound_to 10752
  153.9743  135.6797  153.4801 H   0  0  0  0  0  0  0  0  0  0  0  0  # atno 10765 bound_to 10752
  140.0281  134.9365  157.0608 H   0  0  0  0  0  0  0  0  0  0  0  0  # atno 11005 bound_to 11000
  144.7001  140.3614  143.7163 LP  0  0  0  0  0  0  0  0  0  0  0  0  # atno 17320 bound_to 7965
  145.7150  139.1694  143.2517 LP  0  0  0  0  0  0  0  0  0  0  0  0  # atno 17321 bound_to 7965
  139.4829  144.4808  151.9308 LP  0  0  0  0  0  0  0  0  0  0  0  0  # atno 17342 bound_to 10162
  140.3894  144.2635  150.5901 LP  0  0  0  0  0  0  0  0  0  0  0  0  # atno 17343 bound_to 10162
  156.5451  130.4217  149.6135 LP  0  0  0  0  0  0  0  0  0  0  0  0  # atno 17370 bound_to 10713
  156.2952  130.7146  151.2004 LP  0  0  0  0  0  0  0  0  0  0  0  0  # atno 17371 bound_to 10713
  140.4273  134.1818  155.7166 LP  0  0  0  0  0  0  0  0  0  0  0  0  # atno 17394 bound_to 11000
  141.1814  133.8405  157.1242 LP  0  0  0  0  0  0  0  0  0  0  0  0  # atno 17395 bound_to 11000

$$$$
