#       Name:                AV-unprocessed.smi:867
#       Creating user name   scv26
#       Creation time:       Fri Mar 27 01:47:33 2020


#       File generated by GOLD software.
#

@<TRIPOS>MOLECULE
AV-unprocessed.smi:867
    56    59     1
SMALL
NO_CHARGES


@<TRIPOS>ATOM
      1 ****         2.3320   0.6901  -1.5932 O.2            1 S1                 0.0000
      2 ****         1.8618  -0.3435  -1.1168 C.2            1 S1                 0.0000
      3 ****         2.5645  -1.4876  -1.0425 N.am           1 S1                 0.0000
      4 ****         3.9368  -1.6790  -1.5063 C.3            1 S1                 0.0000
      5 ****         3.9933  -2.3322  -2.9002 C.3            1 S1                 0.0000
      6 ****         3.2547  -1.5467  -3.9697 C.ar           1 S1                 0.0000
      7 ****         1.9902  -1.9636  -4.4346 C.ar           1 S1                 0.0000
      8 ****         1.3355  -1.1864  -5.4088 C.ar           1 S1                 0.0000
      9 ****         1.9773  -0.0243  -5.8813 C.ar           1 S1                 0.0000
     10 ****         3.1891   0.3827  -5.4463 N.ar           1 S1                 0.0000
     11 ****         3.8095  -0.3674  -4.5107 C.ar           1 S1                 0.0000
     12 ****         0.5730  -0.4490  -0.7097 N.am           1 S1                 0.0000
     13 ****         0.0441  -1.4554   0.2200 C.3            1 S1                 0.0000
     14 ****        -0.1944  -0.7932   1.5896 C.3            1 S1                 0.0000
     15 ****        -1.0962   0.3902   1.4832 N.4            1 S1                 1.0000
     16 ****        -1.3445   1.0416   2.8017 C.3            1 S1                 0.0000
     17 ****        -2.0422   0.1316   3.8427 C.3            1 S1                 0.0000
     18 ****        -3.1984   1.0100   4.3578 C.3            1 S1                 0.0000
     19 ****        -4.3056   1.0478   3.2909 C.3            1 S1                 0.0000
     20 ****        -3.6714   1.9070   2.1827 C.3            1 S1                 0.0000
     21 ****        -2.2898   2.2691   2.7707 C.3            1 S1                 0.0000
     22 ****        -2.6199   2.4159   4.2524 C.3            1 S1                 0.0000
     23 ****        -0.6448   1.3449   0.4303 C.3            1 S1                 0.0000
     24 ****        -0.3941   0.6319  -0.9103 C.3            1 S1                 0.0000
     25 ****         2.0993  -2.3007  -0.6665 H              1 S1                 0.0000
     26 ****         4.4783  -0.7317  -1.5138 H              1 S1                 0.0000
     27 ****         4.4520  -2.3148  -0.7861 H              1 S1                 0.0000
     28 ****         5.0329  -2.4472  -3.2083 H              1 S1                 0.0000
     29 ****         3.5800  -3.3404  -2.8492 H              1 S1                 0.0000
     30 ****         1.5243  -2.8572  -4.0462 H              1 S1                 0.0000
     31 ****         0.3648  -1.4732  -5.7848 H              1 S1                 0.0000
     32 ****         1.5043   0.5952  -6.6287 H              1 S1                 0.0000
     33 ****         4.7732  -0.0117  -4.1773 H              1 S1                 0.0000
     34 ****        -0.8949  -1.8466  -0.1747 H              1 S1                 0.0000
     35 ****         0.6917  -2.3232   0.3450 H              1 S1                 0.0000
     36 ****        -0.6113  -1.5348   2.2701 H              1 S1                 0.0000
     37 ****         0.7602  -0.4798   2.0157 H              1 S1                 0.0000
     38 ****        -0.3810   1.3633   3.2021 H              1 S1                 0.0000
     39 ****        -2.4217  -0.8006   3.4231 H              1 S1                 0.0000
     40 ****        -1.3528  -0.1234   4.6485 H              1 S1                 0.0000
     41 ****        -3.5566   0.7290   5.3487 H              1 S1                 0.0000
     42 ****        -4.5847   0.0529   2.9414 H              1 S1                 0.0000
     43 ****        -5.2039   1.5281   3.6814 H              1 S1                 0.0000
     44 ****        -3.6054   1.3760   1.2331 H              1 S1                 0.0000
     45 ****        -4.2650   2.8066   2.0148 H              1 S1                 0.0000
     46 ****        -1.8435   3.1601   2.3281 H              1 S1                 0.0000
     47 ****        -3.3503   3.2006   4.4586 H              1 S1                 0.0000
     48 ****        -1.7418   2.5712   4.8820 H              1 S1                 0.0000
     49 ****        -1.3924   2.1215   0.2728 H              1 S1                 0.0000
     50 ****         0.2674   1.8440   0.7612 H              1 S1                 0.0000
     51 ****        -0.0681   1.3511  -1.6635 H              1 S1                 0.0000
     52 ****        -1.3265   0.2122  -1.2908 H              1 S1                 0.0000
     53 ****        -1.9889   0.0368   1.1700 H              1 S1                 0.0000
     54 ****         3.2689   0.6985  -1.9426 LP             1 S1                 0.0000
     55 ****         1.7769   1.5211  -1.6306 LP             1 S1                 0.0000
     56 ****         3.6137   1.2137  -5.8058 LP             1 S1                 0.0000
@<TRIPOS>BOND
    1    1    2 2     
    2    2    3 am    
    3    2   12 am    
    4    3    4 1     
    5    3   25 1     
    6    4    5 1     
    7    4   26 1     
    8    4   27 1     
    9    5    6 1     
   10    5   28 1     
   11    5   29 1     
   12    6   11 ar    
   13    6    7 ar    
   14    7    8 ar    
   15    7   30 1     
   16    8    9 ar    
   17    8   31 1     
   18    9   10 ar    
   19    9   32 1     
   20   10   11 ar    
   21   11   33 1     
   22   12   24 1     
   23   12   13 1     
   24   13   14 1     
   25   13   34 1     
   26   13   35 1     
   27   14   15 1     
   28   14   36 1     
   29   14   37 1     
   30   15   16 1     
   31   15   23 1     
   32   15   53 1     
   33   16   21 1     
   34   16   17 1     
   35   16   38 1     
   36   17   18 1     
   37   17   39 1     
   38   17   40 1     
   39   18   22 1     
   40   18   19 1     
   41   18   41 1     
   42   19   20 1     
   43   19   42 1     
   44   19   43 1     
   45   20   21 1     
   46   20   44 1     
   47   20   45 1     
   48   21   22 1     
   49   21   46 1     
   50   22   47 1     
   51   22   48 1     
   52   23   24 1     
   53   23   49 1     
   54   23   50 1     
   55   24   51 1     
   56   24   52 1     
   57    1   54 1     
   58    1   55 1     
   59   10   56 1     
@<TRIPOS>SUBSTRUCTURE
      1 S1             1
@<TRIPOS>SET
LONE_PAIRS      STATIC     ATOMS    <user>   **** ""
3 54 55 56
DONOR_HYDROGENS      STATIC     ATOMS    <user>   **** ""
2 25 53
ATOM$BLUE        STATIC     ATOMS    COLORGROUP SYSTEM
3 54 55 56
ATOM$RED        STATIC     ATOMS    COLORGROUP SYSTEM
2 25 53
