AV-unprocessed.smi:3231|AV-procd|sdf|12334|dock6
  -GOLD-   2272018183D 1   1.00000     0.00000
 Structure written by MMmdl.
 41 42  0  0  0  0  0  0  0  0  2 V2000
  146.6542  138.7436  151.0263 O   0  0  0  0  0  0  0  0  0  0  0  0
  146.6983  138.2733  152.3599 C   0  0  1  0  0  0  0  0  0  0  0  0
  146.6490  139.4841  153.3113 C   0  0  0  0  0  0  0  0  0  0  0  0
  147.9302  140.1814  153.3857 N   0  0  0  0  0  0  0  0  0  0  0  0
  148.6284  139.9881  154.6531 C   0  0  0  0  0  0  0  0  0  0  0  0
  149.4191  141.2421  155.0601 C   0  0  0  0  0  0  0  0  0  0  0  0
  150.2450  141.0161  156.2333 N   0  0  0  0  0  0  0  0  0  0  0  0
  150.2538  141.7172  157.4207 C   0  0  0  0  0  0  0  0  0  0  0  0
  151.1893  141.1370  158.2287 C   0  0  0  0  0  0  0  0  0  0  0  0
  151.7069  140.0740  157.4370 C   0  0  0  0  0  0  0  0  0  0  0  0
  151.1397  140.0034  156.2435 N   0  0  0  0  0  0  0  0  0  0  0  0
  145.5795  137.2378  152.6133 C   0  0  0  0  0  0  0  0  0  0  0  0
  146.0028  135.8429  152.3263 N   0  3  0  0  0  0  0  0  0  0  0  0
  145.9431  134.9455  153.5077 C   0  0  0  0  0  0  0  0  0  0  0  0
  146.4287  133.5342  153.1364 C   0  0  0  0  0  0  0  0  0  0  0  0
  145.6483  133.0261  152.0617 O   0  0  0  0  0  0  0  0  0  0  0  0
  145.7654  133.8288  150.8940 C   0  0  0  0  0  0  0  0  0  0  0  0
  145.2559  135.2491  151.1915 C   0  0  0  0  0  0  0  0  0  0  0  0
  145.7525  138.8100  150.7534 H   0  0  0  0  0  0  0  0  0  0  0  0
  147.6735  137.8085  152.4974 H   0  0  0  0  0  0  0  0  0  0  0  0
  145.8801  140.1769  152.9676 H   0  0  0  0  0  0  0  0  0  0  0  0
  146.3416  139.1544  154.3047 H   0  0  0  0  0  0  0  0  0  0  0  0
  148.5274  139.8783  152.6219 H   0  0  0  0  0  0  0  0  0  0  0  0
  147.9078  139.7471  155.4351 H   0  0  0  0  0  0  0  0  0  0  0  0
  149.3078  139.1374  154.5842 H   0  0  0  0  0  0  0  0  0  0  0  0
  150.0462  141.5905  154.2377 H   0  0  0  0  0  0  0  0  0  0  0  0
  148.7268  142.0533  155.2878 H   0  0  0  0  0  0  0  0  0  0  0  0
  149.6003  142.5603  157.5904 H   0  0  0  0  0  0  0  0  0  0  0  0
  151.4625  141.4275  159.2322 H   0  0  0  0  0  0  0  0  0  0  0  0
  152.4725  139.3565  157.6924 H   0  0  0  0  0  0  0  0  0  0  0  0
  145.2306  137.2995  153.6454 H   0  0  0  0  0  0  0  0  0  0  0  0
  144.7212  137.4887  151.9878 H   0  0  0  0  0  0  0  0  0  0  0  0
  146.5591  135.3327  154.3181 H   0  0  0  0  0  0  0  0  0  0  0  0
  144.9187  134.8984  153.8807 H   0  0  0  0  0  0  0  0  0  0  0  0
  147.4852  133.5444  152.8630 H   0  0  0  0  0  0  0  0  0  0  0  0
  146.3282  132.8658  153.9917 H   0  0  0  0  0  0  0  0  0  0  0  0
  146.8019  133.8493  150.5534 H   0  0  0  0  0  0  0  0  0  0  0  0
  145.1769  133.3779  150.0948 H   0  0  0  0  0  0  0  0  0  0  0  0
  144.1907  135.2223  151.4275 H   0  0  0  0  0  0  0  0  0  0  0  0
  145.3729  135.8715  150.3034 H   0  0  0  0  0  0  0  0  0  0  0  0
  146.9683  135.8886  152.0336 H   0  0  0  0  0  0  0  0  0  0  0  0
  1  2  1  0  0  0  0
  1 19  1  0  0  0  0
  2  3  1  0  0  0  0
  2 12  1  0  0  0  0
  2 20  1  0  0  0  0
  3  4  1  0  0  0  0
  3 21  1  0  0  0  0
  3 22  1  0  0  0  0
  4  5  1  0  0  0  0
  4 23  1  0  0  0  0
  5  6  1  0  0  0  0
  5 24  1  0  0  0  0
  5 25  1  0  0  0  0
  6  7  1  0  0  0  0
  6 26  1  0  0  0  0
  6 27  1  0  0  0  0
  7 11  1  0  0  0  0
  7  8  1  0  0  0  0
  8  9  2  0  0  0  0
  8 28  1  0  0  0  0
  9 10  1  0  0  0  0
  9 29  1  0  0  0  0
 10 11  2  0  0  0  0
 10 30  1  0  0  0  0
 12 13  1  0  0  0  0
 12 31  1  0  0  0  0
 12 32  1  0  0  0  0
 13 18  1  0  0  0  0
 13 14  1  0  0  0  0
 13 41  1  0  0  0  0
 14 15  1  0  0  0  0
 14 33  1  0  0  0  0
 14 34  1  0  0  0  0
 15 16  1  0  0  0  0
 15 35  1  0  0  0  0
 15 36  1  0  0  0  0
 16 17  1  0  0  0  0
 17 18  1  0  0  0  0
 17 37  1  0  0  0  0
 17 38  1  0  0  0  0
 18 39  1  0  0  0  0
 18 40  1  0  0  0  0
M  CHG  1  13   1
M  END
> <s_m_source_file>
AV-unprocessed.smi

> <i_m_source_file_index>
3231

> <i_lp_mmshare_version>
43012

> <i_f3d_flags>
0

> <s_epik_input>
W0NIMl0xW0NIMl1PW0NIMl1bQ0gyXU4xW0NIMl1bQ0BIXShbT0hdKVtDSDJdW05IXVtDSDJdW0NIMl1uMltjSF1bY0hdW2NIXW4y

> <s_epik_cmdline>
J2VwaWtfcHl0aG9uJywgJy1waCcsICc3LjAnLCAnLXRuJywgJzgnLCAnLW1hJywgJzIwMCcsICctbWV0YWxfYmluZGluZycsICctaW1hZScsICc8aW5maWxlLm1hZT4nLCAnLW9tYWUnLCAnPG91dGZpbGUubWFlPic=

> <r_epik_Ionization_Penalty>
0.33973

> <r_epik_Ionization_Penalty_Charging>
0.202493

> <r_epik_Ionization_Penalty_Neutral>
0.137237

> <r_epik_State_Penalty>
0.943915

> <r_epik_Charging_Adjusted_Penalty>
1.14641

> <i_epik_Tot_Q>
1

> <i_epik_Tot_abs_Q>
1

> <r_epik_Metal_State_Penalty>
0.94313

> <b_epik_Metal_Only>
0

> <s_lp_Force_Field>
OPLS_2005

> <r_lp_Energy>
28.856

> <b_lp_Chiralities_Consistent>
1

> <s_lp_Variant>
AV-unprocessed.smi:3231-4

> <Gold.Version>
5.8.1

> <Gold.Id.Protein>
6NUR|6NUR_protein|mol2

> <Gold.PLP.Fitness>
48.1095

> <Gold.PLP.PLP>
-34.1445

> <Gold.PLP.part.hbond>
-4.9429

> <Gold.PLP.part.metal>
0.0000

> <Gold.PLP.part.buried>
-2.1594

> <Gold.PLP.part.nonpolar>
-27.0615

> <Gold.PLP.part.repulsive>
0.1434

> <Gold.PLP.ligand.clash>
0.0000

> <Gold.PLP.ligand.torsion>
1.9077

> <Gold.PLP.Chemscore.Hbond>
4.8560

> <Gold.PLP.Chemscore.CHOScore>
1.0000

> <Gold.PLP.Chemscore.Metal>
0.0000

> <Gold.Chemscore.Hbonds>
donor molecule, donor type, donor heavy atom, donor atom, acceptor molecule, acceptor atom, score
      L1  H     1    19       P1 10171  0.84
      L1  H     4    23       P1  7957  1.00
      L1  H    13    41       P1  7948  2.00
      P1  H  7954  7966       L1     1  0.83

> <Gold.PLP.Chemscore.Internal.Correction>
0.2123

> <Gold.Rescore>
     Score         DG    S(hbond)    S(metal)    S(lipo)     H(rot)  DE(clash)    DE(int)     intcor
     15.68     -18.05       3.49        0.00      69.85       2.84       0.49       1.88       ----

> <Gold.Chemscore.Fitness>
15.6799

> <Gold.Chemscore.DG>
-18.0508

> <Gold.Chemscore.ZeroCoef>
-5.4800

> <Gold.Chemscore.Hbond>
3.4934

> <Gold.Chemscore.Metal>
0.0000

> <Gold.Chemscore.Lipo>
69.8484

> <Gold.Chemscore.Internal_Hbond>
0.0000

> <Gold.Chemscore.DEClash>
0.4876

> <Gold.Chemscore.DEInternal>
1.8833

> <Gold.Chemscore.Rot>
2.8397

> <Gold.Chemscore.Internal.Correction>
   9.000000E+99

> <Gold.Chemscore.Hbonds>
donor molecule, donor type, donor heavy atom, donor atom, acceptor molecule, acceptor atom, score
      L1  H     1    19       P1 10171  0.82
      L1  H     4    23       P1  7957  0.99
      L1  H    13    41       P1  7948  0.97
      P1  H  7954  7966       L1     1  0.61

> <Gold.Chemscore.Hbond.Weighted>
-11.6681

> <Gold.Chemscore.Metal.Weighted>
-0.0000

> <Gold.Chemscore.Lipo.Weighted>
-8.1723

> <Gold.Chemscore.Internal_Hbond.Weighted>
0.0000

> <Gold.Chemscore.DEClash.Weighted>
0.4876

> <Gold.Chemscore.DEInternal.Weighted>
1.8833

> <Gold.Chemscore.Rot.Weighted>
7.2696

> <Gold.Chemscore.Internal.Correction.Weighted>
   9.000000E+99

> <Gold.Protein.RotatedTorsions>
[ 6907 6896 6895 6894 ] final  136.08 input  -60.11 | X-H torsion
[ 7974 7965 7964 7962 ] final  -60.14 input  175.53 | X-H torsion
[ 8008 7997 7996 7995 ] final  111.32 input   59.86 | X-H torsion
[ 10167 10162 10161 10158 ] final -146.88 input  -65.29 | X-H torsion
[ 10718 10713 10712 10709 ] final   26.34 input   66.30 | X-H torsion
[ 10763 10752 10751 10750 ] final  123.33 input  -60.55 | X-H torsion
[ 11005 11000 10999 10996 ] final  126.39 input  -57.11 | X-H torsion

> <Gold.Protein.ActiveResidues>
 VAL166  LYS551  ARG553  GLY616  TRP617  ASP618  TYR619  PRO620  LYS621  CYS622 
 ASP623  PHE694  ASN695  SER759  ASP760  ASP761  ALA762  ILE779  LEU786  VAL792 
 PHE793  MET794  SER795  GLU796  ALA797  LYS798  CYS799  TRP800  GLU811  SER814 

> <Gold.Protein.RotatedAtoms>
  152.2933  133.5583  159.5571 H   0  0  0  0  0  0  0  0  0  0  0  0  # atno 6907 bound_to 6896
  150.7245  134.0397  159.3770 H   0  0  0  0  0  0  0  0  0  0  0  0  # atno 6908 bound_to 6896
  151.8301  135.0624  160.0486 H   0  0  0  0  0  0  0  0  0  0  0  0  # atno 6909 bound_to 6896
  145.8191  140.8551  143.0142 H   0  0  0  0  0  0  0  0  0  0  0  0  # atno 7974 bound_to 7965
  156.2116  140.3021  155.9745 H   0  0  0  0  0  0  0  0  0  0  0  0  # atno 8008 bound_to 7997
  155.2710  140.0433  157.3024 H   0  0  0  0  0  0  0  0  0  0  0  0  # atno 8009 bound_to 7997
  154.5707  140.2347  155.8204 H   0  0  0  0  0  0  0  0  0  0  0  0  # atno 8010 bound_to 7997
  139.7673  143.8289  152.2618 H   0  0  0  0  0  0  0  0  0  0  0  0  # atno 10167 bound_to 10162
  157.2055  130.6910  149.6206 H   0  0  0  0  0  0  0  0  0  0  0  0  # atno 10718 bound_to 10713
  153.6438  135.3374  155.3079 H   0  0  0  0  0  0  0  0  0  0  0  0  # atno 10763 bound_to 10752
  154.8553  135.4324  154.1977 H   0  0  0  0  0  0  0  0  0  0  0  0  # atno 10764 bound_to 10752
  153.2902  135.7016  153.7374 H   0  0  0  0  0  0  0  0  0  0  0  0  # atno 10765 bound_to 10752
  139.9454  134.9630  156.8700 H   0  0  0  0  0  0  0  0  0  0  0  0  # atno 11005 bound_to 11000
  144.6749  140.0507  143.7479 LP  0  0  0  0  0  0  0  0  0  0  0  0  # atno 17320 bound_to 7965
  145.9695  139.2859  143.1107 LP  0  0  0  0  0  0  0  0  0  0  0  0  # atno 17321 bound_to 7965
  139.8313  144.7252  150.9447 LP  0  0  0  0  0  0  0  0  0  0  0  0  # atno 17342 bound_to 10162
  140.7811  143.4067  151.1059 LP  0  0  0  0  0  0  0  0  0  0  0  0  # atno 17343 bound_to 10162
  155.9696  130.4568  150.5939 LP  0  0  0  0  0  0  0  0  0  0  0  0  # atno 17370 bound_to 10713
  157.3724  131.0768  151.1546 LP  0  0  0  0  0  0  0  0  0  0  0  0  # atno 17371 bound_to 10713
  140.5849  134.0317  155.7477 LP  0  0  0  0  0  0  0  0  0  0  0  0  # atno 17394 bound_to 11000
  141.1102  133.9629  157.2924 LP  0  0  0  0  0  0  0  0  0  0  0  0  # atno 17395 bound_to 11000

$$$$
