#       Name:                AV-unprocessed.smi:1699
#       Creating user name   scv26
#       Creation time:       Fri Mar 27 07:59:28 2020


#       File generated by GOLD software.
#

@<TRIPOS>MOLECULE
AV-unprocessed.smi:1699
    42    43     1
SMALL
NO_CHARGES


@<TRIPOS>ATOM
      1 ****        -4.1118  -0.5520  -0.0512 C.3            1 S1                 0.0000
      2 ****        -3.9260   0.8818   0.4184 C.ar           1 S1                 0.0000
      3 ****        -5.0603   1.7032   0.5927 C.ar           1 S1                 0.0000
      4 ****        -4.8874   3.0279   1.0290 C.ar           1 S1                 0.0000
      5 ****        -3.5788   3.4778   1.2746 C.ar           1 S1                 0.0000
      6 ****        -2.4896   2.6998   1.1108 N.ar           1 S1                 0.0000
      7 ****        -2.6388   1.4183   0.6906 C.ar           1 S1                 0.0000
      8 ****        -1.5343   0.5428   0.4897 N.am           1 S1                 0.0000
      9 ****        -0.2334   0.7639   0.7494 C.2            1 S1                 0.0000
     10 ****         0.2295   1.7892   1.2503 O.2            1 S1                 0.0000
     11 ****         0.5145  -0.2934   0.4018 N.am           1 S1                 0.0000
     12 ****         1.9634  -0.3950   0.5582 C.3            1 S1                 0.0000
     13 ****         2.2836  -1.0340   1.9200 C.3            1 S1                 0.0000
     14 ****         2.5433  -1.2012  -0.6195 C.3            1 S1                 0.0000
     15 ****         4.0685  -1.3181  -0.6274 C.3            1 S1                 0.0000
     16 ****         4.4084  -1.5223  -2.0959 C.3            1 S1                 0.0000
     17 ****         3.1254  -1.1326  -2.8347 C.3            1 S1                 0.0000
     18 ****         2.2961  -0.5351  -1.8487 O.3            1 S1                 0.0000
     19 ****        -5.1667  -0.7915  -0.1893 H              1 S1                 0.0000
     20 ****        -3.7036  -1.2495   0.6807 H              1 S1                 0.0000
     21 ****        -3.6041  -0.7106  -1.0030 H              1 S1                 0.0000
     22 ****        -6.0529   1.3258   0.3951 H              1 S1                 0.0000
     23 ****        -5.7350   3.6817   1.1718 H              1 S1                 0.0000
     24 ****        -3.4008   4.4886   1.6109 H              1 S1                 0.0000
     25 ****        -1.7646  -0.3605   0.1038 H              1 S1                 0.0000
     26 ****         0.0488  -1.0902  -0.0070 H              1 S1                 0.0000
     27 ****         2.4031   0.6039   0.5330 H              1 S1                 0.0000
     28 ****         3.3586  -1.0846   2.0929 H              1 S1                 0.0000
     29 ****         1.8877  -2.0481   1.9853 H              1 S1                 0.0000
     30 ****         1.8521  -0.4551   2.7375 H              1 S1                 0.0000
     31 ****         2.0949  -2.1961  -0.6616 H              1 S1                 0.0000
     32 ****         4.5201  -0.3892  -0.2760 H              1 S1                 0.0000
     33 ****         4.4314  -2.1280   0.0060 H              1 S1                 0.0000
     34 ****         5.2501  -0.8946  -2.3903 H              1 S1                 0.0000
     35 ****         4.6731  -2.5593  -2.3054 H              1 S1                 0.0000
     36 ****         3.3093  -0.4455  -3.6609 H              1 S1                 0.0000
     37 ****         2.6280  -2.0184  -3.2324 H              1 S1                 0.0000
     38 ****        -1.5777   3.0650   1.2979 LP             1 S1                 0.0000
     39 ****        -0.3789   2.5430   1.4988 LP             1 S1                 0.0000
     40 ****         1.2137   1.8680   1.4086 LP             1 S1                 0.0000
     41 ****         2.5166   0.4363  -1.7606 LP             1 S1                 0.0000
     42 ****         1.3347  -0.6368  -2.1044 LP             1 S1                 0.0000
@<TRIPOS>BOND
    1    1    2 1     
    2    1   19 1     
    3    1   20 1     
    4    1   21 1     
    5    2    7 ar    
    6    2    3 ar    
    7    3    4 ar    
    8    3   22 1     
    9    4    5 ar    
   10    4   23 1     
   11    5    6 ar    
   12    5   24 1     
   13    6    7 ar    
   14    7    8 1     
   15    8    9 am    
   16    8   25 1     
   17    9   10 2     
   18    9   11 am    
   19   11   12 1     
   20   11   26 1     
   21   12   13 1     
   22   12   14 1     
   23   12   27 1     
   24   13   28 1     
   25   13   29 1     
   26   13   30 1     
   27   14   18 1     
   28   14   15 1     
   29   14   31 1     
   30   15   16 1     
   31   15   32 1     
   32   15   33 1     
   33   16   17 1     
   34   16   34 1     
   35   16   35 1     
   36   17   18 1     
   37   17   36 1     
   38   17   37 1     
   39    6   38 1     
   40   10   39 1     
   41   10   40 1     
   42   18   41 1     
   43   18   42 1     
@<TRIPOS>SUBSTRUCTURE
      1 S1             1
@<TRIPOS>SET
LONE_PAIRS      STATIC     ATOMS    <user>   **** ""
5 38 39 40 41 42
DONOR_HYDROGENS      STATIC     ATOMS    <user>   **** ""
2 25 26
ATOM$BLUE        STATIC     ATOMS    COLORGROUP SYSTEM
5 38 39 40 41 42
ATOM$RED        STATIC     ATOMS    COLORGROUP SYSTEM
2 25 26
