AV-unprocessed.smi:2361|AV-procd|sdf|9411|dock1
  -GOLD-   2272013 43D 1   1.00000     0.00000
 Structure written by MMmdl.
 26 27  0  0  0  0  0  0  0  0  1 V2000
  150.8712  140.2492  155.0181 O   0  0  0  0  0  0  0  0  0  0  0  0
  150.1714  141.1259  155.5252 C   0  0  0  0  0  0  0  0  0  0  0  0
  150.3697  141.6473  156.7495 N   0  0  0  0  0  0  0  0  0  0  0  0
  151.3864  141.3317  157.6937 C   0  0  0  0  0  0  0  0  0  0  0  0
  152.1924  140.1693  157.6113 C   0  0  0  0  0  0  0  0  0  0  0  0
  153.1723  139.8772  158.4923 N   0  0  0  0  0  0  0  0  0  0  0  0
  153.3972  140.7447  159.5002 C   0  0  0  0  0  0  0  0  0  0  0  0
  152.6695  141.9381  159.6708 C   0  0  0  0  0  0  0  0  0  0  0  0
  153.0388  142.9934  160.9881 Cl  0  0  0  0  0  0  0  0  0  0  0  0
  151.6464  142.2404  158.7459 C   0  0  0  0  0  0  0  0  0  0  0  0
  150.7240  143.6971  158.9048 Cl  0  0  0  0  0  0  0  0  0  0  0  0
  148.9731  141.6890  154.7517 C   0  0  2  0  0  0  0  0  0  0  0  0
  147.6094  141.4160  155.4147 C   0  0  0  0  0  0  0  0  0  0  0  0
  146.9412  140.4315  154.4744 C   0  0  0  0  0  0  0  0  0  0  0  0
  147.5689  140.7990  153.1378 C   0  0  0  0  0  0  0  0  0  0  0  0
  148.9234  141.0438  153.4807 O   0  0  0  0  0  0  0  0  0  0  0  0
  149.6667  142.2975  157.0705 H   0  0  0  0  0  0  0  0  0  0  0  0
  152.0795  139.4535  156.8120 H   0  0  0  0  0  0  0  0  0  0  0  0
  154.1870  140.4812  160.1884 H   0  0  0  0  0  0  0  0  0  0  0  0
  149.0944  142.7627  154.5977 H   0  0  0  0  0  0  0  0  0  0  0  0
  147.6748  141.0278  156.4321 H   0  0  0  0  0  0  0  0  0  0  0  0
  147.0319  142.3400  155.4581 H   0  0  0  0  0  0  0  0  0  0  0  0
  147.2126  139.4104  154.7457 H   0  0  0  0  0  0  0  0  0  0  0  0
  145.8539  140.5101  154.4734 H   0  0  0  0  0  0  0  0  0  0  0  0
  147.4781  140.0066  152.3947 H   0  0  0  0  0  0  0  0  0  0  0  0
  147.1228  141.7087  152.7327 H   0  0  0  0  0  0  0  0  0  0  0  0
  1  2  2  0  0  0  0
  2  3  1  0  0  0  0
  2 12  1  0  0  0  0
  3  4  1  0  0  0  0
  3 17  1  0  0  0  0
  4 10  1  0  0  0  0
  4  5  2  0  0  0  0
  5  6  1  0  0  0  0
  5 18  1  0  0  0  0
  6  7  2  0  0  0  0
  7  8  1  0  0  0  0
  7 19  1  0  0  0  0
  8  9  1  0  0  0  0
  8 10  2  0  0  0  0
 10 11  1  0  0  0  0
 12 16  1  0  0  0  0
 12 13  1  0  0  0  0
 12 20  1  0  0  0  0
 13 14  1  0  0  0  0
 13 21  1  0  0  0  0
 13 22  1  0  0  0  0
 14 15  1  0  0  0  0
 14 23  1  0  0  0  0
 14 24  1  0  0  0  0
 15 16  1  0  0  0  0
 15 25  1  0  0  0  0
 15 26  1  0  0  0  0
M  END
> <s_m_source_file>
AV-unprocessed.smi

> <i_m_source_file_index>
2361

> <i_lp_mmshare_version>
43012

> <i_f3d_flags>
0

> <s_epik_input>
TzFbQ0gyXVtDSDJdW0NIMl1bQ0BIXTFDKD1PKVtOSF1jMltjSF1uW2NIXWMoQ2wpYzJDbA==

> <s_epik_cmdline>
J2VwaWtfcHl0aG9uJywgJy1waCcsICc3LjAnLCAnLXRuJywgJzgnLCAnLW1hJywgJzIwMCcsICctbWV0YWxfYmluZGluZycsICctaW1hZScsICc8aW5maWxlLm1hZT4nLCAnLW9tYWUnLCAnPG91dGZpbGUubWFlPic=

> <r_lp_tautomer_probability>
1

> <r_epik_Ionization_Penalty>
7.18707e-06

> <r_epik_Ionization_Penalty_Charging>
0

> <r_epik_Ionization_Penalty_Neutral>
7.18707e-06

> <r_epik_State_Penalty>
-0

> <r_epik_Charging_Adjusted_Penalty>
0

> <i_epik_Tot_Q>
0

> <i_epik_Tot_abs_Q>
0

> <r_epik_Metal_State_Penalty>
-0

> <b_epik_Metal_Only>
0

> <s_lp_Force_Field>
OPLS_2005

> <r_lp_Energy>
24.4573

> <b_lp_Chiralities_Consistent>
1

> <s_lp_Variant>
AV-unprocessed.smi:2361-1

> <Gold.Version>
5.8.1

> <Gold.Id.Protein>
6NUR|6NUR_protein|mol2

> <Gold.PLP.Fitness>
37.0479

> <Gold.PLP.PLP>
-28.4072

> <Gold.PLP.part.hbond>
-3.0044

> <Gold.PLP.part.metal>
0.0000

> <Gold.PLP.part.buried>
-3.0958

> <Gold.PLP.part.nonpolar>
-23.6323

> <Gold.PLP.part.repulsive>
2.3873

> <Gold.PLP.ligand.clash>
0.0000

> <Gold.PLP.ligand.torsion>
0.0754

> <Gold.PLP.Chemscore.Hbond>
2.9280

> <Gold.PLP.Chemscore.CHOScore>
0.0000

> <Gold.PLP.Chemscore.Metal>
0.0000

> <Gold.Chemscore.Hbonds>
donor molecule, donor type, donor heavy atom, donor atom, acceptor molecule, acceptor atom, score
      P1  H  7989  7998       L1     1  1.00
      P1  H  7997  8010       L1     6  0.77
      P1  H  8011  8017       L1    16  1.00

> <Gold.PLP.Chemscore.Internal.Correction>
0.0076

> <Gold.Rescore>
     Score         DG    S(hbond)    S(metal)    S(lipo)     H(rot)  DE(clash)    DE(int)     intcor
     16.89     -19.87       2.12        0.00      84.26       1.00       1.51       1.46       ----

> <Gold.Chemscore.Fitness>
16.8948

> <Gold.Chemscore.DG>
-19.8651

> <Gold.Chemscore.ZeroCoef>
-5.4800

> <Gold.Chemscore.Hbond>
2.1219

> <Gold.Chemscore.Metal>
0.0000

> <Gold.Chemscore.Lipo>
84.2556

> <Gold.Chemscore.Internal_Hbond>
0.0000

> <Gold.Chemscore.DEClash>
1.5124

> <Gold.Chemscore.DEInternal>
1.4578

> <Gold.Chemscore.Rot>
1.0000

> <Gold.Chemscore.Internal.Correction>
   9.000000E+99

> <Gold.Chemscore.Hbonds>
donor molecule, donor type, donor heavy atom, donor atom, acceptor molecule, acceptor atom, score
      P1  H  7989  7998       L1     1  0.74
      P1  H  7997  8010       L1     6  0.07
      P1  H  8011  8017       L1    16  0.24

> <Gold.Chemscore.Hbond.Weighted>
-7.0872

> <Gold.Chemscore.Metal.Weighted>
-0.0000

> <Gold.Chemscore.Lipo.Weighted>
-9.8579

> <Gold.Chemscore.Internal_Hbond.Weighted>
0.0000

> <Gold.Chemscore.DEClash.Weighted>
1.5124

> <Gold.Chemscore.DEInternal.Weighted>
1.4578

> <Gold.Chemscore.Rot.Weighted>
2.5600

> <Gold.Chemscore.Internal.Correction.Weighted>
   9.000000E+99

> <Gold.Protein.RotatedTorsions>
[ 6907 6896 6895 6894 ] final  -31.65 input  -60.11 | X-H torsion
[ 7974 7965 7964 7962 ] final    1.41 input  175.53 | X-H torsion
[ 8008 7997 7996 7995 ] final   20.82 input   59.86 | X-H torsion
[ 10167 10162 10161 10158 ] final -117.08 input  -65.29 | X-H torsion
[ 10718 10713 10712 10709 ] final -170.50 input   66.30 | X-H torsion
[ 10763 10752 10751 10750 ] final  168.13 input  -60.55 | X-H torsion
[ 11005 11000 10999 10996 ] final   47.54 input  -57.11 | X-H torsion

> <Gold.Protein.ActiveResidues>
 VAL166  LYS551  ARG553  GLY616  TRP617  ASP618  TYR619  PRO620  LYS621  CYS622 
 ASP623  PHE694  ASN695  SER759  ASP760  ASP761  ALA762  ILE779  LEU786  VAL792 
 PHE793  MET794  SER795  GLU796  ALA797  LYS798  CYS799  TRP800  GLU811  SER814 

> <Gold.Protein.RotatedAtoms>
  151.0892  134.9906  159.8394 H   0  0  0  0  0  0  0  0  0  0  0  0  # atno 6907 bound_to 6896
  152.5427  134.2086  159.8751 H   0  0  0  0  0  0  0  0  0  0  0  0  # atno 6908 bound_to 6896
  151.2121  133.4506  159.2632 H   0  0  0  0  0  0  0  0  0  0  0  0  # atno 6909 bound_to 6896
  146.2440  140.0992  142.8348 H   0  0  0  0  0  0  0  0  0  0  0  0  # atno 7974 bound_to 7965
  154.9413  140.3053  155.5119 H   0  0  0  0  0  0  0  0  0  0  0  0  # atno 8008 bound_to 7997
  156.2995  140.2336  156.4419 H   0  0  0  0  0  0  0  0  0  0  0  0  # atno 8009 bound_to 7997
  154.8143  140.0427  157.1354 H   0  0  0  0  0  0  0  0  0  0  0  0  # atno 8010 bound_to 7997
  140.0723  143.4866  152.1973 H   0  0  0  0  0  0  0  0  0  0  0  0  # atno 10167 bound_to 10162
  156.7271  130.9292  151.3102 H   0  0  0  0  0  0  0  0  0  0  0  0  # atno 10718 bound_to 10713
  154.3640  135.2753  155.2304 H   0  0  0  0  0  0  0  0  0  0  0  0  # atno 10763 bound_to 10752
  154.4480  135.5938  153.6176 H   0  0  0  0  0  0  0  0  0  0  0  0  # atno 10764 bound_to 10752
  152.9842  135.6035  154.3863 H   0  0  0  0  0  0  0  0  0  0  0  0  # atno 10765 bound_to 10752
  140.1270  134.4755  155.8552 H   0  0  0  0  0  0  0  0  0  0  0  0  # atno 11005 bound_to 11000
  145.0583  140.9069  143.4954 LP  0  0  0  0  0  0  0  0  0  0  0  0  # atno 17320 bound_to 7965
  145.1102  139.2762  143.5641 LP  0  0  0  0  0  0  0  0  0  0  0  0  # atno 17321 bound_to 7965
  139.5829  144.7518  151.3595 LP  0  0  0  0  0  0  0  0  0  0  0  0  # atno 17342 bound_to 10162
  140.7119  143.7367  150.7583 LP  0  0  0  0  0  0  0  0  0  0  0  0  # atno 17343 bound_to 10162
  157.6874  130.9199  150.0423 LP  0  0  0  0  0  0  0  0  0  0  0  0  # atno 17370 bound_to 10713
  156.1554  130.3643  149.9376 LP  0  0  0  0  0  0  0  0  0  0  0  0  # atno 17371 bound_to 10713
  141.2163  133.6781  156.6997 LP  0  0  0  0  0  0  0  0  0  0  0  0  # atno 17394 bound_to 11000
  140.2891  134.8255  157.4001 LP  0  0  0  0  0  0  0  0  0  0  0  0  # atno 17395 bound_to 11000

$$$$
