AV-unprocessed.smi:2335|AV-procd|sdf|9325|dock3
  -GOLD-   2272012543D 1   1.00000     0.00000
 Structure written by MMmdl.
 41 42  0  0  0  0  0  0  0  0  2 V2000
  144.7392  133.6973  161.8229 C   0  0  0  0  0  0  0  0  0  0  0  0
  145.7844  134.4596  162.6444 C   0  0  0  0  0  0  0  0  0  0  0  0
  146.7421  135.2191  161.7884 C   0  0  0  0  0  0  0  0  0  0  0  0
  146.7758  136.5537  161.7466 N   0  0  0  0  0  0  0  0  0  0  0  0
  147.7260  137.0249  160.8522 N   0  0  0  0  0  0  0  0  0  0  0  0
  148.3909  136.0433  160.2265 C   0  0  0  0  0  0  0  0  0  0  0  0
  149.3448  136.2857  159.3126 N   0  5  0  0  0  0  0  0  0  0  0  0
  149.4555  137.5153  158.7611 C   0  0  0  0  0  0  0  0  0  0  0  0
  148.8283  138.5237  159.0927 O   0  0  0  0  0  0  0  0  0  0  0  0
  150.3543  137.5794  157.7693 N   0  0  0  0  0  0  0  0  0  0  0  0
  150.7132  138.7743  157.0078 C   0  0  2  0  0  0  0  0  0  0  0  0
  149.4831  139.5635  156.6064 C   0  0  0  0  0  0  0  0  0  0  0  0
  149.9632  140.3610  155.3886 C   0  0  0  0  0  0  0  0  0  0  0  0
  148.8580  140.5383  154.3364 C   0  0  0  0  0  0  0  0  0  0  0  0
  150.5653  141.7184  155.7902 C   0  0  0  0  0  0  0  0  0  0  0  0
  151.0125  139.5826  154.8156 O   0  0  0  0  0  0  0  0  0  0  0  0
  151.3755  138.4774  155.6434 C   0  0  0  0  0  0  0  0  0  0  0  0
  152.9096  138.4437  155.7299 C   0  0  0  0  0  0  0  0  0  0  0  0
  150.8422  137.2118  154.9399 C   0  0  0  0  0  0  0  0  0  0  0  0
  147.8672  134.4271  160.6980 S   0  0  0  0  0  0  0  0  0  0  0  0
  144.0564  133.1510  162.4735 H   0  0  0  0  0  0  0  0  0  0  0  0
  145.2131  132.9767  161.1559 H   0  0  0  0  0  0  0  0  0  0  0  0
  144.1456  134.3794  161.2131 H   0  0  0  0  0  0  0  0  0  0  0  0
  145.2904  135.1544  163.3243 H   0  0  0  0  0  0  0  0  0  0  0  0
  146.3485  133.7633  163.2656 H   0  0  0  0  0  0  0  0  0  0  0  0
  150.8408  136.7270  157.5333 H   0  0  0  0  0  0  0  0  0  0  0  0
  151.3527  139.4268  157.6052 H   0  0  0  0  0  0  0  0  0  0  0  0
  148.6812  138.8811  156.3191 H   0  0  0  0  0  0  0  0  0  0  0  0
  149.1023  140.1939  157.4108 H   0  0  0  0  0  0  0  0  0  0  0  0
  148.0200  141.1094  154.7370 H   0  0  0  0  0  0  0  0  0  0  0  0
  148.4742  139.5745  154.0002 H   0  0  0  0  0  0  0  0  0  0  0  0
  149.2319  141.0654  153.4583 H   0  0  0  0  0  0  0  0  0  0  0  0
  149.8175  142.3583  156.2598 H   0  0  0  0  0  0  0  0  0  0  0  0
  150.9559  142.2476  154.9206 H   0  0  0  0  0  0  0  0  0  0  0  0
  151.3883  141.5987  156.4953 H   0  0  0  0  0  0  0  0  0  0  0  0
  153.2546  137.6042  156.3334 H   0  0  0  0  0  0  0  0  0  0  0  0
  153.3013  139.3584  156.1760 H   0  0  0  0  0  0  0  0  0  0  0  0
  153.3568  138.3435  154.7407 H   0  0  0  0  0  0  0  0  0  0  0  0
  151.1163  136.3059  155.4817 H   0  0  0  0  0  0  0  0  0  0  0  0
  151.2517  137.1235  153.9334 H   0  0  0  0  0  0  0  0  0  0  0  0
  149.7561  137.2295  154.8491 H   0  0  0  0  0  0  0  0  0  0  0  0
  1  2  1  0  0  0  0
  1 21  1  0  0  0  0
  1 22  1  0  0  0  0
  1 23  1  0  0  0  0
  2  3  1  0  0  0  0
  2 24  1  0  0  0  0
  2 25  1  0  0  0  0
  3 20  1  0  0  0  0
  3  4  2  0  0  0  0
  4  5  1  0  0  0  0
  5  6  2  0  0  0  0
  6  7  1  0  0  0  0
  6 20  1  0  0  0  0
  7  8  1  0  0  0  0
  8  9  2  0  0  0  0
  8 10  1  0  0  0  0
 10 11  1  0  0  0  0
 10 26  1  0  0  0  0
 11 17  1  0  0  0  0
 11 12  1  0  0  0  0
 11 27  1  0  0  0  0
 12 13  1  0  0  0  0
 12 28  1  0  0  0  0
 12 29  1  0  0  0  0
 13 14  1  0  0  0  0
 13 15  1  0  0  0  0
 13 16  1  0  0  0  0
 14 30  1  0  0  0  0
 14 31  1  0  0  0  0
 14 32  1  0  0  0  0
 15 33  1  0  0  0  0
 15 34  1  0  0  0  0
 15 35  1  0  0  0  0
 16 17  1  0  0  0  0
 17 18  1  0  0  0  0
 17 19  1  0  0  0  0
 18 36  1  0  0  0  0
 18 37  1  0  0  0  0
 18 38  1  0  0  0  0
 19 39  1  0  0  0  0
 19 40  1  0  0  0  0
 19 41  1  0  0  0  0
M  CHG  1   7  -1
M  END
> <s_m_source_file>
AV-unprocessed.smi

> <i_m_source_file_index>
2335

> <i_lp_mmshare_version>
43012

> <i_f3d_flags>
0

> <s_epik_input>
W0NIM11bQ0gyXWMxbm5jKHMxKVtOSF1DKD1PKVtOSF1bQ0BASF0oQyhPMikoW0NIM10pW0NIM10pW0NIMl1DMihbQ0gzXSlbQ0gzXQ==

> <s_epik_cmdline>
J2VwaWtfcHl0aG9uJywgJy1waCcsICc3LjAnLCAnLXRuJywgJzgnLCAnLW1hJywgJzIwMCcsICctbWV0YWxfYmluZGluZycsICctaW1hZScsICc8aW5maWxlLm1hZT4nLCAnLW9tYWUnLCAnPG91dGZpbGUubWFlPic=

> <r_lp_tautomer_probability>
1

> <r_epik_Ionization_Penalty>
4.33319

> <r_epik_Ionization_Penalty_Charging>
4.17028

> <r_epik_Ionization_Penalty_Neutral>
0.162913

> <r_epik_State_Penalty>
4.16976

> <r_epik_Charging_Adjusted_Penalty>
8.34004

> <i_epik_Tot_Q>
-1

> <i_epik_Tot_abs_Q>
1

> <r_epik_Metal_State_Penalty>
0.677358

> <b_epik_Metal_Only>
1

> <s_lp_Force_Field>
OPLS_2005

> <r_lp_Energy>
10.6883

> <b_lp_Chiralities_Consistent>
1

> <s_lp_Variant>
AV-unprocessed.smi:2335-3

> <Gold.Version>
5.8.1

> <Gold.Id.Protein>
6NUR|6NUR_protein|mol2

> <Gold.PLP.Fitness>
44.2150

> <Gold.PLP.PLP>
-31.1497

> <Gold.PLP.part.hbond>
-5.9544

> <Gold.PLP.part.metal>
0.0000

> <Gold.PLP.part.buried>
-3.3532

> <Gold.PLP.part.nonpolar>
-23.9736

> <Gold.PLP.part.repulsive>
0.1230

> <Gold.PLP.ligand.clash>
0.0000

> <Gold.PLP.ligand.torsion>
0.3568

> <Gold.PLP.Chemscore.Hbond>
4.5793

> <Gold.PLP.Chemscore.CHOScore>
0.0000

> <Gold.PLP.Chemscore.Metal>
0.0000

> <Gold.Chemscore.Hbonds>
donor molecule, donor type, donor heavy atom, donor atom, acceptor molecule, acceptor atom, score
      P1  H  6896  6908       L1     7  1.69
      P1  H  6931  6943       L1     5  0.83
      P1  H  6934  6947       L1     5  0.71
      P1  H  7989  7998       L1    16  0.95

> <Gold.PLP.Chemscore.Internal.Correction>
0.0411

> <Gold.Rescore>
     Score         DG    S(hbond)    S(metal)    S(lipo)     H(rot)  DE(clash)    DE(int)     intcor
     13.10     -17.36       1.90        0.00      73.50       1.19       0.78       3.48       ----

> <Gold.Chemscore.Fitness>
13.0996

> <Gold.Chemscore.DG>
-17.3611

> <Gold.Chemscore.ZeroCoef>
-5.4800

> <Gold.Chemscore.Hbond>
1.8978

> <Gold.Chemscore.Metal>
0.0000

> <Gold.Chemscore.Lipo>
73.5012

> <Gold.Chemscore.Internal_Hbond>
0.0000

> <Gold.Chemscore.DEClash>
0.7779

> <Gold.Chemscore.DEInternal>
3.4836

> <Gold.Chemscore.Rot>
1.1942

> <Gold.Chemscore.Internal.Correction>
   9.000000E+99

> <Gold.Chemscore.Hbonds>
donor molecule, donor type, donor heavy atom, donor atom, acceptor molecule, acceptor atom, score
      P1  H  6896  6908       L1     7  0.37
      P1  H  6931  6943       L1     5  0.39
      P1  H  6934  6947       L1     5  0.11
      P1  H  7989  7998       L1    16  0.21

> <Gold.Chemscore.Hbond.Weighted>
-6.3387

> <Gold.Chemscore.Metal.Weighted>
-0.0000

> <Gold.Chemscore.Lipo.Weighted>
-8.5996

> <Gold.Chemscore.Internal_Hbond.Weighted>
0.0000

> <Gold.Chemscore.DEClash.Weighted>
0.7779

> <Gold.Chemscore.DEInternal.Weighted>
3.4836

> <Gold.Chemscore.Rot.Weighted>
3.0573

> <Gold.Chemscore.Internal.Correction.Weighted>
   9.000000E+99

> <Gold.Protein.RotatedTorsions>
[ 6907 6896 6895 6894 ] final -171.75 input  -60.11 | X-H torsion
[ 7974 7965 7964 7962 ] final -150.39 input  175.53 | X-H torsion
[ 8008 7997 7996 7995 ] final  -36.91 input   59.86 | X-H torsion
[ 10167 10162 10161 10158 ] final   -0.80 input  -65.29 | X-H torsion
[ 10718 10713 10712 10709 ] final -132.54 input   66.30 | X-H torsion
[ 10763 10752 10751 10750 ] final -136.71 input  -60.55 | X-H torsion
[ 11005 11000 10999 10996 ] final  113.56 input  -57.11 | X-H torsion

> <Gold.Protein.ActiveResidues>
 VAL166  LYS551  ARG553  GLY616  TRP617  ASP618  TYR619  PRO620  LYS621  CYS622 
 ASP623  PHE694  ASN695  SER759  ASP760  ASP761  ALA762  ILE779  LEU786  VAL792 
 PHE793  MET794  SER795  GLU796  ALA797  LYS798  CYS799  TRP800  GLU811  SER814 

> <Gold.Protein.RotatedAtoms>
  151.5289  133.3452  159.2914 H   0  0  0  0  0  0  0  0  0  0  0  0  # atno 6907 bound_to 6896
  150.8605  134.7959  159.7090 H   0  0  0  0  0  0  0  0  0  0  0  0  # atno 6908 bound_to 6896
  152.4626  134.5158  159.9819 H   0  0  0  0  0  0  0  0  0  0  0  0  # atno 6909 bound_to 6896
  144.7910  140.4938  143.5772 H   0  0  0  0  0  0  0  0  0  0  0  0  # atno 7974 bound_to 7965
  154.4063  140.1618  156.2450 H   0  0  0  0  0  0  0  0  0  0  0  0  # atno 8008 bound_to 7997
  155.9168  140.3424  155.6119 H   0  0  0  0  0  0  0  0  0  0  0  0  # atno 8009 bound_to 7997
  155.7270  140.0775  157.2296 H   0  0  0  0  0  0  0  0  0  0  0  0  # atno 8010 bound_to 7997
  140.6783  143.6851  150.8073 H   0  0  0  0  0  0  0  0  0  0  0  0  # atno 10167 bound_to 10162
  156.2357  130.7065  151.0905 H   0  0  0  0  0  0  0  0  0  0  0  0  # atno 10718 bound_to 10713
  154.8678  135.3664  154.5105 H   0  0  0  0  0  0  0  0  0  0  0  0  # atno 10763 bound_to 10752
  153.5740  135.7020  153.5497 H   0  0  0  0  0  0  0  0  0  0  0  0  # atno 10764 bound_to 10752
  153.3516  135.4070  155.1613 H   0  0  0  0  0  0  0  0  0  0  0  0  # atno 10765 bound_to 10752
  139.8956  134.9552  156.6757 H   0  0  0  0  0  0  0  0  0  0  0  0  # atno 11005 bound_to 11000
  145.5794  139.1488  143.3244 LP  0  0  0  0  0  0  0  0  0  0  0  0  # atno 17320 bound_to 7965
  146.2162  140.5924  142.9037 LP  0  0  0  0  0  0  0  0  0  0  0  0  # atno 17321 bound_to 7965
  140.0548  143.5214  152.2656 LP  0  0  0  0  0  0  0  0  0  0  0  0  # atno 17342 bound_to 10162
  139.6089  144.7603  151.2998 LP  0  0  0  0  0  0  0  0  0  0  0  0  # atno 17343 bound_to 10162
  157.7153  131.0713  150.6350 LP  0  0  0  0  0  0  0  0  0  0  0  0  # atno 17370 bound_to 10713
  156.6420  130.4461  149.5749 LP  0  0  0  0  0  0  0  0  0  0  0  0  # atno 17371 bound_to 10713
  140.7338  133.9036  155.8230 LP  0  0  0  0  0  0  0  0  0  0  0  0  # atno 17394 bound_to 11000
  141.0132  134.0991  157.4199 LP  0  0  0  0  0  0  0  0  0  0  0  0  # atno 17395 bound_to 11000

$$$$
