AV-unprocessed.smi:44|AV-procd|sdf|397|dock4
  -GOLD-   2262016253D 1   1.00000     0.00000
 Structure written by MMmdl.
 29 31  0  0  0  0  0  0  0  0  1 V2000
  151.3128  135.8026  155.2314 O   0  0  0  0  0  0  0  0  0  0  0  0
  151.0597  137.0009  155.1263 C   0  0  0  0  0  0  0  0  0  0  0  0
  150.3250  137.5284  154.1171 N   0  0  0  0  0  0  0  0  0  0  0  0
  150.0331  138.9094  153.9880 C   0  0  0  0  0  0  0  0  0  0  0  0
  150.4273  139.8401  154.8181 N   0  0  0  0  0  0  0  0  0  0  0  0
  151.1746  139.3298  155.8608 C   0  0  0  0  0  0  0  0  0  0  0  0
  151.5233  138.0257  156.0911 C   0  0  0  0  0  0  0  0  0  0  0  0
  152.2812  137.8997  157.2483 N   0  0  0  0  0  0  0  0  0  0  0  0
  152.3549  139.1586  157.6756 C   0  0  0  0  0  0  0  0  0  0  0  0
  151.7259  140.0682  156.9064 N   0  0  0  0  0  0  0  0  0  0  0  0
  151.6447  141.5381  157.1628 C   0  0  1  0  0  0  0  0  0  0  0  0
  150.1885  142.0061  157.2470 C   0  0  0  0  0  0  0  0  0  0  0  0
  150.3073  143.1344  158.2469 C   0  0  0  0  0  0  0  0  0  0  0  0
  151.3451  142.5506  159.2084 C   0  0  2  0  0  0  0  0  0  0  0  0
  152.0902  143.5412  160.1194 C   0  0  0  0  0  0  0  0  0  0  0  0
  151.2879  143.9729  161.1987 O   0  0  0  0  0  0  0  0  0  0  0  0
  152.2512  141.8146  158.3912 O   0  0  0  0  0  0  0  0  0  0  0  0
  149.9671  136.8929  153.4191 H   0  0  0  0  0  0  0  0  0  0  0  0
  152.2053  142.0117  156.3553 H   0  0  0  0  0  0  0  0  0  0  0  0
  150.8456  141.8195  159.8457 H   0  0  0  0  0  0  0  0  0  0  0  0
  149.4315  139.1359  153.1067 H   0  0  0  0  0  0  0  0  0  0  0  0
  152.8831  139.4280  158.5784 H   0  0  0  0  0  0  0  0  0  0  0  0
  149.8151  142.3160  156.2708 H   0  0  0  0  0  0  0  0  0  0  0  0
  149.5533  141.2110  157.6400 H   0  0  0  0  0  0  0  0  0  0  0  0
  150.6778  144.0298  157.7468 H   0  0  0  0  0  0  0  0  0  0  0  0
  149.3626  143.3766  158.7340 H   0  0  0  0  0  0  0  0  0  0  0  0
  152.9772  143.0623  160.5344 H   0  0  0  0  0  0  0  0  0  0  0  0
  152.4312  144.4047  159.5478 H   0  0  0  0  0  0  0  0  0  0  0  0
  150.7529  143.2479  161.4832 H   0  0  0  0  0  0  0  0  0  0  0  0
  1  2  2  0  0  0  0
  2  7  1  0  0  0  0
  2  3  1  0  0  0  0
  3 18  1  0  0  0  0
  3  4  1  0  0  0  0
  4  5  2  0  0  0  0
  4 21  1  0  0  0  0
  5  6  1  0  0  0  0
  6 10  1  0  0  0  0
  6  7  2  0  0  0  0
  7  8  1  0  0  0  0
  8  9  2  0  0  0  0
  9 10  1  0  0  0  0
  9 22  1  0  0  0  0
 10 11  1  0  0  0  0
 11 19  1  0  0  0  0
 11 17  1  0  0  0  0
 11 12  1  0  0  0  0
 12 13  1  0  0  0  0
 12 23  1  0  0  0  0
 12 24  1  0  0  0  0
 13 14  1  0  0  0  0
 13 25  1  0  0  0  0
 13 26  1  0  0  0  0
 14 20  1  0  0  0  0
 14 15  1  0  0  0  0
 14 17  1  0  0  0  0
 15 16  1  0  0  0  0
 15 27  1  0  0  0  0
 15 28  1  0  0  0  0
 16 29  1  0  0  0  0
M  END
> <s_m_source_file>
AV-unprocessed.smi

> <i_m_source_file_index>
44

> <i_lp_mmshare_version>
43012

> <i_f3d_flags>
0

> <s_epik_input>
bjFbY0hdW25IXWMoPU8pYyhjMTIpbltjSF1uMltDQEhdM1tDSDJdW0NIMl1bQ0BIXShPMylbQ0gyXVtPSF0=

> <s_epik_cmdline>
J2VwaWtfcHl0aG9uJywgJy1waCcsICc3LjAnLCAnLXRuJywgJzgnLCAnLW1hJywgJzIwMCcsICctbWV0YWxfYmluZGluZycsICctaW1hZScsICc8aW5maWxlLm1hZT4nLCAnLW9tYWUnLCAnPG91dGZpbGUubWFlPic=

> <r_lp_tautomer_probability>
0.85571

> <r_epik_Ionization_Penalty>
0.00801444

> <r_epik_Ionization_Penalty_Charging>
0.00794574

> <r_epik_Ionization_Penalty_Neutral>
6.87072e-05

> <r_epik_State_Penalty>
0.0826172

> <r_epik_Charging_Adjusted_Penalty>
0.090563

> <i_epik_Tot_Q>
0

> <i_epik_Tot_abs_Q>
0

> <r_epik_Metal_State_Penalty>
0.440697

> <b_epik_Metal_Only>
0

> <s_epik_Chemistry_Notes>
This compound contains an acetal/aminal-like group ( X-CH(R)-Y where X, Y are N, S, or O) that may be acid/base labile, releasing an aldehyde.

> <s_lp_Force_Field>
OPLS_2005

> <r_lp_Energy>
42.4933

> <b_lp_Chiralities_Consistent>
1

> <s_lp_Variant>
AV-unprocessed.smi:44-3

> <Gold.Version>
5.8.1

> <Gold.Id.Protein>
6NUR|6NUR_protein|mol2

> <Gold.PLP.Fitness>
35.8996

> <Gold.PLP.PLP>
-24.6914

> <Gold.PLP.part.hbond>
-4.0808

> <Gold.PLP.part.metal>
0.0000

> <Gold.PLP.part.buried>
-3.7534

> <Gold.PLP.part.nonpolar>
-17.7059

> <Gold.PLP.part.repulsive>
0.2587

> <Gold.PLP.ligand.clash>
0.0000

> <Gold.PLP.ligand.torsion>
0.1729

> <Gold.PLP.Chemscore.Hbond>
2.8500

> <Gold.PLP.Chemscore.CHOScore>
1.0000

> <Gold.PLP.Chemscore.Metal>
0.0000

> <Gold.Chemscore.Hbonds>
donor molecule, donor type, donor heavy atom, donor atom, acceptor molecule, acceptor atom, score
      L1  H     3    18       P1  7948  1.00
      P1  H  7989  7998       L1     5  0.79
      P1  H 10752 10764       L1     1  1.00
      L1  C     4    21       P1  7957  1.00

> <Gold.PLP.Chemscore.Internal.Correction>
0.0040

> <Gold.Rescore>
     Score         DG    S(hbond)    S(metal)    S(lipo)     H(rot)  DE(clash)    DE(int)     intcor
     10.07     -10.64       1.90        0.00      39.73       2.27       0.28       0.30       ----

> <Gold.Chemscore.Fitness>
10.0677

> <Gold.Chemscore.DG>
-10.6437

> <Gold.Chemscore.ZeroCoef>
-5.4800

> <Gold.Chemscore.Hbond>
1.8957

> <Gold.Chemscore.Metal>
0.0000

> <Gold.Chemscore.Lipo>
39.7312

> <Gold.Chemscore.Internal_Hbond>
0.0000

> <Gold.Chemscore.DEClash>
0.2788

> <Gold.Chemscore.DEInternal>
0.2971

> <Gold.Chemscore.Rot>
2.2720

> <Gold.Chemscore.Internal.Correction>
   9.000000E+99

> <Gold.Chemscore.Hbonds>
donor molecule, donor type, donor heavy atom, donor atom, acceptor molecule, acceptor atom, score
      L1  H     3    18       P1  7948  0.25
      P1  H  7989  7998       L1     5  0.10
      P1  H 10752 10764       L1     1  0.65

> <Gold.Chemscore.Hbond.Weighted>
-6.3315

> <Gold.Chemscore.Metal.Weighted>
-0.0000

> <Gold.Chemscore.Lipo.Weighted>
-4.6486

> <Gold.Chemscore.Internal_Hbond.Weighted>
0.0000

> <Gold.Chemscore.DEClash.Weighted>
0.2788

> <Gold.Chemscore.DEInternal.Weighted>
0.2971

> <Gold.Chemscore.Rot.Weighted>
5.8164

> <Gold.Chemscore.Internal.Correction.Weighted>
   9.000000E+99

> <Gold.Protein.RotatedTorsions>
[ 6907 6896 6895 6894 ] final    2.92 input  -60.11 | X-H torsion
[ 7974 7965 7964 7962 ] final   48.88 input  175.53 | X-H torsion
[ 8008 7997 7996 7995 ] final -126.92 input   59.86 | X-H torsion
[ 10167 10162 10161 10158 ] final   99.20 input  -65.29 | X-H torsion
[ 10718 10713 10712 10709 ] final  164.31 input   66.30 | X-H torsion
[ 10763 10752 10751 10750 ] final  -54.81 input  -60.55 | X-H torsion
[ 11005 11000 10999 10996 ] final   62.78 input  -57.11 | X-H torsion

> <Gold.Protein.ActiveResidues>
 VAL166  LYS551  ARG553  GLY616  TRP617  ASP618  TYR619  PRO620  LYS621  CYS622 
 ASP623  PHE694  ASN695  SER759  ASP760  ASP761  ALA762  ILE779  LEU786  VAL792 
 PHE793  MET794  SER795  GLU796  ALA797  LYS798  CYS799  TRP800  GLU811  SER814 

> <Gold.Protein.RotatedAtoms>
  151.6167  135.1035  160.0092 H   0  0  0  0  0  0  0  0  0  0  0  0  # atno 6907 bound_to 6896
  152.4180  133.7065  159.6464 H   0  0  0  0  0  0  0  0  0  0  0  0  # atno 6908 bound_to 6896
  150.8067  133.8423  159.3223 H   0  0  0  0  0  0  0  0  0  0  0  0  # atno 6909 bound_to 6896
  146.0162  139.4598  142.9926 H   0  0  0  0  0  0  0  0  0  0  0  0  # atno 7974 bound_to 7965
  155.2376  140.0427  157.2970 H   0  0  0  0  0  0  0  0  0  0  0  0  # atno 8008 bound_to 7997
  154.5848  140.2411  155.7972 H   0  0  0  0  0  0  0  0  0  0  0  0  # atno 8009 bound_to 7997
  156.2219  140.2967  155.9981 H   0  0  0  0  0  0  0  0  0  0  0  0  # atno 8010 bound_to 7997
  139.7638  144.6945  151.0253 H   0  0  0  0  0  0  0  0  0  0  0  0  # atno 10167 bound_to 10162
  157.0961  131.0430  151.2517 H   0  0  0  0  0  0  0  0  0  0  0  0  # atno 10718 bound_to 10713
  154.1807  135.6444  153.5033 H   0  0  0  0  0  0  0  0  0  0  0  0  # atno 10763 bound_to 10752
  153.0060  135.5405  154.6517 H   0  0  0  0  0  0  0  0  0  0  0  0  # atno 10764 bound_to 10752
  154.5880  135.2931  155.0637 H   0  0  0  0  0  0  0  0  0  0  0  0  # atno 10765 bound_to 10752
  140.0069  134.6356  155.9842 H   0  0  0  0  0  0  0  0  0  0  0  0  # atno 11005 bound_to 11000
  145.7265  141.0057  143.1374 LP  0  0  0  0  0  0  0  0  0  0  0  0  # atno 17320 bound_to 7965
  144.6971  139.8933  143.7454 LP  0  0  0  0  0  0  0  0  0  0  0  0  # atno 17321 bound_to 7965
  140.7809  143.4666  151.0204 LP  0  0  0  0  0  0  0  0  0  0  0  0  # atno 17342 bound_to 10162
  139.8351  143.7638  152.3180 LP  0  0  0  0  0  0  0  0  0  0  0  0  # atno 17343 bound_to 10162
  157.4680  130.7692  149.7297 LP  0  0  0  0  0  0  0  0  0  0  0  0  # atno 17370 bound_to 10713
  155.9885  130.3958  150.3114 LP  0  0  0  0  0  0  0  0  0  0  0  0  # atno 17371 bound_to 10713
  141.1683  133.6537  156.4559 LP  0  0  0  0  0  0  0  0  0  0  0  0  # atno 17394 bound_to 11000
  140.4625  134.6828  157.5092 LP  0  0  0  0  0  0  0  0  0  0  0  0  # atno 17395 bound_to 11000

$$$$
