AV-unprocessed.smi:3134|AV-procd|sdf|11944|dock8
  -GOLD-   2272017333D 1   1.00000     0.00000
 Structure written by MMmdl.
 36 36  0  0  0  0  0  0  0  0  1 V2000
  147.1067  139.9867  153.1535 C   0  0  0  0  0  0  0  0  0  0  0  0
  147.0470  140.6192  154.5532 C   0  0  0  0  0  0  0  0  0  0  0  0
  146.8710  142.1417  154.4801 C   0  0  0  0  0  0  0  0  0  0  0  0
  148.2583  140.3055  155.3046 N   0  0  0  0  0  0  0  0  0  0  0  0
  149.5093  140.6164  154.9299 C   0  0  0  0  0  0  0  0  0  0  0  0
  149.7741  141.2105  153.8840 O   0  0  0  0  0  0  0  0  0  0  0  0
  150.6334  140.2294  155.9060 C   0  0  1  0  0  0  0  0  0  0  0  0
  151.6191  139.2536  155.2438 C   0  0  0  0  0  0  0  0  0  0  0  0
  151.3679  141.3904  156.4412 N   0  0  0  0  0  0  0  0  0  0  0  0
  150.5588  142.2971  157.2483 C   0  0  0  0  0  0  0  0  0  0  0  0
  151.4193  143.4870  157.6945 C   0  0  0  0  0  0  0  0  0  0  0  0
  152.0444  143.2371  158.9785 N   0  0  0  0  0  0  0  0  0  0  0  0
  151.8611  143.9133  160.1661 C   0  0  0  0  0  0  0  0  0  0  0  0
  152.6564  143.3144  161.1006 C   0  0  0  0  0  0  0  0  0  0  0  0
  153.2953  142.2670  160.3795 C   0  0  0  0  0  0  0  0  0  0  0  0
  152.9255  142.2221  159.1098 N   0  0  0  0  0  0  0  0  0  0  0  0
  146.2041  140.2105  152.5846 H   0  0  0  0  0  0  0  0  0  0  0  0
  147.1955  138.9014  153.2119 H   0  0  0  0  0  0  0  0  0  0  0  0
  147.9596  140.3595  152.5854 H   0  0  0  0  0  0  0  0  0  0  0  0
  146.1846  140.2107  155.0832 H   0  0  0  0  0  0  0  0  0  0  0  0
  145.9574  142.4046  153.9463 H   0  0  0  0  0  0  0  0  0  0  0  0
  147.7063  142.6149  153.9628 H   0  0  0  0  0  0  0  0  0  0  0  0
  146.8056  142.5782  155.4774 H   0  0  0  0  0  0  0  0  0  0  0  0
  148.1360  139.8261  156.1849 H   0  0  0  0  0  0  0  0  0  0  0  0
  150.1803  139.7061  156.7502 H   0  0  0  0  0  0  0  0  0  0  0  0
  151.1055  138.3711  154.8602 H   0  0  0  0  0  0  0  0  0  0  0  0
  152.3661  138.9091  155.9596 H   0  0  0  0  0  0  0  0  0  0  0  0
  152.1505  139.7181  154.4118 H   0  0  0  0  0  0  0  0  0  0  0  0
  151.8334  141.9061  155.7079 H   0  0  0  0  0  0  0  0  0  0  0  0
  149.7053  142.6636  156.6767 H   0  0  0  0  0  0  0  0  0  0  0  0
  150.1700  141.7679  158.1196 H   0  0  0  0  0  0  0  0  0  0  0  0
  152.1990  143.6968  156.9604 H   0  0  0  0  0  0  0  0  0  0  0  0
  150.8111  144.3889  157.7780 H   0  0  0  0  0  0  0  0  0  0  0  0
  151.1868  144.7533  160.2462 H   0  0  0  0  0  0  0  0  0  0  0  0
  152.7653  143.5830  162.1409 H   0  0  0  0  0  0  0  0  0  0  0  0
  154.0110  141.5425  160.7386 H   0  0  0  0  0  0  0  0  0  0  0  0
  1  2  1  0  0  0  0
  1 17  1  0  0  0  0
  1 18  1  0  0  0  0
  1 19  1  0  0  0  0
  2  3  1  0  0  0  0
  2  4  1  0  0  0  0
  2 20  1  0  0  0  0
  3 21  1  0  0  0  0
  3 22  1  0  0  0  0
  3 23  1  0  0  0  0
  4  5  1  0  0  0  0
  4 24  1  0  0  0  0
  5  6  2  0  0  0  0
  5  7  1  0  0  0  0
  7  8  1  0  0  0  0
  7  9  1  0  0  0  0
  7 25  1  0  0  0  0
  8 26  1  0  0  0  0
  8 27  1  0  0  0  0
  8 28  1  0  0  0  0
  9 10  1  0  0  0  0
  9 29  1  0  0  0  0
 10 11  1  0  0  0  0
 10 30  1  0  0  0  0
 10 31  1  0  0  0  0
 11 12  1  0  0  0  0
 11 32  1  0  0  0  0
 11 33  1  0  0  0  0
 12 16  1  0  0  0  0
 12 13  1  0  0  0  0
 13 14  2  0  0  0  0
 13 34  1  0  0  0  0
 14 15  1  0  0  0  0
 14 35  1  0  0  0  0
 15 16  2  0  0  0  0
 15 36  1  0  0  0  0
M  END
> <s_m_source_file>
AV-unprocessed.smi

> <i_m_source_file_index>
3134

> <i_lp_mmshare_version>
43012

> <i_f3d_flags>
0

> <s_epik_input>
W0NIM11bQ0hdKFtDSDNdKVtOSF1DKD1PKVtDQEhdKFtDSDNdKVtOSF1bQ0gyXVtDSDJdbjFbY0hdW2NIXVtjSF1uMQ==

> <s_epik_cmdline>
J2VwaWtfcHl0aG9uJywgJy1waCcsICc3LjAnLCAnLXRuJywgJzgnLCAnLW1hJywgJzIwMCcsICctbWV0YWxfYmluZGluZycsICctaW1hZScsICc8aW5maWxlLm1hZT4nLCAnLW9tYWUnLCAnPG91dGZpbGUubWFlPic=

> <r_lp_tautomer_probability>
1

> <r_epik_Ionization_Penalty>
0.731872

> <r_epik_Ionization_Penalty_Charging>
0

> <r_epik_Ionization_Penalty_Neutral>
0.731872

> <r_epik_State_Penalty>
0.75611

> <r_epik_Charging_Adjusted_Penalty>
0.75611

> <i_epik_Tot_Q>
0

> <i_epik_Tot_abs_Q>
0

> <r_epik_Metal_State_Penalty>
0.755373

> <b_epik_Metal_Only>
0

> <s_lp_Force_Field>
OPLS_2005

> <r_lp_Energy>
3.64981

> <b_lp_Chiralities_Consistent>
1

> <s_lp_Variant>
AV-unprocessed.smi:3134-4

> <Gold.Version>
5.8.1

> <Gold.Id.Protein>
6NUR|6NUR_protein|mol2

> <Gold.PLP.Fitness>
38.1459

> <Gold.PLP.PLP>
-34.9939

> <Gold.PLP.part.hbond>
-1.8258

> <Gold.PLP.part.metal>
0.0000

> <Gold.PLP.part.buried>
-2.4839

> <Gold.PLP.part.nonpolar>
-32.2772

> <Gold.PLP.part.repulsive>
1.3814

> <Gold.PLP.ligand.clash>
0.0000

> <Gold.PLP.ligand.torsion>
0.2518

> <Gold.PLP.Chemscore.Hbond>
1.2000

> <Gold.PLP.Chemscore.CHOScore>
0.0000

> <Gold.PLP.Chemscore.Metal>
0.0000

> <Gold.Chemscore.Hbonds>
donor molecule, donor type, donor heavy atom, donor atom, acceptor molecule, acceptor atom, score
      P1  H  7989  7998       L1     6  0.30
      P1  H  8011  8017       L1     6  0.80

> <Gold.PLP.Chemscore.Internal.Correction>
0.0556

> <Gold.Rescore>
     Score         DG    S(hbond)    S(metal)    S(lipo)     H(rot)  DE(clash)    DE(int)     intcor
     11.94     -13.77       1.09        0.00      84.59       2.05       0.47       1.36       ----

> <Gold.Chemscore.Fitness>
11.9399

> <Gold.Chemscore.DG>
-13.7705

> <Gold.Chemscore.ZeroCoef>
-5.4800

> <Gold.Chemscore.Hbond>
1.0924

> <Gold.Chemscore.Metal>
0.0000

> <Gold.Chemscore.Lipo>
84.5930

> <Gold.Chemscore.Internal_Hbond>
0.0000

> <Gold.Chemscore.DEClash>
0.4680

> <Gold.Chemscore.DEInternal>
1.3626

> <Gold.Chemscore.Rot>
2.0529

> <Gold.Chemscore.Internal.Correction>
   9.000000E+99

> <Gold.Chemscore.Hbonds>
donor molecule, donor type, donor heavy atom, donor atom, acceptor molecule, acceptor atom, score
      P1  H  7989  7998       L1     6  0.22
      P1  H  8011  8017       L1     6  0.78

> <Gold.Chemscore.Hbond.Weighted>
-3.6485

> <Gold.Chemscore.Metal.Weighted>
-0.0000

> <Gold.Chemscore.Lipo.Weighted>
-9.8974

> <Gold.Chemscore.Internal_Hbond.Weighted>
0.0000

> <Gold.Chemscore.DEClash.Weighted>
0.4680

> <Gold.Chemscore.DEInternal.Weighted>
1.3626

> <Gold.Chemscore.Rot.Weighted>
5.2554

> <Gold.Chemscore.Internal.Correction.Weighted>
   9.000000E+99

> <Gold.Protein.RotatedTorsions>
[ 6907 6896 6895 6894 ] final   -8.98 input  -60.11 | X-H torsion
[ 7974 7965 7964 7962 ] final  -54.92 input  175.53 | X-H torsion
[ 8008 7997 7996 7995 ] final  116.66 input   59.86 | X-H torsion
[ 10167 10162 10161 10158 ] final  -30.03 input  -65.29 | X-H torsion
[ 10718 10713 10712 10709 ] final  -97.33 input   66.30 | X-H torsion
[ 10763 10752 10751 10750 ] final  115.35 input  -60.55 | X-H torsion
[ 11005 11000 10999 10996 ] final -134.90 input  -57.11 | X-H torsion

> <Gold.Protein.ActiveResidues>
 VAL166  LYS551  ARG553  GLY616  TRP617  ASP618  TYR619  PRO620  LYS621  CYS622 
 ASP623  PHE694  ASN695  SER759  ASP760  ASP761  ALA762  ILE779  LEU786  VAL792 
 PHE793  MET794  SER795  GLU796  ALA797  LYS798  CYS799  TRP800  GLU811  SER814 

> <Gold.Protein.RotatedAtoms>
  151.4250  135.1002  159.9625 H   0  0  0  0  0  0  0  0  0  0  0  0  # atno 6907 bound_to 6896
  152.4975  133.8671  159.7290 H   0  0  0  0  0  0  0  0  0  0  0  0  # atno 6908 bound_to 6896
  150.9196  133.6839  159.2863 H   0  0  0  0  0  0  0  0  0  0  0  0  # atno 6909 bound_to 6896
  145.8801  140.8151  142.9844 H   0  0  0  0  0  0  0  0  0  0  0  0  # atno 7974 bound_to 7965
  156.2452  140.2913  156.0558 H   0  0  0  0  0  0  0  0  0  0  0  0  # atno 8008 bound_to 7997
  155.1830  140.0405  157.2903 H   0  0  0  0  0  0  0  0  0  0  0  0  # atno 8009 bound_to 7997
  154.6246  140.2484  155.7514 H   0  0  0  0  0  0  0  0  0  0  0  0  # atno 8010 bound_to 7997
  140.7254  143.3881  151.1479 H   0  0  0  0  0  0  0  0  0  0  0  0  # atno 10167 bound_to 10162
  156.0081  130.5190  150.6359 H   0  0  0  0  0  0  0  0  0  0  0  0  # atno 10718 bound_to 10713
  153.5209  135.3598  155.2631 H   0  0  0  0  0  0  0  0  0  0  0  0  # atno 10763 bound_to 10752
  154.8735  135.4045  154.3261 H   0  0  0  0  0  0  0  0  0  0  0  0  # atno 10764 bound_to 10752
  153.3932  135.7072  153.6547 H   0  0  0  0  0  0  0  0  0  0  0  0  # atno 10765 bound_to 10752
  140.8948  134.1766  157.4502 H   0  0  0  0  0  0  0  0  0  0  0  0  # atno 11005 bound_to 11000
  144.6727  140.1370  143.7440 LP  0  0  0  0  0  0  0  0  0  0  0  0  # atno 17320 bound_to 7965
  145.9034  139.2444  143.1480 LP  0  0  0  0  0  0  0  0  0  0  0  0  # atno 17321 bound_to 7965
  139.7481  143.8820  152.3069 LP  0  0  0  0  0  0  0  0  0  0  0  0  # atno 17342 bound_to 10162
  139.8664  144.7091  150.9038 LP  0  0  0  0  0  0  0  0  0  0  0  0  # atno 17343 bound_to 10162
  157.4148  131.0828  151.1187 LP  0  0  0  0  0  0  0  0  0  0  0  0  # atno 17370 bound_to 10713
  157.1807  130.6308  149.5671 LP  0  0  0  0  0  0  0  0  0  0  0  0  # atno 17371 bound_to 10713
  139.8734  134.9873  156.5364 LP  0  0  0  0  0  0  0  0  0  0  0  0  # atno 17394 bound_to 11000
  140.8303  133.8284  155.8977 LP  0  0  0  0  0  0  0  0  0  0  0  0  # atno 17395 bound_to 11000

$$$$
