AV-unprocessed.smi:2760|AV-procd|sdf|10628|dock7
  -GOLD-   2272015 73D 1   1.00000     0.00000
 Structure written by MMmdl.
 32 33  0  0  0  0  0  0  0  0  1 V2000
  147.3629  141.9997  154.2118 O   0  0  0  0  0  0  0  0  0  0  0  0
  148.4229  141.5174  154.6048 C   0  0  0  0  0  0  0  0  0  0  0  0
  148.8570  140.1503  154.3191 C   0  0  0  0  0  0  0  0  0  0  0  0
  150.0446  139.6909  154.7893 C   0  0  0  0  0  0  0  0  0  0  0  0
  150.5502  138.3082  154.5389 C   0  0  0  0  0  0  0  0  0  0  0  0
  151.5163  137.6184  155.4777 C   0  0  0  0  0  0  0  0  0  0  0  0
  151.9759  138.0461  154.1050 C   0  0  0  0  0  0  0  0  0  0  0  0
  150.8735  140.5216  155.5565 N   0  0  0  0  0  0  0  0  0  0  0  0
  150.5099  141.7371  155.8253 C   0  0  0  0  0  0  0  0  0  0  0  0
  151.3767  143.0080  156.7909 S   0  0  0  0  0  0  0  0  0  0  0  0
  150.6223  142.7889  158.4281 C   0  0  0  0  0  0  0  0  0  0  0  0
  151.4173  143.5099  159.5219 C   0  0  0  0  0  0  0  0  0  0  0  0
  152.6740  142.8740  159.6893 O   0  0  0  0  0  0  0  0  0  0  0  0
  152.5580  141.4786  159.9197 C   0  0  0  0  0  0  0  0  0  0  0  0
  153.8560  140.9516  160.5439 C   0  0  0  0  0  0  0  0  0  0  0  0
  153.8154  139.6203  160.5850 F   0  0  0  0  0  0  0  0  0  0  0  0
  154.9045  141.3251  159.8109 F   0  0  0  0  0  0  0  0  0  0  0  0
  153.9909  141.4138  161.7867 F   0  0  0  0  0  0  0  0  0  0  0  0
  149.2916  142.2359  155.3522 N   0  0  0  0  0  0  0  0  0  0  0  0
  149.0399  143.1872  155.5778 H   0  0  0  0  0  0  0  0  0  0  0  0
  148.2150  139.5128  153.7296 H   0  0  0  0  0  0  0  0  0  0  0  0
  149.7923  137.6686  154.0891 H   0  0  0  0  0  0  0  0  0  0  0  0
  151.8958  138.1758  156.3315 H   0  0  0  0  0  0  0  0  0  0  0  0
  151.3727  136.5534  155.6484 H   0  0  0  0  0  0  0  0  0  0  0  0
  152.1368  137.2661  153.3639 H   0  0  0  0  0  0  0  0  0  0  0  0
  152.6591  138.8907  154.0439 H   0  0  0  0  0  0  0  0  0  0  0  0
  150.5515  141.7243  158.6530 H   0  0  0  0  0  0  0  0  0  0  0  0
  149.6051  143.1801  158.3987 H   0  0  0  0  0  0  0  0  0  0  0  0
  151.5535  144.5593  159.2560 H   0  0  0  0  0  0  0  0  0  0  0  0
  150.8611  143.4796  160.4600 H   0  0  0  0  0  0  0  0  0  0  0  0
  151.7180  141.2784  160.5870 H   0  0  0  0  0  0  0  0  0  0  0  0
  152.3600  140.9603  158.9802 H   0  0  0  0  0  0  0  0  0  0  0  0
  1  2  2  0  0  0  0
  2 19  1  0  0  0  0
  2  3  1  0  0  0  0
  3 21  1  0  0  0  0
  3  4  2  0  0  0  0
  4  5  1  0  0  0  0
  4  8  1  0  0  0  0
  5  7  1  0  0  0  0
  5  6  1  0  0  0  0
  5 22  1  0  0  0  0
  6  7  1  0  0  0  0
  6 23  1  0  0  0  0
  6 24  1  0  0  0  0
  7 25  1  0  0  0  0
  7 26  1  0  0  0  0
  8  9  2  0  0  0  0
  9 10  1  0  0  0  0
  9 19  1  0  0  0  0
 10 11  1  0  0  0  0
 11 12  1  0  0  0  0
 11 27  1  0  0  0  0
 11 28  1  0  0  0  0
 12 13  1  0  0  0  0
 12 29  1  0  0  0  0
 12 30  1  0  0  0  0
 13 14  1  0  0  0  0
 14 15  1  0  0  0  0
 14 31  1  0  0  0  0
 14 32  1  0  0  0  0
 15 16  1  0  0  0  0
 15 17  1  0  0  0  0
 15 18  1  0  0  0  0
 19 20  1  0  0  0  0
M  END
> <s_m_source_file>
AV-unprocessed.smi

> <i_m_source_file_index>
2760

> <i_lp_mmshare_version>
43012

> <i_f3d_flags>
0

> <s_epik_input>
W09IXWMxW2NIXWMoW0NIXTJbQ0gyXVtDSDJdMiluYyhuMSlTW0NIMl1bQ0gyXU9bQ0gyXUMoRikoRilG

> <s_epik_cmdline>
J2VwaWtfcHl0aG9uJywgJy1waCcsICc3LjAnLCAnLXRuJywgJzgnLCAnLW1hJywgJzIwMCcsICctbWV0YWxfYmluZGluZycsICctaW1hZScsICc8aW5maWxlLm1hZT4nLCAnLW9tYWUnLCAnPG91dGZpbGUubWFlPic=

> <r_lp_tautomer_probability>
0.660323

> <r_epik_Ionization_Penalty>
0.00540315

> <r_epik_Ionization_Penalty_Charging>
0.00540219

> <r_epik_Ionization_Penalty_Neutral>
9.53041e-07

> <r_epik_State_Penalty>
0.139188

> <r_epik_Charging_Adjusted_Penalty>
0.14459

> <i_epik_Tot_Q>
0

> <i_epik_Tot_abs_Q>
0

> <r_epik_Metal_State_Penalty>
0.790013

> <b_epik_Metal_Only>
0

> <s_lp_Force_Field>
OPLS_2005

> <r_lp_Energy>
15.5574

> <b_lp_Chiralities_Consistent>
1

> <s_lp_Variant>
AV-unprocessed.smi:2760-1

> <Gold.Version>
5.8.1

> <Gold.Id.Protein>
6NUR|6NUR_protein|mol2

> <Gold.PLP.Fitness>
40.1213

> <Gold.PLP.PLP>
-39.1014

> <Gold.PLP.part.hbond>
-1.7445

> <Gold.PLP.part.metal>
0.0000

> <Gold.PLP.part.buried>
-7.0273

> <Gold.PLP.part.nonpolar>
-31.0249

> <Gold.PLP.part.repulsive>
0.3771

> <Gold.PLP.ligand.clash>
0.0000

> <Gold.PLP.ligand.torsion>
1.0896

> <Gold.PLP.Chemscore.Hbond>
1.0000

> <Gold.PLP.Chemscore.CHOScore>
0.0000

> <Gold.PLP.Chemscore.Metal>
0.0000

> <Gold.Chemscore.Hbonds>
donor molecule, donor type, donor heavy atom, donor atom, acceptor molecule, acceptor atom, score
      L1  H    19    20       P1  8028  1.00

> <Gold.PLP.Chemscore.Internal.Correction>
0.1992

> <Gold.Rescore>
     Score         DG    S(hbond)    S(metal)    S(lipo)     H(rot)  DE(clash)    DE(int)     intcor
     10.55     -11.47       1.00        0.00      78.83       2.57       0.17       0.75       ----

> <Gold.Chemscore.Fitness>
10.5484

> <Gold.Chemscore.DG>
-11.4671

> <Gold.Chemscore.ZeroCoef>
-5.4800

> <Gold.Chemscore.Hbond>
0.9995

> <Gold.Chemscore.Metal>
0.0000

> <Gold.Chemscore.Lipo>
78.8293

> <Gold.Chemscore.Internal_Hbond>
0.0000

> <Gold.Chemscore.DEClash>
0.1703

> <Gold.Chemscore.DEInternal>
0.7484

> <Gold.Chemscore.Rot>
2.5680

> <Gold.Chemscore.Internal.Correction>
   9.000000E+99

> <Gold.Chemscore.Hbonds>
donor molecule, donor type, donor heavy atom, donor atom, acceptor molecule, acceptor atom, score
      L1  H    19    20       P1  8028  0.94

> <Gold.Chemscore.Hbond.Weighted>
-3.3382

> <Gold.Chemscore.Metal.Weighted>
-0.0000

> <Gold.Chemscore.Lipo.Weighted>
-9.2230

> <Gold.Chemscore.Internal_Hbond.Weighted>
0.0000

> <Gold.Chemscore.DEClash.Weighted>
0.1703

> <Gold.Chemscore.DEInternal.Weighted>
0.7484

> <Gold.Chemscore.Rot.Weighted>
6.5741

> <Gold.Chemscore.Internal.Correction.Weighted>
   9.000000E+99

> <Gold.Protein.RotatedTorsions>
[ 6907 6896 6895 6894 ] final  132.13 input  -60.11 | X-H torsion
[ 7974 7965 7964 7962 ] final  158.66 input  175.53 | X-H torsion
[ 8008 7997 7996 7995 ] final  145.33 input   59.86 | X-H torsion
[ 10167 10162 10161 10158 ] final  -51.24 input  -65.29 | X-H torsion
[ 10718 10713 10712 10709 ] final   98.22 input   66.30 | X-H torsion
[ 10763 10752 10751 10750 ] final -131.33 input  -60.55 | X-H torsion
[ 11005 11000 10999 10996 ] final  160.08 input  -57.11 | X-H torsion

> <Gold.Protein.ActiveResidues>
 VAL166  LYS551  ARG553  GLY616  TRP617  ASP618  TYR619  PRO620  LYS621  CYS622 
 ASP623  PHE694  ASN695  SER759  ASP760  ASP761  ALA762  ILE779  LEU786  VAL792 
 PHE793  MET794  SER795  GLU796  ALA797  LYS798  CYS799  TRP800  GLU811  SER814 

> <Gold.Protein.RotatedAtoms>
  152.3356  133.6007  159.5839 H   0  0  0  0  0  0  0  0  0  0  0  0  # atno 6907 bound_to 6896
  150.7448  133.9802  159.3582 H   0  0  0  0  0  0  0  0  0  0  0  0  # atno 6908 bound_to 6896
  151.7672  135.0796  160.0405 H   0  0  0  0  0  0  0  0  0  0  0  0  # atno 6909 bound_to 6896
  144.7833  139.7509  143.6251 H   0  0  0  0  0  0  0  0  0  0  0  0  # atno 7974 bound_to 7965
  156.2886  140.2212  156.5198 H   0  0  0  0  0  0  0  0  0  0  0  0  # atno 8008 bound_to 7997
  154.7538  140.0478  157.0938 H   0  0  0  0  0  0  0  0  0  0  0  0  # atno 8009 bound_to 7997
  155.0076  140.3109  155.4845 H   0  0  0  0  0  0  0  0  0  0  0  0  # atno 8010 bound_to 7997
  140.6598  143.2627  151.4475 H   0  0  0  0  0  0  0  0  0  0  0  0  # atno 10167 bound_to 10162
  157.6899  131.0633  150.4763 H   0  0  0  0  0  0  0  0  0  0  0  0  # atno 10718 bound_to 10713
  154.8751  135.3833  154.4228 H   0  0  0  0  0  0  0  0  0  0  0  0  # atno 10763 bound_to 10752
  153.4930  135.7030  153.5879 H   0  0  0  0  0  0  0  0  0  0  0  0  # atno 10764 bound_to 10752
  153.4244  135.3894  155.2098 H   0  0  0  0  0  0  0  0  0  0  0  0  # atno 10765 bound_to 10752
  140.2024  134.8328  157.3033 H   0  0  0  0  0  0  0  0  0  0  0  0  # atno 11005 bound_to 11000
  146.2053  139.5373  142.9717 LP  0  0  0  0  0  0  0  0  0  0  0  0  # atno 17320 bound_to 7965
  145.5990  141.0358  143.2029 LP  0  0  0  0  0  0  0  0  0  0  0  0  # atno 17321 bound_to 7965
  139.5829  144.1669  152.1992 LP  0  0  0  0  0  0  0  0  0  0  0  0  # atno 17342 bound_to 10162
  140.0999  144.5548  150.6996 LP  0  0  0  0  0  0  0  0  0  0  0  0  # atno 17343 bound_to 10162
  156.5098  130.4136  149.6307 LP  0  0  0  0  0  0  0  0  0  0  0  0  # atno 17370 bound_to 10713
  156.3251  130.7301  151.2220 LP  0  0  0  0  0  0  0  0  0  0  0  0  # atno 17371 bound_to 10713
  140.2039  134.4220  155.7648 LP  0  0  0  0  0  0  0  0  0  0  0  0  # atno 17394 bound_to 11000
  141.2227  133.7085  156.8229 LP  0  0  0  0  0  0  0  0  0  0  0  0  # atno 17395 bound_to 11000

$$$$
