#       Name:                AV-unprocessed.smi:929
#       Creating user name   scv26
#       Creation time:       Fri Mar 27 02:10:15 2020


#       File generated by GOLD software.
#

@<TRIPOS>MOLECULE
AV-unprocessed.smi:929
    39    40     1
SMALL
NO_CHARGES


@<TRIPOS>ATOM
      1 ****        -6.6447   0.7088  -0.0078 C.3            1 S1                 0.0000
      2 ****        -5.4428   1.5919  -0.1369 C.2            1 S1                 0.0000
      3 ****        -4.0958   1.1741   0.1060 C.2            1 S1                 0.0000
      4 ****        -3.1894   2.1864  -0.0890 C.2            1 S1                 0.0000
      5 ****        -1.8380   2.2259   0.0218 N.am           1 S1                 0.0000
      6 ****        -1.0093   1.2314   0.3821 C.2            1 S1                 0.0000
      7 ****        -1.3580   0.0961   0.7074 O.2            1 S1                 0.0000
      8 ****         0.2711   1.6294   0.3435 N.am           1 S1                 0.0000
      9 ****         1.4255   0.7844   0.6435 C.3            1 S1                 0.0000
     10 ****         1.8674  -0.0909  -0.5447 C.2            1 S1                 0.0000
     11 ****         1.3611   0.0781  -1.6557 O.2            1 S1                 0.0000
     12 ****         2.8192  -1.0219  -0.3282 N.am           1 S1                 0.0000
     13 ****         3.4983  -1.2702   0.9433 C.3            1 S1                 0.0000
     14 ****         4.6485  -2.2237   0.6171 C.3            1 S1                 0.0000
     15 ****         4.1840  -2.9523  -0.6362 C.3            1 S1                 0.0000
     16 ****         3.3165  -1.9252  -1.3641 C.3            1 S1                 0.0000
     17 ****        -4.0896   3.5903  -0.5604 S.3            1 S1                 0.0000
     18 ****        -5.5938   2.8494  -0.4952 N.2            1 S1                 0.0000
     19 ****        -6.3617  -0.3418   0.0623 H              1 S1                 0.0000
     20 ****        -7.3071   0.8118  -0.8676 H              1 S1                 0.0000
     21 ****        -7.2189   0.9554   0.8854 H              1 S1                 0.0000
     22 ****        -3.8608   0.1640   0.4057 H              1 S1                 0.0000
     23 ****        -1.4083   3.1098  -0.2086 H              1 S1                 0.0000
     24 ****         0.4660   2.5781   0.0593 H              1 S1                 0.0000
     25 ****         2.2527   1.4358   0.9260 H              1 S1                 0.0000
     26 ****         1.2057   0.1584   1.5098 H              1 S1                 0.0000
     27 ****         3.8692  -0.3529   1.4023 H              1 S1                 0.0000
     28 ****         2.7994  -1.7414   1.6357 H              1 S1                 0.0000
     29 ****         5.5472  -1.6481   0.3909 H              1 S1                 0.0000
     30 ****         4.8831  -2.9007   1.4390 H              1 S1                 0.0000
     31 ****         5.0109  -3.3168  -1.2463 H              1 S1                 0.0000
     32 ****         3.5738  -3.8110  -0.3529 H              1 S1                 0.0000
     33 ****         2.5060  -2.4085  -1.9122 H              1 S1                 0.0000
     34 ****         3.9139  -1.3533  -2.0757 H              1 S1                 0.0000
     35 ****        -2.3284  -0.1454   0.7171 LP             1 S1                 0.0000
     36 ****        -0.6709  -0.5844   0.9619 LP             1 S1                 0.0000
     37 ****         0.6638   0.7831  -1.7854 LP             1 S1                 0.0000
     38 ****         1.6475  -0.4898  -2.4273 LP             1 S1                 0.0000
     39 ****        -6.4670   3.2931  -0.6967 LP             1 S1                 0.0000
@<TRIPOS>BOND
    1    1    2 1     
    2    1   19 1     
    3    1   20 1     
    4    1   21 1     
    5    2   18 2     
    6    2    3 1     
    7    3    4 2     
    8    3   22 1     
    9    4    5 1     
   10    4   17 1     
   11    5    6 am    
   12    5   23 1     
   13    6    7 2     
   14    6    8 am    
   15    8    9 1     
   16    8   24 1     
   17    9   10 1     
   18    9   25 1     
   19    9   26 1     
   20   10   11 2     
   21   10   12 am    
   22   12   16 1     
   23   12   13 1     
   24   13   14 1     
   25   13   27 1     
   26   13   28 1     
   27   14   15 1     
   28   14   29 1     
   29   14   30 1     
   30   15   16 1     
   31   15   31 1     
   32   15   32 1     
   33   16   33 1     
   34   16   34 1     
   35   17   18 1     
   36    7   35 1     
   37    7   36 1     
   38   11   37 1     
   39   11   38 1     
   40   18   39 1     
@<TRIPOS>SUBSTRUCTURE
      1 S1             1
@<TRIPOS>SET
LONE_PAIRS      STATIC     ATOMS    <user>   **** ""
5 35 36 37 38 39
DONOR_HYDROGENS      STATIC     ATOMS    <user>   **** ""
2 23 24
ATOM$BLUE        STATIC     ATOMS    COLORGROUP SYSTEM
5 35 36 37 38 39
ATOM$RED        STATIC     ATOMS    COLORGROUP SYSTEM
2 23 24
