AV-unprocessed.smi:1163|AV-procd|sdf|4924|dock1
  -GOLD-   22720 3503D 1   1.00000     0.00000
 Structure written by MMmdl.
 40 41  0  0  0  0  0  0  0  0  2 V2000
  151.8536  139.7340  155.7960 C   0  0  0  0  0  0  0  0  0  0  0  0
  150.9575  140.7623  155.3889 O   0  0  0  0  0  0  0  0  0  0  0  0
  149.7459  140.3956  154.8398 C   0  0  0  0  0  0  0  0  0  0  0  0
  148.8055  141.4028  154.5475 C   0  0  0  0  0  0  0  0  0  0  0  0
  147.5670  141.0384  153.9857 C   0  0  0  0  0  0  0  0  0  0  0  0
  147.3037  139.6694  153.7364 C   0  0  0  0  0  0  0  0  0  0  0  0
  146.1047  139.1599  153.1647 N   0  0  0  0  0  0  0  0  0  0  0  0
  145.6783  137.8886  153.0671 C   0  0  0  0  0  0  0  0  0  0  0  0
  146.2879  136.8939  153.4570 O   0  0  0  0  0  0  0  0  0  0  0  0
  144.4798  137.8255  152.4705 N   0  0  0  0  0  0  0  0  0  0  0  0
  143.7387  136.5927  152.2270 C   0  0  2  0  0  0  0  0  0  0  0  0
  143.0766  135.9886  153.4608 C   0  0  0  0  0  0  0  0  0  0  0  0
  142.8371  134.5418  153.0197 C   0  0  0  0  0  0  0  0  0  0  0  0
  143.9252  134.2024  152.0668 N   0  3  1  0  0  0  0  0  0  0  0  0
  143.4916  133.4437  150.8663 C   0  0  0  0  0  0  0  0  0  0  0  0
  144.5567  132.4473  150.3734 C   0  0  0  0  0  0  0  0  0  0  0  0
  144.2584  132.0743  149.1298 F   0  0  0  0  0  0  0  0  0  0  0  0
  145.7570  133.0268  150.3690 F   0  0  0  0  0  0  0  0  0  0  0  0
  144.5977  131.3587  151.1411 F   0  0  0  0  0  0  0  0  0  0  0  0
  144.6509  135.4580  151.7615 C   0  0  0  0  0  0  0  0  0  0  0  0
  148.3155  138.7412  154.0603 C   0  0  0  0  0  0  0  0  0  0  0  0
  149.5046  139.0836  154.5984 N   0  0  0  0  0  0  0  0  0  0  0  0
  152.7571  140.1850  156.2060 H   0  0  0  0  0  0  0  0  0  0  0  0
  152.1495  139.1071  154.9536 H   0  0  0  0  0  0  0  0  0  0  0  0
  151.4151  139.1065  156.5734 H   0  0  0  0  0  0  0  0  0  0  0  0
  149.0316  142.4399  154.7477 H   0  0  0  0  0  0  0  0  0  0  0  0
  146.8599  141.8186  153.7549 H   0  0  0  0  0  0  0  0  0  0  0  0
  145.4994  139.8581  152.7586 H   0  0  0  0  0  0  0  0  0  0  0  0
  144.0479  138.6890  152.1750 H   0  0  0  0  0  0  0  0  0  0  0  0
  142.9803  136.7703  151.4612 H   0  0  0  0  0  0  0  0  0  0  0  0
  143.7588  136.0143  154.3120 H   0  0  0  0  0  0  0  0  0  0  0  0
  142.1567  136.4998  153.7462 H   0  0  0  0  0  0  0  0  0  0  0  0
  142.8193  133.8510  153.8632 H   0  0  0  0  0  0  0  0  0  0  0  0
  141.8675  134.4827  152.5228 H   0  0  0  0  0  0  0  0  0  0  0  0
  142.5445  132.9381  151.0611 H   0  0  0  0  0  0  0  0  0  0  0  0
  143.3022  134.1548  150.0609 H   0  0  0  0  0  0  0  0  0  0  0  0
  144.9221  135.5577  150.7095 H   0  0  0  0  0  0  0  0  0  0  0  0
  145.5773  135.4540  152.3383 H   0  0  0  0  0  0  0  0  0  0  0  0
  148.1671  137.6860  153.8829 H   0  0  0  0  0  0  0  0  0  0  0  0
  144.5830  133.6126  152.5565 H   0  0  0  0  0  0  0  0  0  0  0  0
  1  2  1  0  0  0  0
  1 23  1  0  0  0  0
  1 24  1  0  0  0  0
  1 25  1  0  0  0  0
  2  3  1  0  0  0  0
  3 22  1  0  0  0  0
  3  4  2  0  0  0  0
  4  5  1  0  0  0  0
  4 26  1  0  0  0  0
  5  6  2  0  0  0  0
  5 27  1  0  0  0  0
  6  7  1  0  0  0  0
  6 21  1  0  0  0  0
  7  8  1  0  0  0  0
  7 28  1  0  0  0  0
  8  9  2  0  0  0  0
  8 10  1  0  0  0  0
 10 11  1  0  0  0  0
 10 29  1  0  0  0  0
 11 20  1  0  0  0  0
 11 12  1  0  0  0  0
 11 30  1  0  0  0  0
 12 13  1  0  0  0  0
 12 31  1  0  0  0  0
 12 32  1  0  0  0  0
 13 14  1  0  0  0  0
 13 33  1  0  0  0  0
 13 34  1  0  0  0  0
 14 15  1  0  0  0  0
 14 20  1  0  0  0  0
 14 40  1  0  0  0  0
 15 16  1  0  0  0  0
 15 35  1  0  0  0  0
 15 36  1  0  0  0  0
 16 17  1  0  0  0  0
 16 18  1  0  0  0  0
 16 19  1  0  0  0  0
 20 37  1  0  0  0  0
 20 38  1  0  0  0  0
 21 22  2  0  0  0  0
 21 39  1  0  0  0  0
M  CHG  1  14   1
M  END
> <s_m_source_file>
AV-unprocessed.smi

> <i_m_source_file_index>
1163

> <i_lp_mmshare_version>
43012

> <i_f3d_flags>
0

> <s_epik_input>
W0NIM11PYzFbY0hdW2NIXWMoW2NIXW4xKVtOSF1DKD1PKVtOSF1bQ0BASF0yW0NIMl1bQ0gyXU4oW0NIMl0yKVtDSDJdQyhGKShGKUY=

> <s_epik_cmdline>
J2VwaWtfcHl0aG9uJywgJy1waCcsICc3LjAnLCAnLXRuJywgJzgnLCAnLW1hJywgJzIwMCcsICctbWV0YWxfYmluZGluZycsICctaW1hZScsICc8aW5maWxlLm1hZT4nLCAnLW9tYWUnLCAnPG91dGZpbGUubWFlPic=

> <r_lp_tautomer_probability>
1

> <r_epik_Ionization_Penalty>
1.12054

> <r_epik_Ionization_Penalty_Charging>
1.12047

> <r_epik_Ionization_Penalty_Neutral>
7.20346e-05

> <r_epik_State_Penalty>
1.17927

> <r_epik_Charging_Adjusted_Penalty>
2.29974

> <i_epik_Tot_Q>
1

> <i_epik_Tot_abs_Q>
1

> <r_epik_Metal_State_Penalty>
1.17928

> <b_epik_Metal_Only>
0

> <s_lp_Force_Field>
OPLS_2005

> <r_lp_Energy>
31.4883

> <b_lp_Chiralities_Consistent>
1

> <s_lp_Variant>
AV-unprocessed.smi:1163-5

> <Gold.Version>
5.8.1

> <Gold.Id.Protein>
6NUR|6NUR_protein|mol2

> <Gold.PLP.Fitness>
47.1736

> <Gold.PLP.PLP>
-38.6577

> <Gold.PLP.part.hbond>
-4.0000

> <Gold.PLP.part.metal>
0.0000

> <Gold.PLP.part.buried>
-0.5114

> <Gold.PLP.part.nonpolar>
-35.5790

> <Gold.PLP.part.repulsive>
0.4425

> <Gold.PLP.ligand.clash>
0.0000

> <Gold.PLP.ligand.torsion>
0.8726

> <Gold.PLP.Chemscore.Hbond>
2.2262

> <Gold.PLP.Chemscore.CHOScore>
0.9916

> <Gold.PLP.Chemscore.Metal>
0.0000

> <Gold.Chemscore.Hbonds>
donor molecule, donor type, donor heavy atom, donor atom, acceptor molecule, acceptor atom, score
      L1  H     7    28       P1 10175  0.96
      L1  H    10    29       P1 10175  1.00
      P1  H  7989  7998       L1     2  0.23
      L1  C    21    39       P1  7948  0.79

> <Gold.PLP.Chemscore.Internal.Correction>
0.6077

> <Gold.Rescore>
     Score         DG    S(hbond)    S(metal)    S(lipo)     H(rot)  DE(clash)    DE(int)     intcor
     10.97     -14.59       1.97        0.00      58.45       1.68       0.04       3.58       ----

> <Gold.Chemscore.Fitness>
10.9732

> <Gold.Chemscore.DG>
-14.5873

> <Gold.Chemscore.ZeroCoef>
-5.4800

> <Gold.Chemscore.Hbond>
1.9653

> <Gold.Chemscore.Metal>
0.0000

> <Gold.Chemscore.Lipo>
58.4478

> <Gold.Chemscore.Internal_Hbond>
0.0000

> <Gold.Chemscore.DEClash>
0.0368

> <Gold.Chemscore.DEInternal>
3.5772

> <Gold.Chemscore.Rot>
1.6778

> <Gold.Chemscore.Internal.Correction>
   9.000000E+99

> <Gold.Chemscore.Hbonds>
donor molecule, donor type, donor heavy atom, donor atom, acceptor molecule, acceptor atom, score
      L1  H     7    28       P1 10175  0.91
      L1  H    10    29       P1 10175  0.96

> <Gold.Chemscore.Hbond.Weighted>
-6.5640

> <Gold.Chemscore.Metal.Weighted>
-0.0000

> <Gold.Chemscore.Lipo.Weighted>
-6.8384

> <Gold.Chemscore.Internal_Hbond.Weighted>
0.0000

> <Gold.Chemscore.DEClash.Weighted>
0.0368

> <Gold.Chemscore.DEInternal.Weighted>
3.5772

> <Gold.Chemscore.Rot.Weighted>
4.2951

> <Gold.Chemscore.Internal.Correction.Weighted>
   9.000000E+99

> <Gold.Protein.RotatedTorsions>
[ 6907 6896 6895 6894 ] final  -17.58 input  -60.11 | X-H torsion
[ 7974 7965 7964 7962 ] final   84.42 input  175.53 | X-H torsion
[ 8008 7997 7996 7995 ] final -146.24 input   59.86 | X-H torsion
[ 10167 10162 10161 10158 ] final -116.30 input  -65.29 | X-H torsion
[ 10718 10713 10712 10709 ] final -128.43 input   66.30 | X-H torsion
[ 10763 10752 10751 10750 ] final  134.77 input  -60.55 | X-H torsion
[ 11005 11000 10999 10996 ] final  107.17 input  -57.11 | X-H torsion

> <Gold.Protein.ActiveResidues>
 VAL166  LYS551  ARG553  GLY616  TRP617  ASP618  TYR619  PRO620  LYS621  CYS622 
 ASP623  PHE694  ASN695  SER759  ASP760  ASP761  ALA762  ILE779  LEU786  VAL792 
 PHE793  MET794  SER795  GLU796  ALA797  LYS798  CYS799  TRP800  GLU811  SER814 

> <Gold.Protein.RotatedAtoms>
  151.2911  135.0742  159.9204 H   0  0  0  0  0  0  0  0  0  0  0  0  # atno 6907 bound_to 6896
  152.5316  133.9930  159.7870 H   0  0  0  0  0  0  0  0  0  0  0  0  # atno 6908 bound_to 6896
  151.0201  133.5834  159.2703 H   0  0  0  0  0  0  0  0  0  0  0  0  # atno 6909 bound_to 6896
  145.5990  139.2349  143.2256 H   0  0  0  0  0  0  0  0  0  0  0  0  # atno 7974 bound_to 7965
  155.5563  140.0621  157.2839 H   0  0  0  0  0  0  0  0  0  0  0  0  # atno 8008 bound_to 7997
  154.4404  140.1893  156.0782 H   0  0  0  0  0  0  0  0  0  0  0  0  # atno 8009 bound_to 7997
  156.0480  140.3288  155.7322 H   0  0  0  0  0  0  0  0  0  0  0  0  # atno 8010 bound_to 7997
  140.0807  143.4790  152.1927 H   0  0  0  0  0  0  0  0  0  0  0  0  # atno 10167 bound_to 10162
  156.1950  130.6820  151.0471 H   0  0  0  0  0  0  0  0  0  0  0  0  # atno 10718 bound_to 10713
  153.8291  135.3106  155.3417 H   0  0  0  0  0  0  0  0  0  0  0  0  # atno 10763 bound_to 10752
  154.7981  135.4743  154.0212 H   0  0  0  0  0  0  0  0  0  0  0  0  # atno 10764 bound_to 10752
  153.1645  135.6867  153.8785 H   0  0  0  0  0  0  0  0  0  0  0  0  # atno 10765 bound_to 10752
  139.8824  134.9392  156.5779 H   0  0  0  0  0  0  0  0  0  0  0  0  # atno 11005 bound_to 11000
  146.1590  140.6815  142.9286 LP  0  0  0  0  0  0  0  0  0  0  0  0  # atno 17320 bound_to 7965
  144.7318  140.4693  143.6932 LP  0  0  0  0  0  0  0  0  0  0  0  0  # atno 17321 bound_to 7965
  139.5781  144.7497  151.3711 LP  0  0  0  0  0  0  0  0  0  0  0  0  # atno 17342 bound_to 10162
  140.7079  143.7466  150.7514 LP  0  0  0  0  0  0  0  0  0  0  0  0  # atno 17343 bound_to 10162
  157.6952  131.0796  150.6989 LP  0  0  0  0  0  0  0  0  0  0  0  0  # atno 17370 bound_to 10713
  156.7046  130.4633  149.5563 LP  0  0  0  0  0  0  0  0  0  0  0  0  # atno 17371 bound_to 10713
  140.8049  133.8475  155.8759 LP  0  0  0  0  0  0  0  0  0  0  0  0  # atno 17394 bound_to 11000
  140.9559  134.1719  157.4692 LP  0  0  0  0  0  0  0  0  0  0  0  0  # atno 17395 bound_to 11000

$$$$
