AV-unprocessed.smi:389|AV-procd|sdf|2476|dock9
  -GOLD-   2262022413D 1   1.00000     0.00000
 Structure written by MMmdl.
 34 34  0  0  0  0  0  0  0  0  1 V2000
  151.6993  144.5859  160.9103 C   0  0  0  0  0  0  0  0  0  0  0  0
  152.0631  143.0936  160.9061 C   0  0  0  0  0  0  0  0  0  0  0  0
  152.8701  142.7322  162.1640 C   0  0  0  0  0  0  0  0  0  0  0  0
  152.8052  142.7162  159.6037 C   0  0  0  0  0  0  0  0  0  0  0  0
  151.9834  142.8709  158.3065 C   0  0  0  0  0  0  0  0  0  0  0  0
  151.0297  141.7827  158.1205 N   0  0  0  0  0  0  0  0  0  0  0  0
  151.3486  140.5304  157.7608 C   0  0  0  0  0  0  0  0  0  0  0  0
  152.5092  140.1441  157.6165 O   0  0  0  0  0  0  0  0  0  0  0  0
  150.1738  139.5683  157.5379 C   0  0  0  0  0  0  0  0  0  0  0  0
  149.3497  139.9448  156.3800 N   0  0  0  0  0  0  0  0  0  0  0  0
  148.0123  140.2751  156.5472 C   0  0  0  0  0  0  0  0  0  0  0  0
  147.1959  140.6189  155.5228 C   0  0  0  0  0  0  0  0  0  0  0  0
  147.7023  140.6579  154.1552 C   0  0  0  0  0  0  0  0  0  0  0  0
  147.0421  140.9573  153.1627 O   0  0  0  0  0  0  0  0  0  0  0  0
  149.0518  140.3178  154.0276 N   0  0  0  0  0  0  0  0  0  0  0  0
  149.8986  139.9621  155.0784 C   0  0  0  0  0  0  0  0  0  0  0  0
  151.0749  139.6765  154.8554 O   0  0  0  0  0  0  0  0  0  0  0  0
  149.4460  140.3280  153.0981 H   0  0  0  0  0  0  0  0  0  0  0  0
  152.5913  145.2120  160.8725 H   0  0  0  0  0  0  0  0  0  0  0  0
  151.1427  144.8524  161.8093 H   0  0  0  0  0  0  0  0  0  0  0  0
  151.0757  144.8411  160.0529 H   0  0  0  0  0  0  0  0  0  0  0  0
  151.1225  142.5434  160.9437 H   0  0  0  0  0  0  0  0  0  0  0  0
  153.8381  143.2338  162.1713 H   0  0  0  0  0  0  0  0  0  0  0  0
  153.0484  141.6593  162.2320 H   0  0  0  0  0  0  0  0  0  0  0  0
  152.3374  143.0266  163.0686 H   0  0  0  0  0  0  0  0  0  0  0  0
  153.7021  143.3312  159.5180 H   0  0  0  0  0  0  0  0  0  0  0  0
  153.1632  141.6886  159.6757 H   0  0  0  0  0  0  0  0  0  0  0  0
  151.4561  143.8261  158.3113 H   0  0  0  0  0  0  0  0  0  0  0  0
  152.6444  142.8981  157.4404 H   0  0  0  0  0  0  0  0  0  0  0  0
  150.0518  142.0105  158.2277 H   0  0  0  0  0  0  0  0  0  0  0  0
  150.5793  138.5636  157.4110 H   0  0  0  0  0  0  0  0  0  0  0  0
  149.5505  139.5189  158.4333 H   0  0  0  0  0  0  0  0  0  0  0  0
  147.5914  140.2563  157.5424 H   0  0  0  0  0  0  0  0  0  0  0  0
  146.1619  140.8649  155.7164 H   0  0  0  0  0  0  0  0  0  0  0  0
  1  2  1  0  0  0  0
  1 19  1  0  0  0  0
  1 20  1  0  0  0  0
  1 21  1  0  0  0  0
  2  3  1  0  0  0  0
  2  4  1  0  0  0  0
  2 22  1  0  0  0  0
  3 23  1  0  0  0  0
  3 24  1  0  0  0  0
  3 25  1  0  0  0  0
  4  5  1  0  0  0  0
  4 26  1  0  0  0  0
  4 27  1  0  0  0  0
  5  6  1  0  0  0  0
  5 28  1  0  0  0  0
  5 29  1  0  0  0  0
  6  7  1  0  0  0  0
  6 30  1  0  0  0  0
  7  8  2  0  0  0  0
  7  9  1  0  0  0  0
  9 10  1  0  0  0  0
  9 31  1  0  0  0  0
  9 32  1  0  0  0  0
 10 16  1  0  0  0  0
 10 11  1  0  0  0  0
 11 12  2  0  0  0  0
 11 33  1  0  0  0  0
 12 13  1  0  0  0  0
 12 34  1  0  0  0  0
 13 14  2  0  0  0  0
 13 15  1  0  0  0  0
 15 18  1  0  0  0  0
 15 16  1  0  0  0  0
 16 17  2  0  0  0  0
M  END
> <s_m_source_file>
AV-unprocessed.smi

> <i_m_source_file_index>
389

> <i_lp_mmshare_version>
43012

> <i_f3d_flags>
0

> <s_epik_input>
W0NIM11bQ0hdKFtDSDNdKVtDSDJdW0NIMl1bTkhdQyg9TylbQ0gyXW4xW2NIXVtjSF1jKD1PKVtuSF1jMT1P

> <s_epik_cmdline>
J2VwaWtfcHl0aG9uJywgJy1waCcsICc3LjAnLCAnLXRuJywgJzgnLCAnLW1hJywgJzIwMCcsICctbWV0YWxfYmluZGluZycsICctaW1hZScsICc8aW5maWxlLm1hZT4nLCAnLW9tYWUnLCAnPG91dGZpbGUubWFlPic=

> <r_lp_tautomer_probability>
0.999537

> <r_epik_Ionization_Penalty>
0.00305319

> <r_epik_Ionization_Penalty_Charging>
0.00305317

> <r_epik_Ionization_Penalty_Neutral>
2.06703e-08

> <r_epik_State_Penalty>
0.00214626

> <r_epik_Charging_Adjusted_Penalty>
0.00519944

> <i_epik_Tot_Q>
0

> <i_epik_Tot_abs_Q>
0

> <r_epik_Metal_State_Penalty>
0.361976

> <b_epik_Metal_Only>
0

> <s_lp_Force_Field>
OPLS_2005

> <r_lp_Energy>
4.98151

> <b_lp_Chiralities_Consistent>
1

> <s_lp_Variant>
AV-unprocessed.smi:389-1

> <Gold.Version>
5.8.1

> <Gold.Id.Protein>
6NUR|6NUR_protein|mol2

> <Gold.PLP.Fitness>
39.3688

> <Gold.PLP.PLP>
-30.7736

> <Gold.PLP.part.hbond>
-3.0000

> <Gold.PLP.part.metal>
0.0000

> <Gold.PLP.part.buried>
-4.4997

> <Gold.PLP.part.nonpolar>
-23.5700

> <Gold.PLP.part.repulsive>
0.4880

> <Gold.PLP.ligand.clash>
0.0000

> <Gold.PLP.ligand.torsion>
0.2116

> <Gold.PLP.Chemscore.Hbond>
3.0000

> <Gold.PLP.Chemscore.CHOScore>
0.0000

> <Gold.PLP.Chemscore.Metal>
0.0000

> <Gold.Chemscore.Hbonds>
donor molecule, donor type, donor heavy atom, donor atom, acceptor molecule, acceptor atom, score
      L1  H    15    18       P1  7957  1.00
      P1  H  7989  7998       L1    17  1.00
      P1  H  7997  8008       L1     8  0.84

> <Gold.PLP.Chemscore.Internal.Correction>
0.0183

> <Gold.Rescore>
     Score         DG    S(hbond)    S(metal)    S(lipo)     H(rot)  DE(clash)    DE(int)     intcor
     16.76     -17.12       2.87        0.00      66.71       2.24       0.06       0.30       ----

> <Gold.Chemscore.Fitness>
16.7623

> <Gold.Chemscore.DG>
-17.1173

> <Gold.Chemscore.ZeroCoef>
-5.4800

> <Gold.Chemscore.Hbond>
2.8654

> <Gold.Chemscore.Metal>
0.0000

> <Gold.Chemscore.Lipo>
66.7074

> <Gold.Chemscore.Internal_Hbond>
0.0000

> <Gold.Chemscore.DEClash>
0.0550

> <Gold.Chemscore.DEInternal>
0.2999

> <Gold.Chemscore.Rot>
2.2414

> <Gold.Chemscore.Internal.Correction>
   9.000000E+99

> <Gold.Chemscore.Hbonds>
donor molecule, donor type, donor heavy atom, donor atom, acceptor molecule, acceptor atom, score
      L1  H    15    18       P1  7957  0.98
      P1  H  7989  7998       L1    17  0.55
      P1  H  7997  8008       L1     8  0.81

> <Gold.Chemscore.Hbond.Weighted>
-9.5705

> <Gold.Chemscore.Metal.Weighted>
-0.0000

> <Gold.Chemscore.Lipo.Weighted>
-7.8048

> <Gold.Chemscore.Internal_Hbond.Weighted>
0.0000

> <Gold.Chemscore.DEClash.Weighted>
0.0550

> <Gold.Chemscore.DEInternal.Weighted>
0.2999

> <Gold.Chemscore.Rot.Weighted>
5.7380

> <Gold.Chemscore.Internal.Correction.Weighted>
   9.000000E+99

> <Gold.Protein.RotatedTorsions>
[ 6907 6896 6895 6894 ] final -172.21 input  -60.11 | X-H torsion
[ 7974 7965 7964 7962 ] final   73.93 input  175.53 | X-H torsion
[ 8008 7997 7996 7995 ] final  -67.28 input   59.86 | X-H torsion
[ 10167 10162 10161 10158 ] final   60.27 input  -65.29 | X-H torsion
[ 10718 10713 10712 10709 ] final -150.72 input   66.30 | X-H torsion
[ 10763 10752 10751 10750 ] final  109.24 input  -60.55 | X-H torsion
[ 11005 11000 10999 10996 ] final  128.13 input  -57.11 | X-H torsion

> <Gold.Protein.ActiveResidues>
 VAL166  LYS551  ARG553  GLY616  TRP617  ASP618  TYR619  PRO620  LYS621  CYS622 
 ASP623  PHE694  ASN695  SER759  ASP760  ASP761  ALA762  ILE779  LEU786  VAL792 
 PHE793  MET794  SER795  GLU796  ALA797  LYS798  CYS799  TRP800  GLU811  SER814 

> <Gold.Protein.RotatedAtoms>
  151.5363  133.3440  159.2927 H   0  0  0  0  0  0  0  0  0  0  0  0  # atno 6907 bound_to 6896
  150.8563  134.7905  159.7059 H   0  0  0  0  0  0  0  0  0  0  0  0  # atno 6908 bound_to 6896
  152.4595  134.5224  159.9838 H   0  0  0  0  0  0  0  0  0  0  0  0  # atno 6909 bound_to 6896
  145.7347  139.2697  143.1521 H   0  0  0  0  0  0  0  0  0  0  0  0  # atno 7974 bound_to 7965
  154.4789  140.0896  156.7330 H   0  0  0  0  0  0  0  0  0  0  0  0  # atno 8008 bound_to 7997
  155.4522  140.3458  155.4284 H   0  0  0  0  0  0  0  0  0  0  0  0  # atno 8009 bound_to 7997
  156.1160  140.1461  156.9259 H   0  0  0  0  0  0  0  0  0  0  0  0  # atno 8010 bound_to 7997
  140.1675  144.4310  150.6678 H   0  0  0  0  0  0  0  0  0  0  0  0  # atno 10167 bound_to 10162
  156.4499  130.8162  151.2393 H   0  0  0  0  0  0  0  0  0  0  0  0  # atno 10718 bound_to 10713
  153.4319  135.3786  155.2176 H   0  0  0  0  0  0  0  0  0  0  0  0  # atno 10763 bound_to 10752
  154.8750  135.3842  154.4257 H   0  0  0  0  0  0  0  0  0  0  0  0  # atno 10764 bound_to 10752
  153.4791  135.7088  153.6011 H   0  0  0  0  0  0  0  0  0  0  0  0  # atno 10765 bound_to 10752
  139.9544  134.9616  156.8957 H   0  0  0  0  0  0  0  0  0  0  0  0  # atno 11005 bound_to 11000
  146.0505  140.8074  142.9784 LP  0  0  0  0  0  0  0  0  0  0  0  0  # atno 17320 bound_to 7965
  144.6884  140.3045  143.7258 LP  0  0  0  0  0  0  0  0  0  0  0  0  # atno 17321 bound_to 7965
  140.6604  143.2250  151.5870 LP  0  0  0  0  0  0  0  0  0  0  0  0  # atno 17342 bound_to 10162
  139.5353  144.2799  152.1238 LP  0  0  0  0  0  0  0  0  0  0  0  0  # atno 17343 bound_to 10162
  157.7503  131.0141  150.3452 LP  0  0  0  0  0  0  0  0  0  0  0  0  # atno 17370 bound_to 10713
  156.3828  130.3883  149.7089 LP  0  0  0  0  0  0  0  0  0  0  0  0  # atno 17371 bound_to 10713
  140.5643  134.0505  155.7409 LP  0  0  0  0  0  0  0  0  0  0  0  0  # atno 17394 bound_to 11000
  141.1213  133.9456  157.2723 LP  0  0  0  0  0  0  0  0  0  0  0  0  # atno 17395 bound_to 11000

$$$$
