AV-unprocessed.smi:1724|AV-procd|sdf|6949|dock8
  -GOLD-   22720 8163D 1   1.00000     0.00000
 Structure written by MMmdl.
 38 39  0  0  0  0  0  0  0  0  1 V2000
  146.1521  136.5086  155.2197 O   0  0  0  0  0  0  0  0  0  0  0  0
  146.9524  136.5626  154.2864 C   0  0  0  0  0  0  0  0  0  0  0  0
  148.1558  137.1468  154.3820 N   0  0  0  0  0  0  0  0  0  0  0  0
  148.6879  137.8088  155.5704 C   0  0  0  0  0  0  0  0  0  0  0  0
  149.5404  139.0470  155.2233 C   0  0  2  0  0  0  0  0  0  0  0  0
  150.0326  139.8106  156.4678 C   0  0  0  0  0  0  0  0  0  0  0  0
  150.7863  141.0784  156.0504 C   0  0  0  0  0  0  0  0  0  0  0  0
  149.9317  141.9217  155.0928 C   0  0  0  0  0  0  0  0  0  0  0  0
  149.5605  141.1378  153.9650 O   0  0  0  0  0  0  0  0  0  0  0  0
  148.7583  140.0131  154.3096 C   0  0  0  0  0  0  0  0  0  0  0  0
  146.7691  136.0421  153.0588 N   0  0  0  0  0  0  0  0  0  0  0  0
  145.6555  135.3649  152.5322 C   0  0  0  0  0  0  0  0  0  0  0  0
  145.7164  134.2686  151.7314 C   0  0  0  0  0  0  0  0  0  0  0  0
  144.5208  133.6112  151.2301 C   0  0  0  0  0  0  0  0  0  0  0  0
  144.6006  132.4368  150.2672 C   0  0  0  0  0  0  0  0  0  0  0  0
  143.9258  132.6860  149.1442 F   0  0  0  0  0  0  0  0  0  0  0  0
  145.8655  132.1664  149.9442 F   0  0  0  0  0  0  0  0  0  0  0  0
  144.0763  131.3508  150.8338 F   0  0  0  0  0  0  0  0  0  0  0  0
  143.3425  134.1491  151.5951 C   0  0  0  0  0  0  0  0  0  0  0  0
  143.2703  135.2616  152.4361 N   0  0  0  0  0  0  0  0  0  0  0  0
  144.3474  135.9095  152.9335 C   0  0  0  0  0  0  0  0  0  0  0  0
  144.1996  136.8854  153.6685 O   0  0  0  0  0  0  0  0  0  0  0  0
  142.3482  135.5953  152.6777 H   0  0  0  0  0  0  0  0  0  0  0  0
  148.7517  137.1364  153.5670 H   0  0  0  0  0  0  0  0  0  0  0  0
  147.8357  138.1130  156.1789 H   0  0  0  0  0  0  0  0  0  0  0  0
  149.2620  137.1129  156.1847 H   0  0  0  0  0  0  0  0  0  0  0  0
  150.4166  138.7065  154.6689 H   0  0  0  0  0  0  0  0  0  0  0  0
  149.1829  140.0797  157.0964 H   0  0  0  0  0  0  0  0  0  0  0  0
  150.6858  139.1847  157.0758 H   0  0  0  0  0  0  0  0  0  0  0  0
  151.0561  141.6632  156.9301 H   0  0  0  0  0  0  0  0  0  0  0  0
  151.7202  140.8040  155.5582 H   0  0  0  0  0  0  0  0  0  0  0  0
  149.0408  142.3011  155.5958 H   0  0  0  0  0  0  0  0  0  0  0  0
  150.4970  142.7883  154.7496 H   0  0  0  0  0  0  0  0  0  0  0  0
  148.4666  139.5066  153.3892 H   0  0  0  0  0  0  0  0  0  0  0  0
  147.8376  140.3473  154.7907 H   0  0  0  0  0  0  0  0  0  0  0  0
  147.5504  136.1152  152.4230 H   0  0  0  0  0  0  0  0  0  0  0  0
  146.6622  133.8333  151.4541 H   0  0  0  0  0  0  0  0  0  0  0  0
  142.3798  133.7802  151.2731 H   0  0  0  0  0  0  0  0  0  0  0  0
  1  2  2  0  0  0  0
  2  3  1  0  0  0  0
  2 11  1  0  0  0  0
  3  4  1  0  0  0  0
  3 24  1  0  0  0  0
  4  5  1  0  0  0  0
  4 25  1  0  0  0  0
  4 26  1  0  0  0  0
  5 10  1  0  0  0  0
  5  6  1  0  0  0  0
  5 27  1  0  0  0  0
  6  7  1  0  0  0  0
  6 28  1  0  0  0  0
  6 29  1  0  0  0  0
  7  8  1  0  0  0  0
  7 30  1  0  0  0  0
  7 31  1  0  0  0  0
  8  9  1  0  0  0  0
  8 32  1  0  0  0  0
  8 33  1  0  0  0  0
  9 10  1  0  0  0  0
 10 34  1  0  0  0  0
 10 35  1  0  0  0  0
 11 12  1  0  0  0  0
 11 36  1  0  0  0  0
 12 21  1  0  0  0  0
 12 13  2  0  0  0  0
 13 14  1  0  0  0  0
 13 37  1  0  0  0  0
 14 15  1  0  0  0  0
 14 19  2  0  0  0  0
 15 16  1  0  0  0  0
 15 17  1  0  0  0  0
 15 18  1  0  0  0  0
 19 20  1  0  0  0  0
 19 38  1  0  0  0  0
 20 23  1  0  0  0  0
 20 21  1  0  0  0  0
 21 22  2  0  0  0  0
M  END
> <s_m_source_file>
AV-unprocessed.smi

> <i_m_source_file_index>
1724

> <i_lp_mmshare_version>
43012

> <i_f3d_flags>
0

> <s_epik_input>
Tz1jMVtuSF1bY0hdYyhDKEYpKEYpRilbY0hdYzFbTkhdQyg9TylbTkhdW0NIMl1bQ0BASF0yW0NIMl1bQ0gyXVtDSDJdT1tDSDJdMg==

> <s_epik_cmdline>
J2VwaWtfcHl0aG9uJywgJy1waCcsICc3LjAnLCAnLXRuJywgJzgnLCAnLW1hJywgJzIwMCcsICctbWV0YWxfYmluZGluZycsICctaW1hZScsICc8aW5maWxlLm1hZT4nLCAnLW9tYWUnLCAnPG91dGZpbGUubWFlPic=

> <r_lp_tautomer_probability>
1

> <r_epik_Ionization_Penalty>
0.00384958

> <r_epik_Ionization_Penalty_Charging>
0.00382926

> <r_epik_Ionization_Penalty_Neutral>
2.03186e-05

> <r_epik_State_Penalty>
-0

> <r_epik_Charging_Adjusted_Penalty>
0.00382926

> <i_epik_Tot_Q>
0

> <i_epik_Tot_abs_Q>
0

> <r_epik_Metal_State_Penalty>
0.371494

> <b_epik_Metal_Only>
0

> <s_lp_Force_Field>
OPLS_2005

> <r_lp_Energy>
21.9541

> <b_lp_Chiralities_Consistent>
1

> <s_lp_Variant>
AV-unprocessed.smi:1724-1

> <Gold.Version>
5.8.1

> <Gold.Id.Protein>
6NUR|6NUR_protein|mol2

> <Gold.PLP.Fitness>
41.3839

> <Gold.PLP.PLP>
-31.8384

> <Gold.PLP.part.hbond>
-3.9216

> <Gold.PLP.part.metal>
0.0000

> <Gold.PLP.part.buried>
-1.9796

> <Gold.PLP.part.nonpolar>
-27.2653

> <Gold.PLP.part.repulsive>
0.5538

> <Gold.PLP.ligand.clash>
0.0000

> <Gold.PLP.ligand.torsion>
0.5776

> <Gold.PLP.Chemscore.Hbond>
2.5517

> <Gold.PLP.Chemscore.CHOScore>
1.0000

> <Gold.PLP.Chemscore.Metal>
0.0000

> <Gold.Chemscore.Hbonds>
donor molecule, donor type, donor heavy atom, donor atom, acceptor molecule, acceptor atom, score
      L1  H     3    24       P1  7948  0.83
      L1  H    11    36       P1  7948  0.94
      P1  H  7989  7998       L1     9  0.15
      P1  H  8011  8017       L1     9  0.73
      L1  C    19    38       P1 10186  1.00

> <Gold.PLP.Chemscore.Internal.Correction>
0.0455

> <Gold.Rescore>
     Score         DG    S(hbond)    S(metal)    S(lipo)     H(rot)  DE(clash)    DE(int)     intcor
     12.11     -15.45       2.02        0.00      56.73       1.33       0.17       3.17       ----

> <Gold.Chemscore.Fitness>
12.1100

> <Gold.Chemscore.DG>
-15.4516

> <Gold.Chemscore.ZeroCoef>
-5.4800

> <Gold.Chemscore.Hbond>
2.0210

> <Gold.Chemscore.Metal>
0.0000

> <Gold.Chemscore.Lipo>
56.7292

> <Gold.Chemscore.Internal_Hbond>
0.0000

> <Gold.Chemscore.DEClash>
0.1740

> <Gold.Chemscore.DEInternal>
3.1676

> <Gold.Chemscore.Rot>
1.3344

> <Gold.Chemscore.Internal.Correction>
   9.000000E+99

> <Gold.Chemscore.Hbonds>
donor molecule, donor type, donor heavy atom, donor atom, acceptor molecule, acceptor atom, score
      L1  H     3    24       P1  7948  0.83
      L1  H    11    36       P1  7948  0.90
      P1  H  7989  7998       L1     9  0.01
      P1  H  8011  8017       L1     9  0.31

> <Gold.Chemscore.Hbond.Weighted>
-6.7502

> <Gold.Chemscore.Metal.Weighted>
-0.0000

> <Gold.Chemscore.Lipo.Weighted>
-6.6373

> <Gold.Chemscore.Internal_Hbond.Weighted>
0.0000

> <Gold.Chemscore.DEClash.Weighted>
0.1740

> <Gold.Chemscore.DEInternal.Weighted>
3.1676

> <Gold.Chemscore.Rot.Weighted>
3.4160

> <Gold.Chemscore.Internal.Correction.Weighted>
   9.000000E+99

> <Gold.Protein.RotatedTorsions>
[ 6907 6896 6895 6894 ] final  -79.31 input  -60.11 | X-H torsion
[ 7974 7965 7964 7962 ] final  -17.48 input  175.53 | X-H torsion
[ 8008 7997 7996 7995 ] final  -27.78 input   59.86 | X-H torsion
[ 10167 10162 10161 10158 ] final  179.69 input  -65.29 | X-H torsion
[ 10718 10713 10712 10709 ] final  -91.54 input   66.30 | X-H torsion
[ 10763 10752 10751 10750 ] final  107.84 input  -60.55 | X-H torsion
[ 11005 11000 10999 10996 ] final -137.19 input  -57.11 | X-H torsion

> <Gold.Protein.ActiveResidues>
 VAL166  LYS551  ARG553  GLY616  TRP617  ASP618  TYR619  PRO620  LYS621  CYS622 
 ASP623  PHE694  ASN695  SER759  ASP760  ASP761  ALA762  ILE779  LEU786  VAL792 
 PHE793  MET794  SER795  GLU796  ALA797  LYS798  CYS799  TRP800  GLU811  SER814 

> <Gold.Protein.RotatedAtoms>
  150.6953  134.4141  159.5174 H   0  0  0  0  0  0  0  0  0  0  0  0  # atno 6907 bound_to 6896
  152.1895  134.8682  160.0528 H   0  0  0  0  0  0  0  0  0  0  0  0  # atno 6908 bound_to 6896
  151.9643  133.3670  159.4084 H   0  0  0  0  0  0  0  0  0  0  0  0  # atno 6909 bound_to 6896
  146.1939  140.3786  142.8448 H   0  0  0  0  0  0  0  0  0  0  0  0  # atno 7974 bound_to 7965
  154.4361  140.1863  156.0986 H   0  0  0  0  0  0  0  0  0  0  0  0  # atno 8008 bound_to 7997
  156.0310  140.3330  155.7113 H   0  0  0  0  0  0  0  0  0  0  0  0  # atno 8009 bound_to 7997
  155.5839  140.0624  157.2767 H   0  0  0  0  0  0  0  0  0  0  0  0  # atno 8010 bound_to 7997
  139.5348  144.2530  152.0769 H   0  0  0  0  0  0  0  0  0  0  0  0  # atno 10167 bound_to 10162
  155.9994  130.4952  150.5490 H   0  0  0  0  0  0  0  0  0  0  0  0  # atno 10718 bound_to 10713
  153.4124  135.3831  155.2059 H   0  0  0  0  0  0  0  0  0  0  0  0  # atno 10763 bound_to 10752
  154.8739  135.3797  154.4485 H   0  0  0  0  0  0  0  0  0  0  0  0  # atno 10764 bound_to 10752
  153.4995  135.7088  153.5902 H   0  0  0  0  0  0  0  0  0  0  0  0  # atno 10765 bound_to 10752
  140.8734  134.2022  157.4637 H   0  0  0  0  0  0  0  0  0  0  0  0  # atno 11005 bound_to 11000
  144.8540  140.7043  143.6150 LP  0  0  0  0  0  0  0  0  0  0  0  0  # atno 17320 bound_to 7965
  145.3707  139.1659  143.4333 LP  0  0  0  0  0  0  0  0  0  0  0  0  # atno 17321 bound_to 7965
  140.1999  144.4668  150.6436 LP  0  0  0  0  0  0  0  0  0  0  0  0  # atno 17342 bound_to 10162
  140.6547  143.2234  151.5995 LP  0  0  0  0  0  0  0  0  0  0  0  0  # atno 17343 bound_to 10162
  157.3416  131.0717  151.1784 LP  0  0  0  0  0  0  0  0  0  0  0  0  # atno 17370 bound_to 10713
  157.2630  130.6668  149.5984 LP  0  0  0  0  0  0  0  0  0  0  0  0  # atno 17371 bound_to 10713
  139.8714  134.9785  156.4999 LP  0  0  0  0  0  0  0  0  0  0  0  0  # atno 17394 bound_to 11000
  140.8546  133.8106  155.9203 LP  0  0  0  0  0  0  0  0  0  0  0  0  # atno 17395 bound_to 11000

$$$$
