AV-unprocessed.smi:564|AV-procd|sdf|2947|dock10
  -GOLD-   2262023443D 1   1.00000     0.00000
 Structure written by MMmdl.
 50 51  0  0  0  0  0  0  0  0  2 V2000
  153.5039  137.6457  156.3072 C   0  0  0  0  0  0  0  0  0  0  0  0
  152.5115  138.7570  156.1159 C   0  0  0  0  0  0  0  0  0  0  0  0
  152.5814  139.8235  156.8939 N   0  0  0  0  0  0  0  0  0  0  0  0
  151.5671  140.6139  156.4908 N   0  0  0  0  0  0  0  0  0  0  0  0
  151.3552  141.8817  157.1626 C   0  0  0  0  0  0  0  0  0  0  0  0
  150.8604  140.0501  155.4453 C   0  0  0  0  0  0  0  0  0  0  0  0
  149.6864  140.7263  154.8124 C   0  0  0  0  0  0  0  0  0  0  0  0
  151.4442  138.8410  155.1735 C   0  0  0  0  0  0  0  0  0  0  0  0
  151.0635  137.8229  154.1269 C   0  0  0  0  0  0  0  0  0  0  0  0
  150.6461  136.5254  154.8170 C   0  0  0  0  0  0  0  0  0  0  0  0
  151.3004  136.0903  155.7638 O   0  0  0  0  0  0  0  0  0  0  0  0
  149.5775  135.8949  154.3057 N   0  0  0  0  0  0  0  0  0  0  0  0
  149.1100  134.5726  154.7114 C   0  0  0  0  0  0  0  0  0  0  0  0
  148.1043  133.9653  153.7063 C   0  0  0  0  0  0  0  0  0  0  0  0
  147.2241  134.9863  153.0652 N   0  3  2  0  0  0  0  0  0  0  0  0
  146.5466  135.8293  154.0904 C   0  0  0  0  0  0  0  0  0  0  0  0
  145.7611  136.9839  153.4571 C   0  0  0  0  0  0  0  0  0  0  0  0
  144.7294  136.4476  152.4655 C   0  0  0  0  0  0  0  0  0  0  0  0
  145.4343  135.5819  151.4187 C   0  0  0  0  0  0  0  0  0  0  0  0
  146.2575  134.4407  152.0577 C   0  0  1  0  0  0  0  0  0  0  0  0
  146.9457  133.6473  150.9275 C   0  0  0  0  0  0  0  0  0  0  0  0
  153.7515  137.1683  155.3591 H   0  0  0  0  0  0  0  0  0  0  0  0
  153.1051  136.8784  156.9710 H   0  0  0  0  0  0  0  0  0  0  0  0
  154.4356  138.0110  156.7416 H   0  0  0  0  0  0  0  0  0  0  0  0
  150.2888  142.1008  157.2215 H   0  0  0  0  0  0  0  0  0  0  0  0
  151.8545  142.6783  156.6114 H   0  0  0  0  0  0  0  0  0  0  0  0
  151.7578  141.8463  158.1759 H   0  0  0  0  0  0  0  0  0  0  0  0
  149.4781  140.3142  153.8254 H   0  0  0  0  0  0  0  0  0  0  0  0
  149.8621  141.7950  154.6918 H   0  0  0  0  0  0  0  0  0  0  0  0
  148.7939  140.5980  155.4247 H   0  0  0  0  0  0  0  0  0  0  0  0
  150.2391  138.1806  153.5088 H   0  0  0  0  0  0  0  0  0  0  0  0
  151.8869  137.6177  153.4420 H   0  0  0  0  0  0  0  0  0  0  0  0
  149.0895  136.3381  153.5406 H   0  0  0  0  0  0  0  0  0  0  0  0
  149.9604  133.9020  154.8461 H   0  0  0  0  0  0  0  0  0  0  0  0
  148.6488  134.6705  155.6939 H   0  0  0  0  0  0  0  0  0  0  0  0
  148.7019  133.4480  152.9607 H   0  0  0  0  0  0  0  0  0  0  0  0
  147.4997  133.1942  154.1856 H   0  0  0  0  0  0  0  0  0  0  0  0
  145.8778  135.2076  154.6879 H   0  0  0  0  0  0  0  0  0  0  0  0
  147.2790  136.2522  154.7772 H   0  0  0  0  0  0  0  0  0  0  0  0
  145.2650  137.5688  154.2321 H   0  0  0  0  0  0  0  0  0  0  0  0
  146.4481  137.6596  152.9489 H   0  0  0  0  0  0  0  0  0  0  0  0
  143.9761  135.8590  152.9908 H   0  0  0  0  0  0  0  0  0  0  0  0
  144.2052  137.2726  151.9821 H   0  0  0  0  0  0  0  0  0  0  0  0
  144.6910  135.1704  150.7349 H   0  0  0  0  0  0  0  0  0  0  0  0
  146.0878  136.2113  150.8141 H   0  0  0  0  0  0  0  0  0  0  0  0
  145.5701  133.7708  152.5772 H   0  0  0  0  0  0  0  0  0  0  0  0
  146.2474  133.4374  150.1167 H   0  0  0  0  0  0  0  0  0  0  0  0
  147.3153  132.6785  151.2608 H   0  0  0  0  0  0  0  0  0  0  0  0
  147.7807  134.2045  150.5029 H   0  0  0  0  0  0  0  0  0  0  0  0
  147.8399  135.5973  152.5474 H   0  0  0  0  0  0  0  0  0  0  0  0
  1  2  1  0  0  0  0
  1 22  1  0  0  0  0
  1 23  1  0  0  0  0
  1 24  1  0  0  0  0
  2  8  1  0  0  0  0
  2  3  2  0  0  0  0
  3  4  1  0  0  0  0
  4  5  1  0  0  0  0
  4  6  1  0  0  0  0
  5 25  1  0  0  0  0
  5 26  1  0  0  0  0
  5 27  1  0  0  0  0
  6  7  1  0  0  0  0
  6  8  2  0  0  0  0
  7 28  1  0  0  0  0
  7 29  1  0  0  0  0
  7 30  1  0  0  0  0
  8  9  1  0  0  0  0
  9 10  1  0  0  0  0
  9 31  1  0  0  0  0
  9 32  1  0  0  0  0
 10 11  2  0  0  0  0
 10 12  1  0  0  0  0
 12 13  1  0  0  0  0
 12 33  1  0  0  0  0
 13 14  1  0  0  0  0
 13 34  1  0  0  0  0
 13 35  1  0  0  0  0
 14 15  1  0  0  0  0
 14 36  1  0  0  0  0
 14 37  1  0  0  0  0
 15 20  1  0  0  0  0
 15 16  1  0  0  0  0
 15 50  1  0  0  0  0
 16 17  1  0  0  0  0
 16 38  1  0  0  0  0
 16 39  1  0  0  0  0
 17 18  1  0  0  0  0
 17 40  1  0  0  0  0
 17 41  1  0  0  0  0
 18 19  1  0  0  0  0
 18 42  1  0  0  0  0
 18 43  1  0  0  0  0
 19 20  1  0  0  0  0
 19 44  1  0  0  0  0
 19 45  1  0  0  0  0
 20 21  1  0  0  0  0
 20 46  1  0  0  0  0
 21 47  1  0  0  0  0
 21 48  1  0  0  0  0
 21 49  1  0  0  0  0
M  CHG  1  15   1
M  END
> <s_m_source_file>
AV-unprocessed.smi

> <i_m_source_file_index>
564

> <i_lp_mmshare_version>
43012

> <i_f3d_flags>
0

> <s_epik_input>
W0NIM11jMW5uKFtDSDNdKWMoW0NIM10pYzFbQ0gyXUMoPU8pW05IXVtDSDJdW0NIMl1OMltDSDJdW0NIMl1bQ0gyXVtDSDJdW0NASF0yW0NIM10=

> <s_epik_cmdline>
J2VwaWtfcHl0aG9uJywgJy1waCcsICc3LjAnLCAnLXRuJywgJzgnLCAnLW1hJywgJzIwMCcsICctbWV0YWxfYmluZGluZycsICctaW1hZScsICc8aW5maWxlLm1hZT4nLCAnLW9tYWUnLCAnPG91dGZpbGUubWFlPic=

> <r_lp_tautomer_probability>
1

> <r_epik_Ionization_Penalty>
0.00456826

> <r_epik_Ionization_Penalty_Charging>
0.00240401

> <r_epik_Ionization_Penalty_Neutral>
0.00216425

> <r_epik_State_Penalty>
-0

> <r_epik_Charging_Adjusted_Penalty>
0.00240401

> <i_epik_Tot_Q>
1

> <i_epik_Tot_abs_Q>
1

> <r_epik_Metal_State_Penalty>
-0

> <b_epik_Metal_Only>
0

> <s_lp_Force_Field>
OPLS_2005

> <r_lp_Energy>
16.6365

> <b_lp_Chiralities_Consistent>
1

> <s_lp_Variant>
AV-unprocessed.smi:564-1

> <Gold.Version>
5.8.1

> <Gold.Id.Protein>
6NUR|6NUR_protein|mol2

> <Gold.PLP.Fitness>
47.9367

> <Gold.PLP.PLP>
-35.0621

> <Gold.PLP.part.hbond>
-4.0809

> <Gold.PLP.part.metal>
0.0000

> <Gold.PLP.part.buried>
-0.2352

> <Gold.PLP.part.nonpolar>
-30.9418

> <Gold.PLP.part.repulsive>
0.0908

> <Gold.PLP.ligand.clash>
0.0000

> <Gold.PLP.ligand.torsion>
0.4998

> <Gold.PLP.Chemscore.Hbond>
4.6140

> <Gold.PLP.Chemscore.CHOScore>
0.0000

> <Gold.PLP.Chemscore.Metal>
0.0000

> <Gold.Chemscore.Hbonds>
donor molecule, donor type, donor heavy atom, donor atom, acceptor molecule, acceptor atom, score
      L1  H    12    33       P1  7948  0.77
      L1  H    15    50       P1  7948  1.53
      P1  H  7997  8008       L1     3  0.75
      P1  H 10752 10763       L1    11  1.00

> <Gold.PLP.Chemscore.Internal.Correction>
0.0323

> <Gold.Rescore>
     Score         DG    S(hbond)    S(metal)    S(lipo)     H(rot)  DE(clash)    DE(int)     intcor
     16.91     -21.43       3.17        0.00      81.31       1.61       1.29       3.23       ----

> <Gold.Chemscore.Fitness>
16.9063

> <Gold.Chemscore.DG>
-21.4346

> <Gold.Chemscore.ZeroCoef>
-5.4800

> <Gold.Chemscore.Hbond>
3.1658

> <Gold.Chemscore.Metal>
0.0000

> <Gold.Chemscore.Lipo>
81.3112

> <Gold.Chemscore.Internal_Hbond>
0.0000

> <Gold.Chemscore.DEClash>
1.2940

> <Gold.Chemscore.DEInternal>
3.2344

> <Gold.Chemscore.Rot>
1.6142

> <Gold.Chemscore.Internal.Correction>
   9.000000E+99

> <Gold.Chemscore.Hbonds>
donor molecule, donor type, donor heavy atom, donor atom, acceptor molecule, acceptor atom, score
      L1  H    12    33       P1  7948  0.76
      L1  H    15    50       P1  7948  0.75
      P1  H  7997  8008       L1     3  0.09
      P1  H 10752 10763       L1    11  0.24

> <Gold.Chemscore.Hbond.Weighted>
-10.5736

> <Gold.Chemscore.Metal.Weighted>
-0.0000

> <Gold.Chemscore.Lipo.Weighted>
-9.5134

> <Gold.Chemscore.Internal_Hbond.Weighted>
0.0000

> <Gold.Chemscore.DEClash.Weighted>
1.2940

> <Gold.Chemscore.DEInternal.Weighted>
3.2344

> <Gold.Chemscore.Rot.Weighted>
4.1324

> <Gold.Chemscore.Internal.Correction.Weighted>
   9.000000E+99

> <Gold.Protein.RotatedTorsions>
[ 6907 6896 6895 6894 ] final    4.93 input  -60.11 | X-H torsion
[ 7974 7965 7964 7962 ] final -156.67 input  175.53 | X-H torsion
[ 8008 7997 7996 7995 ] final  -61.82 input   59.86 | X-H torsion
[ 10167 10162 10161 10158 ] final   31.04 input  -65.29 | X-H torsion
[ 10718 10713 10712 10709 ] final  -34.67 input   66.30 | X-H torsion
[ 10763 10752 10751 10750 ] final   72.66 input  -60.55 | X-H torsion
[ 11005 11000 10999 10996 ] final  146.60 input  -57.11 | X-H torsion

> <Gold.Protein.ActiveResidues>
 VAL166  LYS551  ARG553  GLY616  TRP617  ASP618  TYR619  PRO620  LYS621  CYS622 
 ASP623  PHE694  ASN695  SER759  ASP760  ASP761  ALA762  ILE779  LEU786  VAL792 
 PHE793  MET794  SER795  GLU796  ALA797  LYS798  CYS799  TRP800  GLU811  SER814 

> <Gold.Protein.RotatedAtoms>
  151.6493  135.1003  160.0157 H   0  0  0  0  0  0  0  0  0  0  0  0  # atno 6907 bound_to 6896
  152.4010  133.6813  159.6324 H   0  0  0  0  0  0  0  0  0  0  0  0  # atno 6908 bound_to 6896
  150.7910  133.8708  159.3299 H   0  0  0  0  0  0  0  0  0  0  0  0  # atno 6909 bound_to 6896
  144.7583  140.4077  143.5996 H   0  0  0  0  0  0  0  0  0  0  0  0  # atno 7974 bound_to 7965
  154.4467  140.1009  156.6491 H   0  0  0  0  0  0  0  0  0  0  0  0  # atno 8008 bound_to 7997
  155.5417  140.3483  155.4430 H   0  0  0  0  0  0  0  0  0  0  0  0  # atno 8009 bound_to 7997
  156.0592  140.1322  156.9950 H   0  0  0  0  0  0  0  0  0  0  0  0  # atno 8010 bound_to 7997
  140.4624  144.0887  150.6216 H   0  0  0  0  0  0  0  0  0  0  0  0  # atno 10167 bound_to 10162
  156.3478  130.4303  149.7731 H   0  0  0  0  0  0  0  0  0  0  0  0  # atno 10718 bound_to 10713
  153.0473  135.5091  154.7778 H   0  0  0  0  0  0  0  0  0  0  0  0  # atno 10763 bound_to 10752
  154.6668  135.2947  154.9797 H   0  0  0  0  0  0  0  0  0  0  0  0  # atno 10764 bound_to 10752
  154.0629  135.6688  153.4867 H   0  0  0  0  0  0  0  0  0  0  0  0  # atno 10765 bound_to 10752
  140.0807  134.9099  157.1495 H   0  0  0  0  0  0  0  0  0  0  0  0  # atno 11005 bound_to 11000
  145.6705  139.1598  143.2757 LP  0  0  0  0  0  0  0  0  0  0  0  0  # atno 17320 bound_to 7965
  146.1618  140.6777  142.9274 LP  0  0  0  0  0  0  0  0  0  0  0  0  # atno 17321 bound_to 7965
  140.4077  143.2672  151.9870 LP  0  0  0  0  0  0  0  0  0  0  0  0  # atno 17342 bound_to 10162
  139.4808  144.5942  151.7719 LP  0  0  0  0  0  0  0  0  0  0  0  0  # atno 17343 bound_to 10162
  156.4943  130.8099  151.3107 LP  0  0  0  0  0  0  0  0  0  0  0  0  # atno 17370 bound_to 10713
  157.7456  130.9965  150.2783 LP  0  0  0  0  0  0  0  0  0  0  0  0  # atno 17371 bound_to 10713
  140.3492  134.2617  155.7201 LP  0  0  0  0  0  0  0  0  0  0  0  0  # atno 17394 bound_to 11000
  141.2045  133.7884  157.0281 LP  0  0  0  0  0  0  0  0  0  0  0  0  # atno 17395 bound_to 11000

$$$$
