AV-unprocessed.smi:89|AV-procd|sdf|828|dock4
  -GOLD-   2262017243D 1   1.00000     0.00000
 Structure written by MMmdl.
 54 56  0  0  0  0  0  0  0  0  1 V2000
  149.6041  138.3355  154.5297 C   0  0  0  0  0  0  0  0  0  0  0  0
  148.4251  138.5857  155.4849 C   0  0  0  0  0  0  0  0  0  0  0  0
  147.9966  137.3892  156.2130 N   0  0  0  0  0  0  0  0  0  0  0  0
  147.2946  136.4856  155.4819 C   0  0  0  0  0  0  0  0  0  0  0  0
  147.4573  135.1745  155.7901 N   0  0  0  0  0  0  0  0  0  0  0  0
  146.8082  134.2332  155.1001 C   0  0  0  0  0  0  0  0  0  0  0  0
  145.9642  134.3816  154.0777 N   0  0  0  0  0  0  0  0  0  0  0  0
  145.8025  135.6974  153.7567 C   0  0  0  0  0  0  0  0  0  0  0  0
  146.4264  136.8055  154.3972 C   0  0  0  0  0  0  0  0  0  0  0  0
  146.0208  137.9880  153.7891 N   0  0  0  0  0  0  0  0  0  0  0  0
  145.2047  137.6018  152.8472 C   0  0  0  0  0  0  0  0  0  0  0  0
  145.0087  136.2422  152.7628 N   0  0  0  0  0  0  0  0  0  0  0  0
  144.1591  135.5400  151.8133 C   0  0  0  0  0  0  0  0  0  0  0  0
  144.9283  134.9066  150.6264 C   0  0  2  0  0  0  0  0  0  0  0  0
  145.2603  135.9213  149.6961 O   0  0  0  0  0  0  0  0  0  0  0  0
  144.1643  133.7952  149.9052 C   0  0  0  0  0  0  0  0  0  0  0  0
  144.6930  132.5374  150.5774 C   0  0  0  0  0  0  0  0  0  0  0  0
  146.0736  132.8260  150.7122 O   0  0  0  0  0  0  0  0  0  0  0  0
  146.2089  134.1888  151.1010 C   0  0  0  0  0  0  0  0  0  0  0  0
  147.5494  137.5938  157.6003 C   0  0  1  0  0  0  0  0  0  0  0  0
  146.2311  138.3854  157.6973 C   0  0  0  0  0  0  0  0  0  0  0  0
  147.4834  136.2960  158.4353 C   0  0  0  0  0  0  0  0  0  0  0  0
  147.5531  136.6432  160.2478 S   0  0  0  0  0  0  0  0  0  0  0  0
  148.9062  137.0967  160.6033 O   0  0  0  0  0  0  0  0  0  0  0  0
  146.4001  137.4836  160.6053 O   0  0  0  0  0  0  0  0  0  0  0  0
  147.2978  134.9669  160.9656 C   0  0  0  0  0  0  0  0  0  0  0  0
  147.3651  135.0110  162.4951 C   0  0  0  0  0  0  0  0  0  0  0  0
  149.9324  139.2701  154.0752 H   0  0  0  0  0  0  0  0  0  0  0  0
  149.3374  137.6567  153.7193 H   0  0  0  0  0  0  0  0  0  0  0  0
  150.4549  137.9086  155.0613 H   0  0  0  0  0  0  0  0  0  0  0  0
  148.7293  139.3382  156.2131 H   0  0  0  0  0  0  0  0  0  0  0  0
  147.5878  139.0190  154.9388 H   0  0  0  0  0  0  0  0  0  0  0  0
  146.9935  133.2158  155.4115 H   0  0  0  0  0  0  0  0  0  0  0  0
  144.7164  138.3030  152.1860 H   0  0  0  0  0  0  0  0  0  0  0  0
  143.6085  134.7712  152.3571 H   0  0  0  0  0  0  0  0  0  0  0  0
  143.4110  136.2420  151.4431 H   0  0  0  0  0  0  0  0  0  0  0  0
  145.6943  135.5202  148.9586 H   0  0  0  0  0  0  0  0  0  0  0  0
  143.0798  133.8784  149.9567 H   0  0  0  0  0  0  0  0  0  0  0  0
  144.4358  133.7640  148.8487 H   0  0  0  0  0  0  0  0  0  0  0  0
  144.2426  132.3972  151.5614 H   0  0  0  0  0  0  0  0  0  0  0  0
  144.5247  131.6378  149.9850 H   0  0  0  0  0  0  0  0  0  0  0  0
  147.1190  134.6065  150.6683 H   0  0  0  0  0  0  0  0  0  0  0  0
  146.3141  134.2355  152.1857 H   0  0  0  0  0  0  0  0  0  0  0  0
  148.3074  138.2195  158.0728 H   0  0  0  0  0  0  0  0  0  0  0  0
  146.0006  138.6295  158.7346 H   0  0  0  0  0  0  0  0  0  0  0  0
  145.3888  137.8162  157.3043 H   0  0  0  0  0  0  0  0  0  0  0  0
  146.2865  139.3266  157.1506 H   0  0  0  0  0  0  0  0  0  0  0  0
  146.5352  135.7894  158.2553 H   0  0  0  0  0  0  0  0  0  0  0  0
  148.2675  135.5869  158.1736 H   0  0  0  0  0  0  0  0  0  0  0  0
  146.3285  134.5956  160.6325 H   0  0  0  0  0  0  0  0  0  0  0  0
  148.0653  134.3036  160.5661 H   0  0  0  0  0  0  0  0  0  0  0  0
  147.2128  134.0187  162.9200 H   0  0  0  0  0  0  0  0  0  0  0  0
  146.5988  135.6704  162.9031 H   0  0  0  0  0  0  0  0  0  0  0  0
  148.3352  135.3745  162.8348 H   0  0  0  0  0  0  0  0  0  0  0  0
  1  2  1  0  0  0  0
  1 28  1  0  0  0  0
  1 29  1  0  0  0  0
  1 30  1  0  0  0  0
  2  3  1  0  0  0  0
  2 31  1  0  0  0  0
  2 32  1  0  0  0  0
  3  4  1  0  0  0  0
  3 20  1  0  0  0  0
  4  9  1  0  0  0  0
  4  5  2  0  0  0  0
  5  6  1  0  0  0  0
  6  7  2  0  0  0  0
  6 33  1  0  0  0  0
  7  8  1  0  0  0  0
  8 12  1  0  0  0  0
  8  9  2  0  0  0  0
  9 10  1  0  0  0  0
 10 11  2  0  0  0  0
 11 12  1  0  0  0  0
 11 34  1  0  0  0  0
 12 13  1  0  0  0  0
 13 14  1  0  0  0  0
 13 35  1  0  0  0  0
 13 36  1  0  0  0  0
 14 19  1  0  0  0  0
 14 15  1  0  0  0  0
 14 16  1  0  0  0  0
 15 37  1  0  0  0  0
 16 17  1  0  0  0  0
 16 38  1  0  0  0  0
 16 39  1  0  0  0  0
 17 18  1  0  0  0  0
 17 40  1  0  0  0  0
 17 41  1  0  0  0  0
 18 19  1  0  0  0  0
 19 42  1  0  0  0  0
 19 43  1  0  0  0  0
 20 21  1  0  0  0  0
 20 22  1  0  0  0  0
 20 44  1  0  0  0  0
 21 45  1  0  0  0  0
 21 46  1  0  0  0  0
 21 47  1  0  0  0  0
 22 23  1  0  0  0  0
 22 48  1  0  0  0  0
 22 49  1  0  0  0  0
 23 24  2  0  0  0  0
 23 25  2  0  0  0  0
 23 26  1  0  0  0  0
 26 27  1  0  0  0  0
 26 50  1  0  0  0  0
 26 51  1  0  0  0  0
 27 52  1  0  0  0  0
 27 53  1  0  0  0  0
 27 54  1  0  0  0  0
M  END
> <s_m_source_file>
AV-unprocessed.smi

> <i_m_source_file_index>
89

> <i_lp_mmshare_version>
43012

> <i_f3d_flags>
0

> <s_epik_input>
W0NIM11bQ0gyXVMoPU8pKD1PKVtDSDJdW0NAQEhdKFtDSDNdKU4oW0NIMl1bQ0gzXSljKG5bY0hdbjEpYyhjMTIpbltjSF1uMltDSDJdW0NAQF0zKFtPSF0pW0NIMl1bQ0gyXU9bQ0gyXTM=

> <s_epik_cmdline>
J2VwaWtfcHl0aG9uJywgJy1waCcsICc3LjAnLCAnLXRuJywgJzgnLCAnLW1hJywgJzIwMCcsICctbWV0YWxfYmluZGluZycsICctaW1hZScsICc8aW5maWxlLm1hZT4nLCAnLW9tYWUnLCAnPG91dGZpbGUubWFlPic=

> <r_lp_tautomer_probability>
1

> <r_epik_Ionization_Penalty>
0.00103773

> <r_epik_Ionization_Penalty_Charging>
0

> <r_epik_Ionization_Penalty_Neutral>
0.00103773

> <r_epik_State_Penalty>
0.000558914

> <r_epik_Charging_Adjusted_Penalty>
0.000558914

> <i_epik_Tot_Q>
0

> <i_epik_Tot_abs_Q>
0

> <r_epik_Metal_State_Penalty>
-0

> <b_epik_Metal_Only>
0

> <s_lp_Force_Field>
OPLS_2005

> <r_lp_Energy>
26.3804

> <b_lp_Chiralities_Consistent>
1

> <s_lp_Variant>
AV-unprocessed.smi:89-4

> <Gold.Version>
5.8.1

> <Gold.Id.Protein>
6NUR|6NUR_protein|mol2

> <Gold.PLP.Fitness>
42.6337

> <Gold.PLP.PLP>
-30.4780

> <Gold.PLP.part.hbond>
-4.0779

> <Gold.PLP.part.metal>
0.0000

> <Gold.PLP.part.buried>
-4.9523

> <Gold.PLP.part.nonpolar>
-22.2328

> <Gold.PLP.part.repulsive>
0.4558

> <Gold.PLP.ligand.clash>
0.0000

> <Gold.PLP.ligand.torsion>
1.6447

> <Gold.PLP.Chemscore.Hbond>
2.7520

> <Gold.PLP.Chemscore.CHOScore>
1.9934

> <Gold.PLP.Chemscore.Metal>
0.0000

> <Gold.Chemscore.Hbonds>
donor molecule, donor type, donor heavy atom, donor atom, acceptor molecule, acceptor atom, score
      L1  H    15    37       P1  7921  1.00
      P1  H  6931  6943       L1    24  0.72
      P1  H  6934  6947       L1    25  1.00
      L1  C    11    34       P1 10171  1.00
      L1  C    11    34       P1 10175  1.00

> <Gold.PLP.Chemscore.Internal.Correction>
1.2091

> <Gold.Rescore>
     Score         DG    S(hbond)    S(metal)    S(lipo)     H(rot)  DE(clash)    DE(int)     intcor
      8.37     -12.12       2.60        0.00      58.21       3.45       0.03       3.73       ----

> <Gold.Chemscore.Fitness>
8.3696

> <Gold.Chemscore.DG>
-12.1225

> <Gold.Chemscore.ZeroCoef>
-5.4800

> <Gold.Chemscore.Hbond>
2.5958

> <Gold.Chemscore.Metal>
0.0000

> <Gold.Chemscore.Lipo>
58.2125

> <Gold.Chemscore.Internal_Hbond>
0.0000

> <Gold.Chemscore.DEClash>
0.0270

> <Gold.Chemscore.DEInternal>
3.7259

> <Gold.Chemscore.Rot>
3.4524

> <Gold.Chemscore.Internal.Correction>
   9.000000E+99

> <Gold.Chemscore.Hbonds>
donor molecule, donor type, donor heavy atom, donor atom, acceptor molecule, acceptor atom, score
      L1  H    15    37       P1  7921  0.95
      P1  H  6931  6943       L1    24  0.69
      P1  H  6934  6947       L1    25  0.35

> <Gold.Chemscore.Hbond.Weighted>
-8.6699

> <Gold.Chemscore.Metal.Weighted>
-0.0000

> <Gold.Chemscore.Lipo.Weighted>
-6.8109

> <Gold.Chemscore.Internal_Hbond.Weighted>
0.0000

> <Gold.Chemscore.DEClash.Weighted>
0.0270

> <Gold.Chemscore.DEInternal.Weighted>
3.7259

> <Gold.Chemscore.Rot.Weighted>
8.8382

> <Gold.Chemscore.Internal.Correction.Weighted>
   9.000000E+99

> <Gold.Protein.RotatedTorsions>
[ 6907 6896 6895 6894 ] final  122.02 input  -60.11 | X-H torsion
[ 7974 7965 7964 7962 ] final   33.43 input  175.53 | X-H torsion
[ 8008 7997 7996 7995 ] final   24.37 input   59.86 | X-H torsion
[ 10167 10162 10161 10158 ] final  -15.41 input  -65.29 | X-H torsion
[ 10718 10713 10712 10709 ] final  133.60 input   66.30 | X-H torsion
[ 10763 10752 10751 10750 ] final  -53.22 input  -60.55 | X-H torsion
[ 11005 11000 10999 10996 ] final -115.42 input  -57.11 | X-H torsion

> <Gold.Protein.ActiveResidues>
 VAL166  LYS551  ARG553  GLY616  TRP617  ASP618  TYR619  PRO620  LYS621  CYS622 
 ASP623  PHE694  ASN695  SER759  ASP760  ASP761  ALA762  ILE779  LEU786  VAL792 
 PHE793  MET794  SER795  GLU796  ALA797  LYS798  CYS799  TRP800  GLU811  SER814 

> <Gold.Protein.RotatedAtoms>
  152.4276  133.7221  159.6539 H   0  0  0  0  0  0  0  0  0  0  0  0  # atno 6907 bound_to 6896
  150.8153  133.8337  159.3169 H   0  0  0  0  0  0  0  0  0  0  0  0  # atno 6908 bound_to 6896
  151.6036  135.1047  160.0117 H   0  0  0  0  0  0  0  0  0  0  0  0  # atno 6909 bound_to 6896
  146.1421  139.6398  142.9156 H   0  0  0  0  0  0  0  0  0  0  0  0  # atno 7974 bound_to 7965
  154.9952  140.3118  155.4890 H   0  0  0  0  0  0  0  0  0  0  0  0  # atno 8008 bound_to 7997
  156.2934  140.2242  156.4999 H   0  0  0  0  0  0  0  0  0  0  0  0  # atno 8009 bound_to 7997
  154.7668  140.0455  157.1006 H   0  0  0  0  0  0  0  0  0  0  0  0  # atno 8010 bound_to 7997
  140.7218  143.5221  150.9621 H   0  0  0  0  0  0  0  0  0  0  0  0  # atno 10167 bound_to 10162
  157.4757  131.1083  150.9746 H   0  0  0  0  0  0  0  0  0  0  0  0  # atno 10718 bound_to 10713
  154.1554  135.6483  153.4973 H   0  0  0  0  0  0  0  0  0  0  0  0  # atno 10763 bound_to 10752
  153.0126  135.5348  154.6765 H   0  0  0  0  0  0  0  0  0  0  0  0  # atno 10764 bound_to 10752
  154.6065  135.2949  155.0451 H   0  0  0  0  0  0  0  0  0  0  0  0  # atno 10765 bound_to 10752
  141.0489  133.9719  157.2871 H   0  0  0  0  0  0  0  0  0  0  0  0  # atno 11005 bound_to 11000
  145.5022  141.0437  143.2534 LP  0  0  0  0  0  0  0  0  0  0  0  0  # atno 17320 bound_to 7965
  144.7804  139.6537  143.7156 LP  0  0  0  0  0  0  0  0  0  0  0  0  # atno 17321 bound_to 7965
  139.8938  143.6920  152.3141 LP  0  0  0  0  0  0  0  0  0  0  0  0  # atno 17342 bound_to 10162
  139.7245  144.7596  151.0901 LP  0  0  0  0  0  0  0  0  0  0  0  0  # atno 17343 bound_to 10162
  157.0496  130.5782  149.5368 LP  0  0  0  0  0  0  0  0  0  0  0  0  # atno 17370 bound_to 10713
  156.0095  130.5186  150.7943 LP  0  0  0  0  0  0  0  0  0  0  0  0  # atno 17371 bound_to 10713
  139.9334  135.0198  156.8476 LP  0  0  0  0  0  0  0  0  0  0  0  0  # atno 17394 bound_to 11000
  140.6094  134.0097  155.7570 LP  0  0  0  0  0  0  0  0  0  0  0  0  # atno 17395 bound_to 11000

$$$$
