AV-unprocessed.smi:287|AV-procd|sdf|2178|dock1
  -GOLD-   2262021543D 1   1.00000     0.00000
 Structure written by MMmdl.
 55 58  0  0  0  0  0  0  0  0  1 V2000
  142.3996  134.4713  163.4059 C   0  0  0  0  0  0  0  0  0  0  0  0
  143.7778  134.7339  162.9033 C   0  0  0  0  0  0  0  0  0  0  0  0
  144.4839  135.8697  162.6334 C   0  0  0  0  0  0  0  0  0  0  0  0
  145.7770  135.4706  162.1804 C   0  0  0  0  0  0  0  0  0  0  0  0
  146.9070  136.4014  161.7614 C   0  0  2  0  0  0  0  0  0  0  0  0
  147.4147  137.1841  162.9834 C   0  0  0  0  0  0  0  0  0  0  0  0
  146.4920  137.3828  160.8309 O   0  0  0  0  0  0  0  0  0  0  0  0
  148.0772  135.6471  161.0888 C   0  0  0  0  0  0  0  0  0  0  0  0
  147.7828  135.2520  159.7149 N   0  0  0  0  0  0  0  0  0  0  0  0
  148.6247  135.5875  158.7153 C   0  0  0  0  0  0  0  0  0  0  0  0
  149.4003  134.6515  158.1079 N   0  0  0  0  0  0  0  0  0  0  0  0
  150.2247  135.0078  157.1175 C   0  0  0  0  0  0  0  0  0  0  0  0
  150.4259  136.2192  156.5928 N   0  0  0  0  0  0  0  0  0  0  0  0
  149.6499  137.1604  157.2041 C   0  0  0  0  0  0  0  0  0  0  0  0
  148.7288  136.9275  158.2619 C   0  0  0  0  0  0  0  0  0  0  0  0
  148.1151  138.1204  158.6219 N   0  0  0  0  0  0  0  0  0  0  0  0
  148.6481  139.0043  157.8212 C   0  0  0  0  0  0  0  0  0  0  0  0
  149.5846  138.5098  156.9379 N   0  0  0  0  0  0  0  0  0  0  0  0
  150.3740  139.2315  155.8954 C   0  0  2  0  0  0  0  0  0  0  0  0
  151.1482  140.1992  156.5427 O   0  0  0  0  0  0  0  0  0  0  0  0
  150.8349  141.5070  156.0660 C   0  0  2  0  0  0  0  0  0  0  0  0
  150.9705  142.5259  157.2079 C   0  0  0  0  0  0  0  0  0  0  0  0
  150.9739  143.8381  156.6885 O   0  0  0  0  0  0  0  0  0  0  0  0
  149.4054  141.3603  155.5437 C   0  0  1  0  0  0  0  0  0  0  0  0
  149.0431  142.3547  154.6052 O   0  0  0  0  0  0  0  0  0  0  0  0
  149.4155  139.9609  154.9463 C   0  0  1  0  0  0  0  0  0  0  0  0
  149.8995  139.9267  153.6157 O   0  0  0  0  0  0  0  0  0  0  0  0
  145.7449  134.0967  162.1963 C   0  0  0  0  0  0  0  0  0  0  0  0
  146.7284  133.0324  161.8363 C   0  0  0  0  0  0  0  0  0  0  0  0
  144.5385  133.6425  162.6376 O   0  0  0  0  0  0  0  0  0  0  0  0
  150.9879  138.4621  155.4250 H   0  0  0  0  0  0  0  0  0  0  0  0
  151.5023  141.7496  155.2366 H   0  0  0  0  0  0  0  0  0  0  0  0
  148.7048  141.3897  156.3797 H   0  0  0  0  0  0  0  0  0  0  0  0
  148.4246  139.5041  154.9584 H   0  0  0  0  0  0  0  0  0  0  0  0
  141.9160  135.3974  163.7174 H   0  0  0  0  0  0  0  0  0  0  0  0
  142.4216  133.7978  164.2630 H   0  0  0  0  0  0  0  0  0  0  0  0
  141.7861  134.0138  162.6297 H   0  0  0  0  0  0  0  0  0  0  0  0
  144.1165  136.8781  162.7535 H   0  0  0  0  0  0  0  0  0  0  0  0
  147.7941  136.5114  163.7534 H   0  0  0  0  0  0  0  0  0  0  0  0
  146.6180  137.7791  163.4319 H   0  0  0  0  0  0  0  0  0  0  0  0
  148.2246  137.8641  162.7157 H   0  0  0  0  0  0  0  0  0  0  0  0
  145.5612  137.2922  160.6952 H   0  0  0  0  0  0  0  0  0  0  0  0
  148.9939  136.2379  161.1262 H   0  0  0  0  0  0  0  0  0  0  0  0
  148.2721  134.7337  161.6527 H   0  0  0  0  0  0  0  0  0  0  0  0
  146.9369  134.7169  159.5779 H   0  0  0  0  0  0  0  0  0  0  0  0
  150.8062  134.2077  156.6837 H   0  0  0  0  0  0  0  0  0  0  0  0
  148.3683  140.0468  157.8562 H   0  0  0  0  0  0  0  0  0  0  0  0
  150.1199  142.4456  157.8854 H   0  0  0  0  0  0  0  0  0  0  0  0
  151.8707  142.3484  157.7966 H   0  0  0  0  0  0  0  0  0  0  0  0
  150.1864  143.9628  156.1813 H   0  0  0  0  0  0  0  0  0  0  0  0
  148.9886  143.1829  155.0579 H   0  0  0  0  0  0  0  0  0  0  0  0
  149.1641  140.0135  153.0282 H   0  0  0  0  0  0  0  0  0  0  0  0
  147.0945  133.1731  160.8191 H   0  0  0  0  0  0  0  0  0  0  0  0
  146.2779  132.0414  161.8960 H   0  0  0  0  0  0  0  0  0  0  0  0
  147.5839  133.0530  162.5112 H   0  0  0  0  0  0  0  0  0  0  0  0
  1  2  1  0  0  0  0
  1 35  1  0  0  0  0
  1 36  1  0  0  0  0
  1 37  1  0  0  0  0
  2 30  1  0  0  0  0
  2  3  2  0  0  0  0
  3  4  1  0  0  0  0
  3 38  1  0  0  0  0
  4  5  1  0  0  0  0
  4 28  2  0  0  0  0
  5  6  1  0  0  0  0
  5  7  1  0  0  0  0
  5  8  1  0  0  0  0
  6 39  1  0  0  0  0
  6 40  1  0  0  0  0
  6 41  1  0  0  0  0
  7 42  1  0  0  0  0
  8  9  1  0  0  0  0
  8 43  1  0  0  0  0
  8 44  1  0  0  0  0
  9 10  1  0  0  0  0
  9 45  1  0  0  0  0
 10 15  1  0  0  0  0
 10 11  2  0  0  0  0
 11 12  1  0  0  0  0
 12 13  2  0  0  0  0
 12 46  1  0  0  0  0
 13 14  1  0  0  0  0
 14 18  1  0  0  0  0
 14 15  2  0  0  0  0
 15 16  1  0  0  0  0
 16 17  2  0  0  0  0
 17 18  1  0  0  0  0
 17 47  1  0  0  0  0
 18 19  1  0  0  0  0
 19 31  1  0  0  0  0
 19 26  1  0  0  0  0
 19 20  1  0  0  0  0
 20 21  1  0  0  0  0
 21 32  1  0  0  0  0
 21 22  1  0  0  0  0
 21 24  1  0  0  0  0
 22 23  1  0  0  0  0
 22 48  1  0  0  0  0
 22 49  1  0  0  0  0
 23 50  1  0  0  0  0
 24 33  1  0  0  0  0
 24 25  1  0  0  0  0
 24 26  1  0  0  0  0
 25 51  1  0  0  0  0
 26 34  1  0  0  0  0
 26 27  1  0  0  0  0
 27 52  1  0  0  0  0
 28 29  1  0  0  0  0
 28 30  1  0  0  0  0
 29 53  1  0  0  0  0
 29 54  1  0  0  0  0
 29 55  1  0  0  0  0
M  END
> <s_m_source_file>
AV-unprocessed.smi

> <i_m_source_file_index>
287

> <i_lp_mmshare_version>
43012

> <i_f3d_flags>
0

> <s_epik_input>
W0NIM11jMVtjSF1jKGMobzEpW0NIM10pW0NAQF0oW0NIM10pKFtPSF0pW0NIMl1bTkhdYyhuW2NIXW4yKWMoYzIzKW5bY0hdbjNbQ0BASF00T1tDQEhdKFtDSDJdW09IXSlbQ0BASF0oW09IXSlbQ0BIXTRbT0hd

> <s_epik_cmdline>
J2VwaWtfcHl0aG9uJywgJy1waCcsICc3LjAnLCAnLXRuJywgJzgnLCAnLW1hJywgJzIwMCcsICctbWV0YWxfYmluZGluZycsICctaW1hZScsICc8aW5maWxlLm1hZT4nLCAnLW9tYWUnLCAnPG91dGZpbGUubWFlPic=

> <r_lp_tautomer_probability>
1

> <r_epik_Ionization_Penalty>
0.000992612

> <r_epik_Ionization_Penalty_Charging>
0

> <r_epik_Ionization_Penalty_Neutral>
0.000992612

> <r_epik_State_Penalty>
-0

> <r_epik_Charging_Adjusted_Penalty>
0

> <i_epik_Tot_Q>
0

> <i_epik_Tot_abs_Q>
0

> <r_epik_Metal_State_Penalty>
-0

> <b_epik_Metal_Only>
0

> <s_epik_Chemistry_Notes>
This compound contains an acetal/aminal-like group ( X-CH(R)-Y where X, Y are N, S, or O) that may be acid/base labile, releasing an aldehyde.

> <s_lp_Force_Field>
OPLS_2005

> <r_lp_Energy>
40.8374

> <b_lp_Chiralities_Consistent>
1

> <s_lp_Variant>
AV-unprocessed.smi:287-2

> <Gold.Version>
5.8.1

> <Gold.Id.Protein>
6NUR|6NUR_protein|mol2

> <Gold.PLP.Fitness>
59.3178

> <Gold.PLP.PLP>
-46.6276

> <Gold.PLP.part.hbond>
-7.4471

> <Gold.PLP.part.metal>
0.0000

> <Gold.PLP.part.buried>
-7.4938

> <Gold.PLP.part.nonpolar>
-32.7644

> <Gold.PLP.part.repulsive>
0.1471

> <Gold.PLP.ligand.clash>
0.0000

> <Gold.PLP.ligand.torsion>
1.2493

> <Gold.PLP.Chemscore.Hbond>
5.0157

> <Gold.PLP.Chemscore.CHOScore>
0.0000

> <Gold.PLP.Chemscore.Metal>
0.0000

> <Gold.Chemscore.Hbonds>
donor molecule, donor type, donor heavy atom, donor atom, acceptor molecule, acceptor atom, score
      L1  H    23    50       P1  8028  1.00
      L1  H    25    51       P1  8028  1.00
      L1  H    27    52       P1  7957  0.30
      P1  H  6896  6907       L1    11  0.95
      P1  H  6934  6947       L1     7  1.00
      P1  H  7989  7998       L1    27  0.74
      P1  H  8011  8017       L1    25  0.02

> <Gold.PLP.Chemscore.Internal.Correction>
0.1417

> <Gold.Rescore>
     Score         DG    S(hbond)    S(metal)    S(lipo)     H(rot)  DE(clash)    DE(int)     intcor
     14.62     -17.83       4.28        0.00      98.61       5.27       0.07       3.14       ----

> <Gold.Chemscore.Fitness>
14.6157

> <Gold.Chemscore.DG>
-17.8250

> <Gold.Chemscore.ZeroCoef>
-5.4800

> <Gold.Chemscore.Hbond>
4.2788

> <Gold.Chemscore.Metal>
0.0000

> <Gold.Chemscore.Lipo>
98.6121

> <Gold.Chemscore.Internal_Hbond>
0.0000

> <Gold.Chemscore.DEClash>
0.0650

> <Gold.Chemscore.DEInternal>
3.1443

> <Gold.Chemscore.Rot>
5.2672

> <Gold.Chemscore.Internal.Correction>
   9.000000E+99

> <Gold.Chemscore.Hbonds>
donor molecule, donor type, donor heavy atom, donor atom, acceptor molecule, acceptor atom, score
      L1  H    23    50       P1  8028  0.96
      L1  H    25    51       P1  8028  1.00
      L1  H    27    52       P1  7957  0.30
      P1  H  6896  6907       L1    11  0.07
      P1  H  6934  6947       L1     7  0.94
      P1  H  7989  7998       L1    27  0.57
      P1  H  8011  8017       L1    25  0.03

> <Gold.Chemscore.Hbond.Weighted>
-14.2913

> <Gold.Chemscore.Metal.Weighted>
-0.0000

> <Gold.Chemscore.Lipo.Weighted>
-11.5376

> <Gold.Chemscore.Internal_Hbond.Weighted>
0.0000

> <Gold.Chemscore.DEClash.Weighted>
0.0650

> <Gold.Chemscore.DEInternal.Weighted>
3.1443

> <Gold.Chemscore.Rot.Weighted>
13.4839

> <Gold.Chemscore.Internal.Correction.Weighted>
   9.000000E+99

> <Gold.Protein.RotatedTorsions>
[ 6907 6896 6895 6894 ] final  -88.98 input  -60.11 | X-H torsion
[ 7974 7965 7964 7962 ] final   -1.03 input  175.53 | X-H torsion
[ 8008 7997 7996 7995 ] final  -19.95 input   59.86 | X-H torsion
[ 10167 10162 10161 10158 ] final  131.33 input  -65.29 | X-H torsion
[ 10718 10713 10712 10709 ] final   43.27 input   66.30 | X-H torsion
[ 10763 10752 10751 10750 ] final    9.00 input  -60.55 | X-H torsion
[ 11005 11000 10999 10996 ] final  134.27 input  -57.11 | X-H torsion

> <Gold.Protein.ActiveResidues>
 VAL166  LYS551  ARG553  GLY616  TRP617  ASP618  TYR619  PRO620  LYS621  CYS622 
 ASP623  PHE694  ASN695  SER759  ASP760  ASP761  ALA762  ILE779  LEU786  VAL792 
 PHE793  MET794  SER795  GLU796  ALA797  LYS798  CYS799  TRP800  GLU811  SER814 

> <Gold.Protein.RotatedAtoms>
  150.6871  134.2657  159.4567 H   0  0  0  0  0  0  0  0  0  0  0  0  # atno 6907 bound_to 6896
  152.0584  134.9607  160.0584 H   0  0  0  0  0  0  0  0  0  0  0  0  # atno 6908 bound_to 6896
  152.1044  133.4232  159.4639 H   0  0  0  0  0  0  0  0  0  0  0  0  # atno 6909 bound_to 6896
  146.2421  140.1360  142.8336 H   0  0  0  0  0  0  0  0  0  0  0  0  # atno 7974 bound_to 7965
  154.4802  140.2075  155.9781 H   0  0  0  0  0  0  0  0  0  0  0  0  # atno 8008 bound_to 7997
  156.1153  140.3222  155.8100 H   0  0  0  0  0  0  0  0  0  0  0  0  # atno 8009 bound_to 7997
  155.4563  140.0520  157.2986 H   0  0  0  0  0  0  0  0  0  0  0  0  # atno 8010 bound_to 7997
  139.5389  144.6711  151.4691 H   0  0  0  0  0  0  0  0  0  0  0  0  # atno 10167 bound_to 10162
  157.4141  130.7931  149.7456 H   0  0  0  0  0  0  0  0  0  0  0  0  # atno 10718 bound_to 10713
  153.2188  135.6878  153.8025 H   0  0  0  0  0  0  0  0  0  0  0  0  # atno 10763 bound_to 10752
  153.7232  135.3264  155.3272 H   0  0  0  0  0  0  0  0  0  0  0  0  # atno 10764 bound_to 10752
  154.8259  135.4618  154.1026 H   0  0  0  0  0  0  0  0  0  0  0  0  # atno 10765 bound_to 10752
  139.9904  134.9517  156.9842 H   0  0  0  0  0  0  0  0  0  0  0  0  # atno 11005 bound_to 11000
  145.0287  140.8853  143.5123 LP  0  0  0  0  0  0  0  0  0  0  0  0  # atno 17320 bound_to 7965
  145.1420  139.2566  143.5485 LP  0  0  0  0  0  0  0  0  0  0  0  0  # atno 17321 bound_to 7965
  140.6609  143.8499  150.6887 LP  0  0  0  0  0  0  0  0  0  0  0  0  # atno 17342 bound_to 10162
  140.1894  143.4049  152.1874 LP  0  0  0  0  0  0  0  0  0  0  0  0  # atno 17343 bound_to 10162
  155.9859  130.3979  150.3236 LP  0  0  0  0  0  0  0  0  0  0  0  0  # atno 17370 bound_to 10713
  157.1377  131.0288  151.2941 LP  0  0  0  0  0  0  0  0  0  0  0  0  # atno 17371 bound_to 10713
  140.4920  134.1184  155.7234 LP  0  0  0  0  0  0  0  0  0  0  0  0  # atno 17394 bound_to 11000
  141.1561  133.8880  157.1974 LP  0  0  0  0  0  0  0  0  0  0  0  0  # atno 17395 bound_to 11000

$$$$
