AV-unprocessed.smi:4|AV-procd|sdf|36|dock9
  -GOLD-   2262015153D 1   1.00000     0.00000
 Structure written by MMmdl.
 42 43  0  0  0  0  0  0  0  0  2 V2000
  150.1990  144.1125  158.9137 C   0  0  0  0  0  0  0  0  0  0  0  0
  151.6786  143.6939  159.1300 C   0  0  0  0  0  0  0  0  0  0  0  0
  152.4881  144.4641  158.0569 C   0  0  0  0  0  0  0  0  0  0  0  0
  152.0428  144.1975  160.5504 C   0  0  0  0  0  0  0  0  0  0  0  0
  151.9278  142.2094  159.0119 N   0  0  0  0  0  0  0  0  0  0  0  0
  150.8815  141.3458  158.5947 C   0  0  0  0  0  0  0  0  0  0  0  0
  151.0146  140.0056  158.4683 C   0  0  0  0  0  0  0  0  0  0  0  0
  149.8981  139.0650  158.0141 C   0  0  0  0  0  0  0  0  0  0  0  0
  149.5916  139.1653  156.5873 N   0  0  0  0  0  0  0  0  0  0  0  0
  149.2832  140.5244  156.1526 C   0  0  0  0  0  0  0  0  0  0  0  0
  148.7688  140.5427  154.7098 C   0  0  0  0  0  0  0  0  0  0  0  0
  149.8763  140.1714  153.9121 O   0  0  0  0  0  0  0  0  0  0  0  0
  147.4955  139.7305  154.4100 C   0  0  0  0  0  0  0  0  0  0  0  0
  147.0069  140.8644  153.5076 C   0  0  0  0  0  0  0  0  0  0  0  0
  147.9993  141.7845  154.2191 C   0  0  0  0  0  0  0  0  0  0  0  0
  152.3212  139.4358  158.7882 C   0  0  0  0  0  0  0  0  0  0  0  0
  152.4971  138.2204  158.7054 O   0  0  0  0  0  0  0  0  0  0  0  0
  153.3095  140.2867  159.1735 N   0  5  0  0  0  0  0  0  0  0  0  0
  153.1513  141.6390  159.2878 C   0  0  0  0  0  0  0  0  0  0  0  0
  154.0967  142.3447  159.6358 O   0  0  0  0  0  0  0  0  0  0  0  0
  150.0733  145.1905  159.0226 H   0  0  0  0  0  0  0  0  0  0  0  0
  149.5321  143.6510  159.6435 H   0  0  0  0  0  0  0  0  0  0  0  0
  149.8449  143.8656  157.9118 H   0  0  0  0  0  0  0  0  0  0  0  0
  152.2720  144.0862  157.0571 H   0  0  0  0  0  0  0  0  0  0  0  0
  153.5651  144.4047  158.2037 H   0  0  0  0  0  0  0  0  0  0  0  0
  152.2406  145.5261  158.0630 H   0  0  0  0  0  0  0  0  0  0  0  0
  151.7515  145.2393  160.6876 H   0  0  0  0  0  0  0  0  0  0  0  0
  153.1095  144.1564  160.7640 H   0  0  0  0  0  0  0  0  0  0  0  0
  151.5310  143.6143  161.3168 H   0  0  0  0  0  0  0  0  0  0  0  0
  149.9377  141.8062  158.3737 H   0  0  0  0  0  0  0  0  0  0  0  0
  150.1844  138.0394  158.2520 H   0  0  0  0  0  0  0  0  0  0  0  0
  149.0088  139.2885  158.6048 H   0  0  0  0  0  0  0  0  0  0  0  0
  148.7998  138.5673  156.3729 H   0  0  0  0  0  0  0  0  0  0  0  0
  148.5548  140.9800  156.8252 H   0  0  0  0  0  0  0  0  0  0  0  0
  150.1842  141.1336  156.2326 H   0  0  0  0  0  0  0  0  0  0  0  0
  149.5350  139.9120  153.0701 H   0  0  0  0  0  0  0  0  0  0  0  0
  147.6632  138.7863  153.8907 H   0  0  0  0  0  0  0  0  0  0  0  0
  146.8606  139.5920  155.2867 H   0  0  0  0  0  0  0  0  0  0  0  0
  147.2568  140.7052  152.4577 H   0  0  0  0  0  0  0  0  0  0  0  0
  145.9590  141.1343  153.6406 H   0  0  0  0  0  0  0  0  0  0  0  0
  147.5394  142.3483  155.0327 H   0  0  0  0  0  0  0  0  0  0  0  0
  148.5628  142.4386  153.5528 H   0  0  0  0  0  0  0  0  0  0  0  0
  1  2  1  0  0  0  0
  1 21  1  0  0  0  0
  1 22  1  0  0  0  0
  1 23  1  0  0  0  0
  2  3  1  0  0  0  0
  2  4  1  0  0  0  0
  2  5  1  0  0  0  0
  3 24  1  0  0  0  0
  3 25  1  0  0  0  0
  3 26  1  0  0  0  0
  4 27  1  0  0  0  0
  4 28  1  0  0  0  0
  4 29  1  0  0  0  0
  5 19  1  0  0  0  0
  5  6  1  0  0  0  0
  6  7  2  0  0  0  0
  6 30  1  0  0  0  0
  7  8  1  0  0  0  0
  7 16  1  0  0  0  0
  8  9  1  0  0  0  0
  8 31  1  0  0  0  0
  8 32  1  0  0  0  0
  9 10  1  0  0  0  0
  9 33  1  0  0  0  0
 10 11  1  0  0  0  0
 10 34  1  0  0  0  0
 10 35  1  0  0  0  0
 11 15  1  0  0  0  0
 11 12  1  0  0  0  0
 11 13  1  0  0  0  0
 12 36  1  0  0  0  0
 13 14  1  0  0  0  0
 13 37  1  0  0  0  0
 13 38  1  0  0  0  0
 14 15  1  0  0  0  0
 14 39  1  0  0  0  0
 14 40  1  0  0  0  0
 15 41  1  0  0  0  0
 15 42  1  0  0  0  0
 16 17  2  0  0  0  0
 16 18  1  0  0  0  0
 18 19  1  0  0  0  0
 19 20  2  0  0  0  0
M  CHG  1  18  -1
M  END
> <s_m_source_file>
AV-unprocessed.smi

> <i_m_source_file_index>
4

> <i_lp_mmshare_version>
43012

> <i_f3d_flags>
0

> <s_epik_input>
W0NIM11DKFtDSDNdKShbQ0gzXSluMVtjSF1jKGMoPU8pW25IXWMxPU8pW0NIMl1bTkhdW0NIMl1DMihbT0hdKVtDSDJdW0NIMl1bQ0gyXTI=

> <s_epik_cmdline>
J2VwaWtfcHl0aG9uJywgJy1waCcsICc3LjAnLCAnLXRuJywgJzgnLCAnLW1hJywgJzIwMCcsICctbWV0YWxfYmluZGluZycsICctaW1hZScsICc8aW5maWxlLm1hZT4nLCAnLW9tYWUnLCAnPG91dGZpbGUubWFlPic=

> <r_lp_tautomer_probability>
0.999537

> <r_epik_Ionization_Penalty>
6.25758

> <r_epik_Ionization_Penalty_Charging>
1.60838e-06

> <r_epik_Ionization_Penalty_Neutral>
6.25758

> <r_epik_State_Penalty>
6.1746

> <r_epik_Charging_Adjusted_Penalty>
6.1746

> <i_epik_Tot_Q>
-1

> <i_epik_Tot_abs_Q>
1

> <r_epik_Metal_State_Penalty>
2.58365

> <b_epik_Metal_Only>
1

> <s_lp_Force_Field>
OPLS_2005

> <r_lp_Energy>
44.4869

> <b_lp_Chiralities_Consistent>
1

> <s_lp_Variant>
AV-unprocessed.smi:4-4

> <Gold.Version>
5.8.1

> <Gold.Id.Protein>
6NUR|6NUR_protein|mol2

> <Gold.PLP.Fitness>
43.1198

> <Gold.PLP.PLP>
-38.1747

> <Gold.PLP.part.hbond>
-2.0000

> <Gold.PLP.part.metal>
0.0000

> <Gold.PLP.part.buried>
-5.6239

> <Gold.PLP.part.nonpolar>
-31.4339

> <Gold.PLP.part.repulsive>
0.0000

> <Gold.PLP.ligand.clash>
0.0000

> <Gold.PLP.ligand.torsion>
0.3808

> <Gold.PLP.Chemscore.Hbond>
1.8640

> <Gold.PLP.Chemscore.CHOScore>
0.0000

> <Gold.PLP.Chemscore.Metal>
0.0000

> <Gold.Chemscore.Hbonds>
donor molecule, donor type, donor heavy atom, donor atom, acceptor molecule, acceptor atom, score
      L1  H    12    36       P1  7957  0.98
      P1  H  7989  7998       L1    12  0.78

> <Gold.PLP.Chemscore.Internal.Correction>
0.1147

> <Gold.Rescore>
     Score         DG    S(hbond)    S(metal)    S(lipo)     H(rot)  DE(clash)    DE(int)     intcor
     13.07     -14.99       1.49        0.00      91.33       2.40       0.06       1.85       ----

> <Gold.Chemscore.Fitness>
13.0701

> <Gold.Chemscore.DG>
-14.9894

> <Gold.Chemscore.ZeroCoef>
-5.4800

> <Gold.Chemscore.Hbond>
1.4861

> <Gold.Chemscore.Metal>
0.0000

> <Gold.Chemscore.Lipo>
91.3289

> <Gold.Chemscore.Internal_Hbond>
0.0000

> <Gold.Chemscore.DEClash>
0.0646

> <Gold.Chemscore.DEInternal>
1.8548

> <Gold.Chemscore.Rot>
2.3983

> <Gold.Chemscore.Internal.Correction>
   9.000000E+99

> <Gold.Chemscore.Hbonds>
donor molecule, donor type, donor heavy atom, donor atom, acceptor molecule, acceptor atom, score
      L1  H    12    36       P1  7957  0.93
      P1  H  7989  7998       L1    12  0.31

> <Gold.Chemscore.Hbond.Weighted>
-4.9635

> <Gold.Chemscore.Metal.Weighted>
-0.0000

> <Gold.Chemscore.Lipo.Weighted>
-10.6855

> <Gold.Chemscore.Internal_Hbond.Weighted>
0.0000

> <Gold.Chemscore.DEClash.Weighted>
0.0646

> <Gold.Chemscore.DEInternal.Weighted>
1.8548

> <Gold.Chemscore.Rot.Weighted>
6.1395

> <Gold.Chemscore.Internal.Correction.Weighted>
   9.000000E+99

> <Gold.Protein.RotatedTorsions>
[ 6907 6896 6895 6894 ] final -116.37 input  -60.11 | X-H torsion
[ 7974 7965 7964 7962 ] final  106.43 input  175.53 | X-H torsion
[ 8008 7997 7996 7995 ] final -165.44 input   59.86 | X-H torsion
[ 10167 10162 10161 10158 ] final   92.90 input  -65.29 | X-H torsion
[ 10718 10713 10712 10709 ] final  -71.97 input   66.30 | X-H torsion
[ 10763 10752 10751 10750 ] final  -60.90 input  -60.55 | X-H torsion
[ 11005 11000 10999 10996 ] final -130.25 input  -57.11 | X-H torsion

> <Gold.Protein.ActiveResidues>
 VAL166  LYS551  ARG553  GLY616  TRP617  ASP618  TYR619  PRO620  LYS621  CYS622 
 ASP623  PHE694  ASN695  SER759  ASP760  ASP761  ALA762  ILE779  LEU786  VAL792 
 PHE793  MET794  SER795  GLU796  ALA797  LYS798  CYS799  TRP800  GLU811  SER814 

> <Gold.Protein.RotatedAtoms>
  150.8051  133.8526  159.3209 H   0  0  0  0  0  0  0  0  0  0  0  0  # atno 6907 bound_to 6896
  151.6328  135.1019  160.0134 H   0  0  0  0  0  0  0  0  0  0  0  0  # atno 6908 bound_to 6896
  152.4141  133.6969  159.6458 H   0  0  0  0  0  0  0  0  0  0  0  0  # atno 6909 bound_to 6896
  145.3067  139.2552  143.3784 H   0  0  0  0  0  0  0  0  0  0  0  0  # atno 7974 bound_to 7965
  155.8498  140.0961  157.1682 H   0  0  0  0  0  0  0  0  0  0  0  0  # atno 8008 bound_to 7997
  154.3985  140.1385  156.3892 H   0  0  0  0  0  0  0  0  0  0  0  0  # atno 8009 bound_to 7997
  155.7974  140.3454  155.5386 H   0  0  0  0  0  0  0  0  0  0  0  0  # atno 8010 bound_to 7997
  139.8232  144.6721  150.9492 H   0  0  0  0  0  0  0  0  0  0  0  0  # atno 10167 bound_to 10162
  156.0340  130.4362  150.2523 H   0  0  0  0  0  0  0  0  0  0  0  0  # atno 10718 bound_to 10713
  154.2764  135.6280  153.5330 H   0  0  0  0  0  0  0  0  0  0  0  0  # atno 10763 bound_to 10752
  152.9872  135.5622  154.5544 H   0  0  0  0  0  0  0  0  0  0  0  0  # atno 10764 bound_to 10752
  154.5125  135.2878  155.1306 H   0  0  0  0  0  0  0  0  0  0  0  0  # atno 10765 bound_to 10752
  140.9362  134.1254  157.4191 H   0  0  0  0  0  0  0  0  0  0  0  0  # atno 11005 bound_to 11000
  146.3132  140.3594  142.8663 LP  0  0  0  0  0  0  0  0  0  0  0  0  # atno 17320 bound_to 7965
  144.9049  140.7687  143.5844 LP  0  0  0  0  0  0  0  0  0  0  0  0  # atno 17321 bound_to 7965
  140.7812  143.4071  151.1052 LP  0  0  0  0  0  0  0  0  0  0  0  0  # atno 17342 bound_to 10162
  139.7730  143.8466  152.3124 LP  0  0  0  0  0  0  0  0  0  0  0  0  # atno 17343 bound_to 10162
  157.0623  131.0093  151.3218 LP  0  0  0  0  0  0  0  0  0  0  0  0  # atno 17370 bound_to 10713
  157.5061  130.7909  149.7655 LP  0  0  0  0  0  0  0  0  0  0  0  0  # atno 17371 bound_to 10713
  139.8808  135.0021  156.6110 LP  0  0  0  0  0  0  0  0  0  0  0  0  # atno 17394 bound_to 11000
  140.7796  133.8671  155.8557 LP  0  0  0  0  0  0  0  0  0  0  0  0  # atno 17395 bound_to 11000

$$$$
