AV-unprocessed.smi:2786|AV-procd|sdf|10754|dock8
  -GOLD-   2272015183D 1   1.00000     0.00000
 Structure written by MMmdl.
 26 27  0  0  0  0  0  0  0  0  1 V2000
  152.3380  141.6648  159.8084 C   0  0  0  0  0  0  0  0  0  0  0  0
  152.2088  142.8808  159.0291 N   0  0  0  0  0  0  0  0  0  0  0  0
  152.7735  144.1101  159.3425 C   0  0  0  0  0  0  0  0  0  0  0  0
  152.4113  144.9770  158.3405 C   0  0  0  0  0  0  0  0  0  0  0  0
  151.6304  144.3027  157.4086 N   0  0  0  0  0  0  0  0  0  0  0  0
  151.5355  143.0591  157.8751 C   0  0  0  0  0  0  0  0  0  0  0  0
  150.7941  141.9505  157.1831 C   0  0  2  0  0  0  0  0  0  0  0  0
  151.7131  140.7321  156.9471 C   0  0  0  0  0  0  0  0  0  0  0  0
  150.9887  139.6481  156.2795 N   0  0  0  0  0  0  0  0  0  0  0  0
  150.4136  140.1042  155.0133 C   0  0  0  0  0  0  0  0  0  0  0  0
  149.4886  141.3132  155.2430 C   0  0  0  0  0  0  0  0  0  0  0  0
  150.2108  142.3975  155.9115 N   0  0  0  0  0  0  0  0  0  0  0  0
  153.0446  141.8148  160.6252 H   0  0  0  0  0  0  0  0  0  0  0  0
  152.7007  140.8548  159.1749 H   0  0  0  0  0  0  0  0  0  0  0  0
  151.3689  141.3905  160.2259 H   0  0  0  0  0  0  0  0  0  0  0  0
  153.3737  144.2619  160.2278 H   0  0  0  0  0  0  0  0  0  0  0  0
  152.6517  146.0226  158.2177 H   0  0  0  0  0  0  0  0  0  0  0  0
  149.9785  141.6365  157.8351 H   0  0  0  0  0  0  0  0  0  0  0  0
  152.5741  141.0284  156.3462 H   0  0  0  0  0  0  0  0  0  0  0  0
  152.1078  140.3771  157.8993 H   0  0  0  0  0  0  0  0  0  0  0  0
  151.6249  138.8773  156.1026 H   0  0  0  0  0  0  0  0  0  0  0  0
  151.2096  140.3747  154.3182 H   0  0  0  0  0  0  0  0  0  0  0  0
  149.8543  139.2940  154.5456 H   0  0  0  0  0  0  0  0  0  0  0  0
  149.0945  141.6635  154.2890 H   0  0  0  0  0  0  0  0  0  0  0  0
  148.6289  141.0119  155.8432 H   0  0  0  0  0  0  0  0  0  0  0  0
  149.5737  143.1674  156.0881 H   0  0  0  0  0  0  0  0  0  0  0  0
  1  2  1  0  0  0  0
  1 13  1  0  0  0  0
  1 14  1  0  0  0  0
  1 15  1  0  0  0  0
  2  6  1  0  0  0  0
  2  3  1  0  0  0  0
  3  4  2  0  0  0  0
  3 16  1  0  0  0  0
  4  5  1  0  0  0  0
  4 17  1  0  0  0  0
  5  6  2  0  0  0  0
  6  7  1  0  0  0  0
  7 12  1  0  0  0  0
  7  8  1  0  0  0  0
  7 18  1  0  0  0  0
  8  9  1  0  0  0  0
  8 19  1  0  0  0  0
  8 20  1  0  0  0  0
  9 10  1  0  0  0  0
  9 21  1  0  0  0  0
 10 11  1  0  0  0  0
 10 22  1  0  0  0  0
 10 23  1  0  0  0  0
 11 12  1  0  0  0  0
 11 24  1  0  0  0  0
 11 25  1  0  0  0  0
 12 26  1  0  0  0  0
M  END
> <s_m_source_file>
AV-unprocessed.smi

> <i_m_source_file_index>
2786

> <i_lp_mmshare_version>
43012

> <i_f3d_flags>
0

> <s_epik_input>
W0NIM11uMVtjSF1bY0hdbmMxW0NAQEhdMltDSDJdW05IXVtDSDJdW0NIMl1bTkhdMg==

> <s_epik_cmdline>
J2VwaWtfcHl0aG9uJywgJy1waCcsICc3LjAnLCAnLXRuJywgJzgnLCAnLW1hJywgJzIwMCcsICctbWV0YWxfYmluZGluZycsICctaW1hZScsICc8aW5maWxlLm1hZT4nLCAnLW9tYWUnLCAnPG91dGZpbGUubWFlPic=

> <r_lp_tautomer_probability>
1

> <r_epik_Ionization_Penalty>
3.5722

> <r_epik_Ionization_Penalty_Charging>
1.66148

> <r_epik_Ionization_Penalty_Neutral>
1.91072

> <r_epik_State_Penalty>
2.63328

> <r_epik_Charging_Adjusted_Penalty>
4.29476

> <i_epik_Tot_Q>
0

> <i_epik_Tot_abs_Q>
0

> <r_epik_Metal_State_Penalty>
0.942173

> <b_epik_Metal_Only>
0

> <s_lp_Force_Field>
OPLS_2005

> <r_lp_Energy>
22.0451

> <b_lp_Chiralities_Consistent>
1

> <s_lp_Variant>
AV-unprocessed.smi:2786-7

> <Gold.Version>
5.8.1

> <Gold.Id.Protein>
6NUR|6NUR_protein|mol2

> <Gold.PLP.Fitness>
31.5127

> <Gold.PLP.PLP>
-28.5727

> <Gold.PLP.part.hbond>
-1.0000

> <Gold.PLP.part.metal>
0.0000

> <Gold.PLP.part.buried>
-2.6363

> <Gold.PLP.part.nonpolar>
-23.7296

> <Gold.PLP.part.repulsive>
0.1417

> <Gold.PLP.ligand.clash>
0.0000

> <Gold.PLP.ligand.torsion>
0.0375

> <Gold.PLP.Chemscore.Hbond>
1.0000

> <Gold.PLP.Chemscore.CHOScore>
0.0000

> <Gold.PLP.Chemscore.Metal>
0.0000

> <Gold.Chemscore.Hbonds>
donor molecule, donor type, donor heavy atom, donor atom, acceptor molecule, acceptor atom, score
      L1  H    12    26       P1  8028  1.00

> <Gold.PLP.Chemscore.Internal.Correction>
0.0150

> <Gold.Rescore>
     Score         DG    S(hbond)    S(metal)    S(lipo)     H(rot)  DE(clash)    DE(int)     intcor
     13.85     -13.95       1.00        0.00      65.90       1.00       0.09       0.01       ----

> <Gold.Chemscore.Fitness>
13.8500

> <Gold.Chemscore.DG>
-13.9542

> <Gold.Chemscore.ZeroCoef>
-5.4800

> <Gold.Chemscore.Hbond>
0.9952

> <Gold.Chemscore.Metal>
0.0000

> <Gold.Chemscore.Lipo>
65.8995

> <Gold.Chemscore.Internal_Hbond>
0.0000

> <Gold.Chemscore.DEClash>
0.0910

> <Gold.Chemscore.DEInternal>
0.0132

> <Gold.Chemscore.Rot>
1.0000

> <Gold.Chemscore.Internal.Correction>
   9.000000E+99

> <Gold.Chemscore.Hbonds>
donor molecule, donor type, donor heavy atom, donor atom, acceptor molecule, acceptor atom, score
      L1  H    12    26       P1  8028  0.95

> <Gold.Chemscore.Hbond.Weighted>
-3.3240

> <Gold.Chemscore.Metal.Weighted>
-0.0000

> <Gold.Chemscore.Lipo.Weighted>
-7.7102

> <Gold.Chemscore.Internal_Hbond.Weighted>
0.0000

> <Gold.Chemscore.DEClash.Weighted>
0.0910

> <Gold.Chemscore.DEInternal.Weighted>
0.0132

> <Gold.Chemscore.Rot.Weighted>
2.5600

> <Gold.Chemscore.Internal.Correction.Weighted>
   9.000000E+99

> <Gold.Protein.RotatedTorsions>
[ 6907 6896 6895 6894 ] final  -29.77 input  -60.11 | X-H torsion
[ 7974 7965 7964 7962 ] final  142.10 input  175.53 | X-H torsion
[ 8008 7997 7996 7995 ] final -155.20 input   59.86 | X-H torsion
[ 10167 10162 10161 10158 ] final  110.95 input  -65.29 | X-H torsion
[ 10718 10713 10712 10709 ] final  135.03 input   66.30 | X-H torsion
[ 10763 10752 10751 10750 ] final   89.56 input  -60.55 | X-H torsion
[ 11005 11000 10999 10996 ] final   -6.21 input  -57.11 | X-H torsion

> <Gold.Protein.ActiveResidues>
 VAL166  LYS551  ARG553  GLY616  TRP617  ASP618  TYR619  PRO620  LYS621  CYS622 
 ASP623  PHE694  ASN695  SER759  ASP760  ASP761  ALA762  ILE779  LEU786  VAL792 
 PHE793  MET794  SER795  GLU796  ALA797  LYS798  CYS799  TRP800  GLU811  SER814 

> <Gold.Protein.RotatedAtoms>
  151.1147  135.0046  159.8510 H   0  0  0  0  0  0  0  0  0  0  0  0  # atno 6907 bound_to 6896
  152.5445  134.1794  159.8639 H   0  0  0  0  0  0  0  0  0  0  0  0  # atno 6908 bound_to 6896
  151.1847  133.4659  159.2627 H   0  0  0  0  0  0  0  0  0  0  0  0  # atno 6909 bound_to 6896
  144.9037  139.5388  143.5741 H   0  0  0  0  0  0  0  0  0  0  0  0  # atno 7974 bound_to 7965
  155.6982  140.0763  157.2421 H   0  0  0  0  0  0  0  0  0  0  0  0  # atno 8008 bound_to 7997
  154.4077  140.1652  156.2214 H   0  0  0  0  0  0  0  0  0  0  0  0  # atno 8009 bound_to 7997
  155.9391  140.3386  155.6315 H   0  0  0  0  0  0  0  0  0  0  0  0  # atno 8010 bound_to 7997
  139.6649  144.7128  151.1796 H   0  0  0  0  0  0  0  0  0  0  0  0  # atno 10167 bound_to 10162
  157.4613  131.1073  150.9917 H   0  0  0  0  0  0  0  0  0  0  0  0  # atno 10718 bound_to 10713
  153.1884  135.4466  155.0118 H   0  0  0  0  0  0  0  0  0  0  0  0  # atno 10763 bound_to 10752
  154.8075  135.3280  154.7396 H   0  0  0  0  0  0  0  0  0  0  0  0  # atno 10764 bound_to 10752
  153.7852  135.6974  153.4936 H   0  0  0  0  0  0  0  0  0  0  0  0  # atno 10765 bound_to 10752
  140.6995  133.9002  155.8673 H   0  0  0  0  0  0  0  0  0  0  0  0  # atno 11005 bound_to 11000
  146.3122  139.7788  142.9011 LP  0  0  0  0  0  0  0  0  0  0  0  0  # atno 17320 bound_to 7965
  145.3572  141.0319  143.3305 LP  0  0  0  0  0  0  0  0  0  0  0  0  # atno 17321 bound_to 7965
  140.7595  143.5935  150.8772 LP  0  0  0  0  0  0  0  0  0  0  0  0  # atno 17342 bound_to 10162
  139.9596  143.6179  152.3006 LP  0  0  0  0  0  0  0  0  0  0  0  0  # atno 17343 bound_to 10162
  157.0713  130.5865  149.5403 LP  0  0  0  0  0  0  0  0  0  0  0  0  # atno 17370 bound_to 10713
  156.0030  130.5112  150.7730 LP  0  0  0  0  0  0  0  0  0  0  0  0  # atno 17371 bound_to 10713
  141.0175  134.0935  157.4156 LP  0  0  0  0  0  0  0  0  0  0  0  0  # atno 17394 bound_to 11000
  139.8901  135.0109  156.6715 LP  0  0  0  0  0  0  0  0  0  0  0  0  # atno 17395 bound_to 11000

$$$$
