AV-unprocessed.smi:1563|AV-procd|sdf|6290|dock3
  -GOLD-   22720 6493D 1   1.00000     0.00000
 Structure written by MMmdl.
 43 44  0  0  0  0  0  0  0  0  1 V2000
  148.4440  133.4247  153.7398 C   0  0  0  0  0  0  0  0  0  0  0  0
  149.1309  134.2698  154.8073 C   0  0  0  0  0  0  0  0  0  0  0  0
  149.2326  133.8448  155.9577 O   0  0  0  0  0  0  0  0  0  0  0  0
  149.6034  135.4614  154.4113 N   0  0  0  0  0  0  0  0  0  0  0  0
  150.2994  136.4156  155.2683 C   0  0  1  0  0  0  0  0  0  0  0  0
  151.2998  135.6890  156.1971 C   0  0  0  0  0  0  0  0  0  0  0  0
  152.2006  136.6769  156.9636 C   0  0  0  0  0  0  0  0  0  0  0  0
  152.8262  137.7100  156.0093 C   0  0  0  0  0  0  0  0  0  0  0  0
  151.7414  138.3922  155.2841 N   0  0  0  0  0  0  0  0  0  0  0  0
  151.2588  139.6331  155.5470 C   0  0  0  0  0  0  0  0  0  0  0  0
  150.6006  140.2863  154.7359 O   0  0  0  0  0  0  0  0  0  0  0  0
  151.5670  140.1110  156.7646 N   0  0  0  0  0  0  0  0  0  0  0  0
  151.1380  141.4002  157.2941 C   0  0  0  0  0  0  0  0  0  0  0  0
  151.4961  141.5437  158.7829 C   0  0  0  0  0  0  0  0  0  0  0  0
  151.5785  142.9943  159.2175 C   0  0  0  0  0  0  0  0  0  0  0  0
  152.1566  143.9660  158.3729 C   0  0  0  0  0  0  0  0  0  0  0  0
  152.2141  145.2985  158.8246 C   0  0  0  0  0  0  0  0  0  0  0  0
  151.6955  145.6065  160.0970 C   0  0  0  0  0  0  0  0  0  0  0  0
  151.1406  144.5631  160.8648 C   0  0  0  0  0  0  0  0  0  0  0  0
  151.0802  143.2819  160.4413 N   0  0  0  0  0  0  0  0  0  0  0  0
  151.0311  137.4596  154.4002 C   0  0  0  0  0  0  0  0  0  0  0  0
  147.8413  134.0473  153.0777 H   0  0  0  0  0  0  0  0  0  0  0  0
  147.7887  132.6836  154.1986 H   0  0  0  0  0  0  0  0  0  0  0  0
  149.1878  132.8998  153.1398 H   0  0  0  0  0  0  0  0  0  0  0  0
  149.4727  135.7261  153.4458 H   0  0  0  0  0  0  0  0  0  0  0  0
  149.5661  136.9428  155.8822 H   0  0  0  0  0  0  0  0  0  0  0  0
  150.7693  135.0475  156.9015 H   0  0  0  0  0  0  0  0  0  0  0  0
  151.9326  135.0313  155.5996 H   0  0  0  0  0  0  0  0  0  0  0  0
  151.6113  137.1936  157.7224 H   0  0  0  0  0  0  0  0  0  0  0  0
  152.9822  136.1334  157.4948 H   0  0  0  0  0  0  0  0  0  0  0  0
  153.4792  138.3830  156.5646 H   0  0  0  0  0  0  0  0  0  0  0  0
  153.4774  137.2067  155.2932 H   0  0  0  0  0  0  0  0  0  0  0  0
  152.1204  139.5280  157.3755 H   0  0  0  0  0  0  0  0  0  0  0  0
  151.6276  142.1836  156.7151 H   0  0  0  0  0  0  0  0  0  0  0  0
  150.0643  141.5278  157.1448 H   0  0  0  0  0  0  0  0  0  0  0  0
  150.7564  141.0318  159.4000 H   0  0  0  0  0  0  0  0  0  0  0  0
  152.4516  141.0578  158.9868 H   0  0  0  0  0  0  0  0  0  0  0  0
  152.5485  143.6981  157.4026 H   0  0  0  0  0  0  0  0  0  0  0  0
  152.6489  146.0701  158.2065 H   0  0  0  0  0  0  0  0  0  0  0  0
  151.7227  146.6175  160.4758 H   0  0  0  0  0  0  0  0  0  0  0  0
  150.7349  144.7632  161.8454 H   0  0  0  0  0  0  0  0  0  0  0  0
  151.7490  136.9700  153.7401 H   0  0  0  0  0  0  0  0  0  0  0  0
  150.3251  137.9670  153.7407 H   0  0  0  0  0  0  0  0  0  0  0  0
  1  2  1  0  0  0  0
  1 22  1  0  0  0  0
  1 23  1  0  0  0  0
  1 24  1  0  0  0  0
  2  3  2  0  0  0  0
  2  4  1  0  0  0  0
  4  5  1  0  0  0  0
  4 25  1  0  0  0  0
  5 21  1  0  0  0  0
  5  6  1  0  0  0  0
  5 26  1  0  0  0  0
  6  7  1  0  0  0  0
  6 27  1  0  0  0  0
  6 28  1  0  0  0  0
  7  8  1  0  0  0  0
  7 29  1  0  0  0  0
  7 30  1  0  0  0  0
  8  9  1  0  0  0  0
  8 31  1  0  0  0  0
  8 32  1  0  0  0  0
  9 10  1  0  0  0  0
  9 21  1  0  0  0  0
 10 11  2  0  0  0  0
 10 12  1  0  0  0  0
 12 13  1  0  0  0  0
 12 33  1  0  0  0  0
 13 14  1  0  0  0  0
 13 34  1  0  0  0  0
 13 35  1  0  0  0  0
 14 15  1  0  0  0  0
 14 36  1  0  0  0  0
 14 37  1  0  0  0  0
 15 20  1  0  0  0  0
 15 16  2  0  0  0  0
 16 17  1  0  0  0  0
 16 38  1  0  0  0  0
 17 18  2  0  0  0  0
 17 39  1  0  0  0  0
 18 19  1  0  0  0  0
 18 40  1  0  0  0  0
 19 20  2  0  0  0  0
 19 41  1  0  0  0  0
 21 42  1  0  0  0  0
 21 43  1  0  0  0  0
M  END
> <s_m_source_file>
AV-unprocessed.smi

> <i_m_source_file_index>
1563

> <i_lp_mmshare_version>
43012

> <i_f3d_flags>
0

> <s_epik_input>
W0NIM11DKD1PKVtOSF1bQ0BASF0xW0NIMl1bQ0gyXVtDSDJdTihbQ0gyXTEpQyg9TylbTkhdW0NIMl1bQ0gyXWMyW2NIXVtjSF1bY0hdW2NIXW4y

> <s_epik_cmdline>
J2VwaWtfcHl0aG9uJywgJy1waCcsICc3LjAnLCAnLXRuJywgJzgnLCAnLW1hJywgJzIwMCcsICctbWV0YWxfYmluZGluZycsICctaW1hZScsICc8aW5maWxlLm1hZT4nLCAnLW9tYWUnLCAnPG91dGZpbGUubWFlPic=

> <r_epik_Ionization_Penalty>
0.0442074

> <r_epik_Ionization_Penalty_Charging>
0

> <r_epik_Ionization_Penalty_Neutral>
0.0442074

> <r_epik_State_Penalty>
0.0374027

> <r_epik_Charging_Adjusted_Penalty>
0.0374027

> <i_epik_Tot_Q>
0

> <i_epik_Tot_abs_Q>
0

> <r_epik_Metal_State_Penalty>
0.0347963

> <b_epik_Metal_Only>
0

> <s_lp_Force_Field>
OPLS_2005

> <r_lp_Energy>
22.675

> <b_lp_Chiralities_Consistent>
1

> <s_lp_Variant>
AV-unprocessed.smi:1563-2

> <Gold.Version>
5.8.1

> <Gold.Id.Protein>
6NUR|6NUR_protein|mol2

> <Gold.PLP.Fitness>
46.9231

> <Gold.PLP.PLP>
-42.7552

> <Gold.PLP.part.hbond>
-3.0000

> <Gold.PLP.part.metal>
0.0000

> <Gold.PLP.part.buried>
-3.6401

> <Gold.PLP.part.nonpolar>
-37.2627

> <Gold.PLP.part.repulsive>
0.3205

> <Gold.PLP.ligand.clash>
0.0000

> <Gold.PLP.ligand.torsion>
0.9426

> <Gold.PLP.Chemscore.Hbond>
2.0000

> <Gold.PLP.Chemscore.CHOScore>
0.0000

> <Gold.PLP.Chemscore.Metal>
0.0000

> <Gold.Chemscore.Hbonds>
donor molecule, donor type, donor heavy atom, donor atom, acceptor molecule, acceptor atom, score
      L1  H     4    25       P1  7948  1.00
      P1  H  7989  7998       L1    11  1.00

> <Gold.PLP.Chemscore.Internal.Correction>
0.0529

> <Gold.Rescore>
     Score         DG    S(hbond)    S(metal)    S(lipo)     H(rot)  DE(clash)    DE(int)     intcor
     16.83     -19.65       1.72        0.00     108.74       1.68       0.23       2.59       ----

> <Gold.Chemscore.Fitness>
16.8268

> <Gold.Chemscore.DG>
-19.6462

> <Gold.Chemscore.ZeroCoef>
-5.4800

> <Gold.Chemscore.Hbond>
1.7208

> <Gold.Chemscore.Metal>
0.0000

> <Gold.Chemscore.Lipo>
108.7422

> <Gold.Chemscore.Internal_Hbond>
0.0000

> <Gold.Chemscore.DEClash>
0.2294

> <Gold.Chemscore.DEInternal>
2.5899

> <Gold.Chemscore.Rot>
1.6813

> <Gold.Chemscore.Internal.Correction>
   9.000000E+99

> <Gold.Chemscore.Hbonds>
donor molecule, donor type, donor heavy atom, donor atom, acceptor molecule, acceptor atom, score
      L1  H     4    25       P1  7948  0.26
      P1  H  7989  7998       L1    11  0.74

> <Gold.Chemscore.Hbond.Weighted>
-5.7476

> <Gold.Chemscore.Metal.Weighted>
-0.0000

> <Gold.Chemscore.Lipo.Weighted>
-12.7228

> <Gold.Chemscore.Internal_Hbond.Weighted>
0.0000

> <Gold.Chemscore.DEClash.Weighted>
0.2294

> <Gold.Chemscore.DEInternal.Weighted>
2.5899

> <Gold.Chemscore.Rot.Weighted>
4.3042

> <Gold.Chemscore.Internal.Correction.Weighted>
   9.000000E+99

> <Gold.Protein.RotatedTorsions>
[ 6907 6896 6895 6894 ] final  120.98 input  -60.11 | X-H torsion
[ 7974 7965 7964 7962 ] final   90.77 input  175.53 | X-H torsion
[ 8008 7997 7996 7995 ] final   35.16 input   59.86 | X-H torsion
[ 10167 10162 10161 10158 ] final  -97.90 input  -65.29 | X-H torsion
[ 10718 10713 10712 10709 ] final  139.27 input   66.30 | X-H torsion
[ 10763 10752 10751 10750 ] final   25.82 input  -60.55 | X-H torsion
[ 11005 11000 10999 10996 ] final   91.75 input  -57.11 | X-H torsion

> <Gold.Protein.ActiveResidues>
 VAL166  LYS551  ARG553  GLY616  TRP617  ASP618  TYR619  PRO620  LYS621  CYS622 
 ASP623  PHE694  ASN695  SER759  ASP760  ASP761  ALA762  ILE779  LEU786  VAL792 
 PHE793  MET794  SER795  GLU796  ALA797  LYS798  CYS799  TRP800  GLU811  SER814 

> <Gold.Protein.RotatedAtoms>
  152.4357  133.7356  159.6611 H   0  0  0  0  0  0  0  0  0  0  0  0  # atno 6907 bound_to 6896
  150.8240  133.8192  159.3132 H   0  0  0  0  0  0  0  0  0  0  0  0  # atno 6908 bound_to 6896
  151.5866  135.1058  160.0081 H   0  0  0  0  0  0  0  0  0  0  0  0  # atno 6909 bound_to 6896
  145.5146  139.2277  143.2706 H   0  0  0  0  0  0  0  0  0  0  0  0  # atno 7974 bound_to 7965
  155.1666  140.3288  155.4401 H   0  0  0  0  0  0  0  0  0  0  0  0  # atno 8008 bound_to 7997
  156.2524  140.1951  156.6721 H   0  0  0  0  0  0  0  0  0  0  0  0  # atno 8009 bound_to 7997
  154.6367  140.0575  156.9783 H   0  0  0  0  0  0  0  0  0  0  0  0  # atno 8010 bound_to 7997
  140.2786  143.3296  152.0463 H   0  0  0  0  0  0  0  0  0  0  0  0  # atno 10167 bound_to 10162
  157.4162  131.1033  151.0402 H   0  0  0  0  0  0  0  0  0  0  0  0  # atno 10718 bound_to 10713
  153.0665  135.6574  154.0343 H   0  0  0  0  0  0  0  0  0  0  0  0  # atno 10763 bound_to 10752
  153.9998  135.2938  155.3405 H   0  0  0  0  0  0  0  0  0  0  0  0  # atno 10764 bound_to 10752
  154.7025  135.5239  153.8616 H   0  0  0  0  0  0  0  0  0  0  0  0  # atno 10765 bound_to 10752
  139.8834  134.8693  156.3473 H   0  0  0  0  0  0  0  0  0  0  0  0  # atno 11005 bound_to 11000
  146.2145  140.5954  142.9044 LP  0  0  0  0  0  0  0  0  0  0  0  0  # atno 17320 bound_to 7965
  144.7709  140.5635  143.6671 LP  0  0  0  0  0  0  0  0  0  0  0  0  # atno 17321 bound_to 7965
  139.4969  144.6607  151.6471 LP  0  0  0  0  0  0  0  0  0  0  0  0  # atno 17342 bound_to 10162
  140.5830  143.9912  150.6279 LP  0  0  0  0  0  0  0  0  0  0  0  0  # atno 17343 bound_to 10162
  157.1348  130.6118  149.5539 LP  0  0  0  0  0  0  0  0  0  0  0  0  # atno 17370 bound_to 10713
  155.9866  130.4901  150.7086 LP  0  0  0  0  0  0  0  0  0  0  0  0  # atno 17371 bound_to 10713
  140.9618  133.7384  156.0411 LP  0  0  0  0  0  0  0  0  0  0  0  0  # atno 17394 bound_to 11000
  140.7980  134.3541  157.5447 LP  0  0  0  0  0  0  0  0  0  0  0  0  # atno 17395 bound_to 11000

$$$$
