AV-unprocessed.smi:1867|AV-procd|sdf|7566|dock4
  -GOLD-   22720 9283D 1   1.00000     0.00000
 Structure written by MMmdl.
 52 55  0  0  0  0  0  0  0  0  2 V2000
  148.8886  137.2907  156.9593 O   0  0  0  0  0  0  0  0  0  0  0  0
  149.0853  137.5668  155.7784 C   0  0  0  0  0  0  0  0  0  0  0  0
  149.6497  138.7093  155.3411 N   0  0  0  0  0  0  0  0  0  0  0  0
  150.1879  139.7789  156.1042 C   0  0  0  0  0  0  0  0  0  0  0  0
  150.3984  141.0125  155.4586 C   0  0  0  0  0  0  0  0  0  0  0  0
  150.9486  142.0853  156.1847 C   0  0  0  0  0  0  0  0  0  0  0  0
  151.2847  141.8931  157.5461 C   0  0  0  0  0  0  0  0  0  0  0  0
  151.8418  142.9360  158.3129 N   0  0  0  0  0  0  0  0  0  0  0  0
  151.4721  144.3278  158.1124 C   0  0  0  0  0  0  0  0  0  0  0  0
  152.1840  145.0858  159.2326 C   0  0  0  0  0  0  0  0  0  0  0  0
  152.2223  144.0689  160.3732 C   0  0  0  0  0  0  0  0  0  0  0  0
  152.3498  142.7176  159.6617 C   0  0  0  0  0  0  0  0  0  0  0  0
  151.1024  140.7004  158.1611 N   0  0  0  0  0  0  0  0  0  0  0  0
  150.5711  139.6754  157.4622 C   0  0  0  0  0  0  0  0  0  0  0  0
  148.7220  136.7187  154.7985 N   0  0  0  0  0  0  0  0  0  0  0  0
  148.0880  135.4016  154.9148 C   0  0  2  0  0  0  0  0  0  0  0  0
  149.0093  134.2565  154.4508 C   0  0  0  0  0  0  0  0  0  0  0  0
  148.0886  133.3039  153.6817 C   0  0  0  0  0  0  0  0  0  0  0  0
  147.1159  134.2148  153.0684 N   0  3  1  0  0  0  0  0  0  0  0  0
  145.9126  133.6398  152.4336 C   0  0  0  0  0  0  0  0  0  0  0  0
  145.1583  134.7725  151.7044 C   0  0  0  0  0  0  0  0  0  0  0  0
  144.8797  135.9795  152.6287 C   0  0  0  0  0  0  0  0  0  0  0  0
  146.1549  136.4488  153.3626 C   0  0  0  0  0  0  0  0  0  0  0  0
  146.7967  135.2433  154.0738 C   0  0  2  0  0  0  0  0  0  0  0  0
  149.6573  138.8464  154.3413 H   0  0  0  0  0  0  0  0  0  0  0  0
  150.1385  141.1408  154.4178 H   0  0  0  0  0  0  0  0  0  0  0  0
  151.1049  143.0313  155.6884 H   0  0  0  0  0  0  0  0  0  0  0  0
  151.7764  144.6902  157.1301 H   0  0  0  0  0  0  0  0  0  0  0  0
  150.3902  144.4326  158.2028 H   0  0  0  0  0  0  0  0  0  0  0  0
  153.2016  145.3304  158.9245 H   0  0  0  0  0  0  0  0  0  0  0  0
  151.6802  146.0142  159.5030 H   0  0  0  0  0  0  0  0  0  0  0  0
  153.0311  144.2516  161.0812 H   0  0  0  0  0  0  0  0  0  0  0  0
  151.2810  144.1050  160.9233 H   0  0  0  0  0  0  0  0  0  0  0  0
  151.7993  141.9424  160.1963 H   0  0  0  0  0  0  0  0  0  0  0  0
  153.3944  142.4114  159.5962 H   0  0  0  0  0  0  0  0  0  0  0  0
  150.4795  138.7532  158.0144 H   0  0  0  0  0  0  0  0  0  0  0  0
  148.9109  137.0293  153.8561 H   0  0  0  0  0  0  0  0  0  0  0  0
  147.8435  135.2089  155.9610 H   0  0  0  0  0  0  0  0  0  0  0  0
  149.7763  134.6373  153.7743 H   0  0  0  0  0  0  0  0  0  0  0  0
  149.5187  133.7639  155.2795 H   0  0  0  0  0  0  0  0  0  0  0  0
  148.6213  132.7124  152.9363 H   0  0  0  0  0  0  0  0  0  0  0  0
  147.5785  132.6240  154.3662 H   0  0  0  0  0  0  0  0  0  0  0  0
  146.2044  132.8646  151.7242 H   0  0  0  0  0  0  0  0  0  0  0  0
  145.2779  133.1695  153.1859 H   0  0  0  0  0  0  0  0  0  0  0  0
  145.7543  135.1075  150.8544 H   0  0  0  0  0  0  0  0  0  0  0  0
  144.2232  134.3936  151.2910 H   0  0  0  0  0  0  0  0  0  0  0  0
  144.4553  136.8024  152.0527 H   0  0  0  0  0  0  0  0  0  0  0  0
  144.1246  135.6996  153.3645 H   0  0  0  0  0  0  0  0  0  0  0  0
  146.8553  136.8893  152.6517 H   0  0  0  0  0  0  0  0  0  0  0  0
  145.8961  137.2278  154.0798 H   0  0  0  0  0  0  0  0  0  0  0  0
  146.0480  134.8198  154.7471 H   0  0  0  0  0  0  0  0  0  0  0  0
  147.6231  134.6920  152.3367 H   0  0  0  0  0  0  0  0  0  0  0  0
  1  2  2  0  0  0  0
  2  3  1  0  0  0  0
  2 15  1  0  0  0  0
  3  4  1  0  0  0  0
  3 25  1  0  0  0  0
  4 14  1  0  0  0  0
  4  5  2  0  0  0  0
  5  6  1  0  0  0  0
  5 26  1  0  0  0  0
  6  7  2  0  0  0  0
  6 27  1  0  0  0  0
  7  8  1  0  0  0  0
  7 13  1  0  0  0  0
  8 12  1  0  0  0  0
  8  9  1  0  0  0  0
  9 10  1  0  0  0  0
  9 28  1  0  0  0  0
  9 29  1  0  0  0  0
 10 11  1  0  0  0  0
 10 30  1  0  0  0  0
 10 31  1  0  0  0  0
 11 12  1  0  0  0  0
 11 32  1  0  0  0  0
 11 33  1  0  0  0  0
 12 34  1  0  0  0  0
 12 35  1  0  0  0  0
 13 14  2  0  0  0  0
 14 36  1  0  0  0  0
 15 16  1  0  0  0  0
 15 37  1  0  0  0  0
 16 24  1  0  0  0  0
 16 17  1  0  0  0  0
 16 38  1  0  0  0  0
 17 18  1  0  0  0  0
 17 39  1  0  0  0  0
 17 40  1  0  0  0  0
 18 19  1  0  0  0  0
 18 41  1  0  0  0  0
 18 42  1  0  0  0  0
 19 24  1  0  0  0  0
 19 20  1  0  0  0  0
 19 52  1  0  0  0  0
 20 21  1  0  0  0  0
 20 43  1  0  0  0  0
 20 44  1  0  0  0  0
 21 22  1  0  0  0  0
 21 45  1  0  0  0  0
 21 46  1  0  0  0  0
 22 23  1  0  0  0  0
 22 47  1  0  0  0  0
 22 48  1  0  0  0  0
 23 24  1  0  0  0  0
 23 49  1  0  0  0  0
 23 50  1  0  0  0  0
 24 51  1  0  0  0  0
M  CHG  1  19   1
M  END
> <s_m_source_file>
AV-unprocessed.smi

> <i_m_source_file_index>
1867

> <i_lp_mmshare_version>
43012

> <i_f3d_flags>
0

> <s_epik_input>
W0NIMl0xW0NIMl1bQ0gyXVtDSDJdW0NASF0oTjEyKVtDQEBIXShbQ0gyXVtDSDJdMilbTkhdQyg9TylbTkhdYzNbY0hdW2NIXWMobltjSF0zKU40W0NIMl1bQ0gyXVtDSDJdW0NIMl00

> <s_epik_cmdline>
J2VwaWtfcHl0aG9uJywgJy1waCcsICc3LjAnLCAnLXRuJywgJzgnLCAnLW1hJywgJzIwMCcsICctbWV0YWxfYmluZGluZycsICctaW1hZScsICc8aW5maWxlLm1hZT4nLCAnLW9tYWUnLCAnPG91dGZpbGUubWFlPic=

> <r_lp_tautomer_probability>
1

> <r_epik_Ionization_Penalty>
0.0751123

> <r_epik_Ionization_Penalty_Charging>
0.000974069

> <r_epik_Ionization_Penalty_Neutral>
0.0741382

> <r_epik_State_Penalty>
0.0647261

> <r_epik_Charging_Adjusted_Penalty>
0.0657002

> <i_epik_Tot_Q>
1

> <i_epik_Tot_abs_Q>
1

> <r_epik_Metal_State_Penalty>
0.0580571

> <b_epik_Metal_Only>
0

> <s_lp_Force_Field>
OPLS_2005

> <r_lp_Energy>
77.2507

> <b_lp_Chiralities_Consistent>
1

> <s_lp_Variant>
AV-unprocessed.smi:1867-7

> <Gold.Version>
5.8.1

> <Gold.Id.Protein>
6NUR|6NUR_protein|mol2

> <Gold.PLP.Fitness>
47.1312

> <Gold.PLP.PLP>
-40.0550

> <Gold.PLP.part.hbond>
-2.0000

> <Gold.PLP.part.metal>
0.0000

> <Gold.PLP.part.buried>
-2.2664

> <Gold.PLP.part.nonpolar>
-34.8053

> <Gold.PLP.part.repulsive>
0.0274

> <Gold.PLP.ligand.clash>
0.0000

> <Gold.PLP.ligand.torsion>
0.3596

> <Gold.PLP.Chemscore.Hbond>
2.5440

> <Gold.PLP.Chemscore.CHOScore>
0.0000

> <Gold.PLP.Chemscore.Metal>
0.0000

> <Gold.Chemscore.Hbonds>
donor molecule, donor type, donor heavy atom, donor atom, acceptor molecule, acceptor atom, score
      L1  H    15    37       P1  7948  0.57
      L1  H    19    52       P1  7948  1.84

> <Gold.PLP.Chemscore.Internal.Correction>
0.1634

> <Gold.Rescore>
     Score         DG    S(hbond)    S(metal)    S(lipo)     H(rot)  DE(clash)    DE(int)     intcor
     17.79     -19.42       1.32        0.00     103.24       1.00       0.13       1.50       ----

> <Gold.Chemscore.Fitness>
17.7911

> <Gold.Chemscore.DG>
-19.4175

> <Gold.Chemscore.ZeroCoef>
-5.4800

> <Gold.Chemscore.Hbond>
1.3229

> <Gold.Chemscore.Metal>
0.0000

> <Gold.Chemscore.Lipo>
103.2394

> <Gold.Chemscore.Internal_Hbond>
0.0000

> <Gold.Chemscore.DEClash>
0.1301

> <Gold.Chemscore.DEInternal>
1.4964

> <Gold.Chemscore.Rot>
1.0000

> <Gold.Chemscore.Internal.Correction>
   9.000000E+99

> <Gold.Chemscore.Hbonds>
donor molecule, donor type, donor heavy atom, donor atom, acceptor molecule, acceptor atom, score
      L1  H    15    37       P1  7948  0.57
      L1  H    19    52       P1  7948  0.68

> <Gold.Chemscore.Hbond.Weighted>
-4.4185

> <Gold.Chemscore.Metal.Weighted>
-0.0000

> <Gold.Chemscore.Lipo.Weighted>
-12.0790

> <Gold.Chemscore.Internal_Hbond.Weighted>
0.0000

> <Gold.Chemscore.DEClash.Weighted>
0.1301

> <Gold.Chemscore.DEInternal.Weighted>
1.4964

> <Gold.Chemscore.Rot.Weighted>
2.5600

> <Gold.Chemscore.Internal.Correction.Weighted>
   9.000000E+99

> <Gold.Protein.RotatedTorsions>
[ 6907 6896 6895 6894 ] final  150.27 input  -60.11 | X-H torsion
[ 7974 7965 7964 7962 ] final   79.72 input  175.53 | X-H torsion
[ 8008 7997 7996 7995 ] final  -17.78 input   59.86 | X-H torsion
[ 10167 10162 10161 10158 ] final -130.99 input  -65.29 | X-H torsion
[ 10718 10713 10712 10709 ] final  -95.15 input   66.30 | X-H torsion
[ 10763 10752 10751 10750 ] final  102.45 input  -60.55 | X-H torsion
[ 11005 11000 10999 10996 ] final   55.84 input  -57.11 | X-H torsion

> <Gold.Protein.ActiveResidues>
 VAL166  LYS551  ARG553  GLY616  TRP617  ASP618  TYR619  PRO620  LYS621  CYS622 
 ASP623  PHE694  ASN695  SER759  ASP760  ASP761  ALA762  ILE779  LEU786  VAL792 
 PHE793  MET794  SER795  GLU796  ALA797  LYS798  CYS799  TRP800  GLU811  SER814 

> <Gold.Protein.RotatedAtoms>
  152.1167  133.4330  159.4656 H   0  0  0  0  0  0  0  0  0  0  0  0  # atno 6907 bound_to 6896
  150.6870  134.2583  159.4548 H   0  0  0  0  0  0  0  0  0  0  0  0  # atno 6908 bound_to 6896
  152.0457  134.9684  160.0625 H   0  0  0  0  0  0  0  0  0  0  0  0  # atno 6909 bound_to 6896
  145.6605  139.2470  143.1925 H   0  0  0  0  0  0  0  0  0  0  0  0  # atno 7974 bound_to 7965
  154.4954  140.2133  155.9459 H   0  0  0  0  0  0  0  0  0  0  0  0  # atno 8008 bound_to 7997
  156.1362  140.3188  155.8393 H   0  0  0  0  0  0  0  0  0  0  0  0  # atno 8009 bound_to 7997
  155.4205  140.0496  157.3016 H   0  0  0  0  0  0  0  0  0  0  0  0  # atno 8010 bound_to 7997
  139.9236  143.6354  152.2547 H   0  0  0  0  0  0  0  0  0  0  0  0  # atno 10167 bound_to 10162
  156.0038  130.5097  150.6033 H   0  0  0  0  0  0  0  0  0  0  0  0  # atno 10718 bound_to 10713
  153.3397  135.4010  155.1562 H   0  0  0  0  0  0  0  0  0  0  0  0  # atno 10763 bound_to 10752
  154.8641  135.3630  154.5362 H   0  0  0  0  0  0  0  0  0  0  0  0  # atno 10764 bound_to 10752
  153.5806  135.7076  153.5524 H   0  0  0  0  0  0  0  0  0  0  0  0  # atno 10765 bound_to 10752
  140.0575  134.5649  155.9190 H   0  0  0  0  0  0  0  0  0  0  0  0  # atno 11005 bound_to 11000
  146.1129  140.7406  142.9494 LP  0  0  0  0  0  0  0  0  0  0  0  0  # atno 17320 bound_to 7965
  144.7090  140.3967  143.7095 LP  0  0  0  0  0  0  0  0  0  0  0  0  # atno 17321 bound_to 7965
  139.6841  144.7653  151.1555 LP  0  0  0  0  0  0  0  0  0  0  0  0  # atno 17342 bound_to 10162
  140.7656  143.5682  150.9024 LP  0  0  0  0  0  0  0  0  0  0  0  0  # atno 17343 bound_to 10162
  157.3878  131.0791  151.1420 LP  0  0  0  0  0  0  0  0  0  0  0  0  # atno 17370 bound_to 10713
  157.2121  130.6443  149.5778 LP  0  0  0  0  0  0  0  0  0  0  0  0  # atno 17371 bound_to 10713
  141.1959  133.6589  156.5664 LP  0  0  0  0  0  0  0  0  0  0  0  0  # atno 17394 bound_to 11000
  140.3821  134.7514  157.4667 LP  0  0  0  0  0  0  0  0  0  0  0  0  # atno 17395 bound_to 11000

$$$$
