AV-unprocessed.smi:628|AV-procd|sdf|3114|dock3
  -GOLD-   22720 0 33D 1   1.00000     0.00000
 Structure written by MMmdl.
 31 32  0  0  0  0  0  0  0  0  2 V2000
  146.2851  131.0046  154.1853 O   0  0  0  0  0  0  0  0  0  0  0  0
  147.1316  130.9838  153.2901 C   0  0  0  0  0  0  0  0  0  0  0  0
  148.6247  130.8283  153.6058 C   0  0  0  0  0  0  0  0  0  0  0  0
  149.1999  132.0074  154.2318 N   0  0  0  0  0  0  0  0  0  0  0  0
  150.0323  132.0666  155.3339 C   0  0  0  0  0  0  0  0  0  0  0  0
  150.2888  133.3913  155.5197 C   0  0  0  0  0  0  0  0  0  0  0  0
  151.1456  133.9941  156.5874 C   0  0  0  0  0  0  0  0  0  0  0  0
  151.4276  133.2985  157.5878 O   0  0  0  0  0  0  0  0  0  0  0  0
  151.5444  135.1702  156.4377 O   0  5  0  0  0  0  0  0  0  0  0  0
  149.5847  134.0871  154.5030 C   0  0  0  0  0  0  0  0  0  0  0  0
  148.9284  133.2386  153.7234 N   0  0  0  0  0  0  0  0  0  0  0  0
  146.8220  131.0878  151.9888 N   0  0  0  0  0  0  0  0  0  0  0  0
  145.4714  131.2467  151.4557 C   0  0  0  0  0  0  0  0  0  0  0  0
  145.4881  131.5465  149.9429 C   0  0  0  0  0  0  0  0  0  0  0  0
  145.0890  133.0151  149.8001 C   0  0  0  0  0  0  0  0  0  0  0  0
  144.1543  133.2626  150.9796 C   0  0  0  0  0  0  0  0  0  0  0  0
  144.7574  132.4401  152.1199 C   0  0  0  0  0  0  0  0  0  0  0  0
  148.7639  129.9789  154.2757 H   0  0  0  0  0  0  0  0  0  0  0  0
  149.1725  130.6076  152.6883 H   0  0  0  0  0  0  0  0  0  0  0  0
  150.3576  131.1886  155.8720 H   0  0  0  0  0  0  0  0  0  0  0  0
  149.5303  135.1479  154.3072 H   0  0  0  0  0  0  0  0  0  0  0  0
  147.5768  131.0596  151.3187 H   0  0  0  0  0  0  0  0  0  0  0  0
  144.8997  130.3346  151.6386 H   0  0  0  0  0  0  0  0  0  0  0  0
  146.4461  131.3359  149.4657 H   0  0  0  0  0  0  0  0  0  0  0  0
  144.7426  130.9229  149.4477 H   0  0  0  0  0  0  0  0  0  0  0  0
  145.9729  133.6475  149.8926 H   0  0  0  0  0  0  0  0  0  0  0  0
  144.6216  133.2323  148.8394 H   0  0  0  0  0  0  0  0  0  0  0  0
  144.0612  134.3201  151.2280 H   0  0  0  0  0  0  0  0  0  0  0  0
  143.1580  132.8873  150.7421 H   0  0  0  0  0  0  0  0  0  0  0  0
  143.9995  132.1195  152.8354 H   0  0  0  0  0  0  0  0  0  0  0  0
  145.4701  133.0615  152.6650 H   0  0  0  0  0  0  0  0  0  0  0  0
  1  2  2  0  0  0  0
  2  3  1  0  0  0  0
  2 12  1  0  0  0  0
  3  4  1  0  0  0  0
  3 18  1  0  0  0  0
  3 19  1  0  0  0  0
  4 11  1  0  0  0  0
  4  5  1  0  0  0  0
  5  6  2  0  0  0  0
  5 20  1  0  0  0  0
  6  7  1  0  0  0  0
  6 10  1  0  0  0  0
  7  8  2  0  0  0  0
  7  9  1  0  0  0  0
 10 11  2  0  0  0  0
 10 21  1  0  0  0  0
 12 13  1  0  0  0  0
 12 22  1  0  0  0  0
 13 17  1  0  0  0  0
 13 14  1  0  0  0  0
 13 23  1  0  0  0  0
 14 15  1  0  0  0  0
 14 24  1  0  0  0  0
 14 25  1  0  0  0  0
 15 16  1  0  0  0  0
 15 26  1  0  0  0  0
 15 27  1  0  0  0  0
 16 17  1  0  0  0  0
 16 28  1  0  0  0  0
 16 29  1  0  0  0  0
 17 30  1  0  0  0  0
 17 31  1  0  0  0  0
M  CHG  1   9  -1
M  END
> <s_m_source_file>
AV-unprocessed.smi

> <i_m_source_file_index>
628

> <i_lp_mmshare_version>
43012

> <i_f3d_flags>
0

> <s_epik_input>
W0NIMl0xW0NIMl1bQ0gyXVtDSDJdW0NIXTFbTkhdQyg9TylbQ0gyXW4yW2NIXWMoW2NIXW4yKUMoPU8pW09IXQ==

> <s_epik_cmdline>
J2VwaWtfcHl0aG9uJywgJy1waCcsICc3LjAnLCAnLXRuJywgJzgnLCAnLW1hJywgJzIwMCcsICctbWV0YWxfYmluZGluZycsICctaW1hZScsICc8aW5maWxlLm1hZT4nLCAnLW9tYWUnLCAnPG91dGZpbGUubWFlPic=

> <r_epik_Ionization_Penalty>
0.000955839

> <r_epik_Ionization_Penalty_Charging>
0.000925564

> <r_epik_Ionization_Penalty_Neutral>
3.02757e-05

> <r_epik_State_Penalty>
0.000600209

> <r_epik_Charging_Adjusted_Penalty>
0.00152577

> <i_epik_Tot_Q>
-1

> <i_epik_Tot_abs_Q>
1

> <r_epik_Metal_State_Penalty>
-0

> <b_epik_Metal_Only>
0

> <s_lp_Force_Field>
OPLS_2005

> <r_lp_Energy>
22.3574

> <b_lp_Chiralities_Consistent>
1

> <s_lp_Variant>
AV-unprocessed.smi:628-1

> <Gold.Version>
5.8.1

> <Gold.Id.Protein>
6NUR|6NUR_protein|mol2

> <Gold.PLP.Fitness>
42.7730

> <Gold.PLP.PLP>
-28.4337

> <Gold.PLP.part.hbond>
-3.0000

> <Gold.PLP.part.metal>
0.0000

> <Gold.PLP.part.buried>
-2.7080

> <Gold.PLP.part.nonpolar>
-22.9659

> <Gold.PLP.part.repulsive>
0.3565

> <Gold.PLP.ligand.clash>
0.0000

> <Gold.PLP.ligand.torsion>
0.4638

> <Gold.PLP.Chemscore.Hbond>
4.2480

> <Gold.PLP.Chemscore.CHOScore>
0.8387

> <Gold.PLP.Chemscore.Metal>
0.0000

> <Gold.Chemscore.Hbonds>
donor molecule, donor type, donor heavy atom, donor atom, acceptor molecule, acceptor atom, score
      L1  H    12    22       P1 10747  1.00
      P1  H  6896  6908       L1     8  1.44
      P1  H 10752 10764       L1     9  1.30
      L1  C    10    21       P1  7948  0.50

> <Gold.PLP.Chemscore.Internal.Correction>
0.0070

> <Gold.Rescore>
     Score         DG    S(hbond)    S(metal)    S(lipo)     H(rot)  DE(clash)    DE(int)     intcor
     16.37     -17.97       2.66        0.00      66.13       1.61       0.10       1.51       ----

> <Gold.Chemscore.Fitness>
16.3689

> <Gold.Chemscore.DG>
-17.9716

> <Gold.Chemscore.ZeroCoef>
-5.4800

> <Gold.Chemscore.Hbond>
2.6566

> <Gold.Chemscore.Metal>
0.0000

> <Gold.Chemscore.Lipo>
66.1321

> <Gold.Chemscore.Internal_Hbond>
0.0000

> <Gold.Chemscore.DEClash>
0.0964

> <Gold.Chemscore.DEInternal>
1.5062

> <Gold.Chemscore.Rot>
1.6089

> <Gold.Chemscore.Internal.Correction>
   9.000000E+99

> <Gold.Chemscore.Hbonds>
donor molecule, donor type, donor heavy atom, donor atom, acceptor molecule, acceptor atom, score
      L1  H    12    22       P1 10747  1.00
      P1  H  6896  6908       L1     8  0.71
      P1  H 10752 10764       L1     9  0.58

> <Gold.Chemscore.Hbond.Weighted>
-8.8730

> <Gold.Chemscore.Metal.Weighted>
-0.0000

> <Gold.Chemscore.Lipo.Weighted>
-7.7375

> <Gold.Chemscore.Internal_Hbond.Weighted>
0.0000

> <Gold.Chemscore.DEClash.Weighted>
0.0964

> <Gold.Chemscore.DEInternal.Weighted>
1.5062

> <Gold.Chemscore.Rot.Weighted>
4.1188

> <Gold.Chemscore.Internal.Correction.Weighted>
   9.000000E+99

> <Gold.Protein.RotatedTorsions>
[ 6907 6896 6895 6894 ] final   78.09 input  -60.11 | X-H torsion
[ 7974 7965 7964 7962 ] final   89.26 input  175.53 | X-H torsion
[ 8008 7997 7996 7995 ] final  -39.35 input   59.86 | X-H torsion
[ 10167 10162 10161 10158 ] final -139.48 input  -65.29 | X-H torsion
[ 10718 10713 10712 10709 ] final  -59.24 input   66.30 | X-H torsion
[ 10763 10752 10751 10750 ] final  -42.04 input  -60.55 | X-H torsion
[ 11005 11000 10999 10996 ] final  -29.53 input  -57.11 | X-H torsion

> <Gold.Protein.ActiveResidues>
 VAL166  LYS551  ARG553  GLY616  TRP617  ASP618  TYR619  PRO620  LYS621  CYS622 
 ASP623  PHE694  ASN695  SER759  ASP760  ASP761  ALA762  ILE779  LEU786  VAL792 
 PHE793  MET794  SER795  GLU796  ALA797  LYS798  CYS799  TRP800  GLU811  SER814 

> <Gold.Protein.RotatedAtoms>
  152.5145  134.3717  159.9320 H   0  0  0  0  0  0  0  0  0  0  0  0  # atno 6907 bound_to 6896
  151.3671  133.3862  159.2703 H   0  0  0  0  0  0  0  0  0  0  0  0  # atno 6908 bound_to 6896
  150.9606  134.9014  159.7787 H   0  0  0  0  0  0  0  0  0  0  0  0  # atno 6909 bound_to 6896
  145.5347  139.2285  143.2599 H   0  0  0  0  0  0  0  0  0  0  0  0  # atno 7974 bound_to 7965
  154.4024  140.1554  156.2848 H   0  0  0  0  0  0  0  0  0  0  0  0  # atno 8008 bound_to 7997
  155.8837  140.3442  155.5884 H   0  0  0  0  0  0  0  0  0  0  0  0  # atno 8009 bound_to 7997
  155.7638  140.0821  157.2133 H   0  0  0  0  0  0  0  0  0  0  0  0  # atno 8010 bound_to 7997
  139.8376  143.7365  152.2664 H   0  0  0  0  0  0  0  0  0  0  0  0  # atno 10167 bound_to 10162
  156.1076  130.4178  150.0688 H   0  0  0  0  0  0  0  0  0  0  0  0  # atno 10718 bound_to 10713
  153.9725  135.6726  153.4747 H   0  0  0  0  0  0  0  0  0  0  0  0  # atno 10763 bound_to 10752
  153.0786  135.4935  154.8453 H   0  0  0  0  0  0  0  0  0  0  0  0  # atno 10764 bound_to 10752
  154.7211  135.3117  154.9007 H   0  0  0  0  0  0  0  0  0  0  0  0  # atno 10765 bound_to 10752
  140.9305  133.7341  156.0929 H   0  0  0  0  0  0  0  0  0  0  0  0  # atno 11005 bound_to 11000
  146.2021  140.6165  142.9098 LP  0  0  0  0  0  0  0  0  0  0  0  0  # atno 17320 bound_to 7965
  144.7608  140.5416  143.6737 LP  0  0  0  0  0  0  0  0  0  0  0  0  # atno 17321 bound_to 7965
  139.7592  144.7512  151.0390 LP  0  0  0  0  0  0  0  0  0  0  0  0  # atno 17342 bound_to 10162
  140.7801  143.4771  151.0068 LP  0  0  0  0  0  0  0  0  0  0  0  0  # atno 17343 bound_to 10162
  156.8660  130.9508  151.3614 LP  0  0  0  0  0  0  0  0  0  0  0  0  # atno 17370 bound_to 10713
  157.6254  130.8687  149.9180 LP  0  0  0  0  0  0  0  0  0  0  0  0  # atno 17371 bound_to 10713
  140.7869  134.3661  157.5474 LP  0  0  0  0  0  0  0  0  0  0  0  0  # atno 17394 bound_to 11000
  139.8795  134.9116  156.3041 LP  0  0  0  0  0  0  0  0  0  0  0  0  # atno 17395 bound_to 11000

$$$$
