AV-unprocessed.smi:2006|AV-procd|sdf|8130|dock1
  -GOLD-   2272010363D 1   1.00000     0.00000
 Structure written by MMmdl.
 33 34  0  0  0  0  0  0  0  0  2 V2000
  151.9208  145.3138  159.1238 C   0  0  0  0  0  0  0  0  0  0  0  0
  151.8964  143.8051  159.3895 C   0  0  1  0  0  0  0  0  0  0  0  0
  151.8078  142.9894  158.0855 C   0  0  0  0  0  0  0  0  0  0  0  0
  151.8769  141.5635  158.3803 N   0  0  0  0  0  0  0  0  0  0  0  0
  151.6812  140.7500  157.2555 C   0  0  0  0  0  0  0  0  0  0  0  0
  150.5343  140.9488  156.4582 C   0  0  0  0  0  0  0  0  0  0  0  0
  150.3464  140.1337  155.3256 C   0  0  0  0  0  0  0  0  0  0  0  0
  151.3090  139.1467  155.0302 C   0  0  0  0  0  0  0  0  0  0  0  0
  151.1550  138.2436  153.8230 C   0  0  0  0  0  0  0  0  0  0  0  0
  149.8760  138.4913  153.1373 N   0  3  0  0  0  0  0  0  0  0  0  0
  152.4223  139.0251  155.8880 C   0  0  0  0  0  0  0  0  0  0  0  0
  152.6081  139.8021  156.9757 N   0  0  0  0  0  0  0  0  0  0  0  0
  153.0611  141.2125  159.1539 C   0  0  0  0  0  0  0  0  0  0  0  0
  153.1276  142.0691  160.4296 C   0  0  0  0  0  0  0  0  0  0  0  0
  153.0929  143.4500  160.0798 O   0  0  0  0  0  0  0  0  0  0  0  0
  151.0179  145.6349  158.6040 H   0  0  0  0  0  0  0  0  0  0  0  0
  152.7782  145.5923  158.5103 H   0  0  0  0  0  0  0  0  0  0  0  0
  151.9832  145.8728  160.0577 H   0  0  0  0  0  0  0  0  0  0  0  0
  151.0377  143.5780  160.0237 H   0  0  0  0  0  0  0  0  0  0  0  0
  150.8744  143.2111  157.5664 H   0  0  0  0  0  0  0  0  0  0  0  0
  152.6237  143.2676  157.4165 H   0  0  0  0  0  0  0  0  0  0  0  0
  149.8127  141.7134  156.7074 H   0  0  0  0  0  0  0  0  0  0  0  0
  149.4780  140.2659  154.6970 H   0  0  0  0  0  0  0  0  0  0  0  0
  151.9758  138.4114  153.1248 H   0  0  0  0  0  0  0  0  0  0  0  0
  151.2027  137.1988  154.1321 H   0  0  0  0  0  0  0  0  0  0  0  0
  149.1765  138.7587  153.8153 H   0  0  0  0  0  0  0  0  0  0  0  0
  149.5793  137.6510  152.6619 H   0  0  0  0  0  0  0  0  0  0  0  0
  153.1833  138.2820  155.6995 H   0  0  0  0  0  0  0  0  0  0  0  0
  153.0333  140.1536  159.4139 H   0  0  0  0  0  0  0  0  0  0  0  0
  153.9567  141.3749  158.5525 H   0  0  0  0  0  0  0  0  0  0  0  0
  152.3010  141.8325  161.1014 H   0  0  0  0  0  0  0  0  0  0  0  0
  154.0495  141.8626  160.9732 H   0  0  0  0  0  0  0  0  0  0  0  0
  149.9926  139.2349  152.4639 H   0  0  0  0  0  0  0  0  0  0  0  0
  1  2  1  0  0  0  0
  1 16  1  0  0  0  0
  1 17  1  0  0  0  0
  1 18  1  0  0  0  0
  2 15  1  0  0  0  0
  2  3  1  0  0  0  0
  2 19  1  0  0  0  0
  3  4  1  0  0  0  0
  3 20  1  0  0  0  0
  3 21  1  0  0  0  0
  4  5  1  0  0  0  0
  4 13  1  0  0  0  0
  5 12  1  0  0  0  0
  5  6  2  0  0  0  0
  6  7  1  0  0  0  0
  6 22  1  0  0  0  0
  7  8  2  0  0  0  0
  7 23  1  0  0  0  0
  8  9  1  0  0  0  0
  8 11  1  0  0  0  0
  9 10  1  0  0  0  0
  9 24  1  0  0  0  0
  9 25  1  0  0  0  0
 10 26  1  0  0  0  0
 10 27  1  0  0  0  0
 10 33  1  0  0  0  0
 11 12  2  0  0  0  0
 11 28  1  0  0  0  0
 13 14  1  0  0  0  0
 13 29  1  0  0  0  0
 13 30  1  0  0  0  0
 14 15  1  0  0  0  0
 14 31  1  0  0  0  0
 14 32  1  0  0  0  0
M  CHG  1  10   1
M  END
> <s_m_source_file>
AV-unprocessed.smi

> <i_m_source_file_index>
2006

> <i_lp_mmshare_version>
43012

> <i_f3d_flags>
0

> <s_epik_input>
W0NIM11bQ0BASF0xW0NIMl1OKFtDSDJdW0NIMl1PMSljMltjSF1bY0hdYyhbY0hdbjIpW0NIMl1bTkgyXQ==

> <s_epik_cmdline>
J2VwaWtfcHl0aG9uJywgJy1waCcsICc3LjAnLCAnLXRuJywgJzgnLCAnLW1hJywgJzIwMCcsICctbWV0YWxfYmluZGluZycsICctaW1hZScsICc8aW5maWxlLm1hZT4nLCAnLW9tYWUnLCAnPG91dGZpbGUubWFlPic=

> <r_lp_tautomer_probability>
1

> <r_epik_Ionization_Penalty>
0.0608602

> <r_epik_Ionization_Penalty_Charging>
0.059977

> <r_epik_Ionization_Penalty_Neutral>
0.000883197

> <r_epik_State_Penalty>
0.0524157

> <r_epik_Charging_Adjusted_Penalty>
0.112393

> <i_epik_Tot_Q>
1

> <i_epik_Tot_abs_Q>
1

> <r_epik_Metal_State_Penalty>
0.0524947

> <b_epik_Metal_Only>
0

> <s_lp_Force_Field>
OPLS_2005

> <r_lp_Energy>
17.2121

> <b_lp_Chiralities_Consistent>
1

> <s_lp_Variant>
AV-unprocessed.smi:2006-2

> <Gold.Version>
5.8.1

> <Gold.Id.Protein>
6NUR|6NUR_protein|mol2

> <Gold.PLP.Fitness>
46.8382

> <Gold.PLP.PLP>
-34.8866

> <Gold.PLP.part.hbond>
-3.1338

> <Gold.PLP.part.metal>
0.0000

> <Gold.PLP.part.buried>
-4.4308

> <Gold.PLP.part.nonpolar>
-28.0279

> <Gold.PLP.part.repulsive>
0.0971

> <Gold.PLP.ligand.clash>
0.0000

> <Gold.PLP.ligand.torsion>
0.0750

> <Gold.PLP.Chemscore.Hbond>
4.0000

> <Gold.PLP.Chemscore.CHOScore>
0.0000

> <Gold.PLP.Chemscore.Metal>
0.0000

> <Gold.Chemscore.Hbonds>
donor molecule, donor type, donor heavy atom, donor atom, acceptor molecule, acceptor atom, score
      L1  H    10    27       P1  7948  2.00
      L1  H    10    33       P1  7957  1.00
      P1  H  7997  8008       L1    12  0.99

> <Gold.PLP.Chemscore.Internal.Correction>
0.1015

> <Gold.Rescore>
     Score         DG    S(hbond)    S(metal)    S(lipo)     H(rot)  DE(clash)    DE(int)     intcor
     21.69     -21.78       2.72        0.00      90.36       1.30       0.03       0.06       ----

> <Gold.Chemscore.Fitness>
21.6897

> <Gold.Chemscore.DG>
-21.7821

> <Gold.Chemscore.ZeroCoef>
-5.4800

> <Gold.Chemscore.Hbond>
2.7156

> <Gold.Chemscore.Metal>
0.0000

> <Gold.Chemscore.Lipo>
90.3556

> <Gold.Chemscore.Internal_Hbond>
0.0000

> <Gold.Chemscore.DEClash>
0.0341

> <Gold.Chemscore.DEInternal>
0.0583

> <Gold.Chemscore.Rot>
1.3045

> <Gold.Chemscore.Internal.Correction>
   9.000000E+99

> <Gold.Chemscore.Hbonds>
donor molecule, donor type, donor heavy atom, donor atom, acceptor molecule, acceptor atom, score
      L1  H    10    27       P1  7948  0.60
      L1  H    10    33       P1  7957  0.70
      P1  H  7997  8008       L1    12  0.24

> <Gold.Chemscore.Hbond.Weighted>
-9.0700

> <Gold.Chemscore.Metal.Weighted>
-0.0000

> <Gold.Chemscore.Lipo.Weighted>
-10.5716

> <Gold.Chemscore.Internal_Hbond.Weighted>
0.0000

> <Gold.Chemscore.DEClash.Weighted>
0.0341

> <Gold.Chemscore.DEInternal.Weighted>
0.0583

> <Gold.Chemscore.Rot.Weighted>
3.3395

> <Gold.Chemscore.Internal.Correction.Weighted>
   9.000000E+99

> <Gold.Protein.RotatedTorsions>
[ 6907 6896 6895 6894 ] final -109.28 input  -60.11 | X-H torsion
[ 7974 7965 7964 7962 ] final   22.36 input  175.53 | X-H torsion
[ 8008 7997 7996 7995 ] final  -75.54 input   59.86 | X-H torsion
[ 10167 10162 10161 10158 ] final   94.23 input  -65.29 | X-H torsion
[ 10718 10713 10712 10709 ] final   31.00 input   66.30 | X-H torsion
[ 10763 10752 10751 10750 ] final  -93.14 input  -60.55 | X-H torsion
[ 11005 11000 10999 10996 ] final   75.21 input  -57.11 | X-H torsion

> <Gold.Protein.ActiveResidues>
 VAL166  LYS551  ARG553  GLY616  TRP617  ASP618  TYR619  PRO620  LYS621  CYS622 
 ASP623  PHE694  ASN695  SER759  ASP760  ASP761  ALA762  ILE779  LEU786  VAL792 
 PHE793  MET794  SER795  GLU796  ALA797  LYS798  CYS799  TRP800  GLU811  SER814 

> <Gold.Protein.RotatedAtoms>
  150.7552  133.9552  159.3497 H   0  0  0  0  0  0  0  0  0  0  0  0  # atno 6907 bound_to 6896
  151.7473  135.0839  160.0334 H   0  0  0  0  0  0  0  0  0  0  0  0  # atno 6908 bound_to 6896
  152.3489  133.6119  159.5966 H   0  0  0  0  0  0  0  0  0  0  0  0  # atno 6909 bound_to 6896
  146.2032  139.7896  142.8746 H   0  0  0  0  0  0  0  0  0  0  0  0  # atno 7974 bound_to 7965
  154.5425  140.0742  156.8534 H   0  0  0  0  0  0  0  0  0  0  0  0  # atno 8008 bound_to 7997
  155.3152  140.3392  155.4224 H   0  0  0  0  0  0  0  0  0  0  0  0  # atno 8009 bound_to 7997
  156.1888  140.1678  156.8119 H   0  0  0  0  0  0  0  0  0  0  0  0  # atno 8010 bound_to 7997
  139.8103  144.6776  150.9649 H   0  0  0  0  0  0  0  0  0  0  0  0  # atno 10167 bound_to 10162
  157.2669  130.7188  149.6483 H   0  0  0  0  0  0  0  0  0  0  0  0  # atno 10718 bound_to 10713
  154.6930  135.5205  153.8418 H   0  0  0  0  0  0  0  0  0  0  0  0  # atno 10763 bound_to 10752
  153.0646  135.6580  154.0393 H   0  0  0  0  0  0  0  0  0  0  0  0  # atno 10764 bound_to 10752
  154.0265  135.2989  155.3354 H   0  0  0  0  0  0  0  0  0  0  0  0  # atno 10765 bound_to 10752
  139.9354  134.7499  156.1243 H   0  0  0  0  0  0  0  0  0  0  0  0  # atno 11005 bound_to 11000
  145.3412  141.0288  143.3391 LP  0  0  0  0  0  0  0  0  0  0  0  0  # atno 17320 bound_to 7965
  144.8731  139.5010  143.6758 LP  0  0  0  0  0  0  0  0  0  0  0  0  # atno 17321 bound_to 7965
  140.7818  143.4191  151.0869 LP  0  0  0  0  0  0  0  0  0  0  0  0  # atno 17342 bound_to 10162
  139.7858  143.8289  152.3145 LP  0  0  0  0  0  0  0  0  0  0  0  0  # atno 17343 bound_to 10162
  155.9663  130.4380  150.5198 LP  0  0  0  0  0  0  0  0  0  0  0  0  # atno 17370 bound_to 10713
  157.3114  131.0664  151.1998 LP  0  0  0  0  0  0  0  0  0  0  0  0  # atno 17371 bound_to 10713
  141.0965  133.6693  156.2657 LP  0  0  0  0  0  0  0  0  0  0  0  0  # atno 17394 bound_to 11000
  140.6090  134.5478  157.5530 LP  0  0  0  0  0  0  0  0  0  0  0  0  # atno 17395 bound_to 11000

$$$$
