#       Name:                AV-unprocessed.smi:1053
#       Creating user name   scv26
#       Creation time:       Fri Mar 27 03:12:18 2020


#       File generated by GOLD software.
#

@<TRIPOS>MOLECULE
AV-unprocessed.smi:1053
    42    43     1
SMALL
NO_CHARGES


@<TRIPOS>ATOM
      1 ****        -3.4274  -3.0394  -2.4662 C.3            1 S1                 0.0000
      2 ****        -3.5168  -1.5112  -2.5834 C.3            1 S1                 0.0000
      3 ****        -2.9037  -0.8149  -1.4250 N.4            1 S1                 1.0000
      4 ****        -3.3829   0.5809  -1.2887 C.3            1 S1                 0.0000
      5 ****        -2.7555   1.2464  -0.0535 C.3            1 S1                 0.0000
      6 ****        -1.3388   1.1900  -0.1547 O.3            1 S1                 0.0000
      7 ****        -0.8509  -0.1479  -0.1823 C.3            1 S1                 0.0000
      8 ****         0.6824  -0.0964  -0.2149 C.3            1 S1                 0.0000
      9 ****         1.2327   0.3867   1.0424 N.pl3          1 S1                 0.0000
     10 ****         2.5777   0.6180   1.2585 C.ar           1 S1                 0.0000
     11 ****         3.4368   0.3208   0.2770 N.ar           1 S1                 0.0000
     12 ****         4.7440   0.5652   0.5116 C.ar           1 S1                 0.0000
     13 ****         5.1898   1.1083   1.7327 C.ar           1 S1                 0.0000
     14 ****         4.1945   1.3800   2.6981 C.ar           1 S1                 0.0000
     15 ****         4.5289   1.9644   4.0624 C.3            1 S1                 0.0000
     16 ****         4.1437   1.1198   5.0191 F              1 S1                 0.0000
     17 ****         5.8377   2.1841   4.1940 F              1 S1                 0.0000
     18 ****         3.8876   3.1217   4.2257 F              1 S1                 0.0000
     19 ****         2.8871   1.1303   2.4510 N.ar           1 S1                 0.0000
     20 ****        -1.4201  -0.8531  -1.4293 C.3            1 S1                 0.0000
     21 ****        -3.9593  -3.5175  -3.2892 H              1 S1                 0.0000
     22 ****        -3.8754  -3.3907  -1.5363 H              1 S1                 0.0000
     23 ****        -2.3975  -3.3937  -2.4998 H              1 S1                 0.0000
     24 ****        -3.0591  -1.1687  -3.5128 H              1 S1                 0.0000
     25 ****        -4.5726  -1.2431  -2.6421 H              1 S1                 0.0000
     26 ****        -3.1271   1.1452  -2.1871 H              1 S1                 0.0000
     27 ****        -4.4698   0.5947  -1.1995 H              1 S1                 0.0000
     28 ****        -3.0643   2.2901   0.0082 H              1 S1                 0.0000
     29 ****        -3.0884   0.7606   0.8652 H              1 S1                 0.0000
     30 ****        -1.1750  -0.6789   0.7151 H              1 S1                 0.0000
     31 ****         1.0812  -1.0950  -0.3983 H              1 S1                 0.0000
     32 ****         1.0207   0.5398  -1.0340 H              1 S1                 0.0000
     33 ****         0.5955   0.6364   1.7846 H              1 S1                 0.0000
     34 ****         5.4382   0.3267  -0.2804 H              1 S1                 0.0000
     35 ****         6.2371   1.3018   1.9111 H              1 S1                 0.0000
     36 ****        -1.0711  -1.8853  -1.4477 H              1 S1                 0.0000
     37 ****        -1.0465  -0.3731  -2.3355 H              1 S1                 0.0000
     38 ****        -3.2124  -1.3031  -0.5964 H              1 S1                 0.0000
     39 ****        -0.9413   1.6609   0.6328 LP             1 S1                 0.0000
     40 ****        -1.0580   1.6520  -0.9959 LP             1 S1                 0.0000
     41 ****         3.1250  -0.0650  -0.5913 LP             1 S1                 0.0000
     42 ****         2.1823   1.3219   3.1341 LP             1 S1                 0.0000
@<TRIPOS>BOND
    1    1    2 1     
    2    1   21 1     
    3    1   22 1     
    4    1   23 1     
    5    2    3 1     
    6    2   24 1     
    7    2   25 1     
    8    3   20 1     
    9    3    4 1     
   10    3   38 1     
   11    4    5 1     
   12    4   26 1     
   13    4   27 1     
   14    5    6 1     
   15    5   28 1     
   16    5   29 1     
   17    6    7 1     
   18    7    8 1     
   19    7   20 1     
   20    7   30 1     
   21    8    9 1     
   22    8   31 1     
   23    8   32 1     
   24    9   10 1     
   25    9   33 1     
   26   10   19 ar    
   27   10   11 ar    
   28   11   12 ar    
   29   12   13 ar    
   30   12   34 1     
   31   13   14 ar    
   32   13   35 1     
   33   14   15 1     
   34   14   19 ar    
   35   15   16 1     
   36   15   17 1     
   37   15   18 1     
   38   20   36 1     
   39   20   37 1     
   40    6   39 1     
   41    6   40 1     
   42   11   41 1     
   43   19   42 1     
@<TRIPOS>SUBSTRUCTURE
      1 S1             1
@<TRIPOS>SET
LONE_PAIRS      STATIC     ATOMS    <user>   **** ""
4 39 40 41 42
DONOR_HYDROGENS      STATIC     ATOMS    <user>   **** ""
2 38 33
ATOM$BLUE        STATIC     ATOMS    COLORGROUP SYSTEM
4 39 40 41 42
ATOM$RED        STATIC     ATOMS    COLORGROUP SYSTEM
2 38 33
