#       Name:                AV-unprocessed.smi:2688
#       Creating user name   scv26
#       Creation time:       Fri Mar 27 14:41:55 2020


#       File generated by GOLD software.
#

@<TRIPOS>MOLECULE
AV-unprocessed.smi:2688
    56    59     1
SMALL
NO_CHARGES


@<TRIPOS>ATOM
      1 ****        -5.1200   3.3066   4.4780 C.3            1 S1                 0.0000
      2 ****        -4.8868   2.8288   3.0756 C.2            1 S1                 0.0000
      3 ****        -5.1488   3.6509   1.9097 C.2            1 S1                 0.0000
      4 ****        -4.9078   3.1499   0.6791 C.2            1 S1                 0.0000
      5 ****        -4.3870   1.7978   0.4888 C.2            1 S1                 0.0000
      6 ****        -4.1521   1.3142  -0.6185 O.2            1 S1                 0.0000
      7 ****        -4.1809   1.1186   1.6565 N.am           1 S1                 0.0000
      8 ****        -3.6407  -0.2485   1.6551 C.3            1 S1                 0.0000
      9 ****        -2.1188  -0.2907   1.4573 C.2            1 S1                 0.0000
     10 ****        -1.4091   0.6347   1.8545 O.2            1 S1                 0.0000
     11 ****        -1.6284  -1.3833   0.8518 N.am           1 S1                 0.0000
     12 ****        -0.2188  -1.6051   0.5508 C.3            1 S1                 0.0000
     13 ****         0.1978  -0.8625  -0.7363 C.3            1 S1                 0.0000
     14 ****         1.6943  -0.9520  -1.1285 C.3            1 S1                 0.0000
     15 ****         2.6052  -0.2989  -0.0529 C.3            1 S1                 0.0000
     16 ****         4.0832  -0.3481  -0.4964 C.3            1 S1                 0.0000
     17 ****         4.5134  -1.8170  -0.6955 C.3            1 S1                 0.0000
     18 ****         3.6310  -2.4638  -1.7845 C.3            1 S1                 0.0000
     19 ****         3.8020  -1.6954  -3.1109 C.3            1 S1                 0.0000
     20 ****         3.3732  -0.2284  -2.9039 C.3            1 S1                 0.0000
     21 ****         4.2542   0.4251  -1.8197 C.3            1 S1                 0.0000
     22 ****         1.8958  -0.1824  -2.4621 C.3            1 S1                 0.0000
     23 ****         2.1506  -2.4205  -1.3447 C.3            1 S1                 0.0000
     24 ****        -4.4313   1.6291   2.9198 N.2            1 S1                 0.0000
     25 ****        -5.4909   4.3318   4.4886 H              1 S1                 0.0000
     26 ****        -4.1955   3.2805   5.0557 H              1 S1                 0.0000
     27 ****        -5.8544   2.6800   4.9848 H              1 S1                 0.0000
     28 ****        -5.5326   4.6529   2.0339 H              1 S1                 0.0000
     29 ****        -5.1027   3.7633  -0.1885 H              1 S1                 0.0000
     30 ****        -3.8726  -0.7483   2.5974 H              1 S1                 0.0000
     31 ****        -4.1318  -0.8412   0.8808 H              1 S1                 0.0000
     32 ****        -2.2775  -2.1006   0.5627 H              1 S1                 0.0000
     33 ****         0.3842  -1.2960   1.4046 H              1 S1                 0.0000
     34 ****        -0.0713  -2.6785   0.4367 H              1 S1                 0.0000
     35 ****        -0.4090  -1.2410  -1.5602 H              1 S1                 0.0000
     36 ****        -0.0686   0.1911  -0.6378 H              1 S1                 0.0000
     37 ****         2.3029   0.7344   0.1235 H              1 S1                 0.0000
     38 ****         2.5079  -0.8129   0.9031 H              1 S1                 0.0000
     39 ****         4.7062   0.1102   0.2724 H              1 S1                 0.0000
     40 ****         5.5647  -1.8669  -0.9816 H              1 S1                 0.0000
     41 ****         4.4230  -2.3678   0.2415 H              1 S1                 0.0000
     42 ****         3.9358  -3.5010  -1.9273 H              1 S1                 0.0000
     43 ****         4.8391  -1.7427  -3.4457 H              1 S1                 0.0000
     44 ****         3.2028  -2.1578  -3.8964 H              1 S1                 0.0000
     45 ****         3.4881   0.3177  -3.8408 H              1 S1                 0.0000
     46 ****         3.9761   1.4712  -1.6856 H              1 S1                 0.0000
     47 ****         5.3003   0.4206  -2.1282 H              1 S1                 0.0000
     48 ****         1.2663  -0.6097  -3.2441 H              1 S1                 0.0000
     49 ****         1.5781   0.8554  -2.3513 H              1 S1                 0.0000
     50 ****         2.0357  -2.9995  -0.4283 H              1 S1                 0.0000
     51 ****         1.5248  -2.9057  -2.0949 H              1 S1                 0.0000
     52 ****        -4.3174   1.8529  -1.4446 LP             1 S1                 0.0000
     53 ****        -3.7960   0.3827  -0.6919 LP             1 S1                 0.0000
     54 ****        -1.8234   1.4225   2.3104 LP             1 S1                 0.0000
     55 ****        -0.4187   0.5981   1.7211 LP             1 S1                 0.0000
     56 ****        -4.2569   1.0606   3.7238 LP             1 S1                 0.0000
@<TRIPOS>BOND
    1    1    2 1     
    2    1   25 1     
    3    1   26 1     
    4    1   27 1     
    5    2   24 2     
    6    2    3 1     
    7    3    4 2     
    8    3   28 1     
    9    4    5 1     
   10    4   29 1     
   11    5    6 2     
   12    5    7 am    
   13    7    8 1     
   14    7   24 1     
   15    8    9 1     
   16    8   30 1     
   17    8   31 1     
   18    9   10 2     
   19    9   11 am    
   20   11   12 1     
   21   11   32 1     
   22   12   13 1     
   23   12   33 1     
   24   12   34 1     
   25   13   14 1     
   26   13   35 1     
   27   13   36 1     
   28   14   22 1     
   29   14   23 1     
   30   14   15 1     
   31   15   16 1     
   32   15   37 1     
   33   15   38 1     
   34   16   21 1     
   35   16   17 1     
   36   16   39 1     
   37   17   18 1     
   38   17   40 1     
   39   17   41 1     
   40   18   19 1     
   41   18   23 1     
   42   18   42 1     
   43   19   20 1     
   44   19   43 1     
   45   19   44 1     
   46   20   21 1     
   47   20   22 1     
   48   20   45 1     
   49   21   46 1     
   50   21   47 1     
   51   22   48 1     
   52   22   49 1     
   53   23   50 1     
   54   23   51 1     
   55    6   52 1     
   56    6   53 1     
   57   10   54 1     
   58   10   55 1     
   59   24   56 1     
@<TRIPOS>SUBSTRUCTURE
      1 S1             1
@<TRIPOS>SET
LONE_PAIRS      STATIC     ATOMS    <user>   **** ""
5 52 53 54 55 56
DONOR_HYDROGENS      STATIC     ATOMS    <user>   **** ""
1 32
ATOM$BLUE        STATIC     ATOMS    COLORGROUP SYSTEM
5 52 53 54 55 56
ATOM$RED        STATIC     ATOMS    COLORGROUP SYSTEM
1 32
