#       Name:                AV-unprocessed.smi:2079
#       Creating user name   scv26
#       Creation time:       Fri Mar 27 11:18:29 2020


#       File generated by GOLD software.
#

@<TRIPOS>MOLECULE
AV-unprocessed.smi:2079
    47    48     1
SMALL
NO_CHARGES


@<TRIPOS>ATOM
      1 ****        -6.9445   4.0877  -0.1575 C.3            1 S1                 0.0000
      2 ****        -5.8773   3.2797   0.4983 C.2            1 S1                 0.0000
      3 ****        -5.0706   2.2725   0.0505 C.2            1 S1                 0.0000
      4 ****        -4.2825   1.9564   1.1905 C.2            1 S1                 0.0000
      5 ****        -3.3382   1.0050   1.2550 N.pl3          1 S1                -1.0000
      6 ****        -2.0707   1.2765   0.8694 C.2            1 S1                 0.0000
      7 ****        -1.6447   2.3576   0.4568 O.2            1 S1                 0.0000
      8 ****        -1.2440   0.2270   0.9629 N.am           1 S1                 0.0000
      9 ****         0.1653   0.2355   0.5971 C.3            1 S1                 0.0000
     10 ****         0.7322  -1.1931   0.6316 C.3            1 S1                 0.0000
     11 ****         2.1914  -1.2605   0.3477 N.4            1 S1                 1.0000
     12 ****         2.7504  -2.6058   0.6520 C.3            1 S1                 0.0000
     13 ****         4.2844  -2.6139   0.5606 C.3            1 S1                 0.0000
     14 ****         4.7554  -2.1293  -0.8142 C.3            1 S1                 0.0000
     15 ****         4.1571  -0.7478  -1.1101 C.3            1 S1                 0.0000
     16 ****         2.6180  -0.7378  -0.9896 C.3            1 S1                 0.0000
     17 ****         1.9356  -1.4477  -2.1784 C.3            1 S1                 0.0000
     18 ****        -4.5943   2.6954   2.2419 N.2            1 S1                 0.0000
     19 ****        -5.6116   3.5519   1.8042 O.3            1 S1                 0.0000
     20 ****        -7.7348   3.4424  -0.5408 H              1 S1                 0.0000
     21 ****        -6.5377   4.6570  -0.9931 H              1 S1                 0.0000
     22 ****        -7.3937   4.7913   0.5440 H              1 S1                 0.0000
     23 ****        -5.0459   1.8328  -0.9352 H              1 S1                 0.0000
     24 ****        -1.6294  -0.6396   1.3088 H              1 S1                 0.0000
     25 ****         0.2564   0.6644  -0.4011 H              1 S1                 0.0000
     26 ****         0.7128   0.8809   1.2854 H              1 S1                 0.0000
     27 ****         0.5598  -1.5996   1.6295 H              1 S1                 0.0000
     28 ****         0.1839  -1.8406  -0.0534 H              1 S1                 0.0000
     29 ****         2.4585  -2.9030   1.6601 H              1 S1                 0.0000
     30 ****         2.3259  -3.3485  -0.0242 H              1 S1                 0.0000
     31 ****         4.7009  -1.9721   1.3383 H              1 S1                 0.0000
     32 ****         4.6644  -3.6179   0.7520 H              1 S1                 0.0000
     33 ****         5.8443  -2.0807  -0.8421 H              1 S1                 0.0000
     34 ****         4.4570  -2.8425  -1.5835 H              1 S1                 0.0000
     35 ****         4.5745  -0.0246  -0.4081 H              1 S1                 0.0000
     36 ****         4.4623  -0.4134  -2.1023 H              1 S1                 0.0000
     37 ****         2.3318   0.3119  -1.0418 H              1 S1                 0.0000
     38 ****         2.2983  -1.0461  -3.1248 H              1 S1                 0.0000
     39 ****         0.8558  -1.3007  -2.1712 H              1 S1                 0.0000
     40 ****         2.1271  -2.5200  -2.1871 H              1 S1                 0.0000
     41 ****         2.6180  -0.6405   1.0215 H              1 S1                 0.0000
     42 ****        -3.5726   0.0922   1.5894 LP             1 S1                 0.0000
     43 ****        -2.2605   3.1420   0.3821 LP             1 S1                 0.0000
     44 ****        -0.6835   2.4499   0.1969 LP             1 S1                 0.0000
     45 ****        -4.1896   2.6517   3.1553 LP             1 S1                 0.0000
     46 ****        -6.4347   3.4052   2.3530 LP             1 S1                 0.0000
     47 ****        -5.3146   4.5023   1.8964 LP             1 S1                 0.0000
@<TRIPOS>BOND
    1    1    2 1     
    2    1   20 1     
    3    1   21 1     
    4    1   22 1     
    5    2   19 1     
    6    2    3 2     
    7    3    4 1     
    8    3   23 1     
    9    4    5 1     
   10    4   18 2     
   11    5    6 1     
   12    6    7 2     
   13    6    8 am    
   14    8    9 1     
   15    8   24 1     
   16    9   10 1     
   17    9   25 1     
   18    9   26 1     
   19   10   11 1     
   20   10   27 1     
   21   10   28 1     
   22   11   16 1     
   23   11   12 1     
   24   11   41 1     
   25   12   13 1     
   26   12   29 1     
   27   12   30 1     
   28   13   14 1     
   29   13   31 1     
   30   13   32 1     
   31   14   15 1     
   32   14   33 1     
   33   14   34 1     
   34   15   16 1     
   35   15   35 1     
   36   15   36 1     
   37   16   17 1     
   38   16   37 1     
   39   17   38 1     
   40   17   39 1     
   41   17   40 1     
   42   18   19 1     
   43    5   42 1     
   44    7   43 1     
   45    7   44 1     
   46   18   45 1     
   47   19   46 1     
   48   19   47 1     
@<TRIPOS>SUBSTRUCTURE
      1 S1             1
@<TRIPOS>SET
LONE_PAIRS      STATIC     ATOMS    <user>   **** ""
6 42 43 44 45 46 47
DONOR_HYDROGENS      STATIC     ATOMS    <user>   **** ""
2 24 41
ATOM$BLUE        STATIC     ATOMS    COLORGROUP SYSTEM
6 42 43 44 45 46 47
ATOM$RED        STATIC     ATOMS    COLORGROUP SYSTEM
2 24 41
