AV-unprocessed.smi:1285|AV-procd|sdf|5368|dock9
  -GOLD-   22720 4513D 1   1.00000     0.00000
 Structure written by MMmdl.
 46 47  0  0  0  0  0  0  0  0  1 V2000
  150.8870  134.1914  155.3112 C   0  0  0  0  0  0  0  0  0  0  0  0
  149.5598  134.6081  154.6516 C   0  0  0  0  0  0  0  0  0  0  0  0
  148.8852  135.8887  155.2402 C   0  0  2  0  0  0  0  0  0  0  0  0
  149.0379  135.7896  156.7824 C   0  0  0  0  0  0  0  0  0  0  0  0
  147.3624  135.8498  154.8849 C   0  0  0  0  0  0  0  0  0  0  0  0
  147.1039  135.6994  153.4544 N   0  0  0  0  0  0  0  0  0  0  0  0
  145.9308  135.3663  152.8926 C   0  0  0  0  0  0  0  0  0  0  0  0
  144.8867  135.2428  153.5340 O   0  0  0  0  0  0  0  0  0  0  0  0
  145.9624  135.1099  151.3766 C   0  0  2  0  0  0  0  0  0  0  0  0
  145.1962  136.1744  150.5653 C   0  0  0  0  0  0  0  0  0  0  0  0
  145.4884  133.7606  151.0888 N   0  0  0  0  0  0  0  0  0  0  0  0
  146.1467  132.7035  150.6078 C   0  0  0  0  0  0  0  0  0  0  0  0
  145.4137  131.6020  150.5293 N   0  0  0  0  0  0  0  0  0  0  0  0
  144.2308  132.0803  151.0173 C   0  0  0  0  0  0  0  0  0  0  0  0
  144.2230  133.3641  151.3749 N   0  0  0  0  0  0  0  0  0  0  0  0
  149.5454  137.1250  154.7330 N   0  0  0  0  0  0  0  0  0  0  0  0
  150.9927  137.2019  154.9666 C   0  0  0  0  0  0  0  0  0  0  0  0
  151.6210  138.4328  154.2908 C   0  0  0  0  0  0  0  0  0  0  0  0
  150.9754  139.6145  154.7493 O   0  0  0  0  0  0  0  0  0  0  0  0
  149.5769  139.6045  154.4897 C   0  0  0  0  0  0  0  0  0  0  0  0
  148.9334  138.3854  155.1710 C   0  0  0  0  0  0  0  0  0  0  0  0
  151.2878  133.2994  154.8297 H   0  0  0  0  0  0  0  0  0  0  0  0
  150.7579  133.9572  156.3673 H   0  0  0  0  0  0  0  0  0  0  0  0
  151.6439  134.9713  155.2300 H   0  0  0  0  0  0  0  0  0  0  0  0
  149.7218  134.7248  153.5800 H   0  0  0  0  0  0  0  0  0  0  0  0
  148.8815  133.7578  154.7320 H   0  0  0  0  0  0  0  0  0  0  0  0
  148.7957  134.7945  157.1565 H   0  0  0  0  0  0  0  0  0  0  0  0
  148.3762  136.4827  157.3023 H   0  0  0  0  0  0  0  0  0  0  0  0
  150.0563  136.0108  157.1020 H   0  0  0  0  0  0  0  0  0  0  0  0
  146.8495  135.0617  155.4365 H   0  0  0  0  0  0  0  0  0  0  0  0
  146.8781  136.7797  155.1803 H   0  0  0  0  0  0  0  0  0  0  0  0
  147.9045  135.7868  152.8457 H   0  0  0  0  0  0  0  0  0  0  0  0
  147.0083  135.1560  151.0686 H   0  0  0  0  0  0  0  0  0  0  0  0
  145.6023  137.1710  150.7413 H   0  0  0  0  0  0  0  0  0  0  0  0
  144.1361  136.1992  150.8211 H   0  0  0  0  0  0  0  0  0  0  0  0
  145.2727  135.9766  149.4958 H   0  0  0  0  0  0  0  0  0  0  0  0
  147.1871  132.7374  150.3191 H   0  0  0  0  0  0  0  0  0  0  0  0
  143.3512  131.4620  151.1185 H   0  0  0  0  0  0  0  0  0  0  0  0
  151.2029  137.2463  156.0351 H   0  0  0  0  0  0  0  0  0  0  0  0
  151.4982  136.3182  154.5811 H   0  0  0  0  0  0  0  0  0  0  0  0
  152.6835  138.4935  154.5269 H   0  0  0  0  0  0  0  0  0  0  0  0
  151.5377  138.3618  153.2051 H   0  0  0  0  0  0  0  0  0  0  0  0
  149.1380  140.5268  154.8705 H   0  0  0  0  0  0  0  0  0  0  0  0
  149.3978  139.5847  153.4133 H   0  0  0  0  0  0  0  0  0  0  0  0
  147.8685  138.4024  154.9469 H   0  0  0  0  0  0  0  0  0  0  0  0
  149.0321  138.4993  156.2504 H   0  0  0  0  0  0  0  0  0  0  0  0
  1  2  1  0  0  0  0
  1 22  1  0  0  0  0
  1 23  1  0  0  0  0
  1 24  1  0  0  0  0
  2  3  1  0  0  0  0
  2 25  1  0  0  0  0
  2 26  1  0  0  0  0
  3  4  1  0  0  0  0
  3  5  1  0  0  0  0
  3 16  1  0  0  0  0
  4 27  1  0  0  0  0
  4 28  1  0  0  0  0
  4 29  1  0  0  0  0
  5  6  1  0  0  0  0
  5 30  1  0  0  0  0
  5 31  1  0  0  0  0
  6  7  1  0  0  0  0
  6 32  1  0  0  0  0
  7  8  2  0  0  0  0
  7  9  1  0  0  0  0
  9 10  1  0  0  0  0
  9 11  1  0  0  0  0
  9 33  1  0  0  0  0
 10 34  1  0  0  0  0
 10 35  1  0  0  0  0
 10 36  1  0  0  0  0
 11 15  1  0  0  0  0
 11 12  1  0  0  0  0
 12 13  2  0  0  0  0
 12 37  1  0  0  0  0
 13 14  1  0  0  0  0
 14 15  2  0  0  0  0
 14 38  1  0  0  0  0
 16 21  1  0  0  0  0
 16 17  1  0  0  0  0
 17 18  1  0  0  0  0
 17 39  1  0  0  0  0
 17 40  1  0  0  0  0
 18 19  1  0  0  0  0
 18 41  1  0  0  0  0
 18 42  1  0  0  0  0
 19 20  1  0  0  0  0
 20 21  1  0  0  0  0
 20 43  1  0  0  0  0
 20 44  1  0  0  0  0
 21 45  1  0  0  0  0
 21 46  1  0  0  0  0
M  END
> <s_m_source_file>
AV-unprocessed.smi

> <i_m_source_file_index>
1285

> <i_lp_mmshare_version>
43012

> <i_f3d_flags>
0

> <s_epik_input>
W0NIMl0xW0NIMl1PW0NIMl1bQ0gyXU4xW0NAQF0oW0NIM10pKFtDSDJdW0NIM10pW0NIMl1bTkhdQyg9TylbQ0BIXShbQ0gzXSluMltjSF1uW2NIXW4y

> <s_epik_cmdline>
J2VwaWtfcHl0aG9uJywgJy1waCcsICc3LjAnLCAnLXRuJywgJzgnLCAnLW1hJywgJzIwMCcsICctbWV0YWxfYmluZGluZycsICctaW1hZScsICc8aW5maWxlLm1hZT4nLCAnLW9tYWUnLCAnPG91dGZpbGUubWFlPic=

> <r_lp_tautomer_probability>
1

> <r_epik_Ionization_Penalty>
0.285697

> <r_epik_Ionization_Penalty_Charging>
0

> <r_epik_Ionization_Penalty_Neutral>
0.285697

> <r_epik_State_Penalty>
0.278478

> <r_epik_Charging_Adjusted_Penalty>
0.278478

> <i_epik_Tot_Q>
0

> <i_epik_Tot_abs_Q>
0

> <r_epik_Metal_State_Penalty>
0.278477

> <b_epik_Metal_Only>
0

> <s_lp_Force_Field>
OPLS_2005

> <r_lp_Energy>
47.2582

> <b_lp_Chiralities_Consistent>
1

> <s_lp_Variant>
AV-unprocessed.smi:1285-2

> <Gold.Version>
5.8.1

> <Gold.Id.Protein>
6NUR|6NUR_protein|mol2

> <Gold.PLP.Fitness>
37.1680

> <Gold.PLP.PLP>
-28.9834

> <Gold.PLP.part.hbond>
-2.0000

> <Gold.PLP.part.metal>
0.0000

> <Gold.PLP.part.buried>
-3.8944

> <Gold.PLP.part.nonpolar>
-23.3843

> <Gold.PLP.part.repulsive>
0.9632

> <Gold.PLP.ligand.clash>
0.0000

> <Gold.PLP.ligand.torsion>
0.5519

> <Gold.PLP.Chemscore.Hbond>
2.0000

> <Gold.PLP.Chemscore.CHOScore>
1.0000

> <Gold.PLP.Chemscore.Metal>
0.0000

> <Gold.Chemscore.Hbonds>
donor molecule, donor type, donor heavy atom, donor atom, acceptor molecule, acceptor atom, score
      L1  H     6    32       P1  7948  0.91
      P1  H  7989  7998       L1    19  1.00
      L1  C    12    37       P1 10747  0.86

> <Gold.PLP.Chemscore.Internal.Correction>
0.2884

> <Gold.Rescore>
     Score         DG    S(hbond)    S(metal)    S(lipo)     H(rot)  DE(clash)    DE(int)     intcor
      6.44      -9.19       1.35        0.00      51.89       2.68       0.28       2.47       ----

> <Gold.Chemscore.Fitness>
6.4428

> <Gold.Chemscore.DG>
-9.1934

> <Gold.Chemscore.ZeroCoef>
-5.4800

> <Gold.Chemscore.Hbond>
1.3499

> <Gold.Chemscore.Metal>
0.0000

> <Gold.Chemscore.Lipo>
51.8879

> <Gold.Chemscore.Internal_Hbond>
0.0000

> <Gold.Chemscore.DEClash>
0.2810

> <Gold.Chemscore.DEInternal>
2.4696

> <Gold.Chemscore.Rot>
2.6821

> <Gold.Chemscore.Internal.Correction>
   9.000000E+99

> <Gold.Chemscore.Hbonds>
donor molecule, donor type, donor heavy atom, donor atom, acceptor molecule, acceptor atom, score
      L1  H     6    32       P1  7948  0.89
      P1  H  7989  7998       L1    19  0.10

> <Gold.Chemscore.Hbond.Weighted>
-4.5086

> <Gold.Chemscore.Metal.Weighted>
-0.0000

> <Gold.Chemscore.Lipo.Weighted>
-6.0709

> <Gold.Chemscore.Internal_Hbond.Weighted>
0.0000

> <Gold.Chemscore.DEClash.Weighted>
0.2810

> <Gold.Chemscore.DEInternal.Weighted>
2.4696

> <Gold.Chemscore.Rot.Weighted>
6.8661

> <Gold.Chemscore.Internal.Correction.Weighted>
   9.000000E+99

> <Gold.Protein.RotatedTorsions>
[ 6907 6896 6895 6894 ] final   -1.31 input  -60.11 | X-H torsion
[ 7974 7965 7964 7962 ] final -124.26 input  175.53 | X-H torsion
[ 8008 7997 7996 7995 ] final   23.09 input   59.86 | X-H torsion
[ 10167 10162 10161 10158 ] final  -51.53 input  -65.29 | X-H torsion
[ 10718 10713 10712 10709 ] final   62.80 input   66.30 | X-H torsion
[ 10763 10752 10751 10750 ] final    6.12 input  -60.55 | X-H torsion
[ 11005 11000 10999 10996 ] final  100.80 input  -57.11 | X-H torsion

> <Gold.Protein.ActiveResidues>
 VAL166  LYS551  ARG553  GLY616  TRP617  ASP618  TYR619  PRO620  LYS621  CYS622 
 ASP623  PHE694  ASN695  SER759  ASP760  ASP761  ALA762  ILE779  LEU786  VAL792 
 PHE793  MET794  SER795  GLU796  ALA797  LYS798  CYS799  TRP800  GLU811  SER814 

> <Gold.Protein.RotatedAtoms>
  151.5482  135.1068  159.9942 H   0  0  0  0  0  0  0  0  0  0  0  0  # atno 6907 bound_to 6896
  152.4504  133.7614  159.6759 H   0  0  0  0  0  0  0  0  0  0  0  0  # atno 6908 bound_to 6896
  150.8431  133.7838  159.3078 H   0  0  0  0  0  0  0  0  0  0  0  0  # atno 6909 bound_to 6896
  145.0100  140.7897  143.4444 H   0  0  0  0  0  0  0  0  0  0  0  0  # atno 7974 bound_to 7965
  154.9756  140.3095  155.4968 H   0  0  0  0  0  0  0  0  0  0  0  0  # atno 8008 bound_to 7997
  156.2960  140.2276  156.4791 H   0  0  0  0  0  0  0  0  0  0  0  0  # atno 8009 bound_to 7997
  154.7836  140.0444  157.1135 H   0  0  0  0  0  0  0  0  0  0  0  0  # atno 8010 bound_to 7997
  140.6583  143.2616  151.4517 H   0  0  0  0  0  0  0  0  0  0  0  0  # atno 10167 bound_to 10162
  157.5926  130.9070  149.9634 H   0  0  0  0  0  0  0  0  0  0  0  0  # atno 10718 bound_to 10713
  153.2514  135.6914  153.7675 H   0  0  0  0  0  0  0  0  0  0  0  0  # atno 10763 bound_to 10752
  153.6768  135.3335  155.3168 H   0  0  0  0  0  0  0  0  0  0  0  0  # atno 10764 bound_to 10752
  154.8396  135.4513  154.1473 H   0  0  0  0  0  0  0  0  0  0  0  0  # atno 10765 bound_to 10752
  139.8771  134.9156  156.4811 H   0  0  0  0  0  0  0  0  0  0  0  0  # atno 11005 bound_to 11000
  145.2036  139.2239  143.5180 LP  0  0  0  0  0  0  0  0  0  0  0  0  # atno 17320 bound_to 7965
  146.3468  140.1859  142.8589 LP  0  0  0  0  0  0  0  0  0  0  0  0  # atno 17321 bound_to 7965
  139.5811  144.1707  152.1969 LP  0  0  0  0  0  0  0  0  0  0  0  0  # atno 17342 bound_to 10162
  140.1033  144.5521  150.6974 LP  0  0  0  0  0  0  0  0  0  0  0  0  # atno 17343 bound_to 10162
  156.0983  130.3657  150.0264 LP  0  0  0  0  0  0  0  0  0  0  0  0  # atno 17370 bound_to 10713
  156.8384  130.9417  151.3633 LP  0  0  0  0  0  0  0  0  0  0  0  0  # atno 17371 bound_to 10713
  140.8727  133.7976  155.9381 LP  0  0  0  0  0  0  0  0  0  0  0  0  # atno 17394 bound_to 11000
  140.8936  134.2465  157.5081 LP  0  0  0  0  0  0  0  0  0  0  0  0  # atno 17395 bound_to 11000

$$$$
