AV-unprocessed.smi:1233|AV-procd|sdf|5171|dock6
  -GOLD-   22720 4243D 1   1.00000     0.00000
 Structure written by MMmdl.
 38 39  0  0  0  0  0  0  0  0  1 V2000
  151.8567  145.5864  160.1046 C   0  0  0  0  0  0  0  0  0  0  0  0
  151.5555  144.4410  159.3150 O   0  0  0  0  0  0  0  0  0  0  0  0
  152.2070  143.2553  159.5972 C   0  0  0  0  0  0  0  0  0  0  0  0
  153.0584  143.2222  160.6533 N   0  0  0  0  0  0  0  0  0  0  0  0
  153.6977  142.0666  160.9275 C   0  0  0  0  0  0  0  0  0  0  0  0
  153.5321  140.8951  160.1661 C   0  0  0  0  0  0  0  0  0  0  0  0
  152.6496  140.9268  159.0704 C   0  0  0  0  0  0  0  0  0  0  0  0
  151.9579  142.1276  158.7805 C   0  0  0  0  0  0  0  0  0  0  0  0
  151.0595  142.2726  157.6878 N   0  0  0  0  0  0  0  0  0  0  0  0
  150.5418  141.3153  156.8998 C   0  0  0  0  0  0  0  0  0  0  0  0
  150.7775  140.1107  156.9936 O   0  0  0  0  0  0  0  0  0  0  0  0
  149.7007  141.8374  155.9944 N   0  0  0  0  0  0  0  0  0  0  0  0
  148.9083  141.0726  155.0296 C   0  0  2  0  0  0  0  0  0  0  0  0
  147.9884  142.0633  154.2719 C   0  0  0  0  0  0  0  0  0  0  0  0
  146.7951  141.4479  153.5066 C   0  0  0  0  0  0  0  0  0  0  0  0
  147.1209  140.1782  152.6940 C   0  0  0  0  0  0  0  0  0  0  0  0
  147.6388  138.9538  153.4925 C   0  0  0  0  0  0  0  0  0  0  0  0
  147.4844  139.0546  154.9438 N   0  0  0  0  0  0  0  0  0  0  0  0
  148.0517  139.9901  155.7243 C   0  0  0  0  0  0  0  0  0  0  0  0
  147.8747  140.0023  156.9421 O   0  0  0  0  0  0  0  0  0  0  0  0
  151.2578  146.4291  159.7594 H   0  0  0  0  0  0  0  0  0  0  0  0
  152.9068  145.8673  160.0136 H   0  0  0  0  0  0  0  0  0  0  0  0
  151.6190  145.4211  161.1564 H   0  0  0  0  0  0  0  0  0  0  0  0
  154.3666  142.0785  161.7753 H   0  0  0  0  0  0  0  0  0  0  0  0
  154.0729  139.9937  160.4139 H   0  0  0  0  0  0  0  0  0  0  0  0
  152.5321  140.0391  158.4683 H   0  0  0  0  0  0  0  0  0  0  0  0
  150.7009  143.2057  157.5465 H   0  0  0  0  0  0  0  0  0  0  0  0
  149.5648  142.8375  155.9971 H   0  0  0  0  0  0  0  0  0  0  0  0
  149.5898  140.5984  154.3219 H   0  0  0  0  0  0  0  0  0  0  0  0
  147.5905  142.8067  154.9649 H   0  0  0  0  0  0  0  0  0  0  0  0
  148.6035  142.6222  153.5654 H   0  0  0  0  0  0  0  0  0  0  0  0
  145.9860  141.2281  154.2046 H   0  0  0  0  0  0  0  0  0  0  0  0
  146.3879  142.2035  152.8343 H   0  0  0  0  0  0  0  0  0  0  0  0
  146.2130  139.8812  152.1679 H   0  0  0  0  0  0  0  0  0  0  0  0
  147.8398  140.4233  151.9116 H   0  0  0  0  0  0  0  0  0  0  0  0
  147.1190  138.0555  153.1583 H   0  0  0  0  0  0  0  0  0  0  0  0
  148.6914  138.7793  153.2650 H   0  0  0  0  0  0  0  0  0  0  0  0
  146.9129  138.3529  155.3917 H   0  0  0  0  0  0  0  0  0  0  0  0
  1  2  1  0  0  0  0
  1 21  1  0  0  0  0
  1 22  1  0  0  0  0
  1 23  1  0  0  0  0
  2  3  1  0  0  0  0
  3  8  1  0  0  0  0
  3  4  2  0  0  0  0
  4  5  1  0  0  0  0
  5  6  2  0  0  0  0
  5 24  1  0  0  0  0
  6  7  1  0  0  0  0
  6 25  1  0  0  0  0
  7  8  2  0  0  0  0
  7 26  1  0  0  0  0
  8  9  1  0  0  0  0
  9 10  1  0  0  0  0
  9 27  1  0  0  0  0
 10 11  2  0  0  0  0
 10 12  1  0  0  0  0
 12 13  1  0  0  0  0
 12 28  1  0  0  0  0
 13 19  1  0  0  0  0
 13 14  1  0  0  0  0
 13 29  1  0  0  0  0
 14 15  1  0  0  0  0
 14 30  1  0  0  0  0
 14 31  1  0  0  0  0
 15 16  1  0  0  0  0
 15 32  1  0  0  0  0
 15 33  1  0  0  0  0
 16 17  1  0  0  0  0
 16 34  1  0  0  0  0
 16 35  1  0  0  0  0
 17 18  1  0  0  0  0
 17 36  1  0  0  0  0
 17 37  1  0  0  0  0
 18 19  1  0  0  0  0
 18 38  1  0  0  0  0
 19 20  2  0  0  0  0
M  END
> <s_m_source_file>
AV-unprocessed.smi

> <i_m_source_file_index>
1233

> <i_lp_mmshare_version>
43012

> <i_f3d_flags>
0

> <s_epik_input>
W0NIM11PYzFuW2NIXVtjSF1bY0hdYzFbTkhdQyg9TylbTkhdW0NAQEhdMltDSDJdW0NIMl1bQ0gyXVtDSDJdW05IXUMyPU8=

> <s_epik_cmdline>
J2VwaWtfcHl0aG9uJywgJy1waCcsICc3LjAnLCAnLXRuJywgJzgnLCAnLW1hJywgJzIwMCcsICctbWV0YWxfYmluZGluZycsICctaW1hZScsICc8aW5maWxlLm1hZT4nLCAnLW9tYWUnLCAnPG91dGZpbGUubWFlPic=

> <r_lp_tautomer_probability>
1

> <r_epik_Ionization_Penalty>
8.308e-05

> <r_epik_Ionization_Penalty_Charging>
0

> <r_epik_Ionization_Penalty_Neutral>
8.308e-05

> <r_epik_State_Penalty>
-0

> <r_epik_Charging_Adjusted_Penalty>
0

> <i_epik_Tot_Q>
0

> <i_epik_Tot_abs_Q>
0

> <r_epik_Metal_State_Penalty>
-0

> <b_epik_Metal_Only>
0

> <s_lp_Force_Field>
OPLS_2005

> <r_lp_Energy>
19.4298

> <b_lp_Chiralities_Consistent>
1

> <s_lp_Variant>
AV-unprocessed.smi:1233-1

> <Gold.Version>
5.8.1

> <Gold.Id.Protein>
6NUR|6NUR_protein|mol2

> <Gold.PLP.Fitness>
38.0543

> <Gold.PLP.PLP>
-35.1856

> <Gold.PLP.part.hbond>
-1.0000

> <Gold.PLP.part.metal>
0.0000

> <Gold.PLP.part.buried>
-2.0916

> <Gold.PLP.part.nonpolar>
-30.8696

> <Gold.PLP.part.repulsive>
0.2133

> <Gold.PLP.ligand.clash>
0.0000

> <Gold.PLP.ligand.torsion>
0.0662

> <Gold.PLP.Chemscore.Hbond>
1.0000

> <Gold.PLP.Chemscore.CHOScore>
0.0000

> <Gold.PLP.Chemscore.Metal>
0.0000

> <Gold.Chemscore.Hbonds>
donor molecule, donor type, donor heavy atom, donor atom, acceptor molecule, acceptor atom, score
      L1  H    12    28       P1  8028  1.00

> <Gold.PLP.Chemscore.Internal.Correction>
0.0011

> <Gold.Rescore>
     Score         DG    S(hbond)    S(metal)    S(lipo)     H(rot)  DE(clash)    DE(int)     intcor
     13.47     -15.68       1.00        0.00      87.41       1.31       0.35       1.85       ----

> <Gold.Chemscore.Fitness>
13.4745

> <Gold.Chemscore.DG>
-15.6798

> <Gold.Chemscore.ZeroCoef>
-5.4800

> <Gold.Chemscore.Hbond>
0.9953

> <Gold.Chemscore.Metal>
0.0000

> <Gold.Chemscore.Lipo>
87.4066

> <Gold.Chemscore.Internal_Hbond>
0.0000

> <Gold.Chemscore.DEClash>
0.3549

> <Gold.Chemscore.DEInternal>
1.8504

> <Gold.Chemscore.Rot>
1.3090

> <Gold.Chemscore.Internal.Correction>
   9.000000E+99

> <Gold.Chemscore.Hbonds>
donor molecule, donor type, donor heavy atom, donor atom, acceptor molecule, acceptor atom, score
      L1  H    12    28       P1  8028  0.93

> <Gold.Chemscore.Hbond.Weighted>
-3.3242

> <Gold.Chemscore.Metal.Weighted>
-0.0000

> <Gold.Chemscore.Lipo.Weighted>
-10.2266

> <Gold.Chemscore.Internal_Hbond.Weighted>
0.0000

> <Gold.Chemscore.DEClash.Weighted>
0.3549

> <Gold.Chemscore.DEInternal.Weighted>
1.8504

> <Gold.Chemscore.Rot.Weighted>
3.3509

> <Gold.Chemscore.Internal.Correction.Weighted>
   9.000000E+99

> <Gold.Protein.RotatedTorsions>
[ 6907 6896 6895 6894 ] final -166.22 input  -60.11 | X-H torsion
[ 7974 7965 7964 7962 ] final  -45.01 input  175.53 | X-H torsion
[ 8008 7997 7996 7995 ] final -135.05 input   59.86 | X-H torsion
[ 10167 10162 10161 10158 ] final  -84.35 input  -65.29 | X-H torsion
[ 10718 10713 10712 10709 ] final   25.44 input   66.30 | X-H torsion
[ 10763 10752 10751 10750 ] final    6.57 input  -60.55 | X-H torsion
[ 11005 11000 10999 10996 ] final -158.09 input  -57.11 | X-H torsion

> <Gold.Protein.ActiveResidues>
 VAL166  LYS551  ARG553  GLY616  TRP617  ASP618  TYR619  PRO620  LYS621  CYS622 
 ASP623  PHE694  ASN695  SER759  ASP760  ASP761  ALA762  ILE779  LEU786  VAL792 
 PHE793  MET794  SER795  GLU796  ALA797  LYS798  CYS799  TRP800  GLU811  SER814 

> <Gold.Protein.RotatedAtoms>
  151.4401  133.3646  159.2780 H   0  0  0  0  0  0  0  0  0  0  0  0  # atno 6907 bound_to 6896
  150.9164  134.8583  159.7470 H   0  0  0  0  0  0  0  0  0  0  0  0  # atno 6908 bound_to 6896
  152.4959  134.4335  159.9572 H   0  0  0  0  0  0  0  0  0  0  0  0  # atno 6909 bound_to 6896
  145.9864  140.7229  142.9338 H   0  0  0  0  0  0  0  0  0  0  0  0  # atno 7974 bound_to 7965
  155.3722  140.0489  157.3045 H   0  0  0  0  0  0  0  0  0  0  0  0  # atno 8008 bound_to 7997
  154.5124  140.2196  155.9093 H   0  0  0  0  0  0  0  0  0  0  0  0  # atno 8009 bound_to 7997
  156.1598  140.3119  155.8793 H   0  0  0  0  0  0  0  0  0  0  0  0  # atno 8010 bound_to 7997
  140.4140  143.2611  151.8979 H   0  0  0  0  0  0  0  0  0  0  0  0  # atno 10167 bound_to 10162
  157.1934  130.6856  149.6159 H   0  0  0  0  0  0  0  0  0  0  0  0  # atno 10718 bound_to 10713
  153.2462  135.6909  153.7728 H   0  0  0  0  0  0  0  0  0  0  0  0  # atno 10763 bound_to 10752
  153.6840  135.3324  155.3186 H   0  0  0  0  0  0  0  0  0  0  0  0  # atno 10764 bound_to 10752
  154.8376  135.4529  154.1402 H   0  0  0  0  0  0  0  0  0  0  0  0  # atno 10765 bound_to 10752
  140.6574  134.4386  157.5235 H   0  0  0  0  0  0  0  0  0  0  0  0  # atno 11005 bound_to 11000
  144.6876  140.2995  143.7265 LP  0  0  0  0  0  0  0  0  0  0  0  0  # atno 17320 bound_to 7965
  145.7695  139.1852  143.2221 LP  0  0  0  0  0  0  0  0  0  0  0  0  # atno 17321 bound_to 7965
  139.4782  144.5507  151.8390 LP  0  0  0  0  0  0  0  0  0  0  0  0  # atno 17342 bound_to 10162
  140.4606  144.1727  150.5906 LP  0  0  0  0  0  0  0  0  0  0  0  0  # atno 17343 bound_to 10162
  155.9709  130.4607  150.6082 LP  0  0  0  0  0  0  0  0  0  0  0  0  # atno 17370 bound_to 10713
  157.3838  131.0785  151.1453 LP  0  0  0  0  0  0  0  0  0  0  0  0  # atno 17371 bound_to 10713
  139.9025  134.8524  156.1839 LP  0  0  0  0  0  0  0  0  0  0  0  0  # atno 17394 bound_to 11000
  141.0491  133.6898  156.1738 LP  0  0  0  0  0  0  0  0  0  0  0  0  # atno 17395 bound_to 11000

$$$$
