AV-unprocessed.smi:2061|AV-procd|sdf|8373|dock9
  -GOLD-   2272011 53D 1   1.00000     0.00000
 Structure written by MMmdl.
 46 47  0  0  0  0  0  0  0  0  2 V2000
  152.1309  140.5127  156.9469 C   0  0  0  0  0  0  0  0  0  0  0  0
  151.8872  139.2838  156.1395 C   0  0  0  0  0  0  0  0  0  0  0  0
  150.7481  138.6300  155.7620 C   0  0  0  0  0  0  0  0  0  0  0  0
  151.2440  137.5348  155.0059 C   0  0  0  0  0  0  0  0  0  0  0  0
  150.3583  136.5914  154.4259 N   0  0  0  0  0  0  0  0  0  0  0  0
  149.8005  135.5216  155.0171 C   0  0  0  0  0  0  0  0  0  0  0  0
  149.9912  135.1726  156.1827 O   0  0  0  0  0  0  0  0  0  0  0  0
  148.9865  134.8672  154.1761 N   0  0  0  0  0  0  0  0  0  0  0  0
  148.2131  133.6782  154.5230 C   0  0  0  0  0  0  0  0  0  0  0  0
  147.6435  132.9359  153.2828 C   0  0  1  0  0  0  0  0  0  0  0  0
  146.5531  131.9302  153.7262 C   0  0  0  0  0  0  0  0  0  0  0  0
  147.1554  133.9190  152.2569 N   0  3  1  0  0  0  0  0  0  0  0  0
  146.7829  133.3126  150.9485 C   0  0  0  0  0  0  0  0  0  0  0  0
  145.4029  132.6187  151.0113 C   0  0  2  0  0  0  0  0  0  0  0  0
  144.9622  132.0941  149.6402 C   0  0  0  0  0  0  0  0  0  0  0  0
  144.4246  133.5516  151.4597 O   0  0  0  0  0  0  0  0  0  0  0  0
  144.7116  134.0870  152.7474 C   0  0  2  0  0  0  0  0  0  0  0  0
  143.5582  135.0145  153.1441 C   0  0  0  0  0  0  0  0  0  0  0  0
  146.0590  134.8338  152.6762 C   0  0  0  0  0  0  0  0  0  0  0  0
  152.5659  137.5206  154.9288 N   0  0  0  0  0  0  0  0  0  0  0  0
  152.9849  138.6425  155.6540 O   0  0  0  0  0  0  0  0  0  0  0  0
  151.2231  140.8265  157.4624 H   0  0  0  0  0  0  0  0  0  0  0  0
  152.4589  141.3341  156.3097 H   0  0  0  0  0  0  0  0  0  0  0  0
  152.9015  140.3373  157.6977 H   0  0  0  0  0  0  0  0  0  0  0  0
  149.7268  138.8948  155.9921 H   0  0  0  0  0  0  0  0  0  0  0  0
  150.1155  136.7566  153.4604 H   0  0  0  0  0  0  0  0  0  0  0  0
  148.8900  135.2173  153.2339 H   0  0  0  0  0  0  0  0  0  0  0  0
  148.8635  133.0075  155.0854 H   0  0  0  0  0  0  0  0  0  0  0  0
  147.4315  133.9892  155.2142 H   0  0  0  0  0  0  0  0  0  0  0  0
  148.4423  132.3466  152.8344 H   0  0  0  0  0  0  0  0  0  0  0  0
  146.9090  131.2644  154.5122 H   0  0  0  0  0  0  0  0  0  0  0  0
  146.2449  131.2754  152.9116 H   0  0  0  0  0  0  0  0  0  0  0  0
  145.6698  132.4427  154.1087 H   0  0  0  0  0  0  0  0  0  0  0  0
  146.7454  134.1139  150.2089 H   0  0  0  0  0  0  0  0  0  0  0  0
  147.5383  132.6202  150.5844 H   0  0  0  0  0  0  0  0  0  0  0  0
  145.4321  131.7743  151.7005 H   0  0  0  0  0  0  0  0  0  0  0  0
  145.6722  131.3631  149.2530 H   0  0  0  0  0  0  0  0  0  0  0  0
  144.8843  132.9027  148.9130 H   0  0  0  0  0  0  0  0  0  0  0  0
  143.9879  131.6089  149.7029 H   0  0  0  0  0  0  0  0  0  0  0  0
  144.7653  133.2747  153.4738 H   0  0  0  0  0  0  0  0  0  0  0  0
  143.7245  135.4469  154.1310 H   0  0  0  0  0  0  0  0  0  0  0  0
  142.6140  134.4700  153.1758 H   0  0  0  0  0  0  0  0  0  0  0  0
  143.4467  135.8340  152.4335 H   0  0  0  0  0  0  0  0  0  0  0  0
  146.2837  135.3527  153.6066 H   0  0  0  0  0  0  0  0  0  0  0  0
  145.9830  135.6279  151.9316 H   0  0  0  0  0  0  0  0  0  0  0  0
  147.9490  134.5176  152.0780 H   0  0  0  0  0  0  0  0  0  0  0  0
  1  2  1  0  0  0  0
  1 22  1  0  0  0  0
  1 23  1  0  0  0  0
  1 24  1  0  0  0  0
  2 21  1  0  0  0  0
  2  3  2  0  0  0  0
  3  4  1  0  0  0  0
  3 25  1  0  0  0  0
  4  5  1  0  0  0  0
  4 20  2  0  0  0  0
  5  6  1  0  0  0  0
  5 26  1  0  0  0  0
  6  7  2  0  0  0  0
  6  8  1  0  0  0  0
  8  9  1  0  0  0  0
  8 27  1  0  0  0  0
  9 10  1  0  0  0  0
  9 28  1  0  0  0  0
  9 29  1  0  0  0  0
 10 11  1  0  0  0  0
 10 12  1  0  0  0  0
 10 30  1  0  0  0  0
 11 31  1  0  0  0  0
 11 32  1  0  0  0  0
 11 33  1  0  0  0  0
 12 19  1  0  0  0  0
 12 13  1  0  0  0  0
 12 46  1  0  0  0  0
 13 14  1  0  0  0  0
 13 34  1  0  0  0  0
 13 35  1  0  0  0  0
 14 15  1  0  0  0  0
 14 16  1  0  0  0  0
 14 36  1  0  0  0  0
 15 37  1  0  0  0  0
 15 38  1  0  0  0  0
 15 39  1  0  0  0  0
 16 17  1  0  0  0  0
 17 18  1  0  0  0  0
 17 19  1  0  0  0  0
 17 40  1  0  0  0  0
 18 41  1  0  0  0  0
 18 42  1  0  0  0  0
 18 43  1  0  0  0  0
 19 44  1  0  0  0  0
 19 45  1  0  0  0  0
 20 21  1  0  0  0  0
M  CHG  1  12   1
M  END
> <s_m_source_file>
AV-unprocessed.smi

> <i_m_source_file_index>
2061

> <i_lp_mmshare_version>
43012

> <i_f3d_flags>
0

> <s_epik_input>
W0NIM11jMVtjSF1jKG5vMSlbTkhdQyg9TylbTkhdW0NIMl1bQ0BIXShbQ0gzXSlOMltDSDJdW0NAQEhdKFtDSDNdKU9bQ0BASF0oW0NIM10pW0NIMl0y

> <s_epik_cmdline>
J2VwaWtfcHl0aG9uJywgJy1waCcsICc3LjAnLCAnLXRuJywgJzgnLCAnLW1hJywgJzIwMCcsICctbWV0YWxfYmluZGluZycsICctaW1hZScsICc8aW5maWxlLm1hZT4nLCAnLW9tYWUnLCAnPG91dGZpbGUubWFlPic=

> <r_epik_Ionization_Penalty>
0.707076

> <r_epik_Ionization_Penalty_Charging>
0.707039

> <r_epik_Ionization_Penalty_Neutral>
3.6548e-05

> <r_epik_State_Penalty>
0.730276

> <r_epik_Charging_Adjusted_Penalty>
1.43732

> <i_epik_Tot_Q>
1

> <i_epik_Tot_abs_Q>
1

> <r_epik_Metal_State_Penalty>
0.743132

> <b_epik_Metal_Only>
0

> <s_lp_Force_Field>
OPLS_2005

> <r_lp_Energy>
17.8186

> <b_lp_Chiralities_Consistent>
1

> <s_lp_Variant>
AV-unprocessed.smi:2061-14

> <Gold.Version>
5.8.1

> <Gold.Id.Protein>
6NUR|6NUR_protein|mol2

> <Gold.PLP.Fitness>
45.7997

> <Gold.PLP.PLP>
-32.1084

> <Gold.PLP.part.hbond>
-5.8411

> <Gold.PLP.part.metal>
0.0000

> <Gold.PLP.part.buried>
-5.8083

> <Gold.PLP.part.nonpolar>
-21.5737

> <Gold.PLP.part.repulsive>
0.3099

> <Gold.PLP.ligand.clash>
0.0000

> <Gold.PLP.ligand.torsion>
1.0047

> <Gold.PLP.Chemscore.Hbond>
5.2160

> <Gold.PLP.Chemscore.CHOScore>
0.0000

> <Gold.PLP.Chemscore.Metal>
0.0000

> <Gold.Chemscore.Hbonds>
donor molecule, donor type, donor heavy atom, donor atom, acceptor molecule, acceptor atom, score
      L1  H     5    26       P1  7948  0.73
      L1  H     8    27       P1  7948  1.00
      L1  H    12    46       P1  7948  1.90
      P1  H  7997  8009       L1    21  0.72
      P1  H 10752 10764       L1    20  0.53

> <Gold.PLP.Chemscore.Internal.Correction>
0.0528

> <Gold.Rescore>
     Score         DG    S(hbond)    S(metal)    S(lipo)     H(rot)  DE(clash)    DE(int)     intcor
     16.15     -19.20       3.08        0.00      63.93       1.58       0.00       3.04       ----

> <Gold.Chemscore.Fitness>
16.1500

> <Gold.Chemscore.DG>
-19.1961

> <Gold.Chemscore.ZeroCoef>
-5.4800

> <Gold.Chemscore.Hbond>
3.0807

> <Gold.Chemscore.Metal>
0.0000

> <Gold.Chemscore.Lipo>
63.9325

> <Gold.Chemscore.Internal_Hbond>
0.0000

> <Gold.Chemscore.DEClash>
0.0038

> <Gold.Chemscore.DEInternal>
3.0423

> <Gold.Chemscore.Rot>
1.5834

> <Gold.Chemscore.Internal.Correction>
   9.000000E+99

> <Gold.Chemscore.Hbonds>
donor molecule, donor type, donor heavy atom, donor atom, acceptor molecule, acceptor atom, score
      L1  H     5    26       P1  7948  0.08
      L1  H     8    27       P1  7948  0.50
      L1  H    12    46       P1  7948  0.21
      P1  H  7997  8009       L1    21  0.12
      P1  H 10752 10764       L1    20  0.20

> <Gold.Chemscore.Hbond.Weighted>
-10.2895

> <Gold.Chemscore.Metal.Weighted>
-0.0000

> <Gold.Chemscore.Lipo.Weighted>
-7.4801

> <Gold.Chemscore.Internal_Hbond.Weighted>
0.0000

> <Gold.Chemscore.DEClash.Weighted>
0.0038

> <Gold.Chemscore.DEInternal.Weighted>
3.0423

> <Gold.Chemscore.Rot.Weighted>
4.0535

> <Gold.Chemscore.Internal.Correction.Weighted>
   9.000000E+99

> <Gold.Protein.RotatedTorsions>
[ 6907 6896 6895 6894 ] final  129.30 input  -60.11 | X-H torsion
[ 7974 7965 7964 7962 ] final -163.79 input  175.53 | X-H torsion
[ 8008 7997 7996 7995 ] final -147.76 input   59.86 | X-H torsion
[ 10167 10162 10161 10158 ] final  -83.10 input  -65.29 | X-H torsion
[ 10718 10713 10712 10709 ] final   53.57 input   66.30 | X-H torsion
[ 10763 10752 10751 10750 ] final  -75.34 input  -60.55 | X-H torsion
[ 11005 11000 10999 10996 ] final  102.30 input  -57.11 | X-H torsion

> <Gold.Protein.ActiveResidues>
 VAL166  LYS551  ARG553  GLY616  TRP617  ASP618  TYR619  PRO620  LYS621  CYS622 
 ASP623  PHE694  ASN695  SER759  ASP760  ASP761  ALA762  ILE779  LEU786  VAL792 
 PHE793  MET794  SER795  GLU796  ALA797  LYS798  CYS799  TRP800  GLU811  SER814 

> <Gold.Protein.RotatedAtoms>
  152.3637  133.6329  159.6034 H   0  0  0  0  0  0  0  0  0  0  0  0  # atno 6907 bound_to 6896
  150.7619  133.9382  159.3457 H   0  0  0  0  0  0  0  0  0  0  0  0  # atno 6908 bound_to 6896
  151.7216  135.0894  160.0336 H   0  0  0  0  0  0  0  0  0  0  0  0  # atno 6909 bound_to 6896
  144.7315  140.3055  143.6197 H   0  0  0  0  0  0  0  0  0  0  0  0  # atno 7974 bound_to 7965
  155.5807  140.0643  157.2784 H   0  0  0  0  0  0  0  0  0  0  0  0  # atno 8008 bound_to 7997
  154.4333  140.1852  156.1020 H   0  0  0  0  0  0  0  0  0  0  0  0  # atno 8009 bound_to 7997
  156.0307  140.3307  155.7140 H   0  0  0  0  0  0  0  0  0  0  0  0  # atno 8010 bound_to 7997
  140.4258  143.2567  151.8828 H   0  0  0  0  0  0  0  0  0  0  0  0  # atno 10167 bound_to 10162
  157.5179  130.8545  149.8519 H   0  0  0  0  0  0  0  0  0  0  0  0  # atno 10718 bound_to 10713
  154.4852  135.5834  153.6419 H   0  0  0  0  0  0  0  0  0  0  0  0  # atno 10763 bound_to 10752
  152.9853  135.6099  154.3195 H   0  0  0  0  0  0  0  0  0  0  0  0  # atno 10764 bound_to 10752
  154.3090  135.2845  155.2554 H   0  0  0  0  0  0  0  0  0  0  0  0  # atno 10765 bound_to 10752
  139.8777  134.9218  156.5037 H   0  0  0  0  0  0  0  0  0  0  0  0  # atno 11005 bound_to 11000
  145.7717  139.1859  143.2209 LP  0  0  0  0  0  0  0  0  0  0  0  0  # atno 17320 bound_to 7965
  146.0905  140.7661  142.9597 LP  0  0  0  0  0  0  0  0  0  0  0  0  # atno 17321 bound_to 7965
  139.4783  144.5389  151.8558 LP  0  0  0  0  0  0  0  0  0  0  0  0  # atno 17342 bound_to 10162
  140.4483  144.1890  150.5895 LP  0  0  0  0  0  0  0  0  0  0  0  0  # atno 17343 bound_to 10162
  156.0333  130.3758  150.1629 LP  0  0  0  0  0  0  0  0  0  0  0  0  # atno 17370 bound_to 10713
  156.9818  130.9866  151.3435 LP  0  0  0  0  0  0  0  0  0  0  0  0  # atno 17371 bound_to 10713
  140.8570  133.8088  155.9226 LP  0  0  0  0  0  0  0  0  0  0  0  0  # atno 17394 bound_to 11000
  140.9087  134.2288  157.4999 LP  0  0  0  0  0  0  0  0  0  0  0  0  # atno 17395 bound_to 11000

$$$$
