AV-unprocessed.smi:1076|AV-procd|sdf|4700|dock5
  -GOLD-   22720 3223D 1   1.00000     0.00000
 Structure written by MMmdl.
 44 45  0  0  0  0  0  0  0  0  1 V2000
  144.0134  132.6033  149.4994 C   0  0  0  0  0  0  0  0  0  0  0  0
  144.9989  132.9850  150.5659 C   0  0  0  0  0  0  0  0  0  0  0  0
  144.7628  133.7694  151.7306 C   0  0  0  0  0  0  0  0  0  0  0  0
  145.8444  133.9204  152.4772 N   0  0  0  0  0  0  0  0  0  0  0  0
  146.8082  133.2461  151.8147 N   0  0  0  0  0  0  0  0  0  0  0  0
  148.1550  133.1894  152.3567 C   0  0  0  0  0  0  0  0  0  0  0  0
  148.1853  132.7765  153.8425 C   0  0  1  0  0  0  0  0  0  0  0  0
  149.4028  131.8826  154.1381 C   0  0  0  0  0  0  0  0  0  0  0  0
  148.2396  133.9806  154.6652 N   0  0  0  0  0  0  0  0  0  0  0  0
  149.5329  134.6481  154.5692 C   0  0  0  0  0  0  0  0  0  0  0  0
  149.5717  135.9264  155.4325 C   0  0  0  0  0  0  0  0  0  0  0  0
  150.9360  136.6440  155.4828 C   0  0  0  0  0  0  0  0  0  0  0  0
  151.8678  136.1172  156.0933 O   0  0  0  0  0  0  0  0  0  0  0  0
  151.0735  137.8385  154.8577 N   0  0  0  0  0  0  0  0  0  0  0  0
  152.3300  138.5939  154.8434 C   0  0  0  0  0  0  0  0  0  0  0  0
  152.1199  139.9082  155.6153 C   0  0  0  0  0  0  0  0  0  0  0  0
  151.0576  140.6470  155.0179 O   0  0  0  0  0  0  0  0  0  0  0  0
  149.8252  139.9315  154.9966 C   0  0  0  0  0  0  0  0  0  0  0  0
  150.0003  138.6118  154.2229 C   0  0  0  0  0  0  0  0  0  0  0  0
  146.3242  132.6667  150.6610 C   0  0  0  0  0  0  0  0  0  0  0  0
  143.4401  133.4638  149.1547 H   0  0  0  0  0  0  0  0  0  0  0  0
  143.2983  131.8644  149.8610 H   0  0  0  0  0  0  0  0  0  0  0  0
  144.5051  132.1747  148.6260 H   0  0  0  0  0  0  0  0  0  0  0  0
  143.8406  134.2290  152.0546 H   0  0  0  0  0  0  0  0  0  0  0  0
  148.7248  132.4768  151.7587 H   0  0  0  0  0  0  0  0  0  0  0  0
  148.6317  134.1609  152.2167 H   0  0  0  0  0  0  0  0  0  0  0  0
  147.2715  132.2233  154.0653 H   0  0  0  0  0  0  0  0  0  0  0  0
  149.4014  131.0017  153.4958 H   0  0  0  0  0  0  0  0  0  0  0  0
  149.4104  131.5255  155.1674 H   0  0  0  0  0  0  0  0  0  0  0  0
  150.3382  132.4161  153.9640 H   0  0  0  0  0  0  0  0  0  0  0  0
  148.0806  133.7270  155.6299 H   0  0  0  0  0  0  0  0  0  0  0  0
  150.3110  133.9611  154.9035 H   0  0  0  0  0  0  0  0  0  0  0  0
  149.7592  134.9018  153.5338 H   0  0  0  0  0  0  0  0  0  0  0  0
  148.8164  136.6177  155.0563 H   0  0  0  0  0  0  0  0  0  0  0  0
  149.2873  135.6686  156.4532 H   0  0  0  0  0  0  0  0  0  0  0  0
  153.1651  138.0421  155.2763 H   0  0  0  0  0  0  0  0  0  0  0  0
  152.6119  138.8051  153.8109 H   0  0  0  0  0  0  0  0  0  0  0  0
  151.8951  139.7114  156.6648 H   0  0  0  0  0  0  0  0  0  0  0  0
  153.0275  140.5109  155.5899 H   0  0  0  0  0  0  0  0  0  0  0  0
  149.4870  139.7421  156.0164 H   0  0  0  0  0  0  0  0  0  0  0  0
  149.0670  140.5518  154.5184 H   0  0  0  0  0  0  0  0  0  0  0  0
  150.2728  138.8182  153.1871 H   0  0  0  0  0  0  0  0  0  0  0  0
  149.0444  138.0928  154.1828 H   0  0  0  0  0  0  0  0  0  0  0  0
  146.9571  132.0824  150.0090 H   0  0  0  0  0  0  0  0  0  0  0  0
  1  2  1  0  0  0  0
  1 21  1  0  0  0  0
  1 22  1  0  0  0  0
  1 23  1  0  0  0  0
  2 20  2  0  0  0  0
  2  3  1  0  0  0  0
  3  4  2  0  0  0  0
  3 24  1  0  0  0  0
  4  5  1  0  0  0  0
  5  6  1  0  0  0  0
  5 20  1  0  0  0  0
  6  7  1  0  0  0  0
  6 25  1  0  0  0  0
  6 26  1  0  0  0  0
  7  8  1  0  0  0  0
  7  9  1  0  0  0  0
  7 27  1  0  0  0  0
  8 28  1  0  0  0  0
  8 29  1  0  0  0  0
  8 30  1  0  0  0  0
  9 10  1  0  0  0  0
  9 31  1  0  0  0  0
 10 11  1  0  0  0  0
 10 32  1  0  0  0  0
 10 33  1  0  0  0  0
 11 12  1  0  0  0  0
 11 34  1  0  0  0  0
 11 35  1  0  0  0  0
 12 13  2  0  0  0  0
 12 14  1  0  0  0  0
 14 19  1  0  0  0  0
 14 15  1  0  0  0  0
 15 16  1  0  0  0  0
 15 36  1  0  0  0  0
 15 37  1  0  0  0  0
 16 17  1  0  0  0  0
 16 38  1  0  0  0  0
 16 39  1  0  0  0  0
 17 18  1  0  0  0  0
 18 19  1  0  0  0  0
 18 40  1  0  0  0  0
 18 41  1  0  0  0  0
 19 42  1  0  0  0  0
 19 43  1  0  0  0  0
 20 44  1  0  0  0  0
M  END
> <s_m_source_file>
AV-unprocessed.smi

> <i_m_source_file_index>
1076

> <i_lp_mmshare_version>
43012

> <i_f3d_flags>
0

> <s_epik_input>
W0NIM11jMVtjSF1ubihbY0hdMSlbQ0gyXVtDQEhdKFtDSDNdKVtOSF1bQ0gyXVtDSDJdQyg9TylOMltDSDJdW0NIMl1PW0NIMl1bQ0gyXTI=

> <s_epik_cmdline>
J2VwaWtfcHl0aG9uJywgJy1waCcsICc3LjAnLCAnLXRuJywgJzgnLCAnLW1hJywgJzIwMCcsICctbWV0YWxfYmluZGluZycsICctaW1hZScsICc8aW5maWxlLm1hZT4nLCAnLW9tYWUnLCAnPG91dGZpbGUubWFlPic=

> <r_lp_tautomer_probability>
1

> <r_epik_Ionization_Penalty>
2.55707

> <r_epik_Ionization_Penalty_Charging>
0

> <r_epik_Ionization_Penalty_Neutral>
2.55707

> <r_epik_State_Penalty>
2.726

> <r_epik_Charging_Adjusted_Penalty>
2.726

> <i_epik_Tot_Q>
0

> <i_epik_Tot_abs_Q>
0

> <r_epik_Metal_State_Penalty>
2.72594

> <b_epik_Metal_Only>
0

> <s_lp_Force_Field>
OPLS_2005

> <r_lp_Energy>
22.7086

> <b_lp_Chiralities_Consistent>
1

> <s_lp_Variant>
AV-unprocessed.smi:1076-4

> <Gold.Version>
5.8.1

> <Gold.Id.Protein>
6NUR|6NUR_protein|mol2

> <Gold.PLP.Fitness>
48.5511

> <Gold.PLP.PLP>
-40.9779

> <Gold.PLP.part.hbond>
-2.0000

> <Gold.PLP.part.metal>
0.0000

> <Gold.PLP.part.buried>
-4.5586

> <Gold.PLP.part.nonpolar>
-35.4688

> <Gold.PLP.part.repulsive>
0.1579

> <Gold.PLP.ligand.clash>
0.0000

> <Gold.PLP.ligand.torsion>
0.7526

> <Gold.PLP.Chemscore.Hbond>
2.0000

> <Gold.PLP.Chemscore.CHOScore>
1.0000

> <Gold.PLP.Chemscore.Metal>
0.0000

> <Gold.Chemscore.Hbonds>
donor molecule, donor type, donor heavy atom, donor atom, acceptor molecule, acceptor atom, score
      P1  H  7989  7998       L1    17  0.91
      P1  H 10752 10763       L1    13  0.98
      L1  C    20    44       P1 10747  1.00

> <Gold.PLP.Chemscore.Internal.Correction>
0.0785

> <Gold.Rescore>
     Score         DG    S(hbond)    S(metal)    S(lipo)     H(rot)  DE(clash)    DE(int)     intcor
     15.24     -16.41       1.63        0.00      88.81       1.91       0.16       1.01       ----

> <Gold.Chemscore.Fitness>
15.2419

> <Gold.Chemscore.DG>
-16.4092

> <Gold.Chemscore.ZeroCoef>
-5.4800

> <Gold.Chemscore.Hbond>
1.6250

> <Gold.Chemscore.Metal>
0.0000

> <Gold.Chemscore.Lipo>
88.8091

> <Gold.Chemscore.Internal_Hbond>
0.0000

> <Gold.Chemscore.DEClash>
0.1617

> <Gold.Chemscore.DEInternal>
1.0056

> <Gold.Chemscore.Rot>
1.9098

> <Gold.Chemscore.Internal.Correction>
   9.000000E+99

> <Gold.Chemscore.Hbonds>
donor molecule, donor type, donor heavy atom, donor atom, acceptor molecule, acceptor atom, score
      P1  H  7989  7998       L1    17  0.25
      P1  H 10752 10763       L1    13  0.93

> <Gold.Chemscore.Hbond.Weighted>
-5.4276

> <Gold.Chemscore.Metal.Weighted>
-0.0000

> <Gold.Chemscore.Lipo.Weighted>
-10.3907

> <Gold.Chemscore.Internal_Hbond.Weighted>
0.0000

> <Gold.Chemscore.DEClash.Weighted>
0.1617

> <Gold.Chemscore.DEInternal.Weighted>
1.0056

> <Gold.Chemscore.Rot.Weighted>
4.8891

> <Gold.Chemscore.Internal.Correction.Weighted>
   9.000000E+99

> <Gold.Protein.RotatedTorsions>
[ 6907 6896 6895 6894 ] final  144.70 input  -60.11 | X-H torsion
[ 7974 7965 7964 7962 ] final  110.02 input  175.53 | X-H torsion
[ 8008 7997 7996 7995 ] final  131.61 input   59.86 | X-H torsion
[ 10167 10162 10161 10158 ] final -125.39 input  -65.29 | X-H torsion
[ 10718 10713 10712 10709 ] final -119.01 input   66.30 | X-H torsion
[ 10763 10752 10751 10750 ] final  107.66 input  -60.55 | X-H torsion
[ 11005 11000 10999 10996 ] final -179.72 input  -57.11 | X-H torsion

> <Gold.Protein.ActiveResidues>
 VAL166  LYS551  ARG553  GLY616  TRP617  ASP618  TYR619  PRO620  LYS621  CYS622 
 ASP623  PHE694  ASN695  SER759  ASP760  ASP761  ALA762  ILE779  LEU786  VAL792 
 PHE793  MET794  SER795  GLU796  ALA797  LYS798  CYS799  TRP800  GLU811  SER814 

> <Gold.Protein.RotatedAtoms>
  152.1903  133.4768  159.5004 H   0  0  0  0  0  0  0  0  0  0  0  0  # atno 6907 bound_to 6896
  150.6950  134.1721  159.4225 H   0  0  0  0  0  0  0  0  0  0  0  0  # atno 6908 bound_to 6896
  151.9635  135.0111  160.0599 H   0  0  0  0  0  0  0  0  0  0  0  0  # atno 6909 bound_to 6896
  145.2603  139.2705  143.4020 H   0  0  0  0  0  0  0  0  0  0  0  0  # atno 7974 bound_to 7965
  156.2972  140.2567  156.2953 H   0  0  0  0  0  0  0  0  0  0  0  0  # atno 8008 bound_to 7997
  154.9470  140.0395  157.2144 H   0  0  0  0  0  0  0  0  0  0  0  0  # atno 8009 bound_to 7997
  154.8072  140.2838  155.5883 H   0  0  0  0  0  0  0  0  0  0  0  0  # atno 8010 bound_to 7997
  139.9827  143.5725  152.2372 H   0  0  0  0  0  0  0  0  0  0  0  0  # atno 10167 bound_to 10162
  156.1149  130.6278  150.9363 H   0  0  0  0  0  0  0  0  0  0  0  0  # atno 10718 bound_to 10713
  153.4099  135.3837  155.2043 H   0  0  0  0  0  0  0  0  0  0  0  0  # atno 10763 bound_to 10752
  154.8737  135.3791  154.4514 H   0  0  0  0  0  0  0  0  0  0  0  0  # atno 10764 bound_to 10752
  153.5021  135.7088  153.5888 H   0  0  0  0  0  0  0  0  0  0  0  0  # atno 10765 bound_to 10752
  140.4155  134.6653  157.4637 H   0  0  0  0  0  0  0  0  0  0  0  0  # atno 11005 bound_to 11000
  146.3277  140.3019  142.8621 LP  0  0  0  0  0  0  0  0  0  0  0  0  # atno 17320 bound_to 7965
  144.9424  140.8092  143.5622 LP  0  0  0  0  0  0  0  0  0  0  0  0  # atno 17321 bound_to 7965
  139.6398  144.7653  151.2362 LP  0  0  0  0  0  0  0  0  0  0  0  0  # atno 17342 bound_to 10162
  140.7483  143.6336  150.8400 LP  0  0  0  0  0  0  0  0  0  0  0  0  # atno 17343 bound_to 10162
  157.6332  131.0919  150.8401 LP  0  0  0  0  0  0  0  0  0  0  0  0  # atno 17370 bound_to 10713
  156.8506  130.5079  149.5312 LP  0  0  0  0  0  0  0  0  0  0  0  0  # atno 17371 bound_to 10713
  140.0237  134.6509  155.9203 LP  0  0  0  0  0  0  0  0  0  0  0  0  # atno 17394 bound_to 11000
  141.1804  133.6546  156.4999 LP  0  0  0  0  0  0  0  0  0  0  0  0  # atno 17395 bound_to 11000

$$$$
