AV-unprocessed.smi:3133|AV-procd|sdf|11939|dock7
  -GOLD-   2272017323D 1   1.00000     0.00000
 Structure written by MMmdl.
 32 33  0  0  0  0  0  0  0  0  1 V2000
  151.2196  138.0364  154.4389 C   0  0  0  0  0  0  0  0  0  0  0  0
  151.2588  139.5162  154.8721 C   0  0  2  0  0  0  0  0  0  0  0  0
  151.8345  139.7150  156.2849 C   0  0  0  0  0  0  0  0  0  0  0  0
  152.8861  139.1680  156.6199 O   0  0  0  0  0  0  0  0  0  0  0  0
  151.1352  140.5189  157.1024 N   0  0  0  0  0  0  0  0  0  0  0  0
  151.5169  140.8769  158.4633 C   0  0  0  0  0  0  0  0  0  0  0  0
  151.2576  142.3664  158.7396 C   0  0  1  0  0  0  0  0  0  0  0  0
  152.1574  142.9562  159.8233 C   0  0  0  0  0  0  0  0  0  0  0  0
  152.1094  144.4288  159.4859 C   0  0  0  0  0  0  0  0  0  0  0  0
  152.1127  144.4012  157.9596 C   0  0  0  0  0  0  0  0  0  0  0  0
  151.5242  143.1579  157.5845 O   0  0  0  0  0  0  0  0  0  0  0  0
  149.9525  140.1535  154.7533 N   0  0  0  0  0  0  0  0  0  0  0  0
  148.7726  139.6333  154.4082 C   0  0  0  0  0  0  0  0  0  0  0  0
  147.7859  140.5173  154.3636 N   0  0  0  0  0  0  0  0  0  0  0  0
  148.4754  141.6456  154.7072 C   0  0  0  0  0  0  0  0  0  0  0  0
  149.7777  141.4856  154.9414 N   0  0  0  0  0  0  0  0  0  0  0  0
  152.2148  137.5912  154.4670 H   0  0  0  0  0  0  0  0  0  0  0  0
  150.8496  137.9412  153.4178 H   0  0  0  0  0  0  0  0  0  0  0  0
  150.5718  137.4391  155.0819 H   0  0  0  0  0  0  0  0  0  0  0  0
  151.9295  140.0337  154.1842 H   0  0  0  0  0  0  0  0  0  0  0  0
  150.2832  140.9284  156.7479 H   0  0  0  0  0  0  0  0  0  0  0  0
  150.9180  140.2702  159.1430 H   0  0  0  0  0  0  0  0  0  0  0  0
  152.5594  140.6219  158.6621 H   0  0  0  0  0  0  0  0  0  0  0  0
  150.2148  142.5224  159.0218 H   0  0  0  0  0  0  0  0  0  0  0  0
  151.8088  142.7361  160.8327 H   0  0  0  0  0  0  0  0  0  0  0  0
  153.1781  142.5838  159.7235 H   0  0  0  0  0  0  0  0  0  0  0  0
  151.1793  144.8656  159.8526 H   0  0  0  0  0  0  0  0  0  0  0  0
  152.9420  144.9946  159.9046 H   0  0  0  0  0  0  0  0  0  0  0  0
  151.5689  145.2432  157.5301 H   0  0  0  0  0  0  0  0  0  0  0  0
  153.1340  144.4279  157.5781 H   0  0  0  0  0  0  0  0  0  0  0  0
  148.6331  138.5862  154.1821 H   0  0  0  0  0  0  0  0  0  0  0  0
  148.0040  142.6146  154.7814 H   0  0  0  0  0  0  0  0  0  0  0  0
  1  2  1  0  0  0  0
  1 17  1  0  0  0  0
  1 18  1  0  0  0  0
  1 19  1  0  0  0  0
  2  3  1  0  0  0  0
  2 12  1  0  0  0  0
  2 20  1  0  0  0  0
  3  4  2  0  0  0  0
  3  5  1  0  0  0  0
  5  6  1  0  0  0  0
  5 21  1  0  0  0  0
  6  7  1  0  0  0  0
  6 22  1  0  0  0  0
  6 23  1  0  0  0  0
  7 11  1  0  0  0  0
  7  8  1  0  0  0  0
  7 24  1  0  0  0  0
  8  9  1  0  0  0  0
  8 25  1  0  0  0  0
  8 26  1  0  0  0  0
  9 10  1  0  0  0  0
  9 27  1  0  0  0  0
  9 28  1  0  0  0  0
 10 11  1  0  0  0  0
 10 29  1  0  0  0  0
 10 30  1  0  0  0  0
 12 16  1  0  0  0  0
 12 13  1  0  0  0  0
 13 14  2  0  0  0  0
 13 31  1  0  0  0  0
 14 15  1  0  0  0  0
 15 16  2  0  0  0  0
 15 32  1  0  0  0  0
M  END
> <s_m_source_file>
AV-unprocessed.smi

> <i_m_source_file_index>
3133

> <i_lp_mmshare_version>
43012

> <i_f3d_flags>
0

> <s_epik_input>
bjFbY0hdbltjSF1uMVtDQEhdKFtDSDNdKUMoPU8pW05IXVtDSDJdW0NAQEhdMltDSDJdW0NIMl1bQ0gyXU8y

> <s_epik_cmdline>
J2VwaWtfcHl0aG9uJywgJy1waCcsICc3LjAnLCAnLXRuJywgJzgnLCAnLW1hJywgJzIwMCcsICctbWV0YWxfYmluZGluZycsICctaW1hZScsICc8aW5maWxlLm1hZT4nLCAnLW9tYWUnLCAnPG91dGZpbGUubWFlPic=

> <r_lp_tautomer_probability>
1

> <r_epik_Ionization_Penalty>
1.2027e-05

> <r_epik_Ionization_Penalty_Charging>
0

> <r_epik_Ionization_Penalty_Neutral>
1.2027e-05

> <r_epik_State_Penalty>
-0

> <r_epik_Charging_Adjusted_Penalty>
0

> <i_epik_Tot_Q>
0

> <i_epik_Tot_abs_Q>
0

> <r_epik_Metal_State_Penalty>
-0

> <b_epik_Metal_Only>
0

> <s_lp_Force_Field>
OPLS_2005

> <r_lp_Energy>
23.186

> <b_lp_Chiralities_Consistent>
1

> <s_lp_Variant>
AV-unprocessed.smi:3133-3

> <Gold.Version>
5.8.1

> <Gold.Id.Protein>
6NUR|6NUR_protein|mol2

> <Gold.PLP.Fitness>
39.3530

> <Gold.PLP.PLP>
-34.4542

> <Gold.PLP.part.hbond>
-2.0000

> <Gold.PLP.part.metal>
0.0000

> <Gold.PLP.part.buried>
-0.1962

> <Gold.PLP.part.nonpolar>
-32.0884

> <Gold.PLP.part.repulsive>
0.4259

> <Gold.PLP.ligand.clash>
0.0000

> <Gold.PLP.ligand.torsion>
0.6073

> <Gold.PLP.Chemscore.Hbond>
1.0000

> <Gold.PLP.Chemscore.CHOScore>
1.0000

> <Gold.PLP.Chemscore.Metal>
0.0000

> <Gold.Chemscore.Hbonds>
donor molecule, donor type, donor heavy atom, donor atom, acceptor molecule, acceptor atom, score
      P1  H  7997  8010       L1     4  1.00
      L1  C    15    32       P1  8028  1.00

> <Gold.PLP.Chemscore.Internal.Correction>
0.1134

> <Gold.Rescore>
     Score         DG    S(hbond)    S(metal)    S(lipo)     H(rot)  DE(clash)    DE(int)     intcor
      9.32     -11.41       0.99        0.00      71.92       2.26       0.03       2.07       ----

> <Gold.Chemscore.Fitness>
9.3199

> <Gold.Chemscore.DG>
-11.4123

> <Gold.Chemscore.ZeroCoef>
-5.4800

> <Gold.Chemscore.Hbond>
0.9858

> <Gold.Chemscore.Metal>
0.0000

> <Gold.Chemscore.Lipo>
71.9201

> <Gold.Chemscore.Internal_Hbond>
0.0000

> <Gold.Chemscore.DEClash>
0.0268

> <Gold.Chemscore.DEInternal>
2.0657

> <Gold.Chemscore.Rot>
2.2558

> <Gold.Chemscore.Internal.Correction>
   9.000000E+99

> <Gold.Chemscore.Hbonds>
donor molecule, donor type, donor heavy atom, donor atom, acceptor molecule, acceptor atom, score
      P1  H  7997  8010       L1     4  0.90

> <Gold.Chemscore.Hbond.Weighted>
-3.2924

> <Gold.Chemscore.Metal.Weighted>
-0.0000

> <Gold.Chemscore.Lipo.Weighted>
-8.4146

> <Gold.Chemscore.Internal_Hbond.Weighted>
0.0000

> <Gold.Chemscore.DEClash.Weighted>
0.0268

> <Gold.Chemscore.DEInternal.Weighted>
2.0657

> <Gold.Chemscore.Rot.Weighted>
5.7747

> <Gold.Chemscore.Internal.Correction.Weighted>
   9.000000E+99

> <Gold.Protein.RotatedTorsions>
[ 6907 6896 6895 6894 ] final   -0.10 input  -60.11 | X-H torsion
[ 7974 7965 7964 7962 ] final   47.14 input  175.53 | X-H torsion
[ 8008 7997 7996 7995 ] final   78.34 input   59.86 | X-H torsion
[ 10167 10162 10161 10158 ] final  -52.67 input  -65.29 | X-H torsion
[ 10718 10713 10712 10709 ] final  -65.19 input   66.30 | X-H torsion
[ 10763 10752 10751 10750 ] final -157.84 input  -60.55 | X-H torsion
[ 11005 11000 10999 10996 ] final   46.75 input  -57.11 | X-H torsion

> <Gold.Protein.ActiveResidues>
 VAL166  LYS551  ARG553  GLY616  TRP617  ASP618  TYR619  PRO620  LYS621  CYS622 
 ASP623  PHE694  ASN695  SER759  ASP760  ASP761  ALA762  ILE779  LEU786  VAL792 
 PHE793  MET794  SER795  GLU796  ALA797  LYS798  CYS799  TRP800  GLU811  SER814 

> <Gold.Protein.RotatedAtoms>
  151.5677  135.1063  159.9987 H   0  0  0  0  0  0  0  0  0  0  0  0  # atno 6907 bound_to 6896
  152.4416  133.7454  159.6675 H   0  0  0  0  0  0  0  0  0  0  0  0  # atno 6908 bound_to 6896
  150.8322  133.8003  159.3117 H   0  0  0  0  0  0  0  0  0  0  0  0  # atno 6909 bound_to 6896
  146.0325  139.4781  142.9829 H   0  0  0  0  0  0  0  0  0  0  0  0  # atno 7974 bound_to 7965
  155.8543  140.3456  155.5714 H   0  0  0  0  0  0  0  0  0  0  0  0  # atno 8008 bound_to 7997
  155.8004  140.0884  157.1980 H   0  0  0  0  0  0  0  0  0  0  0  0  # atno 8009 bound_to 7997
  154.4009  140.1466  156.3254 H   0  0  0  0  0  0  0  0  0  0  0  0  # atno 8010 bound_to 7997
  140.6525  143.2576  151.4681 H   0  0  0  0  0  0  0  0  0  0  0  0  # atno 10167 bound_to 10162
  156.0684  130.4244  150.1528 H   0  0  0  0  0  0  0  0  0  0  0  0  # atno 10718 bound_to 10713
  154.7604  135.3116  154.8388 H   0  0  0  0  0  0  0  0  0  0  0  0  # atno 10763 bound_to 10752
  153.9151  135.6801  153.4754 H   0  0  0  0  0  0  0  0  0  0  0  0  # atno 10764 bound_to 10752
  153.1205  135.4825  154.9118 H   0  0  0  0  0  0  0  0  0  0  0  0  # atno 10765 bound_to 10752
  140.1340  134.4668  155.8499 H   0  0  0  0  0  0  0  0  0  0  0  0  # atno 11005 bound_to 11000
  145.7017  141.0134  143.1500 LP  0  0  0  0  0  0  0  0  0  0  0  0  # atno 17320 bound_to 7965
  144.7037  139.8652  143.7436 LP  0  0  0  0  0  0  0  0  0  0  0  0  # atno 17321 bound_to 7965
  139.5742  144.1857  152.1880 LP  0  0  0  0  0  0  0  0  0  0  0  0  # atno 17342 bound_to 10162
  140.1163  144.5413  150.6892 LP  0  0  0  0  0  0  0  0  0  0  0  0  # atno 17343 bound_to 10162
  156.9584  130.9797  151.3484 LP  0  0  0  0  0  0  0  0  0  0  0  0  # atno 17370 bound_to 10713
  157.5740  130.8330  149.8430 LP  0  0  0  0  0  0  0  0  0  0  0  0  # atno 17371 bound_to 10713
  141.2175  133.6807  156.7123 LP  0  0  0  0  0  0  0  0  0  0  0  0  # atno 17394 bound_to 11000
  140.2805  134.8320  157.3929 LP  0  0  0  0  0  0  0  0  0  0  0  0  # atno 17395 bound_to 11000

$$$$
