AV-unprocessed.smi:2625|AV-procd|sdf|10235|dock1
  -GOLD-   2272014243D 1   1.00000     0.00000
 Structure written by MMmdl.
 24 24  0  0  0  0  0  0  0  0  1 V2000
  146.2437  142.5046  154.1413 C   0  0  0  0  0  0  0  0  0  0  0  0
  146.8406  142.3534  155.4168 O   0  0  0  0  0  0  0  0  0  0  0  0
  147.5922  141.1563  155.5288 C   0  0  0  0  0  0  0  0  0  0  0  0
  148.5623  141.0323  154.3423 C   0  0  0  0  0  0  0  0  0  0  0  0
  149.7767  140.3145  154.6750 N   0  0  0  0  0  0  0  0  0  0  0  0
  150.1172  139.0806  154.1149 C   0  0  0  0  0  0  0  0  0  0  0  0
  149.2645  138.4975  153.1941 N   0  0  0  0  0  0  0  0  0  0  0  0
  151.2698  138.4437  154.4435 C   0  0  0  0  0  0  0  0  0  0  0  0
  152.2133  139.0198  155.3948 C   0  0  0  0  0  0  0  0  0  0  0  0
  153.2717  138.5027  155.7453 O   0  0  0  0  0  0  0  0  0  0  0  0
  151.8311  140.2577  155.9111 N   0  0  0  0  0  0  0  0  0  0  0  0
  150.6590  140.9403  155.5917 C   0  0  0  0  0  0  0  0  0  0  0  0
  150.4418  142.0379  156.1060 O   0  0  0  0  0  0  0  0  0  0  0  0
  152.4587  140.6991  156.5673 H   0  0  0  0  0  0  0  0  0  0  0  0
  145.6769  143.4351  154.1109 H   0  0  0  0  0  0  0  0  0  0  0  0
  145.5567  141.6848  153.9274 H   0  0  0  0  0  0  0  0  0  0  0  0
  146.9988  142.5448  153.3554 H   0  0  0  0  0  0  0  0  0  0  0  0
  148.1619  141.1743  156.4588 H   0  0  0  0  0  0  0  0  0  0  0  0
  146.9291  140.2908  155.5720 H   0  0  0  0  0  0  0  0  0  0  0  0
  148.0971  140.5620  153.4746 H   0  0  0  0  0  0  0  0  0  0  0  0
  148.8790  142.0158  153.9952 H   0  0  0  0  0  0  0  0  0  0  0  0
  148.4002  138.9387  152.9137 H   0  0  0  0  0  0  0  0  0  0  0  0
  149.4690  137.6042  152.7698 H   0  0  0  0  0  0  0  0  0  0  0  0
  151.5077  137.4888  153.9954 H   0  0  0  0  0  0  0  0  0  0  0  0
  1  2  1  0  0  0  0
  1 15  1  0  0  0  0
  1 16  1  0  0  0  0
  1 17  1  0  0  0  0
  2  3  1  0  0  0  0
  3  4  1  0  0  0  0
  3 18  1  0  0  0  0
  3 19  1  0  0  0  0
  4  5  1  0  0  0  0
  4 20  1  0  0  0  0
  4 21  1  0  0  0  0
  5 12  1  0  0  0  0
  5  6  1  0  0  0  0
  6  7  1  0  0  0  0
  6  8  2  0  0  0  0
  7 22  1  0  0  0  0
  7 23  1  0  0  0  0
  8  9  1  0  0  0  0
  8 24  1  0  0  0  0
  9 10  2  0  0  0  0
  9 11  1  0  0  0  0
 11 14  1  0  0  0  0
 11 12  1  0  0  0  0
 12 13  2  0  0  0  0
M  END
> <s_m_source_file>
AV-unprocessed.smi

> <i_m_source_file_index>
2625

> <i_lp_mmshare_version>
43012

> <i_f3d_flags>
0

> <s_epik_input>
W0NIM11PW0NIMl1bQ0gyXW4xYyhbTkgyXSlbY0hdYyg9TylbbkhdYzE9Tw==

> <s_epik_cmdline>
J2VwaWtfcHl0aG9uJywgJy1waCcsICc3LjAnLCAnLXRuJywgJzgnLCAnLW1hJywgJzIwMCcsICctbWV0YWxfYmluZGluZycsICctaW1hZScsICc8aW5maWxlLm1hZT4nLCAnLW9tYWUnLCAnPG91dGZpbGUubWFlPic=

> <r_lp_tautomer_probability>
1

> <r_epik_Ionization_Penalty>
6.81436e-06

> <r_epik_Ionization_Penalty_Charging>
1.95411e-06

> <r_epik_Ionization_Penalty_Neutral>
4.86025e-06

> <r_epik_State_Penalty>
-0

> <r_epik_Charging_Adjusted_Penalty>
1.95411e-06

> <i_epik_Tot_Q>
0

> <i_epik_Tot_abs_Q>
0

> <r_epik_Metal_State_Penalty>
-0

> <b_epik_Metal_Only>
0

> <s_epik_Chemistry_Notes>
This compound has an imine and may undergo hydrolysis.

> <s_lp_Force_Field>
OPLS_2005

> <r_lp_Energy>
12.62

> <b_lp_Chiralities_Consistent>
1

> <s_lp_Variant>
AV-unprocessed.smi:2625-1

> <Gold.Version>
5.8.1

> <Gold.Id.Protein>
6NUR|6NUR_protein|mol2

> <Gold.PLP.Fitness>
31.7343

> <Gold.PLP.PLP>
-26.4471

> <Gold.PLP.part.hbond>
-3.0000

> <Gold.PLP.part.metal>
0.0000

> <Gold.PLP.part.buried>
-3.0733

> <Gold.PLP.part.nonpolar>
-21.1110

> <Gold.PLP.part.repulsive>
0.9084

> <Gold.PLP.ligand.clash>
0.0000

> <Gold.PLP.ligand.torsion>
0.2512

> <Gold.PLP.Chemscore.Hbond>
1.9280

> <Gold.PLP.Chemscore.CHOScore>
0.0000

> <Gold.PLP.Chemscore.Metal>
0.0000

> <Gold.Chemscore.Hbonds>
donor molecule, donor type, donor heavy atom, donor atom, acceptor molecule, acceptor atom, score
      L1  H     7    23       P1  7948  1.00
      P1  H  7997  8010       L1    10  0.93

> <Gold.PLP.Chemscore.Internal.Correction>
0.0057

> <Gold.Rescore>
     Score         DG    S(hbond)    S(metal)    S(lipo)     H(rot)  DE(clash)    DE(int)     intcor
      8.28      -8.90       1.63        0.00      23.15       1.84       0.28       0.34       ----

> <Gold.Chemscore.Fitness>
8.2812

> <Gold.Chemscore.DG>
-8.8990

> <Gold.Chemscore.ZeroCoef>
-5.4800

> <Gold.Chemscore.Hbond>
1.6250

> <Gold.Chemscore.Metal>
0.0000

> <Gold.Chemscore.Lipo>
23.1543

> <Gold.Chemscore.Internal_Hbond>
0.0000

> <Gold.Chemscore.DEClash>
0.2753

> <Gold.Chemscore.DEInternal>
0.3426

> <Gold.Chemscore.Rot>
1.8428

> <Gold.Chemscore.Internal.Correction>
   9.000000E+99

> <Gold.Chemscore.Hbonds>
donor molecule, donor type, donor heavy atom, donor atom, acceptor molecule, acceptor atom, score
      L1  H     7    23       P1  7948  0.75
      P1  H  7997  8010       L1    10  0.30

> <Gold.Chemscore.Hbond.Weighted>
-5.4276

> <Gold.Chemscore.Metal.Weighted>
-0.0000

> <Gold.Chemscore.Lipo.Weighted>
-2.7090

> <Gold.Chemscore.Internal_Hbond.Weighted>
0.0000

> <Gold.Chemscore.DEClash.Weighted>
0.2753

> <Gold.Chemscore.DEInternal.Weighted>
0.3426

> <Gold.Chemscore.Rot.Weighted>
4.7177

> <Gold.Chemscore.Internal.Correction.Weighted>
   9.000000E+99

> <Gold.Protein.RotatedTorsions>
[ 6907 6896 6895 6894 ] final -146.80 input  -60.11 | X-H torsion
[ 7974 7965 7964 7962 ] final -179.96 input  175.53 | X-H torsion
[ 8008 7997 7996 7995 ] final   81.45 input   59.86 | X-H torsion
[ 10167 10162 10161 10158 ] final  -22.57 input  -65.29 | X-H torsion
[ 10718 10713 10712 10709 ] final -160.15 input   66.30 | X-H torsion
[ 10763 10752 10751 10750 ] final   99.00 input  -60.55 | X-H torsion
[ 11005 11000 10999 10996 ] final -159.63 input  -57.11 | X-H torsion

> <Gold.Protein.ActiveResidues>
 VAL166  LYS551  ARG553  GLY616  TRP617  ASP618  TYR619  PRO620  LYS621  CYS622 
 ASP623  PHE694  ASN695  SER759  ASP760  ASP761  ALA762  ILE779  LEU786  VAL792 
 PHE793  MET794  SER795  GLU796  ALA797  LYS798  CYS799  TRP800  GLU811  SER814 

> <Gold.Protein.RotatedAtoms>
  151.1467  133.4934  159.2595 H   0  0  0  0  0  0  0  0  0  0  0  0  # atno 6907 bound_to 6896
  151.1597  135.0267  159.8715 H   0  0  0  0  0  0  0  0  0  0  0  0  # atno 6908 bound_to 6896
  152.5463  134.1342  159.8505 H   0  0  0  0  0  0  0  0  0  0  0  0  # atno 6909 bound_to 6896
  144.7140  140.0639  143.6431 H   0  0  0  0  0  0  0  0  0  0  0  0  # atno 7974 bound_to 7965
  155.8973  140.3435  155.6000 H   0  0  0  0  0  0  0  0  0  0  0  0  # atno 8008 bound_to 7997
  155.7541  140.0824  157.2206 H   0  0  0  0  0  0  0  0  0  0  0  0  # atno 8009 bound_to 7997
  154.4039  140.1548  156.2745 H   0  0  0  0  0  0  0  0  0  0  0  0  # atno 8010 bound_to 7997
  140.7286  143.4523  151.0499 H   0  0  0  0  0  0  0  0  0  0  0  0  # atno 10167 bound_to 10162
  156.5781  130.8717  151.2857 H   0  0  0  0  0  0  0  0  0  0  0  0  # atno 10718 bound_to 10713
  153.2959  135.4129  155.1209 H   0  0  0  0  0  0  0  0  0  0  0  0  # atno 10763 bound_to 10752
  154.8535  135.3529  154.5917 H   0  0  0  0  0  0  0  0  0  0  0  0  # atno 10764 bound_to 10752
  153.6341  135.7059  153.5323 H   0  0  0  0  0  0  0  0  0  0  0  0  # atno 10765 bound_to 10752
  140.6405  134.4556  157.5233 H   0  0  0  0  0  0  0  0  0  0  0  0  # atno 11005 bound_to 11000
  145.9841  139.2964  143.1024 LP  0  0  0  0  0  0  0  0  0  0  0  0  # atno 17320 bound_to 7965
  145.8977  140.9263  143.0519 LP  0  0  0  0  0  0  0  0  0  0  0  0  # atno 17321 bound_to 7965
  139.8200  143.7833  152.3176 LP  0  0  0  0  0  0  0  0  0  0  0  0  # atno 17342 bound_to 10162
  139.7912  144.7409  150.9952 LP  0  0  0  0  0  0  0  0  0  0  0  0  # atno 17343 bound_to 10162
  157.7333  130.9728  150.1970 LP  0  0  0  0  0  0  0  0  0  0  0  0  # atno 17370 bound_to 10713
  156.2655  130.3716  149.8085 LP  0  0  0  0  0  0  0  0  0  0  0  0  # atno 17371 bound_to 10713
  139.9082  134.8402  156.1626 LP  0  0  0  0  0  0  0  0  0  0  0  0  # atno 17394 bound_to 11000
  141.0610  133.6841  156.1953 LP  0  0  0  0  0  0  0  0  0  0  0  0  # atno 17395 bound_to 11000

$$$$
