#       Name:                AV-unprocessed.smi:1491
#       Creating user name   scv26
#       Creation time:       Fri Mar 27 06:13:53 2020


#       File generated by GOLD software.
#

@<TRIPOS>MOLECULE
AV-unprocessed.smi:1491
    43    44     1
SMALL
NO_CHARGES


@<TRIPOS>ATOM
      1 ****         1.5604   0.7522  -0.7883 O.2            1 S1                 0.0000
      2 ****         1.1225  -0.3983  -0.7718 C.2            1 S1                 0.0000
      3 ****         1.8936  -1.4944  -0.7313 N.am           1 S1                 0.0000
      4 ****         3.3521  -1.4961  -0.6671 C.3            1 S1                 0.0000
      5 ****         3.8653  -1.6182   0.7799 C.3            1 S1                 0.0000
      6 ****         3.5760  -0.4410   1.5779 N.pl3          1 S1                 0.0000
      7 ****         2.6177  -0.3184   2.5757 C.2            1 S1                 0.0000
      8 ****         2.7015   0.9731   3.0444 C.2            1 S1                 0.0000
      9 ****         3.7028   1.6568   2.3591 N.2            1 S1                 0.0000
     10 ****         4.1763   0.7551   1.5087 C.2            1 S1                 0.0000
     11 ****        -0.1805  -0.7117  -0.7787 N.am           1 S1                 0.0000
     12 ****        -1.2875   0.2403  -0.7923 C.3            1 S1                 0.0000
     13 ****        -2.1014   0.1092   0.5096 C.3            1 S1                 0.0000
     14 ****        -3.3324   1.0300   0.4990 C.3            1 S1                 0.0000
     15 ****        -4.2132   0.7630  -0.7336 C.3            1 S1                 0.0000
     16 ****        -5.2943   1.6709  -0.7465 O.3            1 S1                 0.0000
     17 ****        -3.4046   0.9079  -2.0342 C.3            1 S1                 0.0000
     18 ****        -2.1738  -0.0128  -2.0266 C.3            1 S1                 0.0000
     19 ****         1.4379  -2.3952  -0.7245 H              1 S1                 0.0000
     20 ****         3.7025  -2.3522  -1.2440 H              1 S1                 0.0000
     21 ****         3.7707  -0.6131  -1.1535 H              1 S1                 0.0000
     22 ****         3.4318  -2.4925   1.2675 H              1 S1                 0.0000
     23 ****         4.9457  -1.7656   0.7768 H              1 S1                 0.0000
     24 ****         1.9693  -1.1348   2.8570 H              1 S1                 0.0000
     25 ****         2.1232   1.4591   3.8162 H              1 S1                 0.0000
     26 ****         4.9745   0.9714   0.8137 H              1 S1                 0.0000
     27 ****        -0.4293  -1.6897  -0.7588 H              1 S1                 0.0000
     28 ****        -0.9087   1.2625  -0.8534 H              1 S1                 0.0000
     29 ****        -2.4267  -0.9240   0.6402 H              1 S1                 0.0000
     30 ****        -1.4727   0.3467   1.3689 H              1 S1                 0.0000
     31 ****        -3.9103   0.8826   1.4121 H              1 S1                 0.0000
     32 ****        -3.0049   2.0707   0.5035 H              1 S1                 0.0000
     33 ****        -4.6233  -0.2461  -0.6733 H              1 S1                 0.0000
     34 ****        -4.9488   2.5488  -0.8023 H              1 S1                 0.0000
     35 ****        -4.0330   0.6754  -2.8949 H              1 S1                 0.0000
     36 ****        -3.0809   1.9425  -2.1572 H              1 S1                 0.0000
     37 ****        -1.5957   0.1403  -2.9387 H              1 S1                 0.0000
     38 ****        -2.5024  -1.0530  -2.0400 H              1 S1                 0.0000
     39 ****         2.5475   0.9118  -0.7713 LP             1 S1                 0.0000
     40 ****         0.9291   1.5271  -0.8187 LP             1 S1                 0.0000
     41 ****         3.9962   2.6051   2.4797 LP             1 S1                 0.0000
     42 ****        -5.8282   1.5714   0.0932 LP             1 S1                 0.0000
     43 ****        -5.8789   1.4878  -1.5368 LP             1 S1                 0.0000
@<TRIPOS>BOND
    1    1    2 2     
    2    2    3 am    
    3    2   11 am    
    4    3    4 1     
    5    3   19 1     
    6    4    5 1     
    7    4   20 1     
    8    4   21 1     
    9    5    6 1     
   10    5   22 1     
   11    5   23 1     
   12    6   10 1     
   13    6    7 1     
   14    7    8 2     
   15    7   24 1     
   16    8    9 1     
   17    8   25 1     
   18    9   10 2     
   19   10   26 1     
   20   11   12 1     
   21   11   27 1     
   22   12   18 1     
   23   12   13 1     
   24   12   28 1     
   25   13   14 1     
   26   13   29 1     
   27   13   30 1     
   28   14   15 1     
   29   14   31 1     
   30   14   32 1     
   31   15   16 1     
   32   15   17 1     
   33   15   33 1     
   34   16   34 1     
   35   17   18 1     
   36   17   35 1     
   37   17   36 1     
   38   18   37 1     
   39   18   38 1     
   40    1   39 1     
   41    1   40 1     
   42    9   41 1     
   43   16   42 1     
   44   16   43 1     
@<TRIPOS>SUBSTRUCTURE
      1 S1             1
@<TRIPOS>SET
LONE_PAIRS      STATIC     ATOMS    <user>   **** ""
5 39 40 41 42 43
DONOR_HYDROGENS      STATIC     ATOMS    <user>   **** ""
3 19 27 34
ATOM$BLUE        STATIC     ATOMS    COLORGROUP SYSTEM
5 39 40 41 42 43
ATOM$RED        STATIC     ATOMS    COLORGROUP SYSTEM
3 19 27 34
