#       Name:                AV-unprocessed.smi:286
#       Creating user name   scv26
#       Creation time:       Thu Mar 26 21:53:44 2020


#       File generated by GOLD software.
#

@<TRIPOS>MOLECULE
AV-unprocessed.smi:286
    54    56     1
SMALL
NO_CHARGES


@<TRIPOS>ATOM
      1 ****        -0.2823   0.8441  -3.8043 O.2            1 S1                 0.0000
      2 ****        -0.6031   1.1501  -2.6545 C.2            1 S1                 0.0000
      3 ****        -0.7153   2.5286  -2.1942 C.2            1 S1                 0.0000
      4 ****        -0.5130   3.5367  -3.0596 F              1 S1                 0.0000
      5 ****        -1.0363   2.8124  -0.9138 C.2            1 S1                 0.0000
      6 ****        -1.2559   1.8398   0.0484 N.am           1 S1                 0.0000
      7 ****        -1.7029   2.1955   1.4522 C.3            1 S1                 0.0000
      8 ****        -1.1727   3.5475   1.9608 C.3            1 S1                 0.0000
      9 ****        -2.3985   4.4345   1.8625 C.3            1 S1                 0.0000
     10 ****        -3.5216   3.4360   2.1136 C.3            1 S1                 0.0000
     11 ****        -3.0981   2.2551   1.4444 O.3            1 S1                 0.0000
     12 ****        -1.2485   0.4778  -0.3317 C.2            1 S1                 0.0000
     13 ****        -1.5256  -0.4046   0.4834 O.2            1 S1                 0.0000
     14 ****        -0.9001   0.1750  -1.6710 N.am           1 S1                 0.0000
     15 ****        -0.8213  -1.2227  -2.0732 C.3            1 S1                 0.0000
     16 ****         0.6193  -1.7888  -2.1249 C.3            1 S1                 0.0000
     17 ****         0.5809  -3.0433  -2.7756 O.3            1 S1                 0.0000
     18 ****         1.3368  -1.9094  -0.7560 C.3            1 S1                 0.0000
     19 ****         2.8480  -2.1800  -0.9205 C.3            1 S1                 0.0000
     20 ****         3.5679  -2.2114   0.4379 C.3            1 S1                 0.0000
     21 ****         2.9322  -3.2415   1.3841 C.3            1 S1                 0.0000
     22 ****         1.4263  -2.9866   1.5504 C.3            1 S1                 0.0000
     23 ****         0.7125  -2.9626   0.1894 C.3            1 S1                 0.0000
     24 ****        -1.1265   3.8544  -0.6520 H              1 S1                 0.0000
     25 ****        -1.3512   1.3888   2.0971 H              1 S1                 0.0000
     26 ****        -0.8888   3.4269   3.0072 H              1 S1                 0.0000
     27 ****        -0.2983   3.9048   1.4175 H              1 S1                 0.0000
     28 ****        -2.3907   5.2545   2.5809 H              1 S1                 0.0000
     29 ****        -2.4912   4.8589   0.8627 H              1 S1                 0.0000
     30 ****        -3.6188   3.2276   3.1801 H              1 S1                 0.0000
     31 ****        -4.4862   3.7825   1.7425 H              1 S1                 0.0000
     32 ****        -1.4746  -1.8141  -1.4320 H              1 S1                 0.0000
     33 ****        -1.2945  -1.2796  -3.0556 H              1 S1                 0.0000
     34 ****         1.2167  -1.1390  -2.7648 H              1 S1                 0.0000
     35 ****         0.0674  -3.6373  -2.2500 H              1 S1                 0.0000
     36 ****         1.2561  -0.9395  -0.2653 H              1 S1                 0.0000
     37 ****         3.0034  -3.1298  -1.4336 H              1 S1                 0.0000
     38 ****         3.2994  -1.4126  -1.5501 H              1 S1                 0.0000
     39 ****         4.6239  -2.4414   0.2933 H              1 S1                 0.0000
     40 ****         3.5277  -1.2220   0.8951 H              1 S1                 0.0000
     41 ****         3.0912  -4.2464   0.9906 H              1 S1                 0.0000
     42 ****         3.4249  -3.2085   2.3562 H              1 S1                 0.0000
     43 ****         0.9874  -3.7562   2.1860 H              1 S1                 0.0000
     44 ****         1.2688  -2.0362   2.0619 H              1 S1                 0.0000
     45 ****        -0.3463  -2.7646   0.3469 H              1 S1                 0.0000
     46 ****         0.7727  -3.9536  -0.2617 H              1 S1                 0.0000
     47 ****        -0.2251  -0.1188  -4.0680 LP             1 S1                 0.0000
     48 ****        -0.0792   1.5587  -4.4737 LP             1 S1                 0.0000
     49 ****        -3.4694   1.4538   1.9136 LP             1 S1                 0.0000
     50 ****        -3.4266   2.2702   0.5000 LP             1 S1                 0.0000
     51 ****        -1.7589  -0.1604   1.4247 LP             1 S1                 0.0000
     52 ****        -1.5172  -1.3645   0.2033 LP             1 S1                 0.0000
     53 ****         1.5098  -3.3994  -2.8772 LP             1 S1                 0.0000
     54 ****         0.1619  -2.9427  -3.6780 LP             1 S1                 0.0000
@<TRIPOS>BOND
    1    1    2 2     
    2    2   14 am    
    3    2    3 1     
    4    3    4 1     
    5    3    5 2     
    6    5    6 1     
    7    5   24 1     
    8    6    7 1     
    9    6   12 am    
   10    7   11 1     
   11    7    8 1     
   12    7   25 1     
   13    8    9 1     
   14    8   26 1     
   15    8   27 1     
   16    9   10 1     
   17    9   28 1     
   18    9   29 1     
   19   10   11 1     
   20   10   30 1     
   21   10   31 1     
   22   12   13 2     
   23   12   14 am    
   24   14   15 1     
   25   15   16 1     
   26   15   32 1     
   27   15   33 1     
   28   16   17 1     
   29   16   18 1     
   30   16   34 1     
   31   17   35 1     
   32   18   23 1     
   33   18   19 1     
   34   18   36 1     
   35   19   20 1     
   36   19   37 1     
   37   19   38 1     
   38   20   21 1     
   39   20   39 1     
   40   20   40 1     
   41   21   22 1     
   42   21   41 1     
   43   21   42 1     
   44   22   23 1     
   45   22   43 1     
   46   22   44 1     
   47   23   45 1     
   48   23   46 1     
   49    1   47 1     
   50    1   48 1     
   51   11   49 1     
   52   11   50 1     
   53   13   51 1     
   54   13   52 1     
   55   17   53 1     
   56   17   54 1     
@<TRIPOS>SUBSTRUCTURE
      1 S1             1
@<TRIPOS>SET
LONE_PAIRS      STATIC     ATOMS    <user>   **** ""
8 47 48 49 50 51 52 53 54
DONOR_HYDROGENS      STATIC     ATOMS    <user>   **** ""
1 35
ATOM$BLUE        STATIC     ATOMS    COLORGROUP SYSTEM
8 47 48 49 50 51 52 53 54
ATOM$RED        STATIC     ATOMS    COLORGROUP SYSTEM
1 35
