#       Name:                AV-unprocessed.smi:2039
#       Creating user name   scv26
#       Creation time:       Fri Mar 27 10:55:12 2020


#       File generated by GOLD software.
#

@<TRIPOS>MOLECULE
AV-unprocessed.smi:2039
    39    40     1
SMALL
NO_CHARGES


@<TRIPOS>ATOM
      1 ****        -6.8871   2.2010  -0.8672 C.3            1 S1                 0.0000
      2 ****        -5.5346   1.6090  -0.6624 C.2            1 S1                 0.0000
      3 ****        -5.2964   0.2943  -0.7473 N.2            1 S1                 0.0000
      4 ****        -3.9628  -0.0148  -0.5184 N.2            1 S1                 0.0000
      5 ****        -3.2322   1.0802  -0.2669 C.2            1 S1                 0.0000
      6 ****        -1.8382   1.0543   0.0025 N.am           1 S1                 0.0000
      7 ****        -1.0178  -0.0101   0.0496 C.2            1 S1                 0.0000
      8 ****        -1.3557  -1.1789  -0.1403 O.2            1 S1                 0.0000
      9 ****         0.2400   0.3595   0.3323 N.am           1 S1                 0.0000
     10 ****         1.3770  -0.5476   0.4592 C.3            1 S1                 0.0000
     11 ****         2.4516   0.0944   1.3570 C.3            1 S1                 0.0000
     12 ****         3.6955  -0.8012   1.4736 C.3            1 S1                 0.0000
     13 ****         4.2697  -1.1323   0.0856 C.3            1 S1                 0.0000
     14 ****         5.3685  -2.0078   0.2253 O.3            1 S1                 0.0000
     15 ****         3.2042  -1.7832  -0.8128 C.3            1 S1                 0.0000
     16 ****         1.9567  -0.8924  -0.9290 C.3            1 S1                 0.0000
     17 ****        -4.1240   2.5922  -0.2898 S.3            1 S1                 0.0000
     18 ****        -7.6305   1.4188  -1.0245 H              1 S1                 0.0000
     19 ****        -6.8788   2.8555  -1.7388 H              1 S1                 0.0000
     20 ****        -7.1747   2.7848   0.0073 H              1 S1                 0.0000
     21 ****        -1.4155   1.9535   0.1791 H              1 S1                 0.0000
     22 ****         0.4267   1.3416   0.4725 H              1 S1                 0.0000
     23 ****         1.0428  -1.4692   0.9401 H              1 S1                 0.0000
     24 ****         2.7434   1.0640   0.9503 H              1 S1                 0.0000
     25 ****         2.0440   0.2861   2.3503 H              1 S1                 0.0000
     26 ****         4.4512  -0.3053   2.0840 H              1 S1                 0.0000
     27 ****         3.4301  -1.7219   1.9956 H              1 S1                 0.0000
     28 ****         4.6292  -0.2162  -0.3850 H              1 S1                 0.0000
     29 ****         5.0653  -2.8095   0.6235 H              1 S1                 0.0000
     30 ****         3.6149  -1.9733  -1.8052 H              1 S1                 0.0000
     31 ****         2.9169  -2.7537  -0.4052 H              1 S1                 0.0000
     32 ****         1.2052  -1.3977  -1.5367 H              1 S1                 0.0000
     33 ****         2.2166   0.0250  -1.4593 H              1 S1                 0.0000
     34 ****        -5.9991  -0.3871  -0.9522 LP             1 S1                 0.0000
     35 ****        -3.5917  -0.9431  -0.5387 LP             1 S1                 0.0000
     36 ****        -2.3092  -1.3960  -0.3493 LP             1 S1                 0.0000
     37 ****        -0.6766  -1.9109  -0.0855 LP             1 S1                 0.0000
     38 ****         6.0645  -1.5852   0.8058 LP             1 S1                 0.0000
     39 ****         5.7591  -2.2047  -0.6739 LP             1 S1                 0.0000
@<TRIPOS>BOND
    1    1    2 1     
    2    1   18 1     
    3    1   19 1     
    4    1   20 1     
    5    2   17 1     
    6    2    3 2     
    7    3    4 1     
    8    4    5 2     
    9    5    6 1     
   10    5   17 1     
   11    6    7 am    
   12    6   21 1     
   13    7    8 2     
   14    7    9 am    
   15    9   10 1     
   16    9   22 1     
   17   10   16 1     
   18   10   11 1     
   19   10   23 1     
   20   11   12 1     
   21   11   24 1     
   22   11   25 1     
   23   12   13 1     
   24   12   26 1     
   25   12   27 1     
   26   13   14 1     
   27   13   15 1     
   28   13   28 1     
   29   14   29 1     
   30   15   16 1     
   31   15   30 1     
   32   15   31 1     
   33   16   32 1     
   34   16   33 1     
   35    3   34 1     
   36    4   35 1     
   37    8   36 1     
   38    8   37 1     
   39   14   38 1     
   40   14   39 1     
@<TRIPOS>SUBSTRUCTURE
      1 S1             1
@<TRIPOS>SET
LONE_PAIRS      STATIC     ATOMS    <user>   **** ""
6 34 35 36 37 38 39
DONOR_HYDROGENS      STATIC     ATOMS    <user>   **** ""
3 21 22 29
ATOM$BLUE        STATIC     ATOMS    COLORGROUP SYSTEM
6 34 35 36 37 38 39
ATOM$RED        STATIC     ATOMS    COLORGROUP SYSTEM
3 21 22 29
