AV-unprocessed.smi:669|AV-procd|sdf|3264|dock4
  -GOLD-   22720 0213D 1   1.00000     0.00000
 Structure written by MMmdl.
 37 38  0  0  0  0  0  0  0  0  1 V2000
  150.8139  144.3966  159.4868 C   0  0  0  0  0  0  0  0  0  0  0  0
  151.6749  143.1702  159.4179 C   0  0  0  0  0  0  0  0  0  0  0  0
  152.7780  142.9302  160.3277 C   0  0  0  0  0  0  0  0  0  0  0  0
  153.5162  141.8081  160.1901 C   0  0  0  0  0  0  0  0  0  0  0  0
  153.2298  140.8214  159.1509 C   0  0  0  0  0  0  0  0  0  0  0  0
  153.9027  139.8042  158.9877 O   0  0  0  0  0  0  0  0  0  0  0  0
  152.1497  141.1362  158.3767 N   0  0  0  0  0  0  0  0  0  0  0  0
  151.7006  140.2445  157.2952 C   0  0  0  0  0  0  0  0  0  0  0  0
  150.5243  140.8002  156.4397 C   0  0  1  0  0  0  0  0  0  0  0  0
  150.8622  142.1240  156.0663 O   0  0  0  0  0  0  0  0  0  0  0  0
  150.2270  139.9705  155.1645 C   0  0  0  0  0  0  0  0  0  0  0  0
  148.9771  140.4505  154.4055 C   0  0  0  0  0  0  0  0  0  0  0  0
  147.7370  140.4930  155.3145 C   0  0  2  0  0  0  0  0  0  0  0  0
  146.4926  140.9630  154.5478 C   0  0  0  0  0  0  0  0  0  0  0  0
  148.0126  141.3798  156.5410 C   0  0  0  0  0  0  0  0  0  0  0  0
  149.2534  140.9025  157.3174 C   0  0  0  0  0  0  0  0  0  0  0  0
  151.4062  142.3004  158.5005 N   0  0  0  0  0  0  0  0  0  0  0  0
  151.1508  145.0714  160.2742 H   0  0  0  0  0  0  0  0  0  0  0  0
  149.7769  144.1315  159.6954 H   0  0  0  0  0  0  0  0  0  0  0  0
  150.8410  144.9442  158.5443 H   0  0  0  0  0  0  0  0  0  0  0  0
  153.0029  143.6486  161.1023 H   0  0  0  0  0  0  0  0  0  0  0  0
  154.3398  141.6319  160.8661 H   0  0  0  0  0  0  0  0  0  0  0  0
  152.5565  140.0697  156.6404 H   0  0  0  0  0  0  0  0  0  0  0  0
  151.4571  139.2539  157.6849 H   0  0  0  0  0  0  0  0  0  0  0  0
  150.0656  142.5916  155.8681 H   0  0  0  0  0  0  0  0  0  0  0  0
  151.0803  139.9908  154.4857 H   0  0  0  0  0  0  0  0  0  0  0  0
  150.0841  138.9258  155.4431 H   0  0  0  0  0  0  0  0  0  0  0  0
  149.1612  141.4395  153.9837 H   0  0  0  0  0  0  0  0  0  0  0  0
  148.7937  139.7879  153.5591 H   0  0  0  0  0  0  0  0  0  0  0  0
  147.5420  139.4791  155.6673 H   0  0  0  0  0  0  0  0  0  0  0  0
  146.6213  141.9751  154.1630 H   0  0  0  0  0  0  0  0  0  0  0  0
  145.6117  140.9607  155.1902 H   0  0  0  0  0  0  0  0  0  0  0  0
  146.2833  140.3091  153.7007 H   0  0  0  0  0  0  0  0  0  0  0  0
  148.1475  142.4157  156.2274 H   0  0  0  0  0  0  0  0  0  0  0  0
  147.1473  141.3736  157.2046 H   0  0  0  0  0  0  0  0  0  0  0  0
  149.0316  139.9234  157.7448 H   0  0  0  0  0  0  0  0  0  0  0  0
  149.4324  141.5655  158.1653 H   0  0  0  0  0  0  0  0  0  0  0  0
  1  2  1  0  0  0  0
  1 18  1  0  0  0  0
  1 19  1  0  0  0  0
  1 20  1  0  0  0  0
  2 17  2  0  0  0  0
  2  3  1  0  0  0  0
  3  4  2  0  0  0  0
  3 21  1  0  0  0  0
  4  5  1  0  0  0  0
  4 22  1  0  0  0  0
  5  6  2  0  0  0  0
  5  7  1  0  0  0  0
  7  8  1  0  0  0  0
  7 17  1  0  0  0  0
  8  9  1  0  0  0  0
  8 23  1  0  0  0  0
  8 24  1  0  0  0  0
  9 16  1  0  0  0  0
  9 10  1  0  0  0  0
  9 11  1  0  0  0  0
 10 25  1  0  0  0  0
 11 12  1  0  0  0  0
 11 26  1  0  0  0  0
 11 27  1  0  0  0  0
 12 13  1  0  0  0  0
 12 28  1  0  0  0  0
 12 29  1  0  0  0  0
 13 14  1  0  0  0  0
 13 15  1  0  0  0  0
 13 30  1  0  0  0  0
 14 31  1  0  0  0  0
 14 32  1  0  0  0  0
 14 33  1  0  0  0  0
 15 16  1  0  0  0  0
 15 34  1  0  0  0  0
 15 35  1  0  0  0  0
 16 36  1  0  0  0  0
 16 37  1  0  0  0  0
M  END
> <s_m_source_file>
AV-unprocessed.smi

> <i_m_source_file_index>
669

> <i_lp_mmshare_version>
43012

> <i_f3d_flags>
0

> <s_epik_input>
W0NIM11jMVtjSF1bY0hdYyg9TyluKG4xKVtDSDJdW0NAQF0yKFtPSF0pW0NIMl1bQ0gyXVtDQEBIXShbQ0gzXSlbQ0gyXVtDSDJdMg==

> <s_epik_cmdline>
J2VwaWtfcHl0aG9uJywgJy1waCcsICc3LjAnLCAnLXRuJywgJzgnLCAnLW1hJywgJzIwMCcsICctbWV0YWxfYmluZGluZycsICctaW1hZScsICc8aW5maWxlLm1hZT4nLCAnLW9tYWUnLCAnPG91dGZpbGUubWFlPic=

> <r_lp_tautomer_probability>
1

> <r_epik_Ionization_Penalty>
1.6993e-05

> <r_epik_Ionization_Penalty_Charging>
1.61671e-05

> <r_epik_Ionization_Penalty_Neutral>
8.25878e-07

> <r_epik_State_Penalty>
-0

> <r_epik_Charging_Adjusted_Penalty>
1.61671e-05

> <i_epik_Tot_Q>
0

> <i_epik_Tot_abs_Q>
0

> <r_epik_Metal_State_Penalty>
-0

> <b_epik_Metal_Only>
0

> <s_lp_Force_Field>
OPLS_2005

> <r_lp_Energy>
31.8512

> <b_lp_Chiralities_Consistent>
1

> <s_lp_Variant>
AV-unprocessed.smi:669-2

> <Gold.Version>
5.8.1

> <Gold.Id.Protein>
6NUR|6NUR_protein|mol2

> <Gold.PLP.Fitness>
41.1936

> <Gold.PLP.PLP>
-35.3464

> <Gold.PLP.part.hbond>
-2.0000

> <Gold.PLP.part.metal>
0.0000

> <Gold.PLP.part.buried>
-0.9514

> <Gold.PLP.part.nonpolar>
-30.7495

> <Gold.PLP.part.repulsive>
0.0348

> <Gold.PLP.ligand.clash>
0.0000

> <Gold.PLP.ligand.torsion>
0.0803

> <Gold.PLP.Chemscore.Hbond>
2.0000

> <Gold.PLP.Chemscore.CHOScore>
0.0000

> <Gold.PLP.Chemscore.Metal>
0.0000

> <Gold.Chemscore.Hbonds>
donor molecule, donor type, donor heavy atom, donor atom, acceptor molecule, acceptor atom, score
      P1  H  7997  8010       L1     6  0.80

> <Gold.PLP.Chemscore.Internal.Correction>
0.0077

> <Gold.Rescore>
     Score         DG    S(hbond)    S(metal)    S(lipo)     H(rot)  DE(clash)    DE(int)     intcor
     13.88     -17.17       1.90        0.00      81.13       1.62       0.06       3.23       ----

> <Gold.Chemscore.Fitness>
13.8809

> <Gold.Chemscore.DG>
-17.1712

> <Gold.Chemscore.ZeroCoef>
-5.4800

> <Gold.Chemscore.Hbond>
1.8977

> <Gold.Chemscore.Metal>
0.0000

> <Gold.Chemscore.Lipo>
81.1289

> <Gold.Chemscore.Internal_Hbond>
0.0000

> <Gold.Chemscore.DEClash>
0.0635

> <Gold.Chemscore.DEInternal>
3.2268

> <Gold.Chemscore.Rot>
1.6168

> <Gold.Chemscore.Internal.Correction>
   9.000000E+99

> <Gold.Chemscore.Hbonds>
donor molecule, donor type, donor heavy atom, donor atom, acceptor molecule, acceptor atom, score
      L1  H    10    25       P1  8028  0.05
      P1  H  7997  8010       L1     6  0.30

> <Gold.Chemscore.Hbond.Weighted>
-6.3383

> <Gold.Chemscore.Metal.Weighted>
-0.0000

> <Gold.Chemscore.Lipo.Weighted>
-9.4921

> <Gold.Chemscore.Internal_Hbond.Weighted>
0.0000

> <Gold.Chemscore.DEClash.Weighted>
0.0635

> <Gold.Chemscore.DEInternal.Weighted>
3.2268

> <Gold.Chemscore.Rot.Weighted>
4.1391

> <Gold.Chemscore.Internal.Correction.Weighted>
   9.000000E+99

> <Gold.Protein.RotatedTorsions>
[ 6907 6896 6895 6894 ] final -140.17 input  -60.11 | X-H torsion
[ 7974 7965 7964 7962 ] final  -53.74 input  175.53 | X-H torsion
[ 8008 7997 7996 7995 ] final   34.01 input   59.86 | X-H torsion
[ 10167 10162 10161 10158 ] final  -70.26 input  -65.29 | X-H torsion
[ 10718 10713 10712 10709 ] final  -59.39 input   66.30 | X-H torsion
[ 10763 10752 10751 10750 ] final   83.42 input  -60.55 | X-H torsion
[ 11005 11000 10999 10996 ] final  112.81 input  -57.11 | X-H torsion

> <Gold.Protein.ActiveResidues>
 VAL166  LYS551  ARG553  GLY616  TRP617  ASP618  TYR619  PRO620  LYS621  CYS622 
 ASP623  PHE694  ASN695  SER759  ASP760  ASP761  ALA762  ILE779  LEU786  VAL792 
 PHE793  MET794  SER795  GLU796  ALA797  LYS798  CYS799  TRP800  GLU811  SER814 

> <Gold.Protein.RotatedAtoms>
  151.0572  133.5574  159.2637 H   0  0  0  0  0  0  0  0  0  0  0  0  # atno 6907 bound_to 6896
  151.2563  135.0638  159.9091 H   0  0  0  0  0  0  0  0  0  0  0  0  # atno 6908 bound_to 6896
  152.5392  134.0325  159.8085 H   0  0  0  0  0  0  0  0  0  0  0  0  # atno 6909 bound_to 6896
  145.8935  140.8052  142.9779 H   0  0  0  0  0  0  0  0  0  0  0  0  # atno 7974 bound_to 7965
  155.1479  140.3272  155.4437 H   0  0  0  0  0  0  0  0  0  0  0  0  # atno 8008 bound_to 7997
  156.2584  140.1982  156.6542 H   0  0  0  0  0  0  0  0  0  0  0  0  # atno 8009 bound_to 7997
  154.6495  140.0560  156.9925 H   0  0  0  0  0  0  0  0  0  0  0  0  # atno 8010 bound_to 7997
  140.5367  143.2317  151.7165 H   0  0  0  0  0  0  0  0  0  0  0  0  # atno 10167 bound_to 10162
  156.1065  130.4180  150.0708 H   0  0  0  0  0  0  0  0  0  0  0  0  # atno 10718 bound_to 10713
  153.1289  135.4692  154.9318 H   0  0  0  0  0  0  0  0  0  0  0  0  # atno 10763 bound_to 10752
  154.7646  135.3141  154.8313 H   0  0  0  0  0  0  0  0  0  0  0  0  # atno 10764 bound_to 10752
  153.8860  135.6889  153.4817 H   0  0  0  0  0  0  0  0  0  0  0  0  # atno 10765 bound_to 10752
  139.8937  134.9537  156.6643 H   0  0  0  0  0  0  0  0  0  0  0  0  # atno 11005 bound_to 11000
  144.6731  140.1566  143.7426 LP  0  0  0  0  0  0  0  0  0  0  0  0  # atno 17320 bound_to 7965
  145.8879  139.2359  143.1566 LP  0  0  0  0  0  0  0  0  0  0  0  0  # atno 17321 bound_to 7965
  139.4973  144.4032  152.0159 LP  0  0  0  0  0  0  0  0  0  0  0  0  # atno 17342 bound_to 10162
  140.3138  144.3507  150.6027 LP  0  0  0  0  0  0  0  0  0  0  0  0  # atno 17343 bound_to 10162
  156.8682  130.9515  151.3612 LP  0  0  0  0  0  0  0  0  0  0  0  0  # atno 17370 bound_to 10713
  157.6243  130.8679  149.9162 LP  0  0  0  0  0  0  0  0  0  0  0  0  # atno 17371 bound_to 10713
  140.7423  133.8967  155.8287 LP  0  0  0  0  0  0  0  0  0  0  0  0  # atno 17394 bound_to 11000
  141.0068  134.1075  157.4262 LP  0  0  0  0  0  0  0  0  0  0  0  0  # atno 17395 bound_to 11000

$$$$
