AV-unprocessed.smi:110|AV-procd|sdf|1071|dock4
  -GOLD-   2262018153D 1   1.00000     0.00000
 Structure written by MMmdl.
 46 50  0  0  0  0  0  0  0  0  1 V2000
  146.1542  142.7887  156.6840 O   0  0  0  0  0  0  0  0  0  0  0  0
  146.2117  141.4604  156.2104 C   0  0  0  0  0  0  0  0  0  0  0  0
  146.3331  141.4579  154.6678 C   0  0  1  0  0  0  0  0  0  0  0  0
  147.5358  142.1031  154.2609 O   0  0  0  0  0  0  0  0  0  0  0  0
  148.6096  141.2074  154.2290 C   0  0  1  0  0  0  0  0  0  0  0  0
  149.4455  141.4082  155.4635 N   0  0  0  0  0  0  0  0  0  0  0  0
  149.1895  142.2146  156.5534 C   0  0  0  0  0  0  0  0  0  0  0  0
  150.0804  142.1728  157.5053 N   0  0  0  0  0  0  0  0  0  0  0  0
  151.0069  141.2363  157.0662 C   0  0  0  0  0  0  0  0  0  0  0  0
  152.2082  140.6929  157.6052 C   0  0  0  0  0  0  0  0  0  0  0  0
  152.7514  141.0548  158.7907 N   0  0  0  0  0  0  0  0  0  0  0  0
  153.5090  140.0655  159.5700 C   0  0  0  0  0  0  0  0  0  0  0  0
  153.6199  140.5964  161.0119 C   0  0  0  0  0  0  0  0  0  0  0  0
  152.9725  141.9368  160.8740 C   0  0  0  0  0  0  0  0  0  0  0  0
  152.8365  142.9234  161.8659 C   0  0  0  0  0  0  0  0  0  0  0  0
  152.2095  144.1379  161.5145 C   0  0  0  0  0  0  0  0  0  0  0  0
  151.7455  144.3470  160.1950 C   0  0  0  0  0  0  0  0  0  0  0  0
  151.8951  143.3420  159.2141 C   0  0  0  0  0  0  0  0  0  0  0  0
  152.5022  142.1224  159.5779 C   0  0  0  0  0  0  0  0  0  0  0  0
  152.8228  139.7065  156.9047 N   0  0  0  0  0  0  0  0  0  0  0  0
  152.3218  139.3034  155.7347 C   0  0  0  0  0  0  0  0  0  0  0  0
  151.2323  139.7391  155.1008 N   0  0  0  0  0  0  0  0  0  0  0  0
  150.5941  140.7185  155.8056 C   0  0  0  0  0  0  0  0  0  0  0  0
  147.9962  139.7910  154.1771 C   0  0  2  0  0  0  0  0  0  0  0  0
  148.4665  139.0556  153.0659 O   0  0  0  0  0  0  0  0  0  0  0  0
  146.5084  140.0803  154.0157 C   0  0  1  0  0  0  0  0  0  0  0  0
  145.7095  139.0784  154.6141 O   0  0  0  0  0  0  0  0  0  0  0  0
  145.4700  141.9660  154.2353 H   0  0  0  0  0  0  0  0  0  0  0  0
  149.2855  141.4423  153.4059 H   0  0  0  0  0  0  0  0  0  0  0  0
  148.1756  139.2503  155.1065 H   0  0  0  0  0  0  0  0  0  0  0  0
  146.2501  140.1616  152.9582 H   0  0  0  0  0  0  0  0  0  0  0  0
  145.4460  142.8558  157.3062 H   0  0  0  0  0  0  0  0  0  0  0  0
  147.0203  140.9209  156.7006 H   0  0  0  0  0  0  0  0  0  0  0  0
  145.2835  140.9820  156.5218 H   0  0  0  0  0  0  0  0  0  0  0  0
  148.3175  142.8474  156.6281 H   0  0  0  0  0  0  0  0  0  0  0  0
  153.0119  139.0946  159.5486 H   0  0  0  0  0  0  0  0  0  0  0  0
  154.4999  139.9429  159.1310 H   0  0  0  0  0  0  0  0  0  0  0  0
  153.0676  139.9774  161.7194 H   0  0  0  0  0  0  0  0  0  0  0  0
  154.6552  140.6889  161.3405 H   0  0  0  0  0  0  0  0  0  0  0  0
  153.2063  142.7592  162.8670 H   0  0  0  0  0  0  0  0  0  0  0  0
  152.0912  144.9151  162.2549 H   0  0  0  0  0  0  0  0  0  0  0  0
  151.2774  145.2844  159.9337 H   0  0  0  0  0  0  0  0  0  0  0  0
  151.5524  143.5150  158.2048 H   0  0  0  0  0  0  0  0  0  0  0  0
  152.8729  138.5217  155.2331 H   0  0  0  0  0  0  0  0  0  0  0  0
  148.9609  139.6366  152.5082 H   0  0  0  0  0  0  0  0  0  0  0  0
  144.8369  139.4230  154.7287 H   0  0  0  0  0  0  0  0  0  0  0  0
  1  2  1  0  0  0  0
  1 32  1  0  0  0  0
  2  3  1  0  0  0  0
  2 33  1  0  0  0  0
  2 34  1  0  0  0  0
  3 28  1  0  0  0  0
  3 26  1  0  0  0  0
  3  4  1  0  0  0  0
  4  5  1  0  0  0  0
  5 29  1  0  0  0  0
  5  6  1  0  0  0  0
  5 24  1  0  0  0  0
  6 23  1  0  0  0  0
  6  7  1  0  0  0  0
  7  8  2  0  0  0  0
  7 35  1  0  0  0  0
  8  9  1  0  0  0  0
  9 23  2  0  0  0  0
  9 10  1  0  0  0  0
 10 11  1  0  0  0  0
 10 20  2  0  0  0  0
 11 19  1  0  0  0  0
 11 12  1  0  0  0  0
 12 13  1  0  0  0  0
 12 36  1  0  0  0  0
 12 37  1  0  0  0  0
 13 14  1  0  0  0  0
 13 38  1  0  0  0  0
 13 39  1  0  0  0  0
 14 19  2  0  0  0  0
 14 15  1  0  0  0  0
 15 16  2  0  0  0  0
 15 40  1  0  0  0  0
 16 17  1  0  0  0  0
 16 41  1  0  0  0  0
 17 18  2  0  0  0  0
 17 42  1  0  0  0  0
 18 19  1  0  0  0  0
 18 43  1  0  0  0  0
 20 21  1  0  0  0  0
 21 22  2  0  0  0  0
 21 44  1  0  0  0  0
 22 23  1  0  0  0  0
 24 30  1  0  0  0  0
 24 25  1  0  0  0  0
 24 26  1  0  0  0  0
 25 45  1  0  0  0  0
 26 31  1  0  0  0  0
 26 27  1  0  0  0  0
 27 46  1  0  0  0  0
M  END
> <s_m_source_file>
AV-unprocessed.smi

> <i_m_source_file_index>
110

> <i_lp_mmshare_version>
43012

> <i_f3d_flags>
0

> <s_epik_input>
W09IXVtDSDJdW0NASF0xT1tDQEhdKFtDQEhdKFtPSF0pW0NAQEhdMVtPSF0pbihbY0hdbjIpYyhjMjMpbltjSF1uYzNOKFtDSDJdW0NIMl00KWMoYzQ1KVtjSF1bY0hdW2NIXVtjSF01

> <s_epik_cmdline>
J2VwaWtfcHl0aG9uJywgJy1waCcsICc3LjAnLCAnLXRuJywgJzgnLCAnLW1hJywgJzIwMCcsICctbWV0YWxfYmluZGluZycsICctaW1hZScsICc8aW5maWxlLm1hZT4nLCAnLW9tYWUnLCAnPG91dGZpbGUubWFlPic=

> <r_lp_tautomer_probability>
1

> <r_epik_Ionization_Penalty>
0.00068475

> <r_epik_Ionization_Penalty_Charging>
0

> <r_epik_Ionization_Penalty_Neutral>
0.00068475

> <r_epik_State_Penalty>
0.000417442

> <r_epik_Charging_Adjusted_Penalty>
0.000417442

> <i_epik_Tot_Q>
0

> <i_epik_Tot_abs_Q>
0

> <r_epik_Metal_State_Penalty>
-0

> <b_epik_Metal_Only>
0

> <s_epik_Chemistry_Notes>
This compound contains an acetal/aminal-like group ( X-CH(R)-Y where X, Y are N, S, or O) that may be acid/base labile, releasing an aldehyde.

> <s_lp_Force_Field>
OPLS_2005

> <r_lp_Energy>
59.87

> <b_lp_Chiralities_Consistent>
1

> <s_lp_Variant>
AV-unprocessed.smi:110-9

> <Gold.Version>
5.8.1

> <Gold.Id.Protein>
6NUR|6NUR_protein|mol2

> <Gold.PLP.Fitness>
60.5707

> <Gold.PLP.PLP>
-50.9426

> <Gold.PLP.part.hbond>
-3.6852

> <Gold.PLP.part.metal>
0.0000

> <Gold.PLP.part.buried>
-4.5040

> <Gold.PLP.part.nonpolar>
-44.6828

> <Gold.PLP.part.repulsive>
0.3188

> <Gold.PLP.ligand.clash>
0.0000

> <Gold.PLP.ligand.torsion>
0.3017

> <Gold.PLP.Chemscore.Hbond>
2.8500

> <Gold.PLP.Chemscore.CHOScore>
0.5193

> <Gold.PLP.Chemscore.Metal>
0.0000

> <Gold.Chemscore.Hbonds>
donor molecule, donor type, donor heavy atom, donor atom, acceptor molecule, acceptor atom, score
      L1  H    25    45       P1  7957  1.00
      P1  H  7989  7998       L1    22  0.80
      P1  H  7997  8009       L1    20  1.00
      L1  C     7    35       P1  8028  0.52

> <Gold.PLP.Chemscore.Internal.Correction>
0.1236

> <Gold.Rescore>
     Score         DG    S(hbond)    S(metal)    S(lipo)     H(rot)  DE(clash)    DE(int)     intcor
     12.04     -15.26       1.77        0.00     107.19       3.38       1.51       1.71       ----

> <Gold.Chemscore.Fitness>
12.0378

> <Gold.Chemscore.DG>
-15.2576

> <Gold.Chemscore.ZeroCoef>
-5.4800

> <Gold.Chemscore.Hbond>
1.7660

> <Gold.Chemscore.Metal>
0.0000

> <Gold.Chemscore.Lipo>
107.1918

> <Gold.Chemscore.Internal_Hbond>
0.0000

> <Gold.Chemscore.DEClash>
1.5060

> <Gold.Chemscore.DEInternal>
1.7138

> <Gold.Chemscore.Rot>
3.3837

> <Gold.Chemscore.Internal.Correction>
   9.000000E+99

> <Gold.Chemscore.Hbonds>
donor molecule, donor type, donor heavy atom, donor atom, acceptor molecule, acceptor atom, score
      L1  H    25    45       P1  7957  0.91
      P1  H  7989  7998       L1    22  0.10
      P1  H  7997  8009       L1    20  0.57

> <Gold.Chemscore.Hbond.Weighted>
-5.8983

> <Gold.Chemscore.Metal.Weighted>
-0.0000

> <Gold.Chemscore.Lipo.Weighted>
-12.5414

> <Gold.Chemscore.Internal_Hbond.Weighted>
0.0000

> <Gold.Chemscore.DEClash.Weighted>
1.5060

> <Gold.Chemscore.DEInternal.Weighted>
1.7138

> <Gold.Chemscore.Rot.Weighted>
8.6622

> <Gold.Chemscore.Internal.Correction.Weighted>
   9.000000E+99

> <Gold.Protein.RotatedTorsions>
[ 6907 6896 6895 6894 ] final   85.82 input  -60.11 | X-H torsion
[ 7974 7965 7964 7962 ] final   39.81 input  175.53 | X-H torsion
[ 8008 7997 7996 7995 ] final  170.02 input   59.86 | X-H torsion
[ 10167 10162 10161 10158 ] final -162.20 input  -65.29 | X-H torsion
[ 10718 10713 10712 10709 ] final -164.80 input   66.30 | X-H torsion
[ 10763 10752 10751 10750 ] final   59.52 input  -60.55 | X-H torsion
[ 11005 11000 10999 10996 ] final -102.76 input  -57.11 | X-H torsion

> <Gold.Protein.ActiveResidues>
 VAL166  LYS551  ARG553  GLY616  TRP617  ASP618  TYR619  PRO620  LYS621  CYS622 
 ASP623  PHE694  ASN695  SER759  ASP760  ASP761  ALA762  ILE779  LEU786  VAL792 
 PHE793  MET794  SER795  GLU796  ALA797  LYS798  CYS799  TRP800  GLU811  SER814 

> <Gold.Protein.RotatedAtoms>
  152.5382  134.2527  159.8904 H   0  0  0  0  0  0  0  0  0  0  0  0  # atno 6907 bound_to 6896
  151.2490  133.4353  159.2618 H   0  0  0  0  0  0  0  0  0  0  0  0  # atno 6908 bound_to 6896
  151.0557  134.9717  159.8290 H   0  0  0  0  0  0  0  0  0  0  0  0  # atno 6909 bound_to 6896
  146.0955  139.5607  142.9448 H   0  0  0  0  0  0  0  0  0  0  0  0  # atno 7974 bound_to 7965
  156.1404  140.1549  156.8930 H   0  0  0  0  0  0  0  0  0  0  0  0  # atno 8008 bound_to 7997
  154.4982  140.0832  156.7781 H   0  0  0  0  0  0  0  0  0  0  0  0  # atno 8009 bound_to 7997
  155.4090  140.3418  155.4264 H   0  0  0  0  0  0  0  0  0  0  0  0  # atno 8010 bound_to 7997
  139.6409  144.0261  152.2091 H   0  0  0  0  0  0  0  0  0  0  0  0  # atno 10167 bound_to 10162
  156.6442  130.8981  151.3001 H   0  0  0  0  0  0  0  0  0  0  0  0  # atno 10718 bound_to 10713
  152.9897  135.5568  154.5727 H   0  0  0  0  0  0  0  0  0  0  0  0  # atno 10763 bound_to 10752
  154.5124  135.2803  155.1334 H   0  0  0  0  0  0  0  0  0  0  0  0  # atno 10764 bound_to 10752
  154.2720  135.6361  153.5367 H   0  0  0  0  0  0  0  0  0  0  0  0  # atno 10765 bound_to 10752
  141.1175  133.8585  157.1401 H   0  0  0  0  0  0  0  0  0  0  0  0  # atno 11005 bound_to 11000
  145.5957  141.0363  143.2046 LP  0  0  0  0  0  0  0  0  0  0  0  0  # atno 17320 bound_to 7965
  144.7392  139.7498  143.7317 LP  0  0  0  0  0  0  0  0  0  0  0  0  # atno 17321 bound_to 7965
  139.9950  144.6334  150.7780 LP  0  0  0  0  0  0  0  0  0  0  0  0  # atno 17342 bound_to 10162
  140.7490  143.2932  151.3275 LP  0  0  0  0  0  0  0  0  0  0  0  0  # atno 17343 bound_to 10162
  157.7161  130.9499  150.1262 LP  0  0  0  0  0  0  0  0  0  0  0  0  # atno 17370 bound_to 10713
  156.2135  130.3668  149.8642 LP  0  0  0  0  0  0  0  0  0  0  0  0  # atno 17371 bound_to 10713
  140.0108  134.9989  157.0390 LP  0  0  0  0  0  0  0  0  0  0  0  0  # atno 17394 bound_to 11000
  140.4603  134.1491  155.7190 LP  0  0  0  0  0  0  0  0  0  0  0  0  # atno 17395 bound_to 11000

$$$$
