AV-unprocessed.smi:114|AV-procd|sdf|1121|dock8
  -GOLD-   2262018243D 1   1.00000     0.00000
 Structure written by MMmdl.
 32 34  0  0  0  0  0  0  0  0  1 V2000
  155.1870  141.1596  160.3973 N   0  0  0  0  0  0  0  0  0  0  0  0
  153.9581  141.5734  160.0582 C   0  0  0  0  0  0  0  0  0  0  0  0
  153.4397  142.6440  160.7019 N   0  0  0  0  0  0  0  0  0  0  0  0
  152.2182  143.0906  160.3899 C   0  0  0  0  0  0  0  0  0  0  0  0
  151.7749  144.1655  161.0829 F   0  0  0  0  0  0  0  0  0  0  0  0
  151.3850  142.5921  159.4713 N   0  0  0  0  0  0  0  0  0  0  0  0
  151.8976  141.5095  158.8158 C   0  0  0  0  0  0  0  0  0  0  0  0
  153.1798  140.9433  159.0566 C   0  0  0  0  0  0  0  0  0  0  0  0
  153.3872  139.8591  158.2184 N   0  0  0  0  0  0  0  0  0  0  0  0
  152.2894  139.7954  157.5158 C   0  0  0  0  0  0  0  0  0  0  0  0
  151.3288  140.7386  157.8131 N   0  0  0  0  0  0  0  0  0  0  0  0
  150.0022  140.8875  157.1164 C   0  0  2  0  0  0  0  0  0  0  0  0
  149.3148  139.6826  157.2224 O   0  0  0  0  0  0  0  0  0  0  0  0
  149.5365  138.9005  156.0582 C   0  0  1  0  0  0  0  0  0  0  0  0
  148.3986  137.8821  155.8935 C   0  0  0  0  0  0  0  0  0  0  0  0
  148.6450  137.0570  154.7748 O   0  0  0  0  0  0  0  0  0  0  0  0
  149.5796  139.9541  154.9404 C   0  0  2  0  0  0  0  0  0  0  0  0
  150.4432  139.5336  153.9035 O   0  0  0  0  0  0  0  0  0  0  0  0
  150.1180  141.2185  155.6179 C   0  0  1  0  0  0  0  0  0  0  0  0
  149.3156  142.3312  155.2771 O   0  0  0  0  0  0  0  0  0  0  0  0
  149.4923  141.6616  157.6918 H   0  0  0  0  0  0  0  0  0  0  0  0
  150.4952  138.3883  156.1420 H   0  0  0  0  0  0  0  0  0  0  0  0
  148.5766  140.1227  154.5438 H   0  0  0  0  0  0  0  0  0  0  0  0
  151.1478  141.4512  155.3495 H   0  0  0  0  0  0  0  0  0  0  0  0
  155.5957  140.3634  159.9293 H   0  0  0  0  0  0  0  0  0  0  0  0
  155.7045  141.6489  161.1131 H   0  0  0  0  0  0  0  0  0  0  0  0
  152.1495  139.0482  156.7482 H   0  0  0  0  0  0  0  0  0  0  0  0
  148.2714  137.2782  156.7925 H   0  0  0  0  0  0  0  0  0  0  0  0
  147.4564  138.4009  155.7149 H   0  0  0  0  0  0  0  0  0  0  0  0
  149.0692  136.2665  155.0713 H   0  0  0  0  0  0  0  0  0  0  0  0
  149.9493  139.4968  153.0987 H   0  0  0  0  0  0  0  0  0  0  0  0
  149.5624  143.0585  155.8281 H   0  0  0  0  0  0  0  0  0  0  0  0
  1  2  1  0  0  0  0
  1 25  1  0  0  0  0
  1 26  1  0  0  0  0
  2  8  1  0  0  0  0
  2  3  2  0  0  0  0
  3  4  1  0  0  0  0
  4  5  1  0  0  0  0
  4  6  2  0  0  0  0
  6  7  1  0  0  0  0
  7 11  1  0  0  0  0
  7  8  2  0  0  0  0
  8  9  1  0  0  0  0
  9 10  2  0  0  0  0
 10 11  1  0  0  0  0
 10 27  1  0  0  0  0
 11 12  1  0  0  0  0
 12 21  1  0  0  0  0
 12 19  1  0  0  0  0
 12 13  1  0  0  0  0
 13 14  1  0  0  0  0
 14 22  1  0  0  0  0
 14 15  1  0  0  0  0
 14 17  1  0  0  0  0
 15 16  1  0  0  0  0
 15 28  1  0  0  0  0
 15 29  1  0  0  0  0
 16 30  1  0  0  0  0
 17 23  1  0  0  0  0
 17 18  1  0  0  0  0
 17 19  1  0  0  0  0
 18 31  1  0  0  0  0
 19 24  1  0  0  0  0
 19 20  1  0  0  0  0
 20 32  1  0  0  0  0
M  END
> <s_m_source_file>
AV-unprocessed.smi

> <i_m_source_file_index>
114

> <i_lp_mmshare_version>
43012

> <i_f3d_flags>
0

> <s_epik_input>
RmMobjEpbmMoW05IMl0pYyhjMTIpbltjSF1uMltDQEBIXTNPW0NASF0oW0NIMl1bT0hdKVtDQEBIXShbT0hdKVtDQEBIXTNbT0hd

> <s_epik_cmdline>
J2VwaWtfcHl0aG9uJywgJy1waCcsICc3LjAnLCAnLXRuJywgJzgnLCAnLW1hJywgJzIwMCcsICctbWV0YWxfYmluZGluZycsICctaW1hZScsICc8aW5maWxlLm1hZT4nLCAnLW9tYWUnLCAnPG91dGZpbGUubWFlPic=

> <r_lp_tautomer_probability>
1

> <r_epik_Ionization_Penalty>
1.13199e-05

> <r_epik_Ionization_Penalty_Charging>
0

> <r_epik_Ionization_Penalty_Neutral>
1.13199e-05

> <r_epik_State_Penalty>
-0

> <r_epik_Charging_Adjusted_Penalty>
0

> <i_epik_Tot_Q>
0

> <i_epik_Tot_abs_Q>
0

> <r_epik_Metal_State_Penalty>
-0

> <b_epik_Metal_Only>
0

> <s_epik_Chemistry_Notes>
This compound contains an acetal/aminal-like group ( X-CH(R)-Y where X, Y are N, S, or O) that may be acid/base labile, releasing an aldehyde.

> <s_lp_Force_Field>
OPLS_2005

> <r_lp_Energy>
32.4154

> <b_lp_Chiralities_Consistent>
1

> <s_lp_Variant>
AV-unprocessed.smi:114-15

> <Gold.Version>
5.8.1

> <Gold.Id.Protein>
6NUR|6NUR_protein|mol2

> <Gold.PLP.Fitness>
42.4554

> <Gold.PLP.PLP>
-32.1051

> <Gold.PLP.part.hbond>
-5.5475

> <Gold.PLP.part.metal>
0.0000

> <Gold.PLP.part.buried>
-5.1267

> <Gold.PLP.part.nonpolar>
-21.3437

> <Gold.PLP.part.repulsive>
0.0527

> <Gold.PLP.ligand.clash>
0.0000

> <Gold.PLP.ligand.torsion>
0.0551

> <Gold.PLP.Chemscore.Hbond>
3.4800

> <Gold.PLP.Chemscore.CHOScore>
0.0000

> <Gold.PLP.Chemscore.Metal>
0.0000

> <Gold.Chemscore.Hbonds>
donor molecule, donor type, donor heavy atom, donor atom, acceptor molecule, acceptor atom, score
      L1  H    18    31       P1  7957  0.99
      L1  H    20    32       P1  8028  0.48
      P1  H  7989  7998       L1    18  0.95
      P1  H  7997  8010       L1     9  1.00

> <Gold.PLP.Chemscore.Internal.Correction>
0.0205

> <Gold.Rescore>
     Score         DG    S(hbond)    S(metal)    S(lipo)     H(rot)  DE(clash)    DE(int)     intcor
      6.60      -7.06       2.74        0.00      23.48       4.03       0.42       0.04       ----

> <Gold.Chemscore.Fitness>
6.5967

> <Gold.Chemscore.DG>
-7.0638

> <Gold.Chemscore.ZeroCoef>
-5.4800

> <Gold.Chemscore.Hbond>
2.7388

> <Gold.Chemscore.Metal>
0.0000

> <Gold.Chemscore.Lipo>
23.4788

> <Gold.Chemscore.Internal_Hbond>
0.0000

> <Gold.Chemscore.DEClash>
0.4245

> <Gold.Chemscore.DEInternal>
0.0426

> <Gold.Chemscore.Rot>
4.0277

> <Gold.Chemscore.Internal.Correction>
   9.000000E+99

> <Gold.Chemscore.Hbonds>
donor molecule, donor type, donor heavy atom, donor atom, acceptor molecule, acceptor atom, score
      L1  H    18    31       P1  7957  0.88
      L1  H    20    32       P1  8028  0.48
      P1  H  7989  7998       L1    18  0.16
      P1  H  7997  8010       L1     9  0.63

> <Gold.Chemscore.Hbond.Weighted>
-9.1477

> <Gold.Chemscore.Metal.Weighted>
-0.0000

> <Gold.Chemscore.Lipo.Weighted>
-2.7470

> <Gold.Chemscore.Internal_Hbond.Weighted>
0.0000

> <Gold.Chemscore.DEClash.Weighted>
0.4245

> <Gold.Chemscore.DEInternal.Weighted>
0.0426

> <Gold.Chemscore.Rot.Weighted>
10.3110

> <Gold.Chemscore.Internal.Correction.Weighted>
   9.000000E+99

> <Gold.Protein.RotatedTorsions>
[ 6907 6896 6895 6894 ] final -143.59 input  -60.11 | X-H torsion
[ 7974 7965 7964 7962 ] final  -42.27 input  175.53 | X-H torsion
[ 8008 7997 7996 7995 ] final   19.08 input   59.86 | X-H torsion
[ 10167 10162 10161 10158 ] final  110.04 input  -65.29 | X-H torsion
[ 10718 10713 10712 10709 ] final  148.17 input   66.30 | X-H torsion
[ 10763 10752 10751 10750 ] final   10.86 input  -60.55 | X-H torsion
[ 11005 11000 10999 10996 ] final  -72.68 input  -57.11 | X-H torsion

> <Gold.Protein.ActiveResidues>
 VAL166  LYS551  ARG553  GLY616  TRP617  ASP618  TYR619  PRO620  LYS621  CYS622 
 ASP623  PHE694  ASN695  SER759  ASP760  ASP761  ALA762  ILE779  LEU786  VAL792 
 PHE793  MET794  SER795  GLU796  ALA797  LYS798  CYS799  TRP800  GLU811  SER814 

> <Gold.Protein.RotatedAtoms>
  151.1025  133.5233  159.2609 H   0  0  0  0  0  0  0  0  0  0  0  0  # atno 6907 bound_to 6896
  151.2058  135.0461  159.8901 H   0  0  0  0  0  0  0  0  0  0  0  0  # atno 6908 bound_to 6896
  152.5444  134.0847  159.8304 H   0  0  0  0  0  0  0  0  0  0  0  0  # atno 6909 bound_to 6896
  146.0132  140.6940  142.9214 H   0  0  0  0  0  0  0  0  0  0  0  0  # atno 7974 bound_to 7965
  154.9154  140.3020  155.5244 H   0  0  0  0  0  0  0  0  0  0  0  0  # atno 8008 bound_to 7997
  156.3013  140.2381  156.4134 H   0  0  0  0  0  0  0  0  0  0  0  0  # atno 8009 bound_to 7997
  154.8383  140.0415  157.1513 H   0  0  0  0  0  0  0  0  0  0  0  0  # atno 8010 bound_to 7997
  139.6719  144.7125  151.1672 H   0  0  0  0  0  0  0  0  0  0  0  0  # atno 10167 bound_to 10162
  157.3119  131.0889  151.1310 H   0  0  0  0  0  0  0  0  0  0  0  0  # atno 10718 bound_to 10713
  153.1987  135.6853  153.8258 H   0  0  0  0  0  0  0  0  0  0  0  0  # atno 10763 bound_to 10752
  153.7532  135.3221  155.3326 H   0  0  0  0  0  0  0  0  0  0  0  0  # atno 10764 bound_to 10752
  154.8159  135.4686  154.0744 H   0  0  0  0  0  0  0  0  0  0  0  0  # atno 10765 bound_to 10752
  141.1612  133.6854  156.7097 H   0  0  0  0  0  0  0  0  0  0  0  0  # atno 11005 bound_to 11000
  144.6961  140.3434  143.7195 LP  0  0  0  0  0  0  0  0  0  0  0  0  # atno 17320 bound_to 7965
  145.7310  139.1736  143.2430 LP  0  0  0  0  0  0  0  0  0  0  0  0  # atno 17321 bound_to 7965
  140.7621  143.5831  150.8874 LP  0  0  0  0  0  0  0  0  0  0  0  0  # atno 17342 bound_to 10162
  139.9497  143.6286  152.3032 LP  0  0  0  0  0  0  0  0  0  0  0  0  # atno 17343 bound_to 10162
  157.2628  130.6667  149.5983 LP  0  0  0  0  0  0  0  0  0  0  0  0  # atno 17370 bound_to 10713
  155.9678  130.4503  150.5692 LP  0  0  0  0  0  0  0  0  0  0  0  0  # atno 17371 bound_to 10713
  140.2897  134.8251  157.4005 LP  0  0  0  0  0  0  0  0  0  0  0  0  # atno 17394 bound_to 11000
  140.1358  134.5036  155.8069 LP  0  0  0  0  0  0  0  0  0  0  0  0  # atno 17395 bound_to 11000

$$$$
