#       Name:                AV-unprocessed.smi:516
#       Creating user name   scv26
#       Creation time:       Thu Mar 26 23:25:49 2020


#       File generated by GOLD software.
#

@<TRIPOS>MOLECULE
AV-unprocessed.smi:516
    54    56     1
SMALL
NO_CHARGES


@<TRIPOS>ATOM
      1 ****        -3.9742   3.3822   0.2450 C.3            1 S1                 0.0000
      2 ****        -3.4050   2.1820  -0.2474 O.3            1 S1                 0.0000
      3 ****        -1.9953   2.1517  -0.1064 C.3            1 S1                 0.0000
      4 ****        -1.4710   0.8279  -0.6749 C.3            1 S1                 0.0000
      5 ****        -0.0228   0.7232  -0.5498 N.pl3          1 S1                 0.0000
      6 ****         0.6844   0.1274   0.4452 C.2            1 S1                 0.0000
      7 ****         0.0345  -0.5354   1.6226 C.3            1 S1                 0.0000
      8 ****        -0.5453  -1.8429   1.3213 N.3            1 S1                 0.0000
      9 ****         0.4638  -2.8366   0.9612 C.3            1 S1                 0.0000
     10 ****        -0.1657  -4.2099   0.6681 C.3            1 S1                 0.0000
     11 ****        -0.9297  -4.6370   1.7914 O.3            1 S1                 0.0000
     12 ****        -1.9545  -3.7130   2.1431 C.3            1 S1                 0.0000
     13 ****        -1.3282  -2.3411   2.4455 C.3            1 S1                 0.0000
     14 ****         2.0114   0.1898   0.2907 N.2            1 S1                 0.0000
     15 ****         2.1565   0.8857  -0.9005 C.2            1 S1                 0.0000
     16 ****         0.9482   1.2209  -1.4160 C.2            1 S1                 0.0000
     17 ****         0.8049   1.9787  -2.6644 C.2            1 S1                 0.0000
     18 ****        -0.2814   2.3020  -3.1398 O.2            1 S1                 0.0000
     19 ****         1.9952   2.2890  -3.2338 N.am           1 S1                 0.0000
     20 ****         3.2458   1.9781  -2.7723 C.2            1 S1                 0.0000
     21 ****         4.2362   2.3333  -3.4105 O.2            1 S1                 0.0000
     22 ****         3.3345   1.2723  -1.5974 N.am           1 S1                 0.0000
     23 ****         4.6234   0.8886  -1.0182 C.3            1 S1                 0.0000
     24 ****         1.9551   2.8110  -4.0969 H              1 S1                 0.0000
     25 ****        -5.0559   3.3553   0.1142 H              1 S1                 0.0000
     26 ****        -3.5914   4.2500  -0.2937 H              1 S1                 0.0000
     27 ****        -3.7665   3.5099   1.3081 H              1 S1                 0.0000
     28 ****        -1.5483   2.9941  -0.6367 H              1 S1                 0.0000
     29 ****        -1.7239   2.2425   0.9466 H              1 S1                 0.0000
     30 ****        -1.9420  -0.0105  -0.1629 H              1 S1                 0.0000
     31 ****        -1.7468   0.7239  -1.7240 H              1 S1                 0.0000
     32 ****         0.7675  -0.6271   2.4257 H              1 S1                 0.0000
     33 ****        -0.7409   0.1345   1.9958 H              1 S1                 0.0000
     34 ****         1.0206  -2.5094   0.0828 H              1 S1                 0.0000
     35 ****         1.1887  -2.9376   1.7704 H              1 S1                 0.0000
     36 ****        -0.8032  -4.1612  -0.2160 H              1 S1                 0.0000
     37 ****         0.6106  -4.9474   0.4639 H              1 S1                 0.0000
     38 ****        -2.6797  -3.6360   1.3315 H              1 S1                 0.0000
     39 ****        -2.4885  -4.0875   3.0165 H              1 S1                 0.0000
     40 ****        -0.6954  -2.4203   3.3310 H              1 S1                 0.0000
     41 ****        -2.1189  -1.6308   2.6895 H              1 S1                 0.0000
     42 ****         5.4870   1.2150  -1.5986 H              1 S1                 0.0000
     43 ****         4.6821  -0.1966  -0.9294 H              1 S1                 0.0000
     44 ****         4.7229   1.3129  -0.0186 H              1 S1                 0.0000
     45 ****        -3.6322   2.0937  -1.2173 LP             1 S1                 0.0000
     46 ****        -3.7943   1.4117   0.2576 LP             1 S1                 0.0000
     47 ****        -1.1409  -1.7052   0.5299 LP             1 S1                 0.0000
     48 ****        -0.3155  -4.7463   2.5730 LP             1 S1                 0.0000
     49 ****        -1.3529  -5.5167   1.5745 LP             1 S1                 0.0000
     50 ****         2.7250  -0.1760   0.8881 LP             1 S1                 0.0000
     51 ****        -1.1276   2.0480  -2.6715 LP             1 S1                 0.0000
     52 ****        -0.3190   2.8190  -3.9950 LP             1 S1                 0.0000
     53 ****         4.1250   2.8463  -4.2617 LP             1 S1                 0.0000
     54 ****         5.1522   2.1088  -3.0780 LP             1 S1                 0.0000
@<TRIPOS>BOND
    1    1    2 1     
    2    1   25 1     
    3    1   26 1     
    4    1   27 1     
    5    2    3 1     
    6    3    4 1     
    7    3   28 1     
    8    3   29 1     
    9    4    5 1     
   10    4   30 1     
   11    4   31 1     
   12    5   16 1     
   13    5    6 1     
   14    6    7 1     
   15    6   14 2     
   16    7    8 1     
   17    7   32 1     
   18    7   33 1     
   19    8   13 1     
   20    8    9 1     
   21    9   10 1     
   22    9   34 1     
   23    9   35 1     
   24   10   11 1     
   25   10   36 1     
   26   10   37 1     
   27   11   12 1     
   28   12   13 1     
   29   12   38 1     
   30   12   39 1     
   31   13   40 1     
   32   13   41 1     
   33   14   15 1     
   34   15   22 1     
   35   15   16 2     
   36   16   17 1     
   37   17   18 2     
   38   17   19 1     
   39   19   24 1     
   40   19   20 1     
   41   20   21 2     
   42   20   22 1     
   43   22   23 1     
   44   23   42 1     
   45   23   43 1     
   46   23   44 1     
   47    2   45 1     
   48    2   46 1     
   49    8   47 1     
   50   11   48 1     
   51   11   49 1     
   52   14   50 1     
   53   18   51 1     
   54   18   52 1     
   55   21   53 1     
   56   21   54 1     
@<TRIPOS>SUBSTRUCTURE
      1 S1             1
@<TRIPOS>SET
LONE_PAIRS      STATIC     ATOMS    <user>   **** ""
10 45 46 47 48 49 50 51 52 53 54
DONOR_HYDROGENS      STATIC     ATOMS    <user>   **** ""
1 24
ATOM$BLUE        STATIC     ATOMS    COLORGROUP SYSTEM
10 45 46 47 48 49 50 51 52 53 54
ATOM$RED        STATIC     ATOMS    COLORGROUP SYSTEM
1 24
