AV-unprocessed.smi:1947|AV-procd|sdf|7865|dock10
  -GOLD-   2272010 13D 1   1.00000     0.00000
 Structure written by MMmdl.
 39 40  0  0  0  0  0  0  0  0  1 V2000
  145.2958  135.9587  151.4591 C   0  0  0  0  0  0  0  0  0  0  0  0
  145.6573  134.5204  151.0501 C   0  0  2  0  0  0  0  0  0  0  0  0
  144.5725  133.9259  150.1296 C   0  0  0  0  0  0  0  0  0  0  0  0
  144.9042  132.4841  149.7149 C   0  0  0  0  0  0  0  0  0  0  0  0
  145.1167  131.5906  150.9452 C   0  0  0  0  0  0  0  0  0  0  0  0
  146.2040  132.1676  151.8639 C   0  0  0  0  0  0  0  0  0  0  0  0
  145.8803  133.6163  152.2830 C   0  0  1  0  0  0  0  0  0  0  0  0
  146.9713  134.1528  153.0194 O   0  0  0  0  0  0  0  0  0  0  0  0
  147.4510  133.3149  154.0606 C   0  0  0  0  0  0  0  0  0  0  0  0
  148.4784  134.1011  154.8887 C   0  0  0  0  0  0  0  0  0  0  0  0
  148.7979  135.3842  154.2713 N   0  0  0  0  0  0  0  0  0  0  0  0
  148.9878  136.5345  154.9321 C   0  0  0  0  0  0  0  0  0  0  0  0
  148.9632  136.6238  156.1596 O   0  0  0  0  0  0  0  0  0  0  0  0
  149.1959  137.5527  154.0821 N   0  0  0  0  0  0  0  0  0  0  0  0
  149.3907  138.9216  154.3931 C   0  0  0  0  0  0  0  0  0  0  0  0
  150.5500  139.2790  154.9579 N   0  0  0  0  0  0  0  0  0  0  0  0
  150.6095  140.6455  155.2045 N   0  0  0  0  0  0  0  0  0  0  0  0
  149.4910  141.2654  154.8158 C   0  0  0  0  0  0  0  0  0  0  0  0
  148.2529  140.2423  154.1097 S   0  0  0  0  0  0  0  0  0  0  0  0
  144.3750  135.9857  152.0425 H   0  0  0  0  0  0  0  0  0  0  0  0
  145.1531  136.5915  150.5827 H   0  0  0  0  0  0  0  0  0  0  0  0
  146.0834  136.4112  152.0625 H   0  0  0  0  0  0  0  0  0  0  0  0
  146.5900  134.5605  150.4852 H   0  0  0  0  0  0  0  0  0  0  0  0
  143.6076  133.9432  150.6387 H   0  0  0  0  0  0  0  0  0  0  0  0
  144.4606  134.5442  149.2380 H   0  0  0  0  0  0  0  0  0  0  0  0
  144.1019  132.0806  149.0967 H   0  0  0  0  0  0  0  0  0  0  0  0
  145.8036  132.4778  149.0978 H   0  0  0  0  0  0  0  0  0  0  0  0
  144.1807  131.4988  151.4981 H   0  0  0  0  0  0  0  0  0  0  0  0
  145.3912  130.5834  150.6306 H   0  0  0  0  0  0  0  0  0  0  0  0
  146.3093  131.5308  152.7421 H   0  0  0  0  0  0  0  0  0  0  0  0
  147.1647  132.1428  151.3478 H   0  0  0  0  0  0  0  0  0  0  0  0
  144.9695  133.6290  152.8850 H   0  0  0  0  0  0  0  0  0  0  0  0
  146.6288  132.9869  154.6984 H   0  0  0  0  0  0  0  0  0  0  0  0
  147.9152  132.4206  153.6445 H   0  0  0  0  0  0  0  0  0  0  0  0
  148.1084  134.2578  155.9031 H   0  0  0  0  0  0  0  0  0  0  0  0
  149.3997  133.5253  154.9780 H   0  0  0  0  0  0  0  0  0  0  0  0
  148.8365  135.4026  153.2626 H   0  0  0  0  0  0  0  0  0  0  0  0
  149.1960  137.3266  153.0984 H   0  0  0  0  0  0  0  0  0  0  0  0
  149.3949  142.3333  154.9459 H   0  0  0  0  0  0  0  0  0  0  0  0
  1  2  1  0  0  0  0
  1 20  1  0  0  0  0
  1 21  1  0  0  0  0
  1 22  1  0  0  0  0
  2  7  1  0  0  0  0
  2  3  1  0  0  0  0
  2 23  1  0  0  0  0
  3  4  1  0  0  0  0
  3 24  1  0  0  0  0
  3 25  1  0  0  0  0
  4  5  1  0  0  0  0
  4 26  1  0  0  0  0
  4 27  1  0  0  0  0
  5  6  1  0  0  0  0
  5 28  1  0  0  0  0
  5 29  1  0  0  0  0
  6  7  1  0  0  0  0
  6 30  1  0  0  0  0
  6 31  1  0  0  0  0
  7  8  1  0  0  0  0
  7 32  1  0  0  0  0
  8  9  1  0  0  0  0
  9 10  1  0  0  0  0
  9 33  1  0  0  0  0
  9 34  1  0  0  0  0
 10 11  1  0  0  0  0
 10 35  1  0  0  0  0
 10 36  1  0  0  0  0
 11 12  1  0  0  0  0
 11 37  1  0  0  0  0
 12 13  2  0  0  0  0
 12 14  1  0  0  0  0
 14 15  1  0  0  0  0
 14 38  1  0  0  0  0
 15 19  1  0  0  0  0
 15 16  2  0  0  0  0
 16 17  1  0  0  0  0
 17 18  2  0  0  0  0
 18 19  1  0  0  0  0
 18 39  1  0  0  0  0
M  END
> <s_m_source_file>
AV-unprocessed.smi

> <i_m_source_file_index>
1947

> <i_lp_mmshare_version>
43012

> <i_f3d_flags>
0

> <s_epik_input>
W0NIM11bQ0BASF0xW0NIMl1bQ0gyXVtDSDJdW0NIMl1bQ0BIXTFPW0NIMl1bQ0gyXVtOSF1DKD1PKVtOSF1jMm5uW2NIXXMy

> <s_epik_cmdline>
J2VwaWtfcHl0aG9uJywgJy1waCcsICc3LjAnLCAnLXRuJywgJzgnLCAnLW1hJywgJzIwMCcsICctbWV0YWxfYmluZGluZycsICctaW1hZScsICc8aW5maWxlLm1hZT4nLCAnLW9tYWUnLCAnPG91dGZpbGUubWFlPic=

> <r_lp_tautomer_probability>
1

> <r_epik_Ionization_Penalty>
0.00220897

> <r_epik_Ionization_Penalty_Charging>
0

> <r_epik_Ionization_Penalty_Neutral>
0.00220897

> <r_epik_State_Penalty>
-0

> <r_epik_Charging_Adjusted_Penalty>
0

> <i_epik_Tot_Q>
0

> <i_epik_Tot_abs_Q>
0

> <r_epik_Metal_State_Penalty>
0.345002

> <b_epik_Metal_Only>
0

> <s_lp_Force_Field>
OPLS_2005

> <r_lp_Energy>
7.38762

> <b_lp_Chiralities_Consistent>
1

> <s_lp_Variant>
AV-unprocessed.smi:1947-1

> <Gold.Version>
5.8.1

> <Gold.Id.Protein>
6NUR|6NUR_protein|mol2

> <Gold.PLP.Fitness>
37.6765

> <Gold.PLP.PLP>
-29.9454

> <Gold.PLP.part.hbond>
-3.0000

> <Gold.PLP.part.metal>
0.0000

> <Gold.PLP.part.buried>
-3.2239

> <Gold.PLP.part.nonpolar>
-23.9379

> <Gold.PLP.part.repulsive>
0.6264

> <Gold.PLP.ligand.clash>
0.0000

> <Gold.PLP.ligand.torsion>
1.2545

> <Gold.PLP.Chemscore.Hbond>
2.4104

> <Gold.PLP.Chemscore.CHOScore>
0.9991

> <Gold.PLP.Chemscore.Metal>
0.0000

> <Gold.Chemscore.Hbonds>
donor molecule, donor type, donor heavy atom, donor atom, acceptor molecule, acceptor atom, score
      L1  H    11    37       P1  7948  1.00
      L1  H    14    38       P1  7948  1.00
      P1  H  7989  7998       L1    17  0.39
      L1  C    18    39       P1  8028  0.99

> <Gold.PLP.Chemscore.Internal.Correction>
0.0114

> <Gold.Rescore>
     Score         DG    S(hbond)    S(metal)    S(lipo)     H(rot)  DE(clash)    DE(int)     intcor
     13.68     -15.00       1.89        0.00      69.75       1.94       0.09       1.23       ----

> <Gold.Chemscore.Fitness>
13.6794

> <Gold.Chemscore.DG>
-14.9982

> <Gold.Chemscore.ZeroCoef>
-5.4800

> <Gold.Chemscore.Hbond>
1.8922

> <Gold.Chemscore.Metal>
0.0000

> <Gold.Chemscore.Lipo>
69.7502

> <Gold.Chemscore.Internal_Hbond>
0.0000

> <Gold.Chemscore.DEClash>
0.0907

> <Gold.Chemscore.DEInternal>
1.2282

> <Gold.Chemscore.Rot>
1.9385

> <Gold.Chemscore.Internal.Correction>
   9.000000E+99

> <Gold.Chemscore.Hbonds>
donor molecule, donor type, donor heavy atom, donor atom, acceptor molecule, acceptor atom, score
      L1  H    11    37       P1  7948  0.71
      L1  H    14    38       P1  7948  0.94

> <Gold.Chemscore.Hbond.Weighted>
-6.3200

> <Gold.Chemscore.Metal.Weighted>
-0.0000

> <Gold.Chemscore.Lipo.Weighted>
-8.1608

> <Gold.Chemscore.Internal_Hbond.Weighted>
0.0000

> <Gold.Chemscore.DEClash.Weighted>
0.0907

> <Gold.Chemscore.DEInternal.Weighted>
1.2282

> <Gold.Chemscore.Rot.Weighted>
4.9625

> <Gold.Chemscore.Internal.Correction.Weighted>
   9.000000E+99

> <Gold.Protein.RotatedTorsions>
[ 6907 6896 6895 6894 ] final  -93.44 input  -60.11 | X-H torsion
[ 7974 7965 7964 7962 ] final  -29.91 input  175.53 | X-H torsion
[ 8008 7997 7996 7995 ] final -152.68 input   59.86 | X-H torsion
[ 10167 10162 10161 10158 ] final  -96.44 input  -65.29 | X-H torsion
[ 10718 10713 10712 10709 ] final -173.32 input   66.30 | X-H torsion
[ 10763 10752 10751 10750 ] final   -7.54 input  -60.55 | X-H torsion
[ 11005 11000 10999 10996 ] final  -32.21 input  -57.11 | X-H torsion

> <Gold.Protein.ActiveResidues>
 VAL166  LYS551  ARG553  GLY616  TRP617  ASP618  TYR619  PRO620  LYS621  CYS622 
 ASP623  PHE694  ASN695  SER759  ASP760  ASP761  ALA762  ILE779  LEU786  VAL792 
 PHE793  MET794  SER795  GLU796  ALA797  LYS798  CYS799  TRP800  GLU811  SER814 

> <Gold.Protein.RotatedAtoms>
  150.6923  134.1966  159.4305 H   0  0  0  0  0  0  0  0  0  0  0  0  # atno 6907 bound_to 6896
  151.9935  134.9964  160.0571 H   0  0  0  0  0  0  0  0  0  0  0  0  # atno 6908 bound_to 6896
  152.1645  133.4568  159.4915 H   0  0  0  0  0  0  0  0  0  0  0  0  # atno 6909 bound_to 6896
  146.1182  140.5473  142.8747 H   0  0  0  0  0  0  0  0  0  0  0  0  # atno 7974 bound_to 7965
  155.6589  140.0720  157.2561 H   0  0  0  0  0  0  0  0  0  0  0  0  # atno 8008 bound_to 7997
  154.4146  140.1720  156.1805 H   0  0  0  0  0  0  0  0  0  0  0  0  # atno 8009 bound_to 7997
  155.9714  140.3361  155.6582 H   0  0  0  0  0  0  0  0  0  0  0  0  # atno 8010 bound_to 7997
  140.2937  143.3205  152.0319 H   0  0  0  0  0  0  0  0  0  0  0  0  # atno 10167 bound_to 10162
  156.7685  130.9440  151.3119 H   0  0  0  0  0  0  0  0  0  0  0  0  # atno 10718 bound_to 10713
  153.4277  135.7011  153.6251 H   0  0  0  0  0  0  0  0  0  0  0  0  # atno 10763 bound_to 10752
  153.4679  135.3721  155.2375 H   0  0  0  0  0  0  0  0  0  0  0  0  # atno 10764 bound_to 10752
  154.8724  135.4036  154.3656 H   0  0  0  0  0  0  0  0  0  0  0  0  # atno 10765 bound_to 10752
  140.9533  133.7208  156.1254 H   0  0  0  0  0  0  0  0  0  0  0  0  # atno 11005 bound_to 11000
  144.7572  140.5336  143.6760 LP  0  0  0  0  0  0  0  0  0  0  0  0  # atno 17320 bound_to 7965
  145.5522  139.1477  143.3387 LP  0  0  0  0  0  0  0  0  0  0  0  0  # atno 17321 bound_to 7965
  139.4931  144.6506  151.6684 LP  0  0  0  0  0  0  0  0  0  0  0  0  # atno 17342 bound_to 10162
  140.5710  144.0109  150.6217 LP  0  0  0  0  0  0  0  0  0  0  0  0  # atno 17343 bound_to 10162
  157.6702  130.9044  150.0022 LP  0  0  0  0  0  0  0  0  0  0  0  0  # atno 17370 bound_to 10713
  156.1293  130.3644  149.9758 LP  0  0  0  0  0  0  0  0  0  0  0  0  # atno 17371 bound_to 10713
  140.7572  134.3980  157.5532 LP  0  0  0  0  0  0  0  0  0  0  0  0  # atno 17394 bound_to 11000
  139.8854  134.8938  156.2644 LP  0  0  0  0  0  0  0  0  0  0  0  0  # atno 17395 bound_to 11000

$$$$
