AV-unprocessed.smi:2306|AV-procd|sdf|9248|dock1
  -GOLD-   2272012463D 1   1.00000     0.00000
 Structure written by MMmdl.
 41 42  0  0  0  0  0  0  0  0  1 V2000
  154.0847  133.3041  165.4921 C   0  0  0  0  0  0  0  0  0  0  0  0
  154.3613  134.2458  164.3336 C   0  0  0  0  0  0  0  0  0  0  0  0
  154.1805  135.6055  164.6041 N   0  0  0  0  0  0  0  0  0  0  0  0
  154.3806  136.4803  163.6735 C   0  0  0  0  0  0  0  0  0  0  0  0
  154.7791  136.1034  162.3811 N   0  0  0  0  0  0  0  0  0  0  0  0
  154.9716  137.1954  161.4139 C   0  0  0  0  0  0  0  0  0  0  0  0
  153.6337  137.6619  160.7942 C   0  0  2  0  0  0  0  0  0  0  0  0
  153.1152  136.6223  159.9892 O   0  0  0  0  0  0  0  0  0  0  0  0
  153.8081  138.8946  159.8945 C   0  0  0  0  0  0  0  0  0  0  0  0
  154.0449  140.0213  160.7215 O   0  0  0  0  0  0  0  0  0  0  0  0
  154.4203  141.1801  159.9961 C   0  0  0  0  0  0  0  0  0  0  0  0
  153.5093  142.3589  160.2868 C   0  0  0  0  0  0  0  0  0  0  0  0
  153.0004  143.1538  159.2363 C   0  0  0  0  0  0  0  0  0  0  0  0
  152.1681  144.2543  159.5196 C   0  0  0  0  0  0  0  0  0  0  0  0
  151.8458  144.5698  160.8536 C   0  0  0  0  0  0  0  0  0  0  0  0
  152.3585  143.7857  161.9049 C   0  0  0  0  0  0  0  0  0  0  0  0
  153.1905  142.6846  161.6222 C   0  0  0  0  0  0  0  0  0  0  0  0
  154.9982  134.8009  162.0375 C   0  0  0  0  0  0  0  0  0  0  0  0
  155.3741  134.4840  160.9069 O   0  0  0  0  0  0  0  0  0  0  0  0
  154.7580  133.8159  163.1045 C   0  0  0  0  0  0  0  0  0  0  0  0
  154.9668  132.3486  162.7510 C   0  0  0  0  0  0  0  0  0  0  0  0
  154.9825  132.7415  165.7493 H   0  0  0  0  0  0  0  0  0  0  0  0
  153.2938  132.6004  165.2319 H   0  0  0  0  0  0  0  0  0  0  0  0
  153.7667  133.8499  166.3814 H   0  0  0  0  0  0  0  0  0  0  0  0
  154.2570  137.5529  163.8333 H   0  0  0  0  0  0  0  0  0  0  0  0
  155.4477  138.0279  161.9353 H   0  0  0  0  0  0  0  0  0  0  0  0
  155.6915  136.9357  160.6345 H   0  0  0  0  0  0  0  0  0  0  0  0
  152.8998  137.8963  161.5666 H   0  0  0  0  0  0  0  0  0  0  0  0
  153.7545  136.4064  159.3275 H   0  0  0  0  0  0  0  0  0  0  0  0
  154.6332  138.7493  159.1952 H   0  0  0  0  0  0  0  0  0  0  0  0
  152.9034  139.0635  159.3078 H   0  0  0  0  0  0  0  0  0  0  0  0
  155.4468  141.4517  160.2484 H   0  0  0  0  0  0  0  0  0  0  0  0
  154.3893  140.9759  158.9249 H   0  0  0  0  0  0  0  0  0  0  0  0
  153.2441  142.9255  158.2088 H   0  0  0  0  0  0  0  0  0  0  0  0
  151.7786  144.8575  158.7127 H   0  0  0  0  0  0  0  0  0  0  0  0
  151.2083  145.4143  161.0702 H   0  0  0  0  0  0  0  0  0  0  0  0
  152.1146  144.0295  162.9284 H   0  0  0  0  0  0  0  0  0  0  0  0
  153.5828  142.0900  162.4342 H   0  0  0  0  0  0  0  0  0  0  0  0
  154.2738  132.0513  161.9634 H   0  0  0  0  0  0  0  0  0  0  0  0
  154.8135  131.6772  163.5942 H   0  0  0  0  0  0  0  0  0  0  0  0
  155.9821  132.1888  162.3867 H   0  0  0  0  0  0  0  0  0  0  0  0
  1  2  1  0  0  0  0
  1 22  1  0  0  0  0
  1 23  1  0  0  0  0
  1 24  1  0  0  0  0
  2 20  2  0  0  0  0
  2  3  1  0  0  0  0
  3  4  2  0  0  0  0
  4  5  1  0  0  0  0
  4 25  1  0  0  0  0
  5  6  1  0  0  0  0
  5 18  1  0  0  0  0
  6  7  1  0  0  0  0
  6 26  1  0  0  0  0
  6 27  1  0  0  0  0
  7  8  1  0  0  0  0
  7  9  1  0  0  0  0
  7 28  1  0  0  0  0
  8 29  1  0  0  0  0
  9 10  1  0  0  0  0
  9 30  1  0  0  0  0
  9 31  1  0  0  0  0
 10 11  1  0  0  0  0
 11 12  1  0  0  0  0
 11 32  1  0  0  0  0
 11 33  1  0  0  0  0
 12 17  1  0  0  0  0
 12 13  2  0  0  0  0
 13 14  1  0  0  0  0
 13 34  1  0  0  0  0
 14 15  2  0  0  0  0
 14 35  1  0  0  0  0
 15 16  1  0  0  0  0
 15 36  1  0  0  0  0
 16 17  2  0  0  0  0
 16 37  1  0  0  0  0
 17 38  1  0  0  0  0
 18 19  2  0  0  0  0
 18 20  1  0  0  0  0
 20 21  1  0  0  0  0
 21 39  1  0  0  0  0
 21 40  1  0  0  0  0
 21 41  1  0  0  0  0
M  END
> <s_m_source_file>
AV-unprocessed.smi

> <i_m_source_file_index>
2306

> <i_lp_mmshare_version>
43012

> <i_f3d_flags>
0

> <s_epik_input>
W0NIM11jMW5bY0hdbihjKD1PKWMxW0NIM10pW0NIMl1bQ0BIXShbT0hdKVtDSDJdT1tDSDJdYzJbY0hdW2NIXVtjSF1bY0hdW2NIXTI=

> <s_epik_cmdline>
J2VwaWtfcHl0aG9uJywgJy1waCcsICc3LjAnLCAnLXRuJywgJzgnLCAnLW1hJywgJzIwMCcsICctbWV0YWxfYmluZGluZycsICctaW1hZScsICc8aW5maWxlLm1hZT4nLCAnLW9tYWUnLCAnPG91dGZpbGUubWFlPic=

> <r_lp_tautomer_probability>
1

> <r_epik_Ionization_Penalty>
5.35985e-05

> <r_epik_Ionization_Penalty_Charging>
1.17753e-07

> <r_epik_Ionization_Penalty_Neutral>
5.34808e-05

> <r_epik_State_Penalty>
-0

> <r_epik_Charging_Adjusted_Penalty>
1.17753e-07

> <i_epik_Tot_Q>
0

> <i_epik_Tot_abs_Q>
0

> <r_epik_Metal_State_Penalty>
-0

> <b_epik_Metal_Only>
0

> <s_lp_Force_Field>
OPLS_2005

> <r_lp_Energy>
22.2439

> <b_lp_Chiralities_Consistent>
1

> <s_lp_Variant>
AV-unprocessed.smi:2306-1

> <Gold.Version>
5.8.1

> <Gold.Id.Protein>
6NUR|6NUR_protein|mol2

> <Gold.PLP.Fitness>
51.6058

> <Gold.PLP.PLP>
-50.1742

> <Gold.PLP.part.hbond>
-1.0000

> <Gold.PLP.part.metal>
0.0000

> <Gold.PLP.part.buried>
-5.8751

> <Gold.PLP.part.nonpolar>
-44.2267

> <Gold.PLP.part.repulsive>
0.1163

> <Gold.PLP.ligand.clash>
0.0000

> <Gold.PLP.ligand.torsion>
0.9431

> <Gold.PLP.Chemscore.Hbond>
1.0000

> <Gold.PLP.Chemscore.CHOScore>
0.0000

> <Gold.PLP.Chemscore.Metal>
0.0000

> <Gold.Chemscore.Hbonds>
donor molecule, donor type, donor heavy atom, donor atom, acceptor molecule, acceptor atom, score
      P1  H  6896  6907       L1     8  1.00

> <Gold.PLP.Chemscore.Internal.Correction>
0.3178

> <Gold.Rescore>
     Score         DG    S(hbond)    S(metal)    S(lipo)     H(rot)  DE(clash)    DE(int)     intcor
     16.20     -17.06       0.94        0.00     127.08       2.52       0.06       0.80       ----

> <Gold.Chemscore.Fitness>
16.1969

> <Gold.Chemscore.DG>
-17.0577

> <Gold.Chemscore.ZeroCoef>
-5.4800

> <Gold.Chemscore.Hbond>
0.9432

> <Gold.Chemscore.Metal>
0.0000

> <Gold.Chemscore.Lipo>
127.0842

> <Gold.Chemscore.Internal_Hbond>
0.0000

> <Gold.Chemscore.DEClash>
0.0616

> <Gold.Chemscore.DEInternal>
0.7992

> <Gold.Chemscore.Rot>
2.5162

> <Gold.Chemscore.Internal.Correction>
   9.000000E+99

> <Gold.Chemscore.Hbonds>
donor molecule, donor type, donor heavy atom, donor atom, acceptor molecule, acceptor atom, score
      P1  H  6896  6907       L1     8  0.30

> <Gold.Chemscore.Hbond.Weighted>
-3.1503

> <Gold.Chemscore.Metal.Weighted>
-0.0000

> <Gold.Chemscore.Lipo.Weighted>
-14.8689

> <Gold.Chemscore.Internal_Hbond.Weighted>
0.0000

> <Gold.Chemscore.DEClash.Weighted>
0.0616

> <Gold.Chemscore.DEInternal.Weighted>
0.7992

> <Gold.Chemscore.Rot.Weighted>
6.4414

> <Gold.Chemscore.Internal.Correction.Weighted>
   9.000000E+99

> <Gold.Protein.RotatedTorsions>
[ 6907 6896 6895 6894 ] final   31.05 input  -60.11 | X-H torsion
[ 7974 7965 7964 7962 ] final -135.98 input  175.53 | X-H torsion
[ 8008 7997 7996 7995 ] final  163.51 input   59.86 | X-H torsion
[ 10167 10162 10161 10158 ] final  156.62 input  -65.29 | X-H torsion
[ 10718 10713 10712 10709 ] final  -40.21 input   66.30 | X-H torsion
[ 10763 10752 10751 10750 ] final   -2.91 input  -60.55 | X-H torsion
[ 11005 11000 10999 10996 ] final -139.85 input  -57.11 | X-H torsion

> <Gold.Protein.ActiveResidues>
 VAL166  LYS551  ARG553  GLY616  TRP617  ASP618  TYR619  PRO620  LYS621  CYS622 
 ASP623  PHE694  ASN695  SER759  ASP760  ASP761  ALA762  ILE779  LEU786  VAL792 
 PHE793  MET794  SER795  GLU796  ALA797  LYS798  CYS799  TRP800  GLU811  SER814 

> <Gold.Protein.RotatedAtoms>
  152.0548  134.9631  160.0574 H   0  0  0  0  0  0  0  0  0  0  0  0  # atno 6907 bound_to 6896
  152.1018  133.4249  159.4598 H   0  0  0  0  0  0  0  0  0  0  0  0  # atno 6908 bound_to 6896
  150.6839  134.2671  159.4616 H   0  0  0  0  0  0  0  0  0  0  0  0  # atno 6909 bound_to 6896
  144.8966  140.6715  143.5111 H   0  0  0  0  0  0  0  0  0  0  0  0  # atno 7974 bound_to 7965
  156.1951  140.1721  156.8014 H   0  0  0  0  0  0  0  0  0  0  0  0  # atno 8008 bound_to 7997
  154.5520  140.0716  156.8714 H   0  0  0  0  0  0  0  0  0  0  0  0  # atno 8009 bound_to 7997
  155.3011  140.3361  155.4250 H   0  0  0  0  0  0  0  0  0  0  0  0  # atno 8010 bound_to 7997
  139.4821  144.4992  151.8194 H   0  0  0  0  0  0  0  0  0  0  0  0  # atno 10167 bound_to 10162
  156.2838  130.4220  149.8309 H   0  0  0  0  0  0  0  0  0  0  0  0  # atno 10718 bound_to 10713
  153.3643  135.6991  153.6688 H   0  0  0  0  0  0  0  0  0  0  0  0  # atno 10763 bound_to 10752
  153.5364  135.3582  155.2699 H   0  0  0  0  0  0  0  0  0  0  0  0  # atno 10764 bound_to 10752
  154.8672  135.4193  154.2907 H   0  0  0  0  0  0  0  0  0  0  0  0  # atno 10765 bound_to 10752
  140.8479  134.2322  157.4776 H   0  0  0  0  0  0  0  0  0  0  0  0  # atno 11005 bound_to 11000
  145.3689  139.1663  143.4343 LP  0  0  0  0  0  0  0  0  0  0  0  0  # atno 17320 bound_to 7965
  146.3085  140.3759  142.8679 LP  0  0  0  0  0  0  0  0  0  0  0  0  # atno 17321 bound_to 7965
  140.4484  144.1890  150.5895 LP  0  0  0  0  0  0  0  0  0  0  0  0  # atno 17342 bound_to 10162
  140.4611  143.2448  151.9218 LP  0  0  0  0  0  0  0  0  0  0  0  0  # atno 17343 bound_to 10162
  156.5747  130.8440  151.3366 LP  0  0  0  0  0  0  0  0  0  0  0  0  # atno 17370 bound_to 10713
  157.7322  130.9712  150.1919 LP  0  0  0  0  0  0  0  0  0  0  0  0  # atno 17371 bound_to 10713
  139.8703  134.9668  156.4577 LP  0  0  0  0  0  0  0  0  0  0  0  0  # atno 17394 bound_to 11000
  140.8823  133.7909  155.9480 LP  0  0  0  0  0  0  0  0  0  0  0  0  # atno 17395 bound_to 11000

$$$$
