AV-unprocessed.smi:1809|AV-procd|sdf|7310|dock4
  -GOLD-   22720 8563D 1   1.00000     0.00000
 Structure written by MMmdl.
 40 42  0  0  0  0  0  0  0  0  2 V2000
  153.0208  142.2021  159.6275 C   0  0  0  0  0  0  0  0  0  0  0  0
  152.7217  140.9788  158.8302 C   0  0  0  0  0  0  0  0  0  0  0  0
  153.5888  139.9674  158.6986 N   0  0  0  0  0  0  0  0  0  0  0  0
  153.0849  138.9413  157.9118 N   0  0  0  0  0  0  0  0  0  0  0  0
  151.8485  139.2109  157.4703 C   0  0  0  0  0  0  0  0  0  0  0  0
  151.0957  138.3323  156.6470 N   0  0  0  0  0  0  0  0  0  0  0  0
  151.4714  137.1490  156.1313 C   0  0  0  0  0  0  0  0  0  0  0  0
  152.5741  136.6239  156.2839 O   0  0  0  0  0  0  0  0  0  0  0  0
  150.4817  136.5937  155.4175 N   0  0  0  0  0  0  0  0  0  0  0  0
  150.5500  135.3004  154.7452 C   0  0  0  0  0  0  0  0  0  0  0  0
  149.4740  134.3277  155.2752 C   0  0  1  0  0  0  0  0  0  0  0  0
  148.0317  134.8552  155.0741 C   0  0  0  0  0  0  0  0  0  0  0  0
  147.6455  134.6889  153.6607 N   0  3  2  0  0  0  0  0  0  0  0  0
  146.3027  135.1355  153.2510 C   0  0  0  0  0  0  0  0  0  0  0  0
  145.9773  134.3096  151.9907 C   0  0  0  0  0  0  0  0  0  0  0  0
  147.1244  133.2931  151.8505 C   0  0  0  0  0  0  0  0  0  0  0  0
  147.7580  133.2920  153.2382 C   0  0  1  0  0  0  0  0  0  0  0  0
  149.2212  132.8558  153.3573 C   0  0  0  0  0  0  0  0  0  0  0  0
  149.6184  133.0090  154.7236 O   0  0  0  0  0  0  0  0  0  0  0  0
  151.1946  140.7564  157.9852 S   0  0  0  0  0  0  0  0  0  0  0  0
  153.9485  142.0796  160.1875 H   0  0  0  0  0  0  0  0  0  0  0  0
  152.2118  142.3950  160.3323 H   0  0  0  0  0  0  0  0  0  0  0  0
  153.1219  143.0620  158.9653 H   0  0  0  0  0  0  0  0  0  0  0  0
  150.1582  138.6384  156.4327 H   0  0  0  0  0  0  0  0  0  0  0  0
  149.6103  137.0982  155.3431 H   0  0  0  0  0  0  0  0  0  0  0  0
  150.3790  135.4836  153.6841 H   0  0  0  0  0  0  0  0  0  0  0  0
  151.5507  134.8721  154.8143 H   0  0  0  0  0  0  0  0  0  0  0  0
  149.6349  134.2292  156.3495 H   0  0  0  0  0  0  0  0  0  0  0  0
  147.3388  134.2976  155.7062 H   0  0  0  0  0  0  0  0  0  0  0  0
  147.9544  135.9037  155.3638 H   0  0  0  0  0  0  0  0  0  0  0  0
  145.5798  134.9169  154.0388 H   0  0  0  0  0  0  0  0  0  0  0  0
  146.2877  136.2095  153.0637 H   0  0  0  0  0  0  0  0  0  0  0  0
  145.0206  133.8004  152.1126 H   0  0  0  0  0  0  0  0  0  0  0  0
  145.9036  134.9389  151.1033 H   0  0  0  0  0  0  0  0  0  0  0  0
  146.7803  132.3052  151.5427 H   0  0  0  0  0  0  0  0  0  0  0  0
  147.8433  133.6457  151.1095 H   0  0  0  0  0  0  0  0  0  0  0  0
  147.1438  132.6736  153.8969 H   0  0  0  0  0  0  0  0  0  0  0  0
  149.3322  131.8100  153.0709 H   0  0  0  0  0  0  0  0  0  0  0  0
  149.8592  133.4379  152.6932 H   0  0  0  0  0  0  0  0  0  0  0  0
  148.3056  135.2103  153.1015 H   0  0  0  0  0  0  0  0  0  0  0  0
  1  2  1  0  0  0  0
  1 21  1  0  0  0  0
  1 22  1  0  0  0  0
  1 23  1  0  0  0  0
  2 20  1  0  0  0  0
  2  3  2  0  0  0  0
  3  4  1  0  0  0  0
  4  5  2  0  0  0  0
  5  6  1  0  0  0  0
  5 20  1  0  0  0  0
  6  7  1  0  0  0  0
  6 24  1  0  0  0  0
  7  8  2  0  0  0  0
  7  9  1  0  0  0  0
  9 10  1  0  0  0  0
  9 25  1  0  0  0  0
 10 11  1  0  0  0  0
 10 26  1  0  0  0  0
 10 27  1  0  0  0  0
 11 19  1  0  0  0  0
 11 12  1  0  0  0  0
 11 28  1  0  0  0  0
 12 13  1  0  0  0  0
 12 29  1  0  0  0  0
 12 30  1  0  0  0  0
 13 17  1  0  0  0  0
 13 14  1  0  0  0  0
 13 40  1  0  0  0  0
 14 15  1  0  0  0  0
 14 31  1  0  0  0  0
 14 32  1  0  0  0  0
 15 16  1  0  0  0  0
 15 33  1  0  0  0  0
 15 34  1  0  0  0  0
 16 17  1  0  0  0  0
 16 35  1  0  0  0  0
 16 36  1  0  0  0  0
 17 18  1  0  0  0  0
 17 37  1  0  0  0  0
 18 19  1  0  0  0  0
 18 38  1  0  0  0  0
 18 39  1  0  0  0  0
M  CHG  1  13   1
M  END
> <s_m_source_file>
AV-unprocessed.smi

> <i_m_source_file_index>
1809

> <i_lp_mmshare_version>
43012

> <i_f3d_flags>
0

> <s_epik_input>
W0NIM11jMW5uYyhzMSlbTkhdQyg9TylbTkhdW0NIMl1bQ0BIXShbQ0gyXTIpT1tDSDJdW0NAQEhdKE4yMylbQ0gyXVtDSDJdW0NIMl0z

> <s_epik_cmdline>
J2VwaWtfcHl0aG9uJywgJy1waCcsICc3LjAnLCAnLXRuJywgJzgnLCAnLW1hJywgJzIwMCcsICctbWV0YWxfYmluZGluZycsICctaW1hZScsICc8aW5maWxlLm1hZT4nLCAnLW9tYWUnLCAnPG91dGZpbGUubWFlPic=

> <r_lp_tautomer_probability>
1

> <r_epik_Ionization_Penalty>
0.112474

> <r_epik_Ionization_Penalty_Charging>
0.108916

> <r_epik_Ionization_Penalty_Neutral>
0.00355844

> <r_epik_State_Penalty>
0.0565397

> <r_epik_Charging_Adjusted_Penalty>
0.165456

> <i_epik_Tot_Q>
1

> <i_epik_Tot_abs_Q>
1

> <r_epik_Metal_State_Penalty>
0.422831

> <b_epik_Metal_Only>
0

> <s_lp_Force_Field>
OPLS_2005

> <r_lp_Energy>
36.2916

> <b_lp_Chiralities_Consistent>
1

> <s_lp_Variant>
AV-unprocessed.smi:1809-2

> <Gold.Version>
5.8.1

> <Gold.Id.Protein>
6NUR|6NUR_protein|mol2

> <Gold.PLP.Fitness>
38.4602

> <Gold.PLP.PLP>
-28.3707

> <Gold.PLP.part.hbond>
-3.7991

> <Gold.PLP.part.metal>
0.0000

> <Gold.PLP.part.buried>
-3.7168

> <Gold.PLP.part.nonpolar>
-21.2339

> <Gold.PLP.part.repulsive>
0.1398

> <Gold.PLP.ligand.clash>
0.0000

> <Gold.PLP.ligand.torsion>
0.0112

> <Gold.PLP.Chemscore.Hbond>
3.3672

> <Gold.PLP.Chemscore.CHOScore>
0.0000

> <Gold.PLP.Chemscore.Metal>
0.0000

> <Gold.Chemscore.Hbonds>
donor molecule, donor type, donor heavy atom, donor atom, acceptor molecule, acceptor atom, score
      L1  H    13    40       P1  7948  2.00
      P1  H  7997  8008       L1     3  0.19
      P1  H 10752 10763       L1     8  0.98

> <Gold.PLP.Chemscore.Internal.Correction>
0.0103

> <Gold.Rescore>
     Score         DG    S(hbond)    S(metal)    S(lipo)     H(rot)  DE(clash)    DE(int)     intcor
     14.41     -15.71       1.97        0.00      60.63       1.34       0.00       1.30       ----

> <Gold.Chemscore.Fitness>
14.4063

> <Gold.Chemscore.DG>
-15.7117

> <Gold.Chemscore.ZeroCoef>
-5.4800

> <Gold.Chemscore.Hbond>
1.9659

> <Gold.Chemscore.Metal>
0.0000

> <Gold.Chemscore.Lipo>
60.6298

> <Gold.Chemscore.Internal_Hbond>
0.0000

> <Gold.Chemscore.DEClash>
0.0021

> <Gold.Chemscore.DEInternal>
1.3033

> <Gold.Chemscore.Rot>
1.3391

> <Gold.Chemscore.Internal.Correction>
   9.000000E+99

> <Gold.Chemscore.Hbonds>
donor molecule, donor type, donor heavy atom, donor atom, acceptor molecule, acceptor atom, score
      L1  H    13    40       P1  7948  0.96
      P1  H 10752 10763       L1     8  0.87

> <Gold.Chemscore.Hbond.Weighted>
-6.5661

> <Gold.Chemscore.Metal.Weighted>
-0.0000

> <Gold.Chemscore.Lipo.Weighted>
-7.0937

> <Gold.Chemscore.Internal_Hbond.Weighted>
0.0000

> <Gold.Chemscore.DEClash.Weighted>
0.0021

> <Gold.Chemscore.DEInternal.Weighted>
1.3033

> <Gold.Chemscore.Rot.Weighted>
3.4281

> <Gold.Chemscore.Internal.Correction.Weighted>
   9.000000E+99

> <Gold.Protein.RotatedTorsions>
[ 6907 6896 6895 6894 ] final  -99.25 input  -60.11 | X-H torsion
[ 7974 7965 7964 7962 ] final  100.75 input  175.53 | X-H torsion
[ 8008 7997 7996 7995 ] final -119.53 input   59.86 | X-H torsion
[ 10167 10162 10161 10158 ] final  -41.06 input  -65.29 | X-H torsion
[ 10718 10713 10712 10709 ] final  126.47 input   66.30 | X-H torsion
[ 10763 10752 10751 10750 ] final   86.18 input  -60.55 | X-H torsion
[ 11005 11000 10999 10996 ] final  123.89 input  -57.11 | X-H torsion

> <Gold.Protein.ActiveResidues>
 VAL166  LYS551  ARG553  GLY616  TRP617  ASP618  TYR619  PRO620  LYS621  CYS622 
 ASP623  PHE694  ASN695  SER759  ASP760  ASP761  ALA762  ILE779  LEU786  VAL792 
 PHE793  MET794  SER795  GLU796  ALA797  LYS798  CYS799  TRP800  GLU811  SER814 

> <Gold.Protein.RotatedAtoms>
  150.7073  134.1070  159.3985 H   0  0  0  0  0  0  0  0  0  0  0  0  # atno 6907 bound_to 6896
  151.9056  135.0358  160.0519 H   0  0  0  0  0  0  0  0  0  0  0  0  # atno 6908 bound_to 6896
  152.2378  133.5075  159.5289 H   0  0  0  0  0  0  0  0  0  0  0  0  # atno 6909 bound_to 6896
  145.3814  139.2379  143.3401 H   0  0  0  0  0  0  0  0  0  0  0  0  # atno 7974 bound_to 7965
  155.1172  140.0398  157.2740 H   0  0  0  0  0  0  0  0  0  0  0  0  # atno 8008 bound_to 7997
  154.6640  140.2597  155.7052 H   0  0  0  0  0  0  0  0  0  0  0  0  # atno 8009 bound_to 7997
  156.2631  140.2811  156.1124 H   0  0  0  0  0  0  0  0  0  0  0  0  # atno 8010 bound_to 7997
  140.7015  143.3117  151.3012 H   0  0  0  0  0  0  0  0  0  0  0  0  # atno 10167 bound_to 10162
  157.5416  131.1096  150.8850 H   0  0  0  0  0  0  0  0  0  0  0  0  # atno 10718 bound_to 10713
  153.1545  135.4590  154.9685 H   0  0  0  0  0  0  0  0  0  0  0  0  # atno 10763 bound_to 10752
  154.7851  135.3201  154.7907 H   0  0  0  0  0  0  0  0  0  0  0  0  # atno 10764 bound_to 10752
  153.8406  135.6930  153.4858 H   0  0  0  0  0  0  0  0  0  0  0  0  # atno 10765 bound_to 10752
  139.9333  134.9640  156.8327 H   0  0  0  0  0  0  0  0  0  0  0  0  # atno 11005 bound_to 11000
  146.2840  140.4482  142.8765 LP  0  0  0  0  0  0  0  0  0  0  0  0  # atno 17320 bound_to 7965
  144.8505  140.6993  143.6171 LP  0  0  0  0  0  0  0  0  0  0  0  0  # atno 17321 bound_to 7965
  139.6542  144.0307  152.2647 LP  0  0  0  0  0  0  0  0  0  0  0  0  # atno 17342 bound_to 10162
  139.9853  144.6399  150.7863 LP  0  0  0  0  0  0  0  0  0  0  0  0  # atno 17343 bound_to 10162
  156.9401  130.5381  149.5280 LP  0  0  0  0  0  0  0  0  0  0  0  0  # atno 17370 bound_to 10713
  156.0501  130.5572  150.8970 LP  0  0  0  0  0  0  0  0  0  0  0  0  # atno 17371 bound_to 10713
  140.6143  134.0053  155.7590 LP  0  0  0  0  0  0  0  0  0  0  0  0  # atno 17394 bound_to 11000
  141.0934  133.9882  157.3200 LP  0  0  0  0  0  0  0  0  0  0  0  0  # atno 17395 bound_to 11000

$$$$
