AV-unprocessed.smi:269|AV-procd|sdf|2043|dock7
  -GOLD-   2262021263D 1   1.00000     0.00000
 Structure written by MMmdl.
 61 64  0  0  0  0  0  0  0  0  1 V2000
  152.2108  144.3526  159.9243 C   0  0  0  0  0  0  0  0  0  0  0  0
  152.4657  142.8451  159.7926 C   0  0  0  0  0  0  0  0  0  0  0  0
  152.2034  142.3776  158.4370 N   0  0  0  0  0  0  0  0  0  0  0  0
  150.9991  142.3657  157.8448 C   0  0  0  0  0  0  0  0  0  0  0  0
  149.9652  142.7344  158.4017 O   0  0  0  0  0  0  0  0  0  0  0  0
  150.9534  141.8790  156.3920 C   0  0  0  0  0  0  0  0  0  0  0  0
  149.9305  140.8413  156.1302 N   0  0  0  0  0  0  0  0  0  0  0  0
  150.2565  139.6317  156.8946 C   0  0  0  0  0  0  0  0  0  0  0  0
  149.1517  138.5752  156.7117 C   0  0  0  0  0  0  0  0  0  0  0  0
  148.9921  138.2560  155.2992 N   0  0  0  0  0  0  0  0  0  0  0  0
  148.1562  137.2233  155.0641 C   0  0  0  0  0  0  0  0  0  0  0  0
  148.4156  136.0623  155.7132 N   0  0  0  0  0  0  0  0  0  0  0  0
  147.6246  135.0016  155.5248 C   0  0  0  0  0  0  0  0  0  0  0  0
  146.5465  134.8915  154.7454 N   0  0  0  0  0  0  0  0  0  0  0  0
  146.2853  136.0589  154.0894 C   0  0  0  0  0  0  0  0  0  0  0  0
  147.0303  137.2670  154.1939 C   0  0  0  0  0  0  0  0  0  0  0  0
  146.4589  138.2467  153.3915 N   0  0  0  0  0  0  0  0  0  0  0  0
  145.4355  137.6514  152.8429 C   0  0  0  0  0  0  0  0  0  0  0  0
  145.2656  136.3299  153.1926 N   0  0  0  0  0  0  0  0  0  0  0  0
  144.2151  135.4325  152.7321 C   0  0  0  0  0  0  0  0  0  0  0  0
  144.5988  134.5488  151.5077 C   0  0  0  0  0  0  0  0  0  0  0  0
  144.4227  135.3379  150.1782 C   0  0  0  0  0  0  0  0  0  0  0  0
  145.3433  136.4046  150.0629 O   0  0  0  0  0  0  0  0  0  0  0  0
  146.0702  134.0801  151.6390 C   0  0  0  0  0  0  0  0  0  0  0  0
  146.4353  132.9553  150.6527 C   0  0  0  0  0  0  0  0  0  0  0  0
  145.5480  131.8568  150.8150 O   0  0  0  0  0  0  0  0  0  0  0  0
  144.1945  132.1952  150.5423 C   0  0  0  0  0  0  0  0  0  0  0  0
  143.7158  133.2756  151.5287 C   0  0  0  0  0  0  0  0  0  0  0  0
  148.7144  139.4428  154.5000 C   0  0  0  0  0  0  0  0  0  0  0  0
  149.8194  140.4957  154.7042 C   0  0  0  0  0  0  0  0  0  0  0  0
  152.4446  144.6986  160.9313 H   0  0  0  0  0  0  0  0  0  0  0  0
  151.1671  144.5977  159.7249 H   0  0  0  0  0  0  0  0  0  0  0  0
  152.8273  144.9194  159.2258 H   0  0  0  0  0  0  0  0  0  0  0  0
  153.5061  142.6256  160.0334 H   0  0  0  0  0  0  0  0  0  0  0  0
  151.8573  142.2920  160.5100 H   0  0  0  0  0  0  0  0  0  0  0  0
  152.9979  142.0583  157.9017 H   0  0  0  0  0  0  0  0  0  0  0  0
  150.7967  142.7288  155.7246 H   0  0  0  0  0  0  0  0  0  0  0  0
  151.9406  141.4796  156.1548 H   0  0  0  0  0  0  0  0  0  0  0  0
  151.2209  139.2278  156.5800 H   0  0  0  0  0  0  0  0  0  0  0  0
  150.3436  139.8751  157.9544 H   0  0  0  0  0  0  0  0  0  0  0  0
  149.4086  137.6712  157.2654 H   0  0  0  0  0  0  0  0  0  0  0  0
  148.2106  138.9454  157.1208 H   0  0  0  0  0  0  0  0  0  0  0  0
  147.8949  134.1133  156.0767 H   0  0  0  0  0  0  0  0  0  0  0  0
  144.7756  138.1623  152.1568 H   0  0  0  0  0  0  0  0  0  0  0  0
  143.9245  134.8018  153.5735 H   0  0  0  0  0  0  0  0  0  0  0  0
  143.3351  136.0355  152.5049 H   0  0  0  0  0  0  0  0  0  0  0  0
  144.5470  134.6816  149.3170 H   0  0  0  0  0  0  0  0  0  0  0  0
  143.4225  135.7578  150.0866 H   0  0  0  0  0  0  0  0  0  0  0  0
  144.8633  137.1963  149.8737 H   0  0  0  0  0  0  0  0  0  0  0  0
  146.7553  134.9178  151.5034 H   0  0  0  0  0  0  0  0  0  0  0  0
  146.2427  133.7079  152.6496 H   0  0  0  0  0  0  0  0  0  0  0  0
  146.4196  133.3042  149.6198 H   0  0  0  0  0  0  0  0  0  0  0  0
  147.4515  132.6109  150.8459 H   0  0  0  0  0  0  0  0  0  0  0  0
  144.0852  132.5183  149.5068 H   0  0  0  0  0  0  0  0  0  0  0  0
  143.5852  131.2980  150.6529 H   0  0  0  0  0  0  0  0  0  0  0  0
  143.7305  132.8431  152.5303 H   0  0  0  0  0  0  0  0  0  0  0  0
  142.6728  133.5233  151.3301 H   0  0  0  0  0  0  0  0  0  0  0  0
  148.6544  139.1686  153.4459 H   0  0  0  0  0  0  0  0  0  0  0  0
  147.7476  139.8653  154.7765 H   0  0  0  0  0  0  0  0  0  0  0  0
  149.5651  141.3721  154.1081 H   0  0  0  0  0  0  0  0  0  0  0  0
  150.7741  140.1224  154.3293 H   0  0  0  0  0  0  0  0  0  0  0  0
  1  2  1  0  0  0  0
  1 31  1  0  0  0  0
  1 32  1  0  0  0  0
  1 33  1  0  0  0  0
  2  3  1  0  0  0  0
  2 34  1  0  0  0  0
  2 35  1  0  0  0  0
  3  4  1  0  0  0  0
  3 36  1  0  0  0  0
  4  5  2  0  0  0  0
  4  6  1  0  0  0  0
  6  7  1  0  0  0  0
  6 37  1  0  0  0  0
  6 38  1  0  0  0  0
  7 30  1  0  0  0  0
  7  8  1  0  0  0  0
  8  9  1  0  0  0  0
  8 39  1  0  0  0  0
  8 40  1  0  0  0  0
  9 10  1  0  0  0  0
  9 41  1  0  0  0  0
  9 42  1  0  0  0  0
 10 11  1  0  0  0  0
 10 29  1  0  0  0  0
 11 16  1  0  0  0  0
 11 12  2  0  0  0  0
 12 13  1  0  0  0  0
 13 14  2  0  0  0  0
 13 43  1  0  0  0  0
 14 15  1  0  0  0  0
 15 19  1  0  0  0  0
 15 16  2  0  0  0  0
 16 17  1  0  0  0  0
 17 18  2  0  0  0  0
 18 19  1  0  0  0  0
 18 44  1  0  0  0  0
 19 20  1  0  0  0  0
 20 21  1  0  0  0  0
 20 45  1  0  0  0  0
 20 46  1  0  0  0  0
 21 28  1  0  0  0  0
 21 22  1  0  0  0  0
 21 24  1  0  0  0  0
 22 23  1  0  0  0  0
 22 47  1  0  0  0  0
 22 48  1  0  0  0  0
 23 49  1  0  0  0  0
 24 25  1  0  0  0  0
 24 50  1  0  0  0  0
 24 51  1  0  0  0  0
 25 26  1  0  0  0  0
 25 52  1  0  0  0  0
 25 53  1  0  0  0  0
 26 27  1  0  0  0  0
 27 28  1  0  0  0  0
 27 54  1  0  0  0  0
 27 55  1  0  0  0  0
 28 56  1  0  0  0  0
 28 57  1  0  0  0  0
 29 30  1  0  0  0  0
 29 58  1  0  0  0  0
 29 59  1  0  0  0  0
 30 60  1  0  0  0  0
 30 61  1  0  0  0  0
M  END
> <s_m_source_file>
AV-unprocessed.smi

> <i_m_source_file_index>
269

> <i_lp_mmshare_version>
43012

> <i_f3d_flags>
0

> <s_epik_input>
W0NIM11bQ0gyXVtOSF1DKD1PKVtDSDJdTjFbQ0gyXVtDSDJdTihbQ0gyXVtDSDJdMSljKG5bY0hdbjIpYyhjMjMpbltjSF1uM1tDSDJdQzQoW0NIMl1bT0hdKVtDSDJdW0NIMl1PW0NIMl1bQ0gyXTQ=

> <s_epik_cmdline>
J2VwaWtfcHl0aG9uJywgJy1waCcsICc3LjAnLCAnLXRuJywgJzgnLCAnLW1hJywgJzIwMCcsICctbWV0YWxfYmluZGluZycsICctaW1hZScsICc8aW5maWxlLm1hZT4nLCAnLW9tYWUnLCAnPG91dGZpbGUubWFlPic=

> <r_lp_tautomer_probability>
1

> <r_epik_Ionization_Penalty>
0.90547

> <r_epik_Ionization_Penalty_Charging>
0

> <r_epik_Ionization_Penalty_Neutral>
0.90547

> <r_epik_State_Penalty>
0.940417

> <r_epik_Charging_Adjusted_Penalty>
0.940417

> <i_epik_Tot_Q>
0

> <i_epik_Tot_abs_Q>
0

> <r_epik_Metal_State_Penalty>
0.947257

> <b_epik_Metal_Only>
0

> <s_lp_Force_Field>
OPLS_2005

> <r_lp_Energy>
47.1209

> <b_lp_Chiralities_Consistent>
1

> <s_lp_Variant>
AV-unprocessed.smi:269-2

> <Gold.Version>
5.8.1

> <Gold.Id.Protein>
6NUR|6NUR_protein|mol2

> <Gold.PLP.Fitness>
48.3353

> <Gold.PLP.PLP>
-41.0161

> <Gold.PLP.part.hbond>
-2.0000

> <Gold.PLP.part.metal>
0.0000

> <Gold.PLP.part.buried>
-4.8982

> <Gold.PLP.part.nonpolar>
-34.4146

> <Gold.PLP.part.repulsive>
0.7739

> <Gold.PLP.ligand.clash>
0.0000

> <Gold.PLP.ligand.torsion>
0.9213

> <Gold.PLP.Chemscore.Hbond>
1.0000

> <Gold.PLP.Chemscore.CHOScore>
1.9617

> <Gold.PLP.Chemscore.Metal>
0.0000

> <Gold.Chemscore.Hbonds>
donor molecule, donor type, donor heavy atom, donor atom, acceptor molecule, acceptor atom, score
      L1  H    23    49       P1 10171  1.00
      L1  C    18    44       P1 10171  0.97
      L1  C    18    44       P1 10175  0.91

> <Gold.PLP.Chemscore.Internal.Correction>
0.2769

> <Gold.Rescore>
     Score         DG    S(hbond)    S(metal)    S(lipo)     H(rot)  DE(clash)    DE(int)     intcor
      9.21     -11.52       1.00        0.00      95.85       3.32       0.08       2.24       ----

> <Gold.Chemscore.Fitness>
9.2087

> <Gold.Chemscore.DG>
-11.5209

> <Gold.Chemscore.ZeroCoef>
-5.4800

> <Gold.Chemscore.Hbond>
0.9968

> <Gold.Chemscore.Metal>
0.0000

> <Gold.Chemscore.Lipo>
95.8460

> <Gold.Chemscore.Internal_Hbond>
0.0000

> <Gold.Chemscore.DEClash>
0.0760

> <Gold.Chemscore.DEInternal>
2.2362

> <Gold.Chemscore.Rot>
3.3213

> <Gold.Chemscore.Internal.Correction>
   9.000000E+99

> <Gold.Chemscore.Hbonds>
donor molecule, donor type, donor heavy atom, donor atom, acceptor molecule, acceptor atom, score
      L1  H    23    49       P1 10171  1.00

> <Gold.Chemscore.Hbond.Weighted>
-3.3294

> <Gold.Chemscore.Metal.Weighted>
-0.0000

> <Gold.Chemscore.Lipo.Weighted>
-11.2140

> <Gold.Chemscore.Internal_Hbond.Weighted>
0.0000

> <Gold.Chemscore.DEClash.Weighted>
0.0760

> <Gold.Chemscore.DEInternal.Weighted>
2.2362

> <Gold.Chemscore.Rot.Weighted>
8.5024

> <Gold.Chemscore.Internal.Correction.Weighted>
   9.000000E+99

> <Gold.Protein.RotatedTorsions>
[ 6907 6896 6895 6894 ] final  -30.87 input  -60.11 | X-H torsion
[ 7974 7965 7964 7962 ] final  -11.95 input  175.53 | X-H torsion
[ 8008 7997 7996 7995 ] final  157.62 input   59.86 | X-H torsion
[ 10167 10162 10161 10158 ] final   -9.17 input  -65.29 | X-H torsion
[ 10718 10713 10712 10709 ] final  -20.66 input   66.30 | X-H torsion
[ 10763 10752 10751 10750 ] final   -6.27 input  -60.55 | X-H torsion
[ 11005 11000 10999 10996 ] final  -14.64 input  -57.11 | X-H torsion

> <Gold.Protein.ActiveResidues>
 VAL166  LYS551  ARG553  GLY616  TRP617  ASP618  TYR619  PRO620  LYS621  CYS622 
 ASP623  PHE694  ASN695  SER759  ASP760  ASP761  ALA762  ILE779  LEU786  VAL792 
 PHE793  MET794  SER795  GLU796  ALA797  LYS798  CYS799  TRP800  GLU811  SER814 

> <Gold.Protein.RotatedAtoms>
  151.0998  134.9965  159.8442 H   0  0  0  0  0  0  0  0  0  0  0  0  # atno 6907 bound_to 6896
  152.5436  134.1964  159.8705 H   0  0  0  0  0  0  0  0  0  0  0  0  # atno 6908 bound_to 6896
  151.2006  133.4569  159.2629 H   0  0  0  0  0  0  0  0  0  0  0  0  # atno 6909 bound_to 6896
  146.2169  140.2986  142.8373 H   0  0  0  0  0  0  0  0  0  0  0  0  # atno 7974 bound_to 7965
  156.2353  140.1880  156.7135 H   0  0  0  0  0  0  0  0  0  0  0  0  # atno 8008 bound_to 7997
  154.6095  140.0624  156.9503 H   0  0  0  0  0  0  0  0  0  0  0  0  # atno 8009 bound_to 7997
  155.2039  140.3294  155.4341 H   0  0  0  0  0  0  0  0  0  0  0  0  # atno 8010 bound_to 7997
  140.7080  143.5888  150.8915 H   0  0  0  0  0  0  0  0  0  0  0  0  # atno 10167 bound_to 10162
  156.5288  130.4650  149.6558 H   0  0  0  0  0  0  0  0  0  0  0  0  # atno 10718 bound_to 10713
  153.4101  135.7007  153.6365 H   0  0  0  0  0  0  0  0  0  0  0  0  # atno 10763 bound_to 10752
  153.4863  135.3682  155.2469 H   0  0  0  0  0  0  0  0  0  0  0  0  # atno 10764 bound_to 10752
  154.8716  135.4078  154.3451 H   0  0  0  0  0  0  0  0  0  0  0  0  # atno 10765 bound_to 10752
  140.7885  133.8307  155.9357 H   0  0  0  0  0  0  0  0  0  0  0  0  # atno 11005 bound_to 11000
  144.9074  140.7716  143.5829 LP  0  0  0  0  0  0  0  0  0  0  0  0  # atno 17320 bound_to 7965
  145.2915  139.1882  143.4738 LP  0  0  0  0  0  0  0  0  0  0  0  0  # atno 17321 bound_to 7965
  139.9613  143.6160  152.3001 LP  0  0  0  0  0  0  0  0  0  0  0  0  # atno 17342 bound_to 10162
  139.6714  144.7660  151.1776 LP  0  0  0  0  0  0  0  0  0  0  0  0  # atno 17343 bound_to 10162
  156.3079  130.7213  151.2099 LP  0  0  0  0  0  0  0  0  0  0  0  0  # atno 17370 bound_to 10713
  157.7425  131.0489  150.5019 LP  0  0  0  0  0  0  0  0  0  0  0  0  # atno 17371 bound_to 10713
  140.9413  134.1897  157.4795 LP  0  0  0  0  0  0  0  0  0  0  0  0  # atno 17394 bound_to 11000
  139.8734  134.9873  156.5361 LP  0  0  0  0  0  0  0  0  0  0  0  0  # atno 17395 bound_to 11000

$$$$
