AV-unprocessed.smi:2442|AV-procd|sdf|9627|dock7
  -GOLD-   2272013263D 1   1.00000     0.00000
 Structure written by MMmdl.
 47 48  0  0  0  0  0  0  0  0  2 V2000
  150.7860  136.0154  156.0049 C   0  0  0  0  0  0  0  0  0  0  0  0
  151.2084  136.4246  154.7138 O   0  0  0  0  0  0  0  0  0  0  0  0
  151.2274  137.8348  154.5218 C   0  0  2  0  0  0  0  0  0  0  0  0
  152.2815  138.4738  155.4511 C   0  0  0  0  0  0  0  0  0  0  0  0
  152.2394  140.0078  155.3893 C   0  0  0  0  0  0  0  0  0  0  0  0
  150.8367  140.5333  155.7227 C   0  0  0  0  0  0  0  0  0  0  0  0
  149.7840  139.9190  154.7887 C   0  0  0  0  0  0  0  0  0  0  0  0
  149.8130  138.3785  154.8308 C   0  0  1  0  0  0  0  0  0  0  0  0
  148.8535  137.8639  153.8562 N   0  0  0  0  0  0  0  0  0  0  0  0
  147.5215  137.9894  153.9334 C   0  0  0  0  0  0  0  0  0  0  0  0
  146.9299  138.5808  154.8371 O   0  0  0  0  0  0  0  0  0  0  0  0
  146.9060  137.3848  152.9078 N   0  0  0  0  0  0  0  0  0  0  0  0
  145.4614  137.3480  152.7136 C   0  0  0  0  0  0  0  0  0  0  0  0
  144.8506  136.0349  153.2337 C   0  0  0  0  0  0  0  0  0  0  0  0
  145.4783  134.8127  152.5821 C   0  0  0  0  0  0  0  0  0  0  0  0
  146.3511  133.9996  153.3395 C   0  0  0  0  0  0  0  0  0  0  0  0
  146.9404  132.8681  152.7416 C   0  0  0  0  0  0  0  0  0  0  0  0
  146.6675  132.5715  151.4537 N   0  3  0  0  0  0  0  0  0  0  0  0
  145.8416  133.3188  150.6906 C   0  0  0  0  0  0  0  0  0  0  0  0
  145.2195  134.4664  151.2297 C   0  0  0  0  0  0  0  0  0  0  0  0
  144.2935  135.2912  150.3528 C   0  0  0  0  0  0  0  0  0  0  0  0
  150.8207  134.9280  156.0690 H   0  0  0  0  0  0  0  0  0  0  0  0
  149.7637  136.3269  156.2178 H   0  0  0  0  0  0  0  0  0  0  0  0
  151.4426  136.4155  156.7785 H   0  0  0  0  0  0  0  0  0  0  0  0
  151.4688  138.0698  153.4831 H   0  0  0  0  0  0  0  0  0  0  0  0
  152.1065  138.1487  156.4776 H   0  0  0  0  0  0  0  0  0  0  0  0
  153.2826  138.1344  155.1872 H   0  0  0  0  0  0  0  0  0  0  0  0
  152.9682  140.4275  156.0831 H   0  0  0  0  0  0  0  0  0  0  0  0
  152.5303  140.3433  154.3930 H   0  0  0  0  0  0  0  0  0  0  0  0
  150.5920  140.2951  156.7586 H   0  0  0  0  0  0  0  0  0  0  0  0
  150.8169  141.6204  155.6412 H   0  0  0  0  0  0  0  0  0  0  0  0
  148.7933  140.2811  155.0667 H   0  0  0  0  0  0  0  0  0  0  0  0
  149.9639  140.2652  153.7697 H   0  0  0  0  0  0  0  0  0  0  0  0
  149.5292  138.0679  155.8385 H   0  0  0  0  0  0  0  0  0  0  0  0
  149.2363  137.3580  153.0712 H   0  0  0  0  0  0  0  0  0  0  0  0
  147.4753  136.9238  152.2130 H   0  0  0  0  0  0  0  0  0  0  0  0
  145.0054  138.2088  153.2047 H   0  0  0  0  0  0  0  0  0  0  0  0
  145.2570  137.4574  151.6481 H   0  0  0  0  0  0  0  0  0  0  0  0
  144.9889  135.9702  154.3139 H   0  0  0  0  0  0  0  0  0  0  0  0
  143.7720  136.0206  153.0768 H   0  0  0  0  0  0  0  0  0  0  0  0
  146.5693  134.2398  154.3701 H   0  0  0  0  0  0  0  0  0  0  0  0
  147.6164  132.1969  153.2509 H   0  0  0  0  0  0  0  0  0  0  0  0
  145.7048  132.9767  149.6750 H   0  0  0  0  0  0  0  0  0  0  0  0
  144.3182  134.9449  149.3191 H   0  0  0  0  0  0  0  0  0  0  0  0
  144.5840  136.3417  150.3574 H   0  0  0  0  0  0  0  0  0  0  0  0
  143.2654  135.2147  150.7078 H   0  0  0  0  0  0  0  0  0  0  0  0
  147.1039  131.7475  151.0388 H   0  0  0  0  0  0  0  0  0  0  0  0
  1  2  1  0  0  0  0
  1 22  1  0  0  0  0
  1 23  1  0  0  0  0
  1 24  1  0  0  0  0
  2  3  1  0  0  0  0
  3  8  1  0  0  0  0
  3  4  1  0  0  0  0
  3 25  1  0  0  0  0
  4  5  1  0  0  0  0
  4 26  1  0  0  0  0
  4 27  1  0  0  0  0
  5  6  1  0  0  0  0
  5 28  1  0  0  0  0
  5 29  1  0  0  0  0
  6  7  1  0  0  0  0
  6 30  1  0  0  0  0
  6 31  1  0  0  0  0
  7  8  1  0  0  0  0
  7 32  1  0  0  0  0
  7 33  1  0  0  0  0
  8  9  1  0  0  0  0
  8 34  1  0  0  0  0
  9 10  1  0  0  0  0
  9 35  1  0  0  0  0
 10 11  2  0  0  0  0
 10 12  1  0  0  0  0
 12 13  1  0  0  0  0
 12 36  1  0  0  0  0
 13 14  1  0  0  0  0
 13 37  1  0  0  0  0
 13 38  1  0  0  0  0
 14 15  1  0  0  0  0
 14 39  1  0  0  0  0
 14 40  1  0  0  0  0
 15 20  1  0  0  0  0
 15 16  2  0  0  0  0
 16 17  1  0  0  0  0
 16 41  1  0  0  0  0
 17 18  2  0  0  0  0
 17 42  1  0  0  0  0
 18 19  1  0  0  0  0
 18 47  1  0  0  0  0
 19 20  2  0  0  0  0
 19 43  1  0  0  0  0
 20 21  1  0  0  0  0
 21 44  1  0  0  0  0
 21 45  1  0  0  0  0
 21 46  1  0  0  0  0
M  CHG  1  18   1
M  END
> <s_m_source_file>
AV-unprocessed.smi

> <i_m_source_file_index>
2442

> <i_lp_mmshare_version>
43012

> <i_f3d_flags>
0

> <s_epik_input>
W0NIM11PW0NAQEhdMVtDSDJdW0NIMl1bQ0gyXVtDSDJdW0NASF0xW05IXUMoPU8pW05IXVtDSDJdW0NIMl1jMltjSF1bY0hdbltjSF1jMltDSDNd

> <s_epik_cmdline>
J2VwaWtfcHl0aG9uJywgJy1waCcsICc3LjAnLCAnLXRuJywgJzgnLCAnLW1hJywgJzIwMCcsICctbWV0YWxfYmluZGluZycsICctaW1hZScsICc8aW5maWxlLm1hZT4nLCAnLW9tYWUnLCAnPG91dGZpbGUubWFlPic=

> <r_epik_Ionization_Penalty>
1.07145

> <r_epik_Ionization_Penalty_Charging>
1.0714

> <r_epik_Ionization_Penalty_Neutral>
4.9109e-05

> <r_epik_State_Penalty>
1.12601

> <r_epik_Charging_Adjusted_Penalty>
2.19741

> <i_epik_Tot_Q>
1

> <i_epik_Tot_abs_Q>
1

> <r_epik_Metal_State_Penalty>
1.2173

> <b_epik_Metal_Only>
0

> <s_lp_Force_Field>
OPLS_2005

> <r_lp_Energy>
14.7728

> <b_lp_Chiralities_Consistent>
1

> <s_lp_Variant>
AV-unprocessed.smi:2442-5

> <Gold.Version>
5.8.1

> <Gold.Id.Protein>
6NUR|6NUR_protein|mol2

> <Gold.PLP.Fitness>
44.3130

> <Gold.PLP.PLP>
-33.5229

> <Gold.PLP.part.hbond>
-3.9812

> <Gold.PLP.part.metal>
0.0000

> <Gold.PLP.part.buried>
-1.5396

> <Gold.PLP.part.nonpolar>
-27.9987

> <Gold.PLP.part.repulsive>
0.3375

> <Gold.PLP.ligand.clash>
0.0000

> <Gold.PLP.ligand.torsion>
0.3766

> <Gold.PLP.Chemscore.Hbond>
3.8400

> <Gold.PLP.Chemscore.CHOScore>
0.0000

> <Gold.PLP.Chemscore.Metal>
0.0000

> <Gold.Chemscore.Hbonds>
donor molecule, donor type, donor heavy atom, donor atom, acceptor molecule, acceptor atom, score
      L1  H     9    35       P1  7948  0.96
      L1  H    12    36       P1  7948  0.96
      L1  H    18    47       P1 10747  0.50
      P1  H 10752 10764       L1     2  1.00

> <Gold.PLP.Chemscore.Internal.Correction>
0.0233

> <Gold.Rescore>
     Score         DG    S(hbond)    S(metal)    S(lipo)     H(rot)  DE(clash)    DE(int)     intcor
     21.76     -22.20       3.50        0.00      80.58       1.72       0.02       0.42       ----

> <Gold.Chemscore.Fitness>
21.7607

> <Gold.Chemscore.DG>
-22.1993

> <Gold.Chemscore.ZeroCoef>
-5.4800

> <Gold.Chemscore.Hbond>
3.5047

> <Gold.Chemscore.Metal>
0.0000

> <Gold.Chemscore.Lipo>
80.5833

> <Gold.Chemscore.Internal_Hbond>
0.0000

> <Gold.Chemscore.DEClash>
0.0174

> <Gold.Chemscore.DEInternal>
0.4212

> <Gold.Chemscore.Rot>
1.7244

> <Gold.Chemscore.Internal.Correction>
   9.000000E+99

> <Gold.Chemscore.Hbonds>
donor molecule, donor type, donor heavy atom, donor atom, acceptor molecule, acceptor atom, score
      L1  H     9    35       P1  7948  0.91
      L1  H    12    36       P1  7948  0.92
      L1  H    18    47       P1 10747  0.48
      P1  H 10752 10764       L1     2  0.43

> <Gold.Chemscore.Hbond.Weighted>
-11.7055

> <Gold.Chemscore.Metal.Weighted>
-0.0000

> <Gold.Chemscore.Lipo.Weighted>
-9.4283

> <Gold.Chemscore.Internal_Hbond.Weighted>
0.0000

> <Gold.Chemscore.DEClash.Weighted>
0.0174

> <Gold.Chemscore.DEInternal.Weighted>
0.4212

> <Gold.Chemscore.Rot.Weighted>
4.4145

> <Gold.Chemscore.Internal.Correction.Weighted>
   9.000000E+99

> <Gold.Protein.RotatedTorsions>
[ 6907 6896 6895 6894 ] final  -22.77 input  -60.11 | X-H torsion
[ 7974 7965 7964 7962 ] final   91.25 input  175.53 | X-H torsion
[ 8008 7997 7996 7995 ] final   34.41 input   59.86 | X-H torsion
[ 10167 10162 10161 10158 ] final  151.35 input  -65.29 | X-H torsion
[ 10718 10713 10712 10709 ] final -162.16 input   66.30 | X-H torsion
[ 10763 10752 10751 10750 ] final  -66.67 input  -60.55 | X-H torsion
[ 11005 11000 10999 10996 ] final   22.72 input  -57.11 | X-H torsion

> <Gold.Protein.ActiveResidues>
 VAL166  LYS551  ARG553  GLY616  TRP617  ASP618  TYR619  PRO620  LYS621  CYS622 
 ASP623  PHE694  ASN695  SER759  ASP760  ASP761  ALA762  ILE779  LEU786  VAL792 
 PHE793  MET794  SER795  GLU796  ALA797  LYS798  CYS799  TRP800  GLU811  SER814 

> <Gold.Protein.RotatedAtoms>
  151.2137  135.0491  159.8921 H   0  0  0  0  0  0  0  0  0  0  0  0  # atno 6907 bound_to 6896
  152.5422  134.0716  159.8206 H   0  0  0  0  0  0  0  0  0  0  0  0  # atno 6908 bound_to 6896
  151.0873  133.5295  159.2649 H   0  0  0  0  0  0  0  0  0  0  0  0  # atno 6909 bound_to 6896
  145.5082  139.2276  143.2739 H   0  0  0  0  0  0  0  0  0  0  0  0  # atno 7974 bound_to 7965
  155.1544  140.3277  155.4424 H   0  0  0  0  0  0  0  0  0  0  0  0  # atno 8008 bound_to 7997
  156.2563  140.1971  156.6604 H   0  0  0  0  0  0  0  0  0  0  0  0  # atno 8009 bound_to 7997
  154.6450  140.0565  156.9876 H   0  0  0  0  0  0  0  0  0  0  0  0  # atno 8010 bound_to 7997
  139.4841  144.5448  151.7503 H   0  0  0  0  0  0  0  0  0  0  0  0  # atno 10167 bound_to 10162
  156.6066  130.8833  151.2926 H   0  0  0  0  0  0  0  0  0  0  0  0  # atno 10718 bound_to 10713
  154.3633  135.6111  153.5702 H   0  0  0  0  0  0  0  0  0  0  0  0  # atno 10763 bound_to 10752
  152.9793  135.5820  154.4607 H   0  0  0  0  0  0  0  0  0  0  0  0  # atno 10764 bound_to 10752
  154.4349  135.2848  155.1865 H   0  0  0  0  0  0  0  0  0  0  0  0  # atno 10765 bound_to 10752
  140.3775  134.1956  155.7664 H   0  0  0  0  0  0  0  0  0  0  0  0  # atno 11005 bound_to 11000
  146.2183  140.5887  142.9028 LP  0  0  0  0  0  0  0  0  0  0  0  0  # atno 17320 bound_to 7965
  144.7742  140.5703  143.6649 LP  0  0  0  0  0  0  0  0  0  0  0  0  # atno 17321 bound_to 7965
  140.4993  144.1194  150.5967 LP  0  0  0  0  0  0  0  0  0  0  0  0  # atno 17342 bound_to 10162
  140.4081  143.2670  151.9866 LP  0  0  0  0  0  0  0  0  0  0  0  0  # atno 17343 bound_to 10162
  157.7265  130.9631  150.1661 LP  0  0  0  0  0  0  0  0  0  0  0  0  # atno 17370 bound_to 10713
  156.2425  130.3692  149.8321 LP  0  0  0  0  0  0  0  0  0  0  0  0  # atno 17371 bound_to 10713
  141.1934  133.8151  157.0798 LP  0  0  0  0  0  0  0  0  0  0  0  0  # atno 17394 bound_to 11000
  140.0504  134.9808  157.1126 LP  0  0  0  0  0  0  0  0  0  0  0  0  # atno 17395 bound_to 11000

$$$$
