#       Name:                AV-unprocessed.smi:3231
#       Creating user name   scv26
#       Creation time:       Fri Mar 27 18:18:51 2020


#       File generated by GOLD software.
#

@<TRIPOS>MOLECULE
AV-unprocessed.smi:3231
    47    48     1
SMALL
NO_CHARGES


@<TRIPOS>ATOM
      1 ****        -0.7678  -1.6780  -0.1836 O.3            1 S1                 0.0000
      2 ****        -0.2754  -1.0159   0.9656 C.3            1 S1                 0.0000
      3 ****         1.2630  -1.1001   0.9616 C.3            1 S1                 0.0000
      4 ****         1.8597  -0.2674  -0.0794 N.3            1 S1                 0.0000
      5 ****         3.3153  -0.3609  -0.1402 C.3            1 S1                 0.0000
      6 ****         3.8876   0.4721  -1.2986 C.3            1 S1                 0.0000
      7 ****         3.5370  -0.0759  -2.5972 N.pl3          1 S1                 0.0000
      8 ****         4.2074  -1.0317  -3.3312 C.2            1 S1                 0.0000
      9 ****         3.4992  -1.2319  -4.4814 C.2            1 S1                 0.0000
     10 ****         2.3964  -0.3411  -4.3585 C.2            1 S1                 0.0000
     11 ****         2.4210   0.3490  -3.2297 N.2            1 S1                 0.0000
     12 ****        -0.8186   0.4289   1.0410 C.3            1 S1                 0.0000
     13 ****        -2.2845   0.4871   1.2752 N.4            1 S1                 1.0000
     14 ****        -2.6772   0.1994   2.6779 C.3            1 S1                 0.0000
     15 ****        -4.2072   0.2449   2.8285 C.3            1 S1                 0.0000
     16 ****        -4.6929   1.5128   2.4057 O.3            1 S1                 0.0000
     17 ****        -4.4002   1.7646   1.0373 C.3            1 S1                 0.0000
     18 ****        -2.8764   1.7711   0.8287 C.3            1 S1                 0.0000
     19 ****        -1.7036  -1.7777  -0.1036 H              1 S1                 0.0000
     20 ****        -0.6164  -1.5871   1.8279 H              1 S1                 0.0000
     21 ****         1.6400  -0.7862   1.9356 H              1 S1                 0.0000
     22 ****         1.5705  -2.1391   0.8351 H              1 S1                 0.0000
     23 ****         1.4676  -0.5183  -0.9823 H              1 S1                 0.0000
     24 ****         3.7442  -0.0128   0.8000 H              1 S1                 0.0000
     25 ****         3.6226  -1.4013  -0.2551 H              1 S1                 0.0000
     26 ****         3.5471   1.5072  -1.2387 H              1 S1                 0.0000
     27 ****         4.9755   0.4986  -1.2277 H              1 S1                 0.0000
     28 ****         5.1215  -1.4854  -2.9774 H              1 S1                 0.0000
     29 ****         3.7331  -1.9109  -5.2878 H              1 S1                 0.0000
     30 ****         1.5843  -0.1769  -5.0511 H              1 S1                 0.0000
     31 ****        -0.3091   0.9863   1.8287 H              1 S1                 0.0000
     32 ****        -0.5834   0.9411   0.1065 H              1 S1                 0.0000
     33 ****        -2.3177  -0.7814   2.9860 H              1 S1                 0.0000
     34 ****        -2.2177   0.9310   3.3445 H              1 S1                 0.0000
     35 ****        -4.6799  -0.5514   2.2511 H              1 S1                 0.0000
     36 ****        -4.4863   0.0904   3.8709 H              1 S1                 0.0000
     37 ****        -4.8774   1.0136   0.4056 H              1 S1                 0.0000
     38 ****        -4.8221   2.7301   0.7576 H              1 S1                 0.0000
     39 ****        -2.4265   2.5953   1.3849 H              1 S1                 0.0000
     40 ****        -2.6539   1.9359  -0.2263 H              1 S1                 0.0000
     41 ****        -2.6982  -0.2291   0.6957 H              1 S1                 0.0000
     42 ****        -0.3400  -2.5786  -0.2608 LP             1 S1                 0.0000
     43 ****        -0.5566  -1.1377  -0.9982 LP             1 S1                 0.0000
     44 ****         1.6419   0.6801   0.1547 LP             1 S1                 0.0000
     45 ****         1.7616   1.0319  -2.9153 LP             1 S1                 0.0000
     46 ****        -4.2663   2.2247   2.9636 LP             1 S1                 0.0000
     47 ****        -5.6843   1.5382   2.5340 LP             1 S1                 0.0000
@<TRIPOS>BOND
    1    1    2 1     
    2    1   19 1     
    3    2    3 1     
    4    2   12 1     
    5    2   20 1     
    6    3    4 1     
    7    3   21 1     
    8    3   22 1     
    9    4    5 1     
   10    4   23 1     
   11    5    6 1     
   12    5   24 1     
   13    5   25 1     
   14    6    7 1     
   15    6   26 1     
   16    6   27 1     
   17    7   11 1     
   18    7    8 1     
   19    8    9 2     
   20    8   28 1     
   21    9   10 1     
   22    9   29 1     
   23   10   11 2     
   24   10   30 1     
   25   12   13 1     
   26   12   31 1     
   27   12   32 1     
   28   13   18 1     
   29   13   14 1     
   30   13   41 1     
   31   14   15 1     
   32   14   33 1     
   33   14   34 1     
   34   15   16 1     
   35   15   35 1     
   36   15   36 1     
   37   16   17 1     
   38   17   18 1     
   39   17   37 1     
   40   17   38 1     
   41   18   39 1     
   42   18   40 1     
   43    1   42 1     
   44    1   43 1     
   45    4   44 1     
   46   11   45 1     
   47   16   46 1     
   48   16   47 1     
@<TRIPOS>SUBSTRUCTURE
      1 S1             1
@<TRIPOS>SET
LONE_PAIRS      STATIC     ATOMS    <user>   **** ""
6 42 43 44 45 46 47
DONOR_HYDROGENS      STATIC     ATOMS    <user>   **** ""
3 19 23 41
ATOM$BLUE        STATIC     ATOMS    COLORGROUP SYSTEM
6 42 43 44 45 46 47
ATOM$RED        STATIC     ATOMS    COLORGROUP SYSTEM
3 19 23 41
