#       Name:                AV-unprocessed.smi:2173
#       Creating user name   scv26
#       Creation time:       Fri Mar 27 12:03:25 2020


#       File generated by GOLD software.
#

@<TRIPOS>MOLECULE
AV-unprocessed.smi:2173
    38    39     1
SMALL
NO_CHARGES


@<TRIPOS>ATOM
      1 ****         0.6122   1.3845   0.6506 O.2            1 S1                 0.0000
      2 ****         0.1963   0.3166   1.1010 C.2            1 S1                 0.0000
      3 ****         1.0044  -0.6848   1.4853 N.am           1 S1                 0.0000
      4 ****         2.4637  -0.6727   1.4113 C.3            1 S1                 0.0000
      5 ****         3.0052  -1.3108   0.1152 C.3            1 S1                 0.0000
      6 ****         2.5151  -0.6388  -1.1564 C.ar           1 S1                 0.0000
      7 ****         3.1635   0.4896  -1.7031 C.ar           1 S1                 0.0000
      8 ****         2.6342   1.0941  -2.8623 C.ar           1 S1                 0.0000
      9 ****         1.4691   0.5589  -3.4498 C.ar           1 S1                 0.0000
     10 ****         0.8623  -0.5701  -2.8632 C.ar           1 S1                 0.0000
     11 ****         1.4004  -1.1214  -1.7535 N.pl3          1 S1                 1.0000
     12 ****        -1.3113   0.0629   1.2178 C.3            1 S1                 0.0000
     13 ****        -1.9612  -0.0508  -0.1805 C.3            1 S1                 0.0000
     14 ****        -3.4780  -0.0522  -0.1072 C.2            1 S1                 0.0000
     15 ****        -4.1652   0.3401   0.9793 C.2            1 S1                 0.0000
     16 ****        -3.5034   0.8350   2.2534 C.3            1 S1                 0.0000
     17 ****        -2.0111   1.1574   2.0481 C.3            1 S1                 0.0000
     18 ****         0.5749  -1.5222   1.8520 H              1 S1                 0.0000
     19 ****         2.8418   0.3459   1.5131 H              1 S1                 0.0000
     20 ****         2.8469  -1.2222   2.2713 H              1 S1                 0.0000
     21 ****         4.0953  -1.2839   0.1257 H              1 S1                 0.0000
     22 ****         2.7314  -2.3665   0.0854 H              1 S1                 0.0000
     23 ****         4.0480   0.8955  -1.2340 H              1 S1                 0.0000
     24 ****         3.1134   1.9612  -3.2926 H              1 S1                 0.0000
     25 ****         1.0461   1.0101  -4.3354 H              1 S1                 0.0000
     26 ****        -0.0329  -1.0422  -3.2410 H              1 S1                 0.0000
     27 ****        -1.4572  -0.8861   1.7376 H              1 S1                 0.0000
     28 ****        -1.6566   0.7728  -0.8281 H              1 S1                 0.0000
     29 ****        -1.6364  -0.9722  -0.6651 H              1 S1                 0.0000
     30 ****        -4.0090  -0.3781  -0.9896 H              1 S1                 0.0000
     31 ****        -5.2448   0.3018   0.9744 H              1 S1                 0.0000
     32 ****        -4.0288   1.7203   2.6126 H              1 S1                 0.0000
     33 ****        -3.6199   0.0642   3.0158 H              1 S1                 0.0000
     34 ****        -1.5252   1.2808   3.0169 H              1 S1                 0.0000
     35 ****        -1.9222   2.1169   1.5358 H              1 S1                 0.0000
     36 ****         0.9392  -1.9320  -1.3402 H              1 S1                 0.0000
     37 ****         1.5958   1.5382   0.5564 LP             1 S1                 0.0000
     38 ****        -0.0337   2.0980   0.3790 LP             1 S1                 0.0000
@<TRIPOS>BOND
    1    1    2 2     
    2    2    3 am    
    3    2   12 1     
    4    3    4 1     
    5    3   18 1     
    6    4    5 1     
    7    4   19 1     
    8    4   20 1     
    9    5    6 1     
   10    5   21 1     
   11    5   22 1     
   12    6   11 ar    
   13    6    7 ar    
   14    7    8 ar    
   15    7   23 1     
   16    8    9 ar    
   17    8   24 1     
   18    9   10 ar    
   19    9   25 1     
   20   10   11 ar    
   21   10   26 1     
   22   11   36 1     
   23   12   17 1     
   24   12   13 1     
   25   12   27 1     
   26   13   14 1     
   27   13   28 1     
   28   13   29 1     
   29   14   15 2     
   30   14   30 1     
   31   15   16 1     
   32   15   31 1     
   33   16   17 1     
   34   16   32 1     
   35   16   33 1     
   36   17   34 1     
   37   17   35 1     
   38    1   37 1     
   39    1   38 1     
@<TRIPOS>SUBSTRUCTURE
      1 S1             1
@<TRIPOS>SET
LONE_PAIRS      STATIC     ATOMS    <user>   **** ""
2 37 38
DONOR_HYDROGENS      STATIC     ATOMS    <user>   **** ""
2 18 36
ATOM$BLUE        STATIC     ATOMS    COLORGROUP SYSTEM
2 37 38
ATOM$RED        STATIC     ATOMS    COLORGROUP SYSTEM
2 18 36
