AV-unprocessed.smi:1084|AV-procd|sdf|4719|dock3
  -GOLD-   22720 3243D 1   1.00000     0.00000
 Structure written by MMmdl.
 53 55  0  0  0  0  0  0  0  0  2 V2000
  143.9249  136.4377  152.3557 C   0  0  0  0  0  0  0  0  0  0  0  0
  145.3055  136.4975  151.6564 C   0  0  1  0  0  0  0  0  0  0  0  0
  145.8774  137.9441  151.6826 C   0  0  0  0  0  0  0  0  0  0  0  0
  147.2134  138.0376  152.2683 N   0  0  0  0  0  0  0  0  0  0  0  0
  147.5875  138.9184  153.2082 C   0  0  0  0  0  0  0  0  0  0  0  0
  146.8381  139.7846  153.6572 O   0  0  0  0  0  0  0  0  0  0  0  0
  148.8711  138.7337  153.5621 N   0  0  0  0  0  0  0  0  0  0  0  0
  149.6571  139.4599  154.4991 C   0  0  0  0  0  0  0  0  0  0  0  0
  150.9460  139.0791  154.9405 C   0  0  0  0  0  0  0  0  0  0  0  0
  151.6179  139.8953  155.8702 C   0  0  0  0  0  0  0  0  0  0  0  0
  150.9942  141.0762  156.3353 C   0  0  0  0  0  0  0  0  0  0  0  0
  151.6515  141.9030  157.2717 N   0  0  0  0  0  0  0  0  0  0  0  0
  151.9164  141.2933  158.5725 C   0  0  0  0  0  0  0  0  0  0  0  0
  152.8917  142.1635  159.3840 C   0  0  0  0  0  0  0  0  0  0  0  0
  152.3858  143.4905  159.4858 O   0  0  0  0  0  0  0  0  0  0  0  0
  152.2429  144.1024  158.2084 C   0  0  0  0  0  0  0  0  0  0  0  0
  151.2390  143.3024  157.3612 C   0  0  0  0  0  0  0  0  0  0  0  0
  149.7672  141.4485  155.8961 N   0  0  0  0  0  0  0  0  0  0  0  0
  149.1255  140.6620  155.0072 C   0  0  0  0  0  0  0  0  0  0  0  0
  146.2602  135.4988  152.2476 N   0  3  0  0  0  0  0  0  0  0  0  0
  146.2610  135.4879  153.7382 C   0  0  0  0  0  0  0  0  0  0  0  0
  147.2679  134.4690  154.2968 C   0  0  0  0  0  0  0  0  0  0  0  0
  146.9703  133.1775  153.7925 O   0  0  0  0  0  0  0  0  0  0  0  0
  147.0961  133.1398  152.3804 C   0  0  0  0  0  0  0  0  0  0  0  0
  146.0864  134.1076  151.7403 C   0  0  0  0  0  0  0  0  0  0  0  0
  143.2256  137.1631  151.9428 H   0  0  0  0  0  0  0  0  0  0  0  0
  144.0138  136.6371  153.4242 H   0  0  0  0  0  0  0  0  0  0  0  0
  143.4290  135.4773  152.2298 H   0  0  0  0  0  0  0  0  0  0  0  0
  145.1572  136.2263  150.6097 H   0  0  0  0  0  0  0  0  0  0  0  0
  145.8584  138.3774  150.6811 H   0  0  0  0  0  0  0  0  0  0  0  0
  145.2623  138.5888  152.3086 H   0  0  0  0  0  0  0  0  0  0  0  0
  147.8970  137.3658  151.9508 H   0  0  0  0  0  0  0  0  0  0  0  0
  149.3648  138.0070  153.0647 H   0  0  0  0  0  0  0  0  0  0  0  0
  151.4430  138.1916  154.5833 H   0  0  0  0  0  0  0  0  0  0  0  0
  152.6069  139.6157  156.2008 H   0  0  0  0  0  0  0  0  0  0  0  0
  150.9732  141.1901  159.1103 H   0  0  0  0  0  0  0  0  0  0  0  0
  152.3345  140.2927  158.4720 H   0  0  0  0  0  0  0  0  0  0  0  0
  153.0147  141.7531  160.3862 H   0  0  0  0  0  0  0  0  0  0  0  0
  153.8799  142.1739  158.9212 H   0  0  0  0  0  0  0  0  0  0  0  0
  151.8908  145.1253  158.3412 H   0  0  0  0  0  0  0  0  0  0  0  0
  153.2122  144.1611  157.7106 H   0  0  0  0  0  0  0  0  0  0  0  0
  151.1751  143.7419  156.3650 H   0  0  0  0  0  0  0  0  0  0  0  0
  150.2456  143.3588  157.8084 H   0  0  0  0  0  0  0  0  0  0  0  0
  148.1502  141.0055  154.6938 H   0  0  0  0  0  0  0  0  0  0  0  0
  146.5359  136.4601  154.1413 H   0  0  0  0  0  0  0  0  0  0  0  0
  145.2586  135.2582  154.1027 H   0  0  0  0  0  0  0  0  0  0  0  0
  148.2911  134.7498  154.0412 H   0  0  0  0  0  0  0  0  0  0  0  0
  147.2095  134.4435  155.3850 H   0  0  0  0  0  0  0  0  0  0  0  0
  148.1167  133.3885  152.0845 H   0  0  0  0  0  0  0  0  0  0  0  0
  146.9069  132.1222  152.0384 H   0  0  0  0  0  0  0  0  0  0  0  0
  145.0679  133.7702  151.9387 H   0  0  0  0  0  0  0  0  0  0  0  0
  146.2441  134.0592  150.6643 H   0  0  0  0  0  0  0  0  0  0  0  0
  147.1853  135.7873  151.9619 H   0  0  0  0  0  0  0  0  0  0  0  0
  1  2  1  0  0  0  0
  1 26  1  0  0  0  0
  1 27  1  0  0  0  0
  1 28  1  0  0  0  0
  2  3  1  0  0  0  0
  2 20  1  0  0  0  0
  2 29  1  0  0  0  0
  3  4  1  0  0  0  0
  3 30  1  0  0  0  0
  3 31  1  0  0  0  0
  4  5  1  0  0  0  0
  4 32  1  0  0  0  0
  5  6  2  0  0  0  0
  5  7  1  0  0  0  0
  7  8  1  0  0  0  0
  7 33  1  0  0  0  0
  8 19  1  0  0  0  0
  8  9  2  0  0  0  0
  9 10  1  0  0  0  0
  9 34  1  0  0  0  0
 10 11  2  0  0  0  0
 10 35  1  0  0  0  0
 11 12  1  0  0  0  0
 11 18  1  0  0  0  0
 12 17  1  0  0  0  0
 12 13  1  0  0  0  0
 13 14  1  0  0  0  0
 13 36  1  0  0  0  0
 13 37  1  0  0  0  0
 14 15  1  0  0  0  0
 14 38  1  0  0  0  0
 14 39  1  0  0  0  0
 15 16  1  0  0  0  0
 16 17  1  0  0  0  0
 16 40  1  0  0  0  0
 16 41  1  0  0  0  0
 17 42  1  0  0  0  0
 17 43  1  0  0  0  0
 18 19  2  0  0  0  0
 19 44  1  0  0  0  0
 20 25  1  0  0  0  0
 20 21  1  0  0  0  0
 20 53  1  0  0  0  0
 21 22  1  0  0  0  0
 21 45  1  0  0  0  0
 21 46  1  0  0  0  0
 22 23  1  0  0  0  0
 22 47  1  0  0  0  0
 22 48  1  0  0  0  0
 23 24  1  0  0  0  0
 24 25  1  0  0  0  0
 24 49  1  0  0  0  0
 24 50  1  0  0  0  0
 25 51  1  0  0  0  0
 25 52  1  0  0  0  0
M  CHG  1  20   1
M  END
> <s_m_source_file>
AV-unprocessed.smi

> <i_m_source_file_index>
1084

> <i_lp_mmshare_version>
43012

> <i_f3d_flags>
0

> <s_epik_input>
W0NIMl0xW0NIMl1PW0NIMl1bQ0gyXU4xW0NASF0oW0NIM10pW0NIMl1bTkhdQyg9TylbTkhdYzJbY0hdW2NIXWMobltjSF0yKU4zW0NIMl1bQ0gyXU9bQ0gyXVtDSDJdMw==

> <s_epik_cmdline>
J2VwaWtfcHl0aG9uJywgJy1waCcsICc3LjAnLCAnLXRuJywgJzgnLCAnLW1hJywgJzIwMCcsICctbWV0YWxfYmluZGluZycsICctaW1hZScsICc8aW5maWxlLm1hZT4nLCAnLW9tYWUnLCAnPG91dGZpbGUubWFlPic=

> <r_lp_tautomer_probability>
1

> <r_epik_Ionization_Penalty>
0.604236

> <r_epik_Ionization_Penalty_Charging>
0.602531

> <r_epik_Ionization_Penalty_Neutral>
0.00170595

> <r_epik_State_Penalty>
0.59929

> <r_epik_Charging_Adjusted_Penalty>
1.20182

> <i_epik_Tot_Q>
1

> <i_epik_Tot_abs_Q>
1

> <r_epik_Metal_State_Penalty>
0.598238

> <b_epik_Metal_Only>
0

> <s_lp_Force_Field>
OPLS_2005

> <r_lp_Energy>
38.2929

> <b_lp_Chiralities_Consistent>
1

> <s_lp_Variant>
AV-unprocessed.smi:1084-4

> <Gold.Version>
5.8.1

> <Gold.Id.Protein>
6NUR|6NUR_protein|mol2

> <Gold.PLP.Fitness>
51.4366

> <Gold.PLP.PLP>
-43.3193

> <Gold.PLP.part.hbond>
-4.1892

> <Gold.PLP.part.metal>
0.0000

> <Gold.PLP.part.buried>
0.7379

> <Gold.PLP.part.nonpolar>
-41.0981

> <Gold.PLP.part.repulsive>
0.5644

> <Gold.PLP.ligand.clash>
0.0000

> <Gold.PLP.ligand.torsion>
1.5216

> <Gold.PLP.Chemscore.Hbond>
3.5738

> <Gold.PLP.Chemscore.CHOScore>
0.0000

> <Gold.PLP.Chemscore.Metal>
0.0000

> <Gold.Chemscore.Hbonds>
donor molecule, donor type, donor heavy atom, donor atom, acceptor molecule, acceptor atom, score
      L1  H     4    32       P1  7948  0.99
      L1  H     7    33       P1  7948  0.57
      L1  H    20    53       P1  7948  2.00

> <Gold.PLP.Chemscore.Internal.Correction>
0.4391

> <Gold.Rescore>
     Score         DG    S(hbond)    S(metal)    S(lipo)     H(rot)  DE(clash)    DE(int)     intcor
     17.12     -21.76       2.45        0.00     105.81       1.68       1.52       3.12       ----

> <Gold.Chemscore.Fitness>
17.1188

> <Gold.Chemscore.DG>
-21.7565

> <Gold.Chemscore.ZeroCoef>
-5.4800

> <Gold.Chemscore.Hbond>
2.4542

> <Gold.Chemscore.Metal>
0.0000

> <Gold.Chemscore.Lipo>
105.8142

> <Gold.Chemscore.Internal_Hbond>
0.0000

> <Gold.Chemscore.DEClash>
1.5185

> <Gold.Chemscore.DEInternal>
3.1192

> <Gold.Chemscore.Rot>
1.6800

> <Gold.Chemscore.Internal.Correction>
   9.000000E+99

> <Gold.Chemscore.Hbonds>
donor molecule, donor type, donor heavy atom, donor atom, acceptor molecule, acceptor atom, score
      L1  H     4    32       P1  7948  0.92
      L1  H     7    33       P1  7948  0.54
      L1  H    20    53       P1  7948  1.00

> <Gold.Chemscore.Hbond.Weighted>
-8.1970

> <Gold.Chemscore.Metal.Weighted>
-0.0000

> <Gold.Chemscore.Lipo.Weighted>
-12.3803

> <Gold.Chemscore.Internal_Hbond.Weighted>
0.0000

> <Gold.Chemscore.DEClash.Weighted>
1.5185

> <Gold.Chemscore.DEInternal.Weighted>
3.1192

> <Gold.Chemscore.Rot.Weighted>
4.3007

> <Gold.Chemscore.Internal.Correction.Weighted>
   9.000000E+99

> <Gold.Protein.RotatedTorsions>
[ 6907 6896 6895 6894 ] final  -63.03 input  -60.11 | X-H torsion
[ 7974 7965 7964 7962 ] final -140.89 input  175.53 | X-H torsion
[ 8008 7997 7996 7995 ] final  152.00 input   59.86 | X-H torsion
[ 10167 10162 10161 10158 ] final    0.65 input  -65.29 | X-H torsion
[ 10718 10713 10712 10709 ] final   96.18 input   66.30 | X-H torsion
[ 10763 10752 10751 10750 ] final  -18.94 input  -60.55 | X-H torsion
[ 11005 11000 10999 10996 ] final -165.18 input  -57.11 | X-H torsion

> <Gold.Protein.ActiveResidues>
 VAL166  LYS551  ARG553  GLY616  TRP617  ASP618  TYR619  PRO620  LYS621  CYS622 
 ASP623  PHE694  ASN695  SER759  ASP760  ASP761  ALA762  ILE779  LEU786  VAL792 
 PHE793  MET794  SER795  GLU796  ALA797  LYS798  CYS799  TRP800  GLU811  SER814 

> <Gold.Protein.RotatedAtoms>
  150.7676  134.6490  159.6277 H   0  0  0  0  0  0  0  0  0  0  0  0  # atno 6907 bound_to 6896
  152.3714  134.6725  160.0183 H   0  0  0  0  0  0  0  0  0  0  0  0  # atno 6908 bound_to 6896
  151.7083  133.3275  159.3320 H   0  0  0  0  0  0  0  0  0  0  0  0  # atno 6909 bound_to 6896
  144.8562  140.6146  143.5358 H   0  0  0  0  0  0  0  0  0  0  0  0  # atno 7974 bound_to 7965
  156.2649  140.2032  156.6264 H   0  0  0  0  0  0  0  0  0  0  0  0  # atno 8008 bound_to 7997
  154.6717  140.0549  157.0196 H   0  0  0  0  0  0  0  0  0  0  0  0  # atno 8009 bound_to 7997
  155.1128  140.3217  155.4520 H   0  0  0  0  0  0  0  0  0  0  0  0  # atno 8010 bound_to 7997
  140.6719  143.7024  150.7941 H   0  0  0  0  0  0  0  0  0  0  0  0  # atno 10167 bound_to 10162
  157.6930  131.0570  150.4452 H   0  0  0  0  0  0  0  0  0  0  0  0  # atno 10718 bound_to 10713
  153.5971  135.7000  153.5399 H   0  0  0  0  0  0  0  0  0  0  0  0  # atno 10763 bound_to 10752
  153.3128  135.4096  155.1350 H   0  0  0  0  0  0  0  0  0  0  0  0  # atno 10764 bound_to 10752
  154.8589  135.3676  154.5505 H   0  0  0  0  0  0  0  0  0  0  0  0  # atno 10765 bound_to 10752
  140.5786  134.5165  157.5174 H   0  0  0  0  0  0  0  0  0  0  0  0  # atno 11005 bound_to 11000
  145.4402  139.1537  143.3974 LP  0  0  0  0  0  0  0  0  0  0  0  0  # atno 17320 bound_to 7965
  146.2825  140.4523  142.8771 LP  0  0  0  0  0  0  0  0  0  0  0  0  # atno 17321 bound_to 7965
  140.0711  143.5060  152.2579 LP  0  0  0  0  0  0  0  0  0  0  0  0  # atno 17342 bound_to 10162
  139.5992  144.7577  151.3213 LP  0  0  0  0  0  0  0  0  0  0  0  0  # atno 17343 bound_to 10162
  156.4808  130.4073  149.6463 LP  0  0  0  0  0  0  0  0  0  0  0  0  # atno 17370 bound_to 10713
  156.3509  130.7431  151.2391 LP  0  0  0  0  0  0  0  0  0  0  0  0  # atno 17371 bound_to 10713
  139.9328  134.7932  156.0884 LP  0  0  0  0  0  0  0  0  0  0  0  0  # atno 17394 bound_to 11000
  141.1011  133.6677  156.2756 LP  0  0  0  0  0  0  0  0  0  0  0  0  # atno 17395 bound_to 11000

$$$$
