AV-unprocessed.smi:804|AV-procd|sdf|3794|dock1
  -GOLD-   22720 1233D 1   1.00000     0.00000
 Structure written by MMmdl.
 39 40  0  0  0  0  0  0  0  0  1 V2000
  146.4545  146.4267  160.0769 C   0  0  0  0  0  0  0  0  0  0  0  0
  146.7680  144.9956  160.5478 C   0  0  0  0  0  0  0  0  0  0  0  0
  147.9905  145.0344  161.4890 C   0  0  0  0  0  0  0  0  0  0  0  0
  145.5353  144.4258  161.2801 C   0  0  0  0  0  0  0  0  0  0  0  0
  147.0659  144.2083  159.3465 N   0  0  0  0  0  0  0  0  0  0  0  0
  146.8428  142.9000  159.1240 C   0  0  0  0  0  0  0  0  0  0  0  0
  146.2907  142.1442  159.9239 O   0  0  0  0  0  0  0  0  0  0  0  0
  147.2479  142.4062  157.7656 C   0  0  0  0  0  0  0  0  0  0  0  0
  148.4815  141.8599  157.6684 N   0  0  0  0  0  0  0  0  0  0  0  0
  148.8900  141.4038  156.4778 C   0  0  0  0  0  0  0  0  0  0  0  0
  150.1669  140.8313  156.4060 N   0  0  0  0  0  0  0  0  0  0  0  0
  150.6871  140.2699  155.1562 C   0  0  0  0  0  0  0  0  0  0  0  0
  151.6961  139.1427  155.4344 C   0  0  0  0  0  0  0  0  0  0  0  0
  152.7268  139.6168  156.2912 O   0  0  0  0  0  0  0  0  0  0  0  0
  152.2085  140.0252  157.5504 C   0  0  0  0  0  0  0  0  0  0  0  0
  151.2244  141.1905  157.3548 C   0  0  0  0  0  0  0  0  0  0  0  0
  148.1656  141.4527  155.3531 N   0  0  0  0  0  0  0  0  0  0  0  0
  146.9370  142.0059  155.4201 C   0  0  0  0  0  0  0  0  0  0  0  0
  146.4121  142.5145  156.6236 C   0  0  0  0  0  0  0  0  0  0  0  0
  144.8448  143.2494  156.6367 Cl  0  0  0  0  0  0  0  0  0  0  0  0
  146.2210  147.0799  160.9185 H   0  0  0  0  0  0  0  0  0  0  0  0
  145.5984  146.4455  159.4012 H   0  0  0  0  0  0  0  0  0  0  0  0
  147.3006  146.8661  159.5468 H   0  0  0  0  0  0  0  0  0  0  0  0
  148.8778  145.4021  160.9722 H   0  0  0  0  0  0  0  0  0  0  0  0
  148.2287  144.0508  161.8936 H   0  0  0  0  0  0  0  0  0  0  0  0
  147.8097  145.6930  162.3390 H   0  0  0  0  0  0  0  0  0  0  0  0
  145.2509  145.0599  162.1204 H   0  0  0  0  0  0  0  0  0  0  0  0
  145.7198  143.4294  161.6816 H   0  0  0  0  0  0  0  0  0  0  0  0
  144.6737  144.3587  160.6145 H   0  0  0  0  0  0  0  0  0  0  0  0
  147.5063  144.7173  158.5939 H   0  0  0  0  0  0  0  0  0  0  0  0
  149.8934  139.8647  154.5289 H   0  0  0  0  0  0  0  0  0  0  0  0
  151.1640  141.0685  154.5873 H   0  0  0  0  0  0  0  0  0  0  0  0
  151.2015  138.2796  155.8828 H   0  0  0  0  0  0  0  0  0  0  0  0
  152.1422  138.8023  154.4999 H   0  0  0  0  0  0  0  0  0  0  0  0
  151.7219  139.1846  158.0480 H   0  0  0  0  0  0  0  0  0  0  0  0
  153.0351  140.3368  158.1891 H   0  0  0  0  0  0  0  0  0  0  0  0
  151.7520  142.0662  156.9752 H   0  0  0  0  0  0  0  0  0  0  0  0
  150.8222  141.4606  158.3308 H   0  0  0  0  0  0  0  0  0  0  0  0
  146.3709  142.0492  154.5014 H   0  0  0  0  0  0  0  0  0  0  0  0
  1  2  1  0  0  0  0
  1 21  1  0  0  0  0
  1 22  1  0  0  0  0
  1 23  1  0  0  0  0
  2  3  1  0  0  0  0
  2  4  1  0  0  0  0
  2  5  1  0  0  0  0
  3 24  1  0  0  0  0
  3 25  1  0  0  0  0
  3 26  1  0  0  0  0
  4 27  1  0  0  0  0
  4 28  1  0  0  0  0
  4 29  1  0  0  0  0
  5  6  1  0  0  0  0
  5 30  1  0  0  0  0
  6  7  2  0  0  0  0
  6  8  1  0  0  0  0
  8 19  1  0  0  0  0
  8  9  2  0  0  0  0
  9 10  1  0  0  0  0
 10 11  1  0  0  0  0
 10 17  2  0  0  0  0
 11 16  1  0  0  0  0
 11 12  1  0  0  0  0
 12 13  1  0  0  0  0
 12 31  1  0  0  0  0
 12 32  1  0  0  0  0
 13 14  1  0  0  0  0
 13 33  1  0  0  0  0
 13 34  1  0  0  0  0
 14 15  1  0  0  0  0
 15 16  1  0  0  0  0
 15 35  1  0  0  0  0
 15 36  1  0  0  0  0
 16 37  1  0  0  0  0
 16 38  1  0  0  0  0
 17 18  1  0  0  0  0
 18 19  2  0  0  0  0
 18 39  1  0  0  0  0
 19 20  1  0  0  0  0
M  END
> <s_m_source_file>
AV-unprocessed.smi

> <i_m_source_file_index>
804

> <i_lp_mmshare_version>
43012

> <i_f3d_flags>
0

> <s_epik_input>
W0NIM11DKFtDSDNdKShbQ0gzXSlbTkhdQyg9TyljMW5jKG5bY0hdYzFDbClOMltDSDJdW0NIMl1PW0NIMl1bQ0gyXTI=

> <s_epik_cmdline>
J2VwaWtfcHl0aG9uJywgJy1waCcsICc3LjAnLCAnLXRuJywgJzgnLCAnLW1hJywgJzIwMCcsICctbWV0YWxfYmluZGluZycsICctaW1hZScsICc8aW5maWxlLm1hZT4nLCAnLW9tYWUnLCAnPG91dGZpbGUubWFlPic=

> <r_lp_tautomer_probability>
1

> <r_epik_Ionization_Penalty>
1.02082e-05

> <r_epik_Ionization_Penalty_Charging>
0

> <r_epik_Ionization_Penalty_Neutral>
1.02082e-05

> <r_epik_State_Penalty>
-0

> <r_epik_Charging_Adjusted_Penalty>
0

> <i_epik_Tot_Q>
0

> <i_epik_Tot_abs_Q>
0

> <r_epik_Metal_State_Penalty>
0.00994437

> <b_epik_Metal_Only>
0

> <s_lp_Force_Field>
OPLS_2005

> <r_lp_Energy>
15.0003

> <b_lp_Chiralities_Consistent>
1

> <s_lp_Variant>
AV-unprocessed.smi:804-1

> <Gold.Version>
5.8.1

> <Gold.Id.Protein>
6NUR|6NUR_protein|mol2

> <Gold.PLP.Fitness>
37.5731

> <Gold.PLP.PLP>
-32.8026

> <Gold.PLP.part.hbond>
-3.0000

> <Gold.PLP.part.metal>
0.0000

> <Gold.PLP.part.buried>
-4.0485

> <Gold.PLP.part.nonpolar>
-26.0684

> <Gold.PLP.part.repulsive>
0.3142

> <Gold.PLP.ligand.clash>
0.0000

> <Gold.PLP.ligand.torsion>
2.1890

> <Gold.PLP.Chemscore.Hbond>
3.0000

> <Gold.PLP.Chemscore.CHOScore>
0.0000

> <Gold.PLP.Chemscore.Metal>
0.0000

> <Gold.Chemscore.Hbonds>
donor molecule, donor type, donor heavy atom, donor atom, acceptor molecule, acceptor atom, score
      L1  H     5    30       P1  8029  1.00
      P1  H  6934  6946       L1     7  1.00
      P1  H  7997  8009       L1    14  1.00

> <Gold.PLP.Chemscore.Internal.Correction>
0.1486

> <Gold.Rescore>
     Score         DG    S(hbond)    S(metal)    S(lipo)     H(rot)  DE(clash)    DE(int)     intcor
     16.09     -19.73       2.96        0.00      59.17       1.00       0.09       3.55       ----

> <Gold.Chemscore.Fitness>
16.0883

> <Gold.Chemscore.DG>
-19.7275

> <Gold.Chemscore.ZeroCoef>
-5.4800

> <Gold.Chemscore.Hbond>
2.9596

> <Gold.Chemscore.Metal>
0.0000

> <Gold.Chemscore.Lipo>
59.1677

> <Gold.Chemscore.Internal_Hbond>
0.0000

> <Gold.Chemscore.DEClash>
0.0874

> <Gold.Chemscore.DEInternal>
3.5519

> <Gold.Chemscore.Rot>
1.0000

> <Gold.Chemscore.Internal.Correction>
   9.000000E+99

> <Gold.Chemscore.Hbonds>
donor molecule, donor type, donor heavy atom, donor atom, acceptor molecule, acceptor atom, score
      L1  H     5    30       P1  8029  0.99
      P1  H  6934  6946       L1     7  0.99
      P1  H  7997  8009       L1    14  0.40

> <Gold.Chemscore.Hbond.Weighted>
-9.8849

> <Gold.Chemscore.Metal.Weighted>
-0.0000

> <Gold.Chemscore.Lipo.Weighted>
-6.9226

> <Gold.Chemscore.Internal_Hbond.Weighted>
0.0000

> <Gold.Chemscore.DEClash.Weighted>
0.0874

> <Gold.Chemscore.DEInternal.Weighted>
3.5519

> <Gold.Chemscore.Rot.Weighted>
2.5600

> <Gold.Chemscore.Internal.Correction.Weighted>
   9.000000E+99

> <Gold.Protein.RotatedTorsions>
[ 6907 6896 6895 6894 ] final   76.25 input  -60.11 | X-H torsion
[ 7974 7965 7964 7962 ] final   20.85 input  175.53 | X-H torsion
[ 8008 7997 7996 7995 ] final -164.69 input   59.86 | X-H torsion
[ 10167 10162 10161 10158 ] final -124.37 input  -65.29 | X-H torsion
[ 10718 10713 10712 10709 ] final  113.97 input   66.30 | X-H torsion
[ 10763 10752 10751 10750 ] final    7.39 input  -60.55 | X-H torsion
[ 11005 11000 10999 10996 ] final -153.11 input  -57.11 | X-H torsion

> <Gold.Protein.ActiveResidues>
 VAL166  LYS551  ARG553  GLY616  TRP617  ASP618  TYR619  PRO620  LYS621  CYS622 
 ASP623  PHE694  ASN695  SER759  ASP760  ASP761  ALA762  ILE779  LEU786  VAL792 
 PHE793  MET794  SER795  GLU796  ALA797  LYS798  CYS799  TRP800  GLU811  SER814 

> <Gold.Protein.RotatedAtoms>
  152.5064  134.3997  159.9411 H   0  0  0  0  0  0  0  0  0  0  0  0  # atno 6907 bound_to 6896
  151.3960  133.3767  159.2734 H   0  0  0  0  0  0  0  0  0  0  0  0  # atno 6908 bound_to 6896
  150.9397  134.8828  159.7663 H   0  0  0  0  0  0  0  0  0  0  0  0  # atno 6909 bound_to 6896
  146.2095  139.8111  142.8700 H   0  0  0  0  0  0  0  0  0  0  0  0  # atno 7974 bound_to 7965
  155.8392  140.0946  157.1745 H   0  0  0  0  0  0  0  0  0  0  0  0  # atno 8008 bound_to 7997
  154.3981  140.1404  156.3769 H   0  0  0  0  0  0  0  0  0  0  0  0  # atno 8009 bound_to 7997
  155.8082  140.3450  155.5445 H   0  0  0  0  0  0  0  0  0  0  0  0  # atno 8010 bound_to 7997
  139.9935  143.5616  152.2332 H   0  0  0  0  0  0  0  0  0  0  0  0  # atno 10167 bound_to 10162
  157.6308  131.0992  150.7118 H   0  0  0  0  0  0  0  0  0  0  0  0  # atno 10718 bound_to 10713
  153.2368  135.6899  153.7828 H   0  0  0  0  0  0  0  0  0  0  0  0  # atno 10763 bound_to 10752
  153.6972  135.3303  155.3217 H   0  0  0  0  0  0  0  0  0  0  0  0  # atno 10764 bound_to 10752
  154.8338  135.4559  154.1275 H   0  0  0  0  0  0  0  0  0  0  0  0  # atno 10765 bound_to 10752
  140.7117  134.3825  157.5196 H   0  0  0  0  0  0  0  0  0  0  0  0  # atno 11005 bound_to 11000
  145.3195  141.0240  143.3508 LP  0  0  0  0  0  0  0  0  0  0  0  0  # atno 17320 bound_to 7965
  144.8877  139.4817  143.6693 LP  0  0  0  0  0  0  0  0  0  0  0  0  # atno 17321 bound_to 7965
  139.6323  144.7646  151.2511 LP  0  0  0  0  0  0  0  0  0  0  0  0  # atno 17342 bound_to 10162
  140.7446  143.6458  150.8293 LP  0  0  0  0  0  0  0  0  0  0  0  0  # atno 17343 bound_to 10162
  156.7458  130.4753  149.5467 LP  0  0  0  0  0  0  0  0  0  0  0  0  # atno 17370 bound_to 10713
  156.1510  130.6310  151.0595 LP  0  0  0  0  0  0  0  0  0  0  0  0  # atno 17371 bound_to 10713
  139.8870  134.8894  156.2553 LP  0  0  0  0  0  0  0  0  0  0  0  0  # atno 17394 bound_to 11000
  141.0079  133.7113  156.1064 LP  0  0  0  0  0  0  0  0  0  0  0  0  # atno 17395 bound_to 11000

$$$$
