AV-unprocessed.smi:392|AV-procd|sdf|2481|dock1
  -GOLD-   2262022423D 1   1.00000     0.00000
 Structure written by MMmdl.
 32 34  0  0  0  0  0  0  0  0  1 V2000
  151.7977  140.2106  154.9667 O   0  0  0  0  0  0  0  0  0  0  0  0
  150.6560  140.6209  155.6917 C   0  0  1  0  0  0  0  0  0  0  0  0
  150.9063  142.0494  156.2150 C   0  0  0  0  0  0  0  0  0  0  0  0
  151.2850  142.0643  157.6169 N   0  0  0  0  0  0  0  0  0  0  0  0
  151.4878  140.9953  158.4107 C   0  0  0  0  0  0  0  0  0  0  0  0
  151.8210  141.2298  159.6766 N   0  0  0  0  0  0  0  0  0  0  0  0
  151.8344  142.6135  159.7100 C   0  0  0  0  0  0  0  0  0  0  0  0
  152.1094  143.5022  160.7741 C   0  0  0  0  0  0  0  0  0  0  0  0
  152.0557  144.8971  160.5720 C   0  0  0  0  0  0  0  0  0  0  0  0
  151.7294  145.4241  159.3056 C   0  0  0  0  0  0  0  0  0  0  0  0
  151.4551  144.5587  158.2295 C   0  0  0  0  0  0  0  0  0  0  0  0
  151.5066  143.1672  158.4356 C   0  0  0  0  0  0  0  0  0  0  0  0
  149.3801  140.5253  154.8622 C   0  0  0  0  0  0  0  0  0  0  0  0
  148.5879  141.6742  154.6399 C   0  0  0  0  0  0  0  0  0  0  0  0
  147.3918  141.5831  153.9026 C   0  0  0  0  0  0  0  0  0  0  0  0
  146.9785  140.3427  153.3819 C   0  0  0  0  0  0  0  0  0  0  0  0
  147.7624  139.1938  153.5987 C   0  0  0  0  0  0  0  0  0  0  0  0
  148.9587  139.2820  154.3367 C   0  0  0  0  0  0  0  0  0  0  0  0
  149.6918  138.1626  154.5485 F   0  0  0  0  0  0  0  0  0  0  0  0
  152.5609  140.3516  155.5060 H   0  0  0  0  0  0  0  0  0  0  0  0
  150.5815  139.9418  156.5417 H   0  0  0  0  0  0  0  0  0  0  0  0
  151.7115  142.5199  155.6486 H   0  0  0  0  0  0  0  0  0  0  0  0
  150.0237  142.6758  156.0782 H   0  0  0  0  0  0  0  0  0  0  0  0
  151.3812  139.9869  158.0379 H   0  0  0  0  0  0  0  0  0  0  0  0
  152.3595  143.1098  161.7486 H   0  0  0  0  0  0  0  0  0  0  0  0
  152.2659  145.5663  161.3934 H   0  0  0  0  0  0  0  0  0  0  0  0
  151.6887  146.4937  159.1603 H   0  0  0  0  0  0  0  0  0  0  0  0
  151.2017  144.9599  157.2597 H   0  0  0  0  0  0  0  0  0  0  0  0
  148.8893  142.6294  155.0444 H   0  0  0  0  0  0  0  0  0  0  0  0
  146.7894  142.4648  153.7403 H   0  0  0  0  0  0  0  0  0  0  0  0
  146.0595  140.2717  152.8189 H   0  0  0  0  0  0  0  0  0  0  0  0
  147.4430  138.2412  153.2027 H   0  0  0  0  0  0  0  0  0  0  0  0
  1  2  1  0  0  0  0
  1 20  1  0  0  0  0
  2  3  1  0  0  0  0
  2 13  1  0  0  0  0
  2 21  1  0  0  0  0
  3  4  1  0  0  0  0
  3 22  1  0  0  0  0
  3 23  1  0  0  0  0
  4 12  1  0  0  0  0
  4  5  1  0  0  0  0
  5  6  2  0  0  0  0
  5 24  1  0  0  0  0
  6  7  1  0  0  0  0
  7 12  2  0  0  0  0
  7  8  1  0  0  0  0
  8  9  2  0  0  0  0
  8 25  1  0  0  0  0
  9 10  1  0  0  0  0
  9 26  1  0  0  0  0
 10 11  2  0  0  0  0
 10 27  1  0  0  0  0
 11 12  1  0  0  0  0
 11 28  1  0  0  0  0
 13 18  1  0  0  0  0
 13 14  2  0  0  0  0
 14 15  1  0  0  0  0
 14 29  1  0  0  0  0
 15 16  2  0  0  0  0
 15 30  1  0  0  0  0
 16 17  1  0  0  0  0
 16 31  1  0  0  0  0
 17 18  2  0  0  0  0
 17 32  1  0  0  0  0
 18 19  1  0  0  0  0
M  END
> <s_m_source_file>
AV-unprocessed.smi

> <i_m_source_file_index>
392

> <i_lp_mmshare_version>
43012

> <i_f3d_flags>
0

> <s_epik_input>
RmMxW2NIXVtjSF1bY0hdW2NIXWMxW0NASF0oW09IXSlbQ0gyXW4oW2NIXW4yKWMoYzIzKVtjSF1bY0hdW2NIXVtjSF0z

> <s_epik_cmdline>
J2VwaWtfcHl0aG9uJywgJy1waCcsICc3LjAnLCAnLXRuJywgJzgnLCAnLW1hJywgJzIwMCcsICctbWV0YWxfYmluZGluZycsICctaW1hZScsICc8aW5maWxlLm1hZT4nLCAnLW9tYWUnLCAnPG91dGZpbGUubWFlPic=

> <r_epik_Ionization_Penalty>
0.0696512

> <r_epik_Ionization_Penalty_Charging>
0

> <r_epik_Ionization_Penalty_Neutral>
0.0696512

> <r_epik_State_Penalty>
0.0610247

> <r_epik_Charging_Adjusted_Penalty>
0.0610247

> <i_epik_Tot_Q>
0

> <i_epik_Tot_abs_Q>
0

> <r_epik_Metal_State_Penalty>
6.42746e-05

> <b_epik_Metal_Only>
0

> <s_lp_Force_Field>
OPLS_2005

> <r_lp_Energy>
12.4864

> <b_lp_Chiralities_Consistent>
1

> <s_lp_Variant>
AV-unprocessed.smi:392-2

> <Gold.Version>
5.8.1

> <Gold.Id.Protein>
6NUR|6NUR_protein|mol2

> <Gold.PLP.Fitness>
49.9135

> <Gold.PLP.PLP>
-48.4127

> <Gold.PLP.part.hbond>
-1.0000

> <Gold.PLP.part.metal>
0.0000

> <Gold.PLP.part.buried>
-4.5592

> <Gold.PLP.part.nonpolar>
-41.8493

> <Gold.PLP.part.repulsive>
0.0000

> <Gold.PLP.ligand.clash>
0.0000

> <Gold.PLP.ligand.torsion>
0.6319

> <Gold.PLP.Chemscore.Hbond>
0.9120

> <Gold.PLP.Chemscore.CHOScore>
0.0000

> <Gold.PLP.Chemscore.Metal>
0.0000

> <Gold.Chemscore.Hbonds>
donor molecule, donor type, donor heavy atom, donor atom, acceptor molecule, acceptor atom, score
      P1  H  7989  7998       L1     1  0.90

> <Gold.PLP.Chemscore.Internal.Correction>
0.0287

> <Gold.Rescore>
     Score         DG    S(hbond)    S(metal)    S(lipo)     H(rot)  DE(clash)    DE(int)     intcor
     15.06     -17.05       0.72        0.00     120.29       1.91       0.29       1.71       ----

> <Gold.Chemscore.Fitness>
15.0556

> <Gold.Chemscore.DG>
-17.0530

> <Gold.Chemscore.ZeroCoef>
-5.4800

> <Gold.Chemscore.Hbond>
0.7163

> <Gold.Chemscore.Metal>
0.0000

> <Gold.Chemscore.Lipo>
120.2927

> <Gold.Chemscore.Internal_Hbond>
0.0000

> <Gold.Chemscore.DEClash>
0.2856

> <Gold.Chemscore.DEInternal>
1.7117

> <Gold.Chemscore.Rot>
1.9116

> <Gold.Chemscore.Internal.Correction>
   9.000000E+99

> <Gold.Chemscore.Hbonds>
donor molecule, donor type, donor heavy atom, donor atom, acceptor molecule, acceptor atom, score
      P1  H  7989  7998       L1     1  0.47

> <Gold.Chemscore.Hbond.Weighted>
-2.3925

> <Gold.Chemscore.Metal.Weighted>
-0.0000

> <Gold.Chemscore.Lipo.Weighted>
-14.0742

> <Gold.Chemscore.Internal_Hbond.Weighted>
0.0000

> <Gold.Chemscore.DEClash.Weighted>
0.2856

> <Gold.Chemscore.DEInternal.Weighted>
1.7117

> <Gold.Chemscore.Rot.Weighted>
4.8937

> <Gold.Chemscore.Internal.Correction.Weighted>
   9.000000E+99

> <Gold.Protein.RotatedTorsions>
[ 6907 6896 6895 6894 ] final  -57.28 input  -60.11 | X-H torsion
[ 7974 7965 7964 7962 ] final  159.36 input  175.53 | X-H torsion
[ 8008 7997 7996 7995 ] final -140.59 input   59.86 | X-H torsion
[ 10167 10162 10161 10158 ] final  -56.57 input  -65.29 | X-H torsion
[ 10718 10713 10712 10709 ] final -156.81 input   66.30 | X-H torsion
[ 10763 10752 10751 10750 ] final   56.37 input  -60.55 | X-H torsion
[ 11005 11000 10999 10996 ] final   53.26 input  -57.11 | X-H torsion

> <Gold.Protein.ActiveResidues>
 VAL166  LYS551  ARG553  GLY616  TRP617  ASP618  TYR619  PRO620  LYS621  CYS622 
 ASP623  PHE694  ASN695  SER759  ASP760  ASP761  ALA762  ILE779  LEU786  VAL792 
 PHE793  MET794  SER795  GLU796  ALA797  LYS798  CYS799  TRP800  GLU811  SER814 

> <Gold.Protein.RotatedAtoms>
  150.8099  134.7247  159.6677 H   0  0  0  0  0  0  0  0  0  0  0  0  # atno 6907 bound_to 6896
  152.4219  134.5937  159.9991 H   0  0  0  0  0  0  0  0  0  0  0  0  # atno 6908 bound_to 6896
  151.6150  133.3307  159.3111 H   0  0  0  0  0  0  0  0  0  0  0  0  # atno 6909 bound_to 6896
  144.7795  139.7606  143.6265 H   0  0  0  0  0  0  0  0  0  0  0  0  # atno 7974 bound_to 7965
  155.4639  140.0548  157.2987 H   0  0  0  0  0  0  0  0  0  0  0  0  # atno 8008 bound_to 7997
  154.4726  140.2047  155.9911 H   0  0  0  0  0  0  0  0  0  0  0  0  # atno 8009 bound_to 7997
  156.1080  140.3208  155.8038 H   0  0  0  0  0  0  0  0  0  0  0  0  # atno 8010 bound_to 7997
  140.6309  143.2459  151.5242 H   0  0  0  0  0  0  0  0  0  0  0  0  # atno 10167 bound_to 10162
  156.5316  130.8523  151.2718 H   0  0  0  0  0  0  0  0  0  0  0  0  # atno 10718 bound_to 10713
  152.9831  135.5678  154.5218 H   0  0  0  0  0  0  0  0  0  0  0  0  # atno 10763 bound_to 10752
  154.4704  135.2784  155.1649 H   0  0  0  0  0  0  0  0  0  0  0  0  # atno 10764 bound_to 10752
  154.3199  135.6271  153.5556 H   0  0  0  0  0  0  0  0  0  0  0  0  # atno 10765 bound_to 10752
  140.0781  134.5376  155.8975 H   0  0  0  0  0  0  0  0  0  0  0  0  # atno 11005 bound_to 11000
  146.1994  139.5280  142.9753 LP  0  0  0  0  0  0  0  0  0  0  0  0  # atno 17320 bound_to 7965
  145.6092  141.0342  143.1976 LP  0  0  0  0  0  0  0  0  0  0  0  0  # atno 17321 bound_to 7965
  139.5524  144.2362  152.1553 LP  0  0  0  0  0  0  0  0  0  0  0  0  # atno 17342 bound_to 10162
  140.1606  144.5030  150.6635 LP  0  0  0  0  0  0  0  0  0  0  0  0  # atno 17343 bound_to 10162
  157.7421  130.9883  150.2490 LP  0  0  0  0  0  0  0  0  0  0  0  0  # atno 17370 bound_to 10713
  156.3054  130.3764  149.7711 LP  0  0  0  0  0  0  0  0  0  0  0  0  # atno 17371 bound_to 10713
  141.2037  133.6634  156.6077 LP  0  0  0  0  0  0  0  0  0  0  0  0  # atno 17394 bound_to 11000
  140.3527  134.7754  157.4478 LP  0  0  0  0  0  0  0  0  0  0  0  0  # atno 17395 bound_to 11000

$$$$
