AV-unprocessed.smi:2309|AV-procd|sdf|9254|dock5
  -GOLD-   2272012473D 1   1.00000     0.00000
 Structure written by MMmdl.
 34 35  0  0  0  0  0  0  0  0  1 V2000
  145.2918  141.0002  156.9064 C   0  0  0  0  0  0  0  0  0  0  0  0
  146.7762  141.0120  156.5870 C   0  0  0  0  0  0  0  0  0  0  0  0
  147.6325  140.9533  157.6903 N   0  0  0  0  0  0  0  0  0  0  0  0
  148.9133  140.9619  157.5139 C   0  0  0  0  0  0  0  0  0  0  0  0
  149.4814  141.0268  156.2309 N   0  0  0  0  0  0  0  0  0  0  0  0
  150.9532  141.0366  156.1690 C   0  0  0  0  0  0  0  0  0  0  0  0
  151.5970  140.2897  157.3587 C   0  0  1  0  0  0  0  0  0  0  0  0
  152.7301  139.5861  156.8855 O   0  0  0  0  0  0  0  0  0  0  0  0
  151.9651  141.2657  158.4749 C   0  0  0  0  0  0  0  0  0  0  0  0
  151.5136  142.6046  158.4086 C   0  0  0  0  0  0  0  0  0  0  0  0
  151.8315  143.5221  159.4277 C   0  0  0  0  0  0  0  0  0  0  0  0
  151.2739  145.1513  159.3259 Cl  0  0  0  0  0  0  0  0  0  0  0  0
  152.6016  143.1089  160.5296 C   0  0  0  0  0  0  0  0  0  0  0  0
  153.0470  141.7772  160.6122 C   0  0  0  0  0  0  0  0  0  0  0  0
  152.7309  140.8535  159.5957 C   0  0  0  0  0  0  0  0  0  0  0  0
  153.2910  139.2267  159.7677 Cl  0  0  0  0  0  0  0  0  0  0  0  0
  148.7185  141.0877  155.1012 C   0  0  0  0  0  0  0  0  0  0  0  0
  149.2260  141.1494  153.9800 O   0  0  0  0  0  0  0  0  0  0  0  0
  147.2626  141.0775  155.3176 C   0  0  0  0  0  0  0  0  0  0  0  0
  146.3794  141.1465  154.0781 C   0  0  0  0  0  0  0  0  0  0  0  0
  144.8085  140.1387  156.4451 H   0  0  0  0  0  0  0  0  0  0  0  0
  144.8145  141.9082  156.5369 H   0  0  0  0  0  0  0  0  0  0  0  0
  145.1170  140.9446  157.9817 H   0  0  0  0  0  0  0  0  0  0  0  0
  149.6240  140.9242  158.3412 H   0  0  0  0  0  0  0  0  0  0  0  0
  151.3315  140.6453  155.2222 H   0  0  0  0  0  0  0  0  0  0  0  0
  151.2841  142.0771  156.1788 H   0  0  0  0  0  0  0  0  0  0  0  0
  150.9136  139.5359  157.7472 H   0  0  0  0  0  0  0  0  0  0  0  0
  152.7592  138.7433  157.3123 H   0  0  0  0  0  0  0  0  0  0  0  0
  150.9143  142.9357  157.5730 H   0  0  0  0  0  0  0  0  0  0  0  0
  152.8474  143.8096  161.3140 H   0  0  0  0  0  0  0  0  0  0  0  0
  153.6318  141.4621  161.4639 H   0  0  0  0  0  0  0  0  0  0  0  0
  146.5767  142.0669  153.5275 H   0  0  0  0  0  0  0  0  0  0  0  0
  145.3152  141.1231  154.3065 H   0  0  0  0  0  0  0  0  0  0  0  0
  146.5908  140.3048  153.4179 H   0  0  0  0  0  0  0  0  0  0  0  0
  1  2  1  0  0  0  0
  1 21  1  0  0  0  0
  1 22  1  0  0  0  0
  1 23  1  0  0  0  0
  2 19  2  0  0  0  0
  2  3  1  0  0  0  0
  3  4  2  0  0  0  0
  4  5  1  0  0  0  0
  4 24  1  0  0  0  0
  5  6  1  0  0  0  0
  5 17  1  0  0  0  0
  6  7  1  0  0  0  0
  6 25  1  0  0  0  0
  6 26  1  0  0  0  0
  7  8  1  0  0  0  0
  7  9  1  0  0  0  0
  7 27  1  0  0  0  0
  8 28  1  0  0  0  0
  9 15  1  0  0  0  0
  9 10  2  0  0  0  0
 10 11  1  0  0  0  0
 10 29  1  0  0  0  0
 11 12  1  0  0  0  0
 11 13  2  0  0  0  0
 13 14  1  0  0  0  0
 13 30  1  0  0  0  0
 14 15  2  0  0  0  0
 14 31  1  0  0  0  0
 15 16  1  0  0  0  0
 17 18  2  0  0  0  0
 17 19  1  0  0  0  0
 19 20  1  0  0  0  0
 20 32  1  0  0  0  0
 20 33  1  0  0  0  0
 20 34  1  0  0  0  0
M  END
> <s_m_source_file>
AV-unprocessed.smi

> <i_m_source_file_index>
2309

> <i_lp_mmshare_version>
43012

> <i_f3d_flags>
0

> <s_epik_input>
W0NIM11jMW5bY0hdbihjKD1PKWMxW0NIM10pW0NIMl1bQ0BIXShbT0hdKWMyW2NIXWMoQ2wpW2NIXVtjSF1jMkNs

> <s_epik_cmdline>
J2VwaWtfcHl0aG9uJywgJy1waCcsICc3LjAnLCAnLXRuJywgJzgnLCAnLW1hJywgJzIwMCcsICctbWV0YWxfYmluZGluZycsICctaW1hZScsICc8aW5maWxlLm1hZT4nLCAnLW9tYWUnLCAnPG91dGZpbGUubWFlPic=

> <r_lp_tautomer_probability>
1

> <r_epik_Ionization_Penalty>
5.09224e-05

> <r_epik_Ionization_Penalty_Charging>
7.56727e-08

> <r_epik_Ionization_Penalty_Neutral>
5.08468e-05

> <r_epik_State_Penalty>
-0

> <r_epik_Charging_Adjusted_Penalty>
7.56727e-08

> <i_epik_Tot_Q>
0

> <i_epik_Tot_abs_Q>
0

> <r_epik_Metal_State_Penalty>
-0

> <b_epik_Metal_Only>
0

> <s_lp_Force_Field>
OPLS_2005

> <r_lp_Energy>
18.7705

> <b_lp_Chiralities_Consistent>
1

> <s_lp_Variant>
AV-unprocessed.smi:2309-2

> <Gold.Version>
5.8.1

> <Gold.Id.Protein>
6NUR|6NUR_protein|mol2

> <Gold.PLP.Fitness>
47.0108

> <Gold.PLP.PLP>
-43.3454

> <Gold.PLP.part.hbond>
-3.0000

> <Gold.PLP.part.metal>
0.0000

> <Gold.PLP.part.buried>
-5.4147

> <Gold.PLP.part.nonpolar>
-36.8717

> <Gold.PLP.part.repulsive>
1.2225

> <Gold.PLP.ligand.clash>
0.0000

> <Gold.PLP.ligand.torsion>
1.0552

> <Gold.PLP.Chemscore.Hbond>
1.9223

> <Gold.PLP.Chemscore.CHOScore>
0.0000

> <Gold.PLP.Chemscore.Metal>
0.0000

> <Gold.Chemscore.Hbonds>
donor molecule, donor type, donor heavy atom, donor atom, acceptor molecule, acceptor atom, score
      P1  H  7997  8010       L1     8  1.00
      P1  H  8011  8017       L1    18  0.59

> <Gold.PLP.Chemscore.Internal.Correction>
0.0088

> <Gold.Rescore>
     Score         DG    S(hbond)    S(metal)    S(lipo)     H(rot)  DE(clash)    DE(int)     intcor
     18.25     -20.51       2.10        0.00     110.62       1.93       0.47       1.79       ----

> <Gold.Chemscore.Fitness>
18.2535

> <Gold.Chemscore.DG>
-20.5146

> <Gold.Chemscore.ZeroCoef>
-5.4800

> <Gold.Chemscore.Hbond>
2.1030

> <Gold.Chemscore.Metal>
0.0000

> <Gold.Chemscore.Lipo>
110.6180

> <Gold.Chemscore.Internal_Hbond>
0.0000

> <Gold.Chemscore.DEClash>
0.4687

> <Gold.Chemscore.DEInternal>
1.7923

> <Gold.Chemscore.Rot>
1.9265

> <Gold.Chemscore.Internal.Correction>
   9.000000E+99

> <Gold.Chemscore.Hbonds>
donor molecule, donor type, donor heavy atom, donor atom, acceptor molecule, acceptor atom, score
      P1  H  7989  7998       L1    18  0.02
      P1  H  7997  8010       L1     8  0.70
      P1  H  8011  8017       L1    18  0.57

> <Gold.Chemscore.Hbond.Weighted>
-7.0240

> <Gold.Chemscore.Metal.Weighted>
-0.0000

> <Gold.Chemscore.Lipo.Weighted>
-12.9423

> <Gold.Chemscore.Internal_Hbond.Weighted>
0.0000

> <Gold.Chemscore.DEClash.Weighted>
0.4687

> <Gold.Chemscore.DEInternal.Weighted>
1.7923

> <Gold.Chemscore.Rot.Weighted>
4.9317

> <Gold.Chemscore.Internal.Correction.Weighted>
   9.000000E+99

> <Gold.Protein.RotatedTorsions>
[ 6907 6896 6895 6894 ] final  -83.78 input  -60.11 | X-H torsion
[ 7974 7965 7964 7962 ] final  -70.76 input  175.53 | X-H torsion
[ 8008 7997 7996 7995 ] final   64.99 input   59.86 | X-H torsion
[ 10167 10162 10161 10158 ] final  -57.44 input  -65.29 | X-H torsion
[ 10718 10713 10712 10709 ] final -164.24 input   66.30 | X-H torsion
[ 10763 10752 10751 10750 ] final   72.05 input  -60.55 | X-H torsion
[ 11005 11000 10999 10996 ] final   46.24 input  -57.11 | X-H torsion

> <Gold.Protein.ActiveResidues>
 VAL166  LYS551  ARG553  GLY616  TRP617  ASP618  TYR619  PRO620  LYS621  CYS622 
 ASP623  PHE694  ASN695  SER759  ASP760  ASP761  ALA762  ILE779  LEU786  VAL792 
 PHE793  MET794  SER795  GLU796  ALA797  LYS798  CYS799  TRP800  GLU811  SER814 

> <Gold.Protein.RotatedAtoms>
  150.6882  134.3460  159.4888 H   0  0  0  0  0  0  0  0  0  0  0  0  # atno 6907 bound_to 6896
  152.1307  134.9134  160.0568 H   0  0  0  0  0  0  0  0  0  0  0  0  # atno 6908 bound_to 6896
  152.0305  133.3901  159.4332 H   0  0  0  0  0  0  0  0  0  0  0  0  # atno 6909 bound_to 6896
  145.6868  140.9168  143.0803 H   0  0  0  0  0  0  0  0  0  0  0  0  # atno 7974 bound_to 7965
  155.6548  140.3497  155.4761 H   0  0  0  0  0  0  0  0  0  0  0  0  # atno 8008 bound_to 7997
  155.9818  140.1176  157.0743 H   0  0  0  0  0  0  0  0  0  0  0  0  # atno 8009 bound_to 7997
  154.4194  140.1137  156.5432 H   0  0  0  0  0  0  0  0  0  0  0  0  # atno 8010 bound_to 7997
  140.6258  143.2437  151.5368 H   0  0  0  0  0  0  0  0  0  0  0  0  # atno 10167 bound_to 10162
  156.6362  130.8950  151.2987 H   0  0  0  0  0  0  0  0  0  0  0  0  # atno 10718 bound_to 10713
  153.0435  135.5114  154.7685 H   0  0  0  0  0  0  0  0  0  0  0  0  # atno 10763 bound_to 10752
  154.6604  135.2938  154.9876 H   0  0  0  0  0  0  0  0  0  0  0  0  # atno 10764 bound_to 10752
  154.0730  135.6675  153.4879 H   0  0  0  0  0  0  0  0  0  0  0  0  # atno 10765 bound_to 10752
  140.1386  134.4612  155.8466 H   0  0  0  0  0  0  0  0  0  0  0  0  # atno 11005 bound_to 11000
  144.7009  139.8769  143.7444 LP  0  0  0  0  0  0  0  0  0  0  0  0  # atno 17320 bound_to 7965
  146.0917  139.3907  143.0402 LP  0  0  0  0  0  0  0  0  0  0  0  0  # atno 17321 bound_to 7965
  139.5478  144.2474  152.1475 LP  0  0  0  0  0  0  0  0  0  0  0  0  # atno 17342 bound_to 10162
  140.1705  144.4940  150.6582 LP  0  0  0  0  0  0  0  0  0  0  0  0  # atno 17343 bound_to 10162
  157.7185  130.9527  150.1346 LP  0  0  0  0  0  0  0  0  0  0  0  0  # atno 17370 bound_to 10713
  156.2195  130.3673  149.8573 LP  0  0  0  0  0  0  0  0  0  0  0  0  # atno 17371 bound_to 10713
  141.2182  133.6824  156.7205 LP  0  0  0  0  0  0  0  0  0  0  0  0  # atno 17394 bound_to 11000
  140.2750  134.8362  157.3882 LP  0  0  0  0  0  0  0  0  0  0  0  0  # atno 17395 bound_to 11000

$$$$
