AV-unprocessed.smi:547|AV-procd|sdf|2889|dock1
  -GOLD-   2262023383D 1   1.00000     0.00000
 Structure written by MMmdl.
 37 38  0  0  0  0  0  0  0  0  1 V2000
  151.2266  136.9781  159.9601 O   0  0  0  0  0  0  0  0  0  0  0  0
  150.5947  137.6392  159.1357 C   0  0  0  0  0  0  0  0  0  0  0  0
  149.2845  137.0908  158.5490 C   0  0  0  0  0  0  0  0  0  0  0  0
  148.4195  136.3181  159.4707 N   0  0  0  0  0  0  0  0  0  0  0  0
  147.7625  137.0291  160.4693 N   0  0  0  0  0  0  0  0  0  0  0  0
  146.9860  136.4124  161.2909 C   0  0  0  0  0  0  0  0  0  0  0  0
  146.7703  134.9856  161.2199 C   0  0  0  0  0  0  0  0  0  0  0  0
  145.7159  134.2111  162.3496 Cl  0  0  0  0  0  0  0  0  0  0  0  0
  147.4198  134.2948  160.2502 C   0  0  0  0  0  0  0  0  0  0  0  0
  147.2150  132.5826  160.1057 Cl  0  0  0  0  0  0  0  0  0  0  0  0
  148.3140  134.9653  159.2952 C   0  0  0  0  0  0  0  0  0  0  0  0
  148.9225  134.3665  158.4072 O   0  0  0  0  0  0  0  0  0  0  0  0
  150.9819  138.8481  158.7021 N   0  0  0  0  0  0  0  0  0  0  0  0
  152.1327  139.5910  159.2042 C   0  0  0  0  0  0  0  0  0  0  0  0
  152.1509  141.0560  158.7129 C   0  0  0  0  0  0  0  0  0  0  0  0
  152.9204  141.9977  159.6671 C   0  0  0  0  0  0  0  0  0  0  0  0
  152.9191  143.4467  159.1547 C   0  0  0  0  0  0  0  0  0  0  0  0
  151.4877  143.9567  158.9307 C   0  0  0  0  0  0  0  0  0  0  0  0
  150.7148  143.0306  157.9795 C   0  0  0  0  0  0  0  0  0  0  0  0
  150.7180  141.5797  158.4888 C   0  0  0  0  0  0  0  0  0  0  0  0
  148.7225  137.9319  158.1375 H   0  0  0  0  0  0  0  0  0  0  0  0
  149.5391  136.4538  157.7005 H   0  0  0  0  0  0  0  0  0  0  0  0
  146.4504  136.9343  162.0840 H   0  0  0  0  0  0  0  0  0  0  0  0
  150.4074  139.3096  158.0119 H   0  0  0  0  0  0  0  0  0  0  0  0
  152.1419  139.5554  160.2950 H   0  0  0  0  0  0  0  0  0  0  0  0
  153.0347  139.0762  158.8722 H   0  0  0  0  0  0  0  0  0  0  0  0
  152.6585  141.0788  157.7472 H   0  0  0  0  0  0  0  0  0  0  0  0
  152.4724  141.9616  160.6611 H   0  0  0  0  0  0  0  0  0  0  0  0
  153.9530  141.6673  159.7823 H   0  0  0  0  0  0  0  0  0  0  0  0
  153.4377  144.0926  159.8636 H   0  0  0  0  0  0  0  0  0  0  0  0
  153.4783  143.5031  158.2196 H   0  0  0  0  0  0  0  0  0  0  0  0
  150.9668  144.0166  159.8871 H   0  0  0  0  0  0  0  0  0  0  0  0
  151.5117  144.9695  158.5276 H   0  0  0  0  0  0  0  0  0  0  0  0
  149.6890  143.3835  157.8696 H   0  0  0  0  0  0  0  0  0  0  0  0
  151.1631  143.0703  156.9859 H   0  0  0  0  0  0  0  0  0  0  0  0
  150.1960  140.9429  157.7736 H   0  0  0  0  0  0  0  0  0  0  0  0
  150.1543  141.5218  159.4211 H   0  0  0  0  0  0  0  0  0  0  0  0
  1  2  2  0  0  0  0
  2  3  1  0  0  0  0
  2 13  1  0  0  0  0
  3  4  1  0  0  0  0
  3 21  1  0  0  0  0
  3 22  1  0  0  0  0
  4 11  1  0  0  0  0
  4  5  1  0  0  0  0
  5  6  2  0  0  0  0
  6  7  1  0  0  0  0
  6 23  1  0  0  0  0
  7  8  1  0  0  0  0
  7  9  2  0  0  0  0
  9 10  1  0  0  0  0
  9 11  1  0  0  0  0
 11 12  2  0  0  0  0
 13 14  1  0  0  0  0
 13 24  1  0  0  0  0
 14 15  1  0  0  0  0
 14 25  1  0  0  0  0
 14 26  1  0  0  0  0
 15 20  1  0  0  0  0
 15 16  1  0  0  0  0
 15 27  1  0  0  0  0
 16 17  1  0  0  0  0
 16 28  1  0  0  0  0
 16 29  1  0  0  0  0
 17 18  1  0  0  0  0
 17 30  1  0  0  0  0
 17 31  1  0  0  0  0
 18 19  1  0  0  0  0
 18 32  1  0  0  0  0
 18 33  1  0  0  0  0
 19 20  1  0  0  0  0
 19 34  1  0  0  0  0
 19 35  1  0  0  0  0
 20 36  1  0  0  0  0
 20 37  1  0  0  0  0
M  END
> <s_m_source_file>
AV-unprocessed.smi

> <i_m_source_file_index>
547

> <i_lp_mmshare_version>
43012

> <i_f3d_flags>
0

> <s_epik_input>
W0NIMl0xW0NIMl1bQ0gyXVtDSDJdW0NIMl1bQ0hdMVtDSDJdW05IXUMoPU8pW0NIMl1uMm5bY0hdYyhDbCljKENsKWMyPU8=

> <s_epik_cmdline>
J2VwaWtfcHl0aG9uJywgJy1waCcsICc3LjAnLCAnLXRuJywgJzgnLCAnLW1hJywgJzIwMCcsICctbWV0YWxfYmluZGluZycsICctaW1hZScsICc8aW5maWxlLm1hZT4nLCAnLW9tYWUnLCAnPG91dGZpbGUubWFlPic=

> <r_lp_tautomer_probability>
1

> <r_epik_Ionization_Penalty>
1.98263e-08

> <r_epik_Ionization_Penalty_Charging>
2.84997e-11

> <r_epik_Ionization_Penalty_Neutral>
1.97978e-08

> <r_epik_State_Penalty>
-0

> <r_epik_Charging_Adjusted_Penalty>
2.84997e-11

> <i_epik_Tot_Q>
0

> <i_epik_Tot_abs_Q>
0

> <r_epik_Metal_State_Penalty>
-0

> <b_epik_Metal_Only>
0

> <s_lp_Force_Field>
OPLS_2005

> <r_lp_Energy>
30.5704

> <b_lp_Chiralities_Consistent>
1

> <s_lp_Variant>
AV-unprocessed.smi:547-1

> <Gold.Version>
5.8.1

> <Gold.Id.Protein>
6NUR|6NUR_protein|mol2

> <Gold.PLP.Fitness>
48.6777

> <Gold.PLP.PLP>
-39.4365

> <Gold.PLP.part.hbond>
-4.0000

> <Gold.PLP.part.metal>
0.0000

> <Gold.PLP.part.buried>
-3.6306

> <Gold.PLP.part.nonpolar>
-33.7146

> <Gold.PLP.part.repulsive>
0.1386

> <Gold.PLP.ligand.clash>
0.0000

> <Gold.PLP.ligand.torsion>
0.8379

> <Gold.PLP.Chemscore.Hbond>
3.6320

> <Gold.PLP.Chemscore.CHOScore>
0.0000

> <Gold.PLP.Chemscore.Metal>
0.0000

> <Gold.Chemscore.Hbonds>
donor molecule, donor type, donor heavy atom, donor atom, acceptor molecule, acceptor atom, score
      P1  H  6896  6907       L1    12  0.99
      P1  H  6896  6908       L1     1  1.00
      P1  H  6931  6943       L1     5  0.33
      P1  H  6934  6947       L1     5  0.66

> <Gold.PLP.Chemscore.Internal.Correction>
0.0210

> <Gold.Rescore>
     Score         DG    S(hbond)    S(metal)    S(lipo)     H(rot)  DE(clash)    DE(int)     intcor
     19.65     -20.46       2.15        0.00     104.15       1.71       0.17       0.65       ----

> <Gold.Chemscore.Fitness>
19.6498

> <Gold.Chemscore.DG>
-20.4643

> <Gold.Chemscore.ZeroCoef>
-5.4800

> <Gold.Chemscore.Hbond>
2.1484

> <Gold.Chemscore.Metal>
0.0000

> <Gold.Chemscore.Lipo>
104.1531

> <Gold.Chemscore.Internal_Hbond>
0.0000

> <Gold.Chemscore.DEClash>
0.1656

> <Gold.Chemscore.DEInternal>
0.6490

> <Gold.Chemscore.Rot>
1.7099

> <Gold.Chemscore.Internal.Correction>
   9.000000E+99

> <Gold.Chemscore.Hbonds>
donor molecule, donor type, donor heavy atom, donor atom, acceptor molecule, acceptor atom, score
      P1  H  6896  6907       L1    12  0.32
      P1  H  6896  6908       L1     1  0.96
      P1  H  6931  6943       L1     5  0.11
      P1  H  6934  6947       L1     5  0.15

> <Gold.Chemscore.Hbond.Weighted>
-7.1757

> <Gold.Chemscore.Metal.Weighted>
-0.0000

> <Gold.Chemscore.Lipo.Weighted>
-12.1859

> <Gold.Chemscore.Internal_Hbond.Weighted>
0.0000

> <Gold.Chemscore.DEClash.Weighted>
0.1656

> <Gold.Chemscore.DEInternal.Weighted>
0.6490

> <Gold.Chemscore.Rot.Weighted>
4.3774

> <Gold.Chemscore.Internal.Correction.Weighted>
   9.000000E+99

> <Gold.Protein.RotatedTorsions>
[ 6907 6896 6895 6894 ] final -109.31 input  -60.11 | X-H torsion
[ 7974 7965 7964 7962 ] final  170.70 input  175.53 | X-H torsion
[ 8008 7997 7996 7995 ] final  -33.75 input   59.86 | X-H torsion
[ 10167 10162 10161 10158 ] final  -14.54 input  -65.29 | X-H torsion
[ 10718 10713 10712 10709 ] final   84.47 input   66.30 | X-H torsion
[ 10763 10752 10751 10750 ] final   -7.30 input  -60.55 | X-H torsion
[ 11005 11000 10999 10996 ] final  142.53 input  -57.11 | X-H torsion

> <Gold.Protein.ActiveResidues>
 VAL166  LYS551  ARG553  GLY616  TRP617  ASP618  TYR619  PRO620  LYS621  CYS622 
 ASP623  PHE694  ASN695  SER759  ASP760  ASP761  ALA762  ILE779  LEU786  VAL792 
 PHE793  MET794  SER795  GLU796  ALA797  LYS798  CYS799  TRP800  GLU811  SER814 

> <Gold.Protein.RotatedAtoms>
  150.7554  133.9548  159.3496 H   0  0  0  0  0  0  0  0  0  0  0  0  # atno 6907 bound_to 6896
  151.7469  135.0840  160.0334 H   0  0  0  0  0  0  0  0  0  0  0  0  # atno 6908 bound_to 6896
  152.3492  133.6122  159.5968 H   0  0  0  0  0  0  0  0  0  0  0  0  # atno 6909 bound_to 6896
  144.7316  139.9241  143.6421 H   0  0  0  0  0  0  0  0  0  0  0  0  # atno 7974 bound_to 7965
  154.4140  140.1702  156.1938 H   0  0  0  0  0  0  0  0  0  0  0  0  # atno 8008 bound_to 7997
  155.9581  140.3395  155.6443 H   0  0  0  0  0  0  0  0  0  0  0  0  # atno 8009 bound_to 7997
  155.6783  140.0719  157.2485 H   0  0  0  0  0  0  0  0  0  0  0  0  # atno 8010 bound_to 7997
  140.7203  143.5310  150.9519 H   0  0  0  0  0  0  0  0  0  0  0  0  # atno 10167 bound_to 10162
  157.6898  131.0134  150.2678 H   0  0  0  0  0  0  0  0  0  0  0  0  # atno 10718 bound_to 10713
  153.4244  135.7010  153.6272 H   0  0  0  0  0  0  0  0  0  0  0  0  # atno 10763 bound_to 10752
  153.4713  135.3714  155.2393 H   0  0  0  0  0  0  0  0  0  0  0  0  # atno 10764 bound_to 10752
  154.8723  135.4044  154.3618 H   0  0  0  0  0  0  0  0  0  0  0  0  # atno 10765 bound_to 10752
  140.0484  134.9268  157.0972 H   0  0  0  0  0  0  0  0  0  0  0  0  # atno 11005 bound_to 11000
  146.0907  139.3897  143.0407 LP  0  0  0  0  0  0  0  0  0  0  0  0  # atno 17320 bound_to 7965
  145.7714  140.9895  143.1147 LP  0  0  0  0  0  0  0  0  0  0  0  0  # atno 17321 bound_to 7965
  139.9031  143.6812  152.3128 LP  0  0  0  0  0  0  0  0  0  0  0  0  # atno 17342 bound_to 10162
  139.7168  144.7610  151.1020 LP  0  0  0  0  0  0  0  0  0  0  0  0  # atno 17343 bound_to 10162
  156.3246  130.3791  149.7544 LP  0  0  0  0  0  0  0  0  0  0  0  0  # atno 17370 bound_to 10713
  156.5104  130.8169  151.3166 LP  0  0  0  0  0  0  0  0  0  0  0  0  # atno 17371 bound_to 10713
  140.3956  134.2137  155.7165 LP  0  0  0  0  0  0  0  0  0  0  0  0  # atno 17394 bound_to 11000
  141.1918  133.8186  157.0864 LP  0  0  0  0  0  0  0  0  0  0  0  0  # atno 17395 bound_to 11000

$$$$
