AV-unprocessed.smi:2389|AV-procd|sdf|9472|dock10
  -GOLD-   2272013103D 1   1.00000     0.00000
 Structure written by MMmdl.
 34 35  0  0  0  0  0  0  0  0  1 V2000
  154.4033  140.5074  161.9201 C   0  0  0  0  0  0  0  0  0  0  0  0
  153.9218  141.1837  160.6343 C   0  0  0  0  0  0  0  0  0  0  0  0
  152.6761  141.8252  160.8924 O   0  0  0  0  0  0  0  0  0  0  0  0
  152.2617  142.8246  160.0358 C   0  0  0  0  0  0  0  0  0  0  0  0
  153.1933  143.3711  159.1330 C   0  0  0  0  0  0  0  0  0  0  0  0
  152.7674  144.3926  158.2655 C   0  0  0  0  0  0  0  0  0  0  0  0
  151.4303  144.8282  158.3324 C   0  0  0  0  0  0  0  0  0  0  0  0
  150.5524  144.2308  159.2638 C   0  0  0  0  0  0  0  0  0  0  0  0
  149.2255  144.7374  159.2555 N   0  0  0  0  0  0  0  0  0  0  0  0
  148.3238  144.7187  160.2534 C   0  0  0  0  0  0  0  0  0  0  0  0
  148.5122  144.2458  161.3749 O   0  0  0  0  0  0  0  0  0  0  0  0
  147.1692  145.2850  159.8747 N   0  0  0  0  0  0  0  0  0  0  0  0
  145.9905  145.4215  160.7203 C   0  0  0  0  0  0  0  0  0  0  0  0
  145.1815  144.1515  160.9025 C   0  0  0  0  0  0  0  0  0  0  0  0
  144.5693  143.7983  162.2387 C   0  0  0  0  0  0  0  0  0  0  0  0
  145.7388  143.0037  161.7117 C   0  0  0  0  0  0  0  0  0  0  0  0
  150.9749  143.2466  160.0949 N   0  0  0  0  0  0  0  0  0  0  0  0
  155.3593  140.0078  161.7625 H   0  0  0  0  0  0  0  0  0  0  0  0
  153.6872  139.7590  162.2600 H   0  0  0  0  0  0  0  0  0  0  0  0
  154.5337  141.2357  162.7209 H   0  0  0  0  0  0  0  0  0  0  0  0
  154.6633  141.9125  160.3030 H   0  0  0  0  0  0  0  0  0  0  0  0
  153.8102  140.4345  159.8486 H   0  0  0  0  0  0  0  0  0  0  0  0
  154.2128  143.0152  159.1081 H   0  0  0  0  0  0  0  0  0  0  0  0
  153.4549  144.8360  157.5604 H   0  0  0  0  0  0  0  0  0  0  0  0
  151.0871  145.6124  157.6734 H   0  0  0  0  0  0  0  0  0  0  0  0
  148.9265  145.1579  158.3883 H   0  0  0  0  0  0  0  0  0  0  0  0
  147.0999  145.6472  158.9350 H   0  0  0  0  0  0  0  0  0  0  0  0
  146.3289  145.7504  161.7030 H   0  0  0  0  0  0  0  0  0  0  0  0
  145.3472  146.2159  160.3379 H   0  0  0  0  0  0  0  0  0  0  0  0
  144.6119  143.8647  160.0204 H   0  0  0  0  0  0  0  0  0  0  0  0
  144.7537  144.4702  163.0748 H   0  0  0  0  0  0  0  0  0  0  0  0
  143.5909  143.3225  162.2311 H   0  0  0  0  0  0  0  0  0  0  0  0
  145.5417  141.9950  161.3548 H   0  0  0  0  0  0  0  0  0  0  0  0
  146.7015  143.1463  162.1991 H   0  0  0  0  0  0  0  0  0  0  0  0
  1  2  1  0  0  0  0
  1 18  1  0  0  0  0
  1 19  1  0  0  0  0
  1 20  1  0  0  0  0
  2  3  1  0  0  0  0
  2 21  1  0  0  0  0
  2 22  1  0  0  0  0
  3  4  1  0  0  0  0
  4 17  1  0  0  0  0
  4  5  2  0  0  0  0
  5  6  1  0  0  0  0
  5 23  1  0  0  0  0
  6  7  2  0  0  0  0
  6 24  1  0  0  0  0
  7  8  1  0  0  0  0
  7 25  1  0  0  0  0
  8  9  1  0  0  0  0
  8 17  2  0  0  0  0
  9 10  1  0  0  0  0
  9 26  1  0  0  0  0
 10 11  2  0  0  0  0
 10 12  1  0  0  0  0
 12 13  1  0  0  0  0
 12 27  1  0  0  0  0
 13 14  1  0  0  0  0
 13 28  1  0  0  0  0
 13 29  1  0  0  0  0
 14 16  1  0  0  0  0
 14 15  1  0  0  0  0
 14 30  1  0  0  0  0
 15 16  1  0  0  0  0
 15 31  1  0  0  0  0
 15 32  1  0  0  0  0
 16 33  1  0  0  0  0
 16 34  1  0  0  0  0
M  END
> <s_m_source_file>
AV-unprocessed.smi

> <i_m_source_file_index>
2389

> <i_lp_mmshare_version>
43012

> <i_f3d_flags>
0

> <s_epik_input>
W0NIM11bQ0gyXU9jMVtjSF1bY0hdW2NIXWMobjEpW05IXUMoPU8pW05IXVtDSDJdW0NIXTJbQ0gyXVtDSDJdMg==

> <s_epik_cmdline>
J2VwaWtfcHl0aG9uJywgJy1waCcsICc3LjAnLCAnLXRuJywgJzgnLCAnLW1hJywgJzIwMCcsICctbWV0YWxfYmluZGluZycsICctaW1hZScsICc8aW5maWxlLm1hZT4nLCAnLW9tYWUnLCAnPG91dGZpbGUubWFlPic=

> <r_lp_tautomer_probability>
1

> <r_epik_Ionization_Penalty>
4.07356e-05

> <r_epik_Ionization_Penalty_Charging>
0

> <r_epik_Ionization_Penalty_Neutral>
4.07356e-05

> <r_epik_State_Penalty>
-0

> <r_epik_Charging_Adjusted_Penalty>
0

> <i_epik_Tot_Q>
0

> <i_epik_Tot_abs_Q>
0

> <r_epik_Metal_State_Penalty>
-0

> <b_epik_Metal_Only>
0

> <s_lp_Force_Field>
OPLS_2005

> <r_lp_Energy>
13.6513

> <b_lp_Chiralities_Consistent>
1

> <s_lp_Variant>
AV-unprocessed.smi:2389-1

> <Gold.Version>
5.8.1

> <Gold.Id.Protein>
6NUR|6NUR_protein|mol2

> <Gold.PLP.Fitness>
50.7510

> <Gold.PLP.PLP>
-43.3789

> <Gold.PLP.part.hbond>
-3.9623

> <Gold.PLP.part.metal>
0.0000

> <Gold.PLP.part.buried>
-6.0775

> <Gold.PLP.part.nonpolar>
-34.4486

> <Gold.PLP.part.repulsive>
0.6012

> <Gold.PLP.ligand.clash>
0.0000

> <Gold.PLP.ligand.torsion>
0.7926

> <Gold.PLP.Chemscore.Hbond>
2.8000

> <Gold.PLP.Chemscore.CHOScore>
0.0000

> <Gold.PLP.Chemscore.Metal>
0.0000

> <Gold.Chemscore.Hbonds>
donor molecule, donor type, donor heavy atom, donor atom, acceptor molecule, acceptor atom, score
      L1  H     9    26       P1  8029  1.00
      L1  H    12    27       P1  8029  1.00
      P1  H  6933  6944       L1    11  0.83

> <Gold.PLP.Chemscore.Internal.Correction>
0.5574

> <Gold.Rescore>
     Score         DG    S(hbond)    S(metal)    S(lipo)     H(rot)  DE(clash)    DE(int)     intcor
     18.26     -20.35       2.71        0.00      85.40       1.62       0.03       2.06       ----

> <Gold.Chemscore.Fitness>
18.2571

> <Gold.Chemscore.DG>
-20.3545

> <Gold.Chemscore.ZeroCoef>
-5.4800

> <Gold.Chemscore.Hbond>
2.7057

> <Gold.Chemscore.Metal>
0.0000

> <Gold.Chemscore.Lipo>
85.4011

> <Gold.Chemscore.Internal_Hbond>
0.0000

> <Gold.Chemscore.DEClash>
0.0335

> <Gold.Chemscore.DEInternal>
2.0640

> <Gold.Chemscore.Rot>
1.6228

> <Gold.Chemscore.Internal.Correction>
   9.000000E+99

> <Gold.Chemscore.Hbonds>
donor molecule, donor type, donor heavy atom, donor atom, acceptor molecule, acceptor atom, score
      L1  H     9    26       P1  8029  0.90
      L1  H    12    27       P1  8029  0.95
      P1  H  6933  6944       L1    11  0.77

> <Gold.Chemscore.Hbond.Weighted>
-9.0370

> <Gold.Chemscore.Metal.Weighted>
-0.0000

> <Gold.Chemscore.Lipo.Weighted>
-9.9919

> <Gold.Chemscore.Internal_Hbond.Weighted>
0.0000

> <Gold.Chemscore.DEClash.Weighted>
0.0335

> <Gold.Chemscore.DEInternal.Weighted>
2.0640

> <Gold.Chemscore.Rot.Weighted>
4.1545

> <Gold.Chemscore.Internal.Correction.Weighted>
   9.000000E+99

> <Gold.Protein.RotatedTorsions>
[ 6907 6896 6895 6894 ] final -125.38 input  -60.11 | X-H torsion
[ 7974 7965 7964 7962 ] final  -17.77 input  175.53 | X-H torsion
[ 8008 7997 7996 7995 ] final  132.03 input   59.86 | X-H torsion
[ 10167 10162 10161 10158 ] final  103.88 input  -65.29 | X-H torsion
[ 10718 10713 10712 10709 ] final  162.30 input   66.30 | X-H torsion
[ 10763 10752 10751 10750 ] final -116.56 input  -60.55 | X-H torsion
[ 11005 11000 10999 10996 ] final  153.12 input  -57.11 | X-H torsion

> <Gold.Protein.ActiveResidues>
 VAL166  LYS551  ARG553  GLY616  TRP617  ASP618  TYR619  PRO620  LYS621  CYS622 
 ASP623  PHE694  ASN695  SER759  ASP760  ASP761  ALA762  ILE779  LEU786  VAL792 
 PHE793  MET794  SER795  GLU796  ALA797  LYS798  CYS799  TRP800  GLU811  SER814 

> <Gold.Protein.RotatedAtoms>
  150.8861  133.7305  159.2917 H   0  0  0  0  0  0  0  0  0  0  0  0  # atno 6907 bound_to 6896
  151.4870  135.1054  159.9803 H   0  0  0  0  0  0  0  0  0  0  0  0  # atno 6908 bound_to 6896
  152.4791  133.8164  159.7086 H   0  0  0  0  0  0  0  0  0  0  0  0  # atno 6909 bound_to 6896
  146.1925  140.3826  142.8453 H   0  0  0  0  0  0  0  0  0  0  0  0  # atno 7974 bound_to 7965
  156.2977  140.2556  156.3022 H   0  0  0  0  0  0  0  0  0  0  0  0  # atno 8008 bound_to 7997
  154.9406  140.0396  157.2114 H   0  0  0  0  0  0  0  0  0  0  0  0  # atno 8009 bound_to 7997
  154.8130  140.2847  155.5844 H   0  0  0  0  0  0  0  0  0  0  0  0  # atno 8010 bound_to 7997
  139.7225  144.7055  151.0850 H   0  0  0  0  0  0  0  0  0  0  0  0  # atno 10167 bound_to 10162
  157.1244  131.0500  151.2400 H   0  0  0  0  0  0  0  0  0  0  0  0  # atno 10718 bound_to 10713
  154.8523  135.4341  154.1840 H   0  0  0  0  0  0  0  0  0  0  0  0  # atno 10763 bound_to 10752
  153.2924  135.6962  153.7286 H   0  0  0  0  0  0  0  0  0  0  0  0  # atno 10764 bound_to 10752
  153.6448  135.3461  155.3057 H   0  0  0  0  0  0  0  0  0  0  0  0  # atno 10765 bound_to 10752
  140.1369  134.8764  157.2280 H   0  0  0  0  0  0  0  0  0  0  0  0  # atno 11005 bound_to 11000
  144.8514  140.7007  143.6165 LP  0  0  0  0  0  0  0  0  0  0  0  0  # atno 17320 bound_to 7965
  145.3748  139.1650  143.4312 LP  0  0  0  0  0  0  0  0  0  0  0  0  # atno 17321 bound_to 7965
  140.7756  143.5147  150.9609 LP  0  0  0  0  0  0  0  0  0  0  0  0  # atno 17342 bound_to 10162
  139.8835  143.7043  152.3154 LP  0  0  0  0  0  0  0  0  0  0  0  0  # atno 17343 bound_to 10162
  157.4448  130.7564  149.7100 LP  0  0  0  0  0  0  0  0  0  0  0  0  # atno 17370 bound_to 10713
  155.9821  130.4012  150.3433 LP  0  0  0  0  0  0  0  0  0  0  0  0  # atno 17371 bound_to 10713
  140.2771  134.3393  155.7355 LP  0  0  0  0  0  0  0  0  0  0  0  0  # atno 17394 bound_to 11000
  141.2180  133.7456  156.9308 LP  0  0  0  0  0  0  0  0  0  0  0  0  # atno 17395 bound_to 11000

$$$$
