AV-unprocessed.smi:633|AV-procd|sdf|3132|dock9
  -GOLD-   22720 0 53D 1   1.00000     0.00000
 Structure written by MMmdl.
 53 56  0  0  0  0  0  0  0  0  1 V2000
  151.9604  144.3794  157.6716 C   0  0  0  0  0  0  0  0  0  0  0  0
  151.1684  143.5368  158.6875 C   0  0  1  0  0  0  0  0  0  0  0  0
  150.4775  142.3093  158.0612 C   0  0  0  0  0  0  0  0  0  0  0  0
  151.4446  141.2527  157.7713 N   0  0  0  0  0  0  0  0  0  0  0  0
  151.0272  140.1766  156.9591 C   0  0  0  0  0  0  0  0  0  0  0  0
  151.3773  140.1436  155.5891 C   0  0  0  0  0  0  0  0  0  0  0  0
  150.9526  139.0620  154.7940 C   0  0  0  0  0  0  0  0  0  0  0  0
  150.1779  138.0386  155.3874 C   0  0  0  0  0  0  0  0  0  0  0  0
  149.7097  136.8862  154.7001 N   0  0  0  0  0  0  0  0  0  0  0  0
  149.4750  135.6568  155.1902 C   0  0  0  0  0  0  0  0  0  0  0  0
  149.6777  135.3059  156.3523 O   0  0  0  0  0  0  0  0  0  0  0  0
  149.0039  134.8398  154.2354 N   0  0  0  0  0  0  0  0  0  0  0  0
  148.6444  133.4307  154.3879 C   0  0  0  0  0  0  0  0  0  0  0  0
  148.4262  132.7047  153.0683 C   0  0  0  0  0  0  0  0  0  0  0  0
  147.2085  132.9759  152.2169 C   0  0  0  0  0  0  0  0  0  0  0  0
  147.3570  131.6483  152.9260 C   0  0  0  0  0  0  0  0  0  0  0  0
  147.4795  133.1934  155.3376 C   0  0  0  0  0  0  0  0  0  0  0  0
  146.1727  133.9304  155.1696 C   0  0  0  0  0  0  0  0  0  0  0  0
  147.0685  134.2374  156.3489 C   0  0  0  0  0  0  0  0  0  0  0  0
  149.8867  138.1541  156.7608 C   0  0  0  0  0  0  0  0  0  0  0  0
  150.2892  139.1904  157.5255 N   0  0  0  0  0  0  0  0  0  0  0  0
  152.2647  140.8932  158.9235 C   0  0  0  0  0  0  0  0  0  0  0  0
  152.9517  142.1425  159.5039 C   0  0  2  0  0  0  0  0  0  0  0  0
  153.7117  141.8268  160.7965 C   0  0  0  0  0  0  0  0  0  0  0  0
  151.9710  143.1363  159.8005 O   0  0  0  0  0  0  0  0  0  0  0  0
  151.2977  144.7825  156.9052 H   0  0  0  0  0  0  0  0  0  0  0  0
  152.7277  143.7987  157.1601 H   0  0  0  0  0  0  0  0  0  0  0  0
  152.4479  145.2224  158.1616 H   0  0  0  0  0  0  0  0  0  0  0  0
  150.3894  144.1835  159.0922 H   0  0  0  0  0  0  0  0  0  0  0  0
  149.7289  141.9185  158.7520 H   0  0  0  0  0  0  0  0  0  0  0  0
  149.9523  142.6080  157.1528 H   0  0  0  0  0  0  0  0  0  0  0  0
  151.9555  140.9365  155.1385 H   0  0  0  0  0  0  0  0  0  0  0  0
  151.2394  139.0360  153.7543 H   0  0  0  0  0  0  0  0  0  0  0  0
  149.5811  136.9997  153.7053 H   0  0  0  0  0  0  0  0  0  0  0  0
  148.8804  135.2294  153.3124 H   0  0  0  0  0  0  0  0  0  0  0  0
  149.5221  132.9779  154.8514 H   0  0  0  0  0  0  0  0  0  0  0  0
  149.3445  132.5217  152.5130 H   0  0  0  0  0  0  0  0  0  0  0  0
  146.4596  133.6656  152.6008 H   0  0  0  0  0  0  0  0  0  0  0  0
  147.3441  132.9886  151.1376 H   0  0  0  0  0  0  0  0  0  0  0  0
  147.5918  130.7763  152.3192 H   0  0  0  0  0  0  0  0  0  0  0  0
  146.7104  131.4617  153.7810 H   0  0  0  0  0  0  0  0  0  0  0  0
  147.3972  132.1629  155.6784 H   0  0  0  0  0  0  0  0  0  0  0  0
  146.1089  134.6763  154.3797 H   0  0  0  0  0  0  0  0  0  0  0  0
  145.2563  133.3766  155.3634 H   0  0  0  0  0  0  0  0  0  0  0  0
  146.7487  133.8882  157.3286 H   0  0  0  0  0  0  0  0  0  0  0  0
  147.5931  135.1907  156.3420 H   0  0  0  0  0  0  0  0  0  0  0  0
  149.3075  137.3938  157.2644 H   0  0  0  0  0  0  0  0  0  0  0  0
  151.6237  140.4335  159.6767 H   0  0  0  0  0  0  0  0  0  0  0  0
  153.0240  140.1566  158.6643 H   0  0  0  0  0  0  0  0  0  0  0  0
  153.6668  142.5356  158.7808 H   0  0  0  0  0  0  0  0  0  0  0  0
  154.4848  141.0775  160.6244 H   0  0  0  0  0  0  0  0  0  0  0  0
  153.0399  141.4441  161.5656 H   0  0  0  0  0  0  0  0  0  0  0  0
  154.1963  142.7200  161.1914 H   0  0  0  0  0  0  0  0  0  0  0  0
  1  2  1  0  0  0  0
  1 26  1  0  0  0  0
  1 27  1  0  0  0  0
  1 28  1  0  0  0  0
  2 25  1  0  0  0  0
  2  3  1  0  0  0  0
  2 29  1  0  0  0  0
  3  4  1  0  0  0  0
  3 30  1  0  0  0  0
  3 31  1  0  0  0  0
  4  5  1  0  0  0  0
  4 22  1  0  0  0  0
  5 21  1  0  0  0  0
  5  6  2  0  0  0  0
  6  7  1  0  0  0  0
  6 32  1  0  0  0  0
  7  8  2  0  0  0  0
  7 33  1  0  0  0  0
  8  9  1  0  0  0  0
  8 20  1  0  0  0  0
  9 10  1  0  0  0  0
  9 34  1  0  0  0  0
 10 11  2  0  0  0  0
 10 12  1  0  0  0  0
 12 13  1  0  0  0  0
 12 35  1  0  0  0  0
 13 14  1  0  0  0  0
 13 17  1  0  0  0  0
 13 36  1  0  0  0  0
 14 16  1  0  0  0  0
 14 15  1  0  0  0  0
 14 37  1  0  0  0  0
 15 16  1  0  0  0  0
 15 38  1  0  0  0  0
 15 39  1  0  0  0  0
 16 40  1  0  0  0  0
 16 41  1  0  0  0  0
 17 19  1  0  0  0  0
 17 18  1  0  0  0  0
 17 42  1  0  0  0  0
 18 19  1  0  0  0  0
 18 43  1  0  0  0  0
 18 44  1  0  0  0  0
 19 45  1  0  0  0  0
 19 46  1  0  0  0  0
 20 21  2  0  0  0  0
 20 47  1  0  0  0  0
 22 23  1  0  0  0  0
 22 48  1  0  0  0  0
 22 49  1  0  0  0  0
 23 24  1  0  0  0  0
 23 25  1  0  0  0  0
 23 50  1  0  0  0  0
 24 51  1  0  0  0  0
 24 52  1  0  0  0  0
 24 53  1  0  0  0  0
M  END
> <s_m_source_file>
AV-unprocessed.smi

> <i_m_source_file_index>
633

> <i_lp_mmshare_version>
43012

> <i_f3d_flags>
0

> <s_epik_input>
W0NIM11bQ0BASF0xW0NIMl1OKFtDSDJdW0NASF0oTzEpW0NIM10pYzJbY0hdW2NIXWMoW2NIXW4yKVtOSF1DKD1PKVtOSF1bQ0hdKFtDSF0zW0NIMl1bQ0gyXTMpW0NIXTRbQ0gyXVtDSDJdNA==

> <s_epik_cmdline>
J2VwaWtfcHl0aG9uJywgJy1waCcsICc3LjAnLCAnLXRuJywgJzgnLCAnLW1hJywgJzIwMCcsICctbWV0YWxfYmluZGluZycsICctaW1hZScsICc8aW5maWxlLm1hZT4nLCAnLW9tYWUnLCAnPG91dGZpbGUubWFlPic=

> <r_lp_tautomer_probability>
1

> <r_epik_Ionization_Penalty>
0.00291159

> <r_epik_Ionization_Penalty_Charging>
0

> <r_epik_Ionization_Penalty_Neutral>
0.00291159

> <r_epik_State_Penalty>
0.00200877

> <r_epik_Charging_Adjusted_Penalty>
0.00200877

> <i_epik_Tot_Q>
0

> <i_epik_Tot_abs_Q>
0

> <r_epik_Metal_State_Penalty>
-0

> <b_epik_Metal_Only>
0

> <s_lp_Force_Field>
OPLS_2005

> <r_lp_Energy>
43.3159

> <b_lp_Chiralities_Consistent>
1

> <s_lp_Variant>
AV-unprocessed.smi:633-3

> <Gold.Version>
5.8.1

> <Gold.Id.Protein>
6NUR|6NUR_protein|mol2

> <Gold.PLP.Fitness>
46.2950

> <Gold.PLP.PLP>
-41.4639

> <Gold.PLP.part.hbond>
-2.0000

> <Gold.PLP.part.metal>
0.0000

> <Gold.PLP.part.buried>
-4.4979

> <Gold.PLP.part.nonpolar>
-35.4774

> <Gold.PLP.part.repulsive>
0.0571

> <Gold.PLP.ligand.clash>
0.0000

> <Gold.PLP.ligand.torsion>
1.7132

> <Gold.PLP.Chemscore.Hbond>
1.9188

> <Gold.PLP.Chemscore.CHOScore>
0.0000

> <Gold.PLP.Chemscore.Metal>
0.0000

> <Gold.Chemscore.Hbonds>
donor molecule, donor type, donor heavy atom, donor atom, acceptor molecule, acceptor atom, score
      L1  H     9    34       P1  7948  0.91
      L1  H    12    35       P1  7948  1.00

> <Gold.PLP.Chemscore.Internal.Correction>
2.5010

> <Gold.Rescore>
     Score         DG    S(hbond)    S(metal)    S(lipo)     H(rot)  DE(clash)    DE(int)     intcor
     17.12     -20.36       1.71        0.00     108.99       1.40       0.13       3.11       ----

> <Gold.Chemscore.Fitness>
17.1160

> <Gold.Chemscore.DG>
-20.3581

> <Gold.Chemscore.ZeroCoef>
-5.4800

> <Gold.Chemscore.Hbond>
1.7113

> <Gold.Chemscore.Metal>
0.0000

> <Gold.Chemscore.Lipo>
108.9911

> <Gold.Chemscore.Internal_Hbond>
0.0000

> <Gold.Chemscore.DEClash>
0.1314

> <Gold.Chemscore.DEInternal>
3.1107

> <Gold.Chemscore.Rot>
1.4022

> <Gold.Chemscore.Internal.Correction>
   9.000000E+99

> <Gold.Chemscore.Hbonds>
donor molecule, donor type, donor heavy atom, donor atom, acceptor molecule, acceptor atom, score
      L1  H     9    34       P1  7948  0.69
      L1  H    12    35       P1  7948  0.55

> <Gold.Chemscore.Hbond.Weighted>
-5.7158

> <Gold.Chemscore.Metal.Weighted>
-0.0000

> <Gold.Chemscore.Lipo.Weighted>
-12.7520

> <Gold.Chemscore.Internal_Hbond.Weighted>
0.0000

> <Gold.Chemscore.DEClash.Weighted>
0.1314

> <Gold.Chemscore.DEInternal.Weighted>
3.1107

> <Gold.Chemscore.Rot.Weighted>
3.5897

> <Gold.Chemscore.Internal.Correction.Weighted>
   9.000000E+99

> <Gold.Protein.RotatedTorsions>
[ 6907 6896 6895 6894 ] final  177.19 input  -60.11 | X-H torsion
[ 7974 7965 7964 7962 ] final -162.74 input  175.53 | X-H torsion
[ 8008 7997 7996 7995 ] final -116.07 input   59.86 | X-H torsion
[ 10167 10162 10161 10158 ] final  168.12 input  -65.29 | X-H torsion
[ 10718 10713 10712 10709 ] final  129.23 input   66.30 | X-H torsion
[ 10763 10752 10751 10750 ] final   85.07 input  -60.55 | X-H torsion
[ 11005 11000 10999 10996 ] final  -32.97 input  -57.11 | X-H torsion

> <Gold.Protein.ActiveResidues>
 VAL166  LYS551  ARG553  GLY616  TRP617  ASP618  TYR619  PRO620  LYS621  CYS622 
 ASP623  PHE694  ASN695  SER759  ASP760  ASP761  ALA762  ILE779  LEU786  VAL792 
 PHE793  MET794  SER795  GLU796  ALA797  LYS798  CYS799  TRP800  GLU811  SER814 

> <Gold.Protein.RotatedAtoms>
  151.7080  133.3312  159.3283 H   0  0  0  0  0  0  0  0  0  0  0  0  # atno 6907 bound_to 6896
  150.7706  134.6557  159.6321 H   0  0  0  0  0  0  0  0  0  0  0  0  # atno 6908 bound_to 6896
  152.3729  134.6710  160.0222 H   0  0  0  0  0  0  0  0  0  0  0  0  # atno 6909 bound_to 6896
  144.7347  140.3208  143.6171 H   0  0  0  0  0  0  0  0  0  0  0  0  # atno 7974 bound_to 7965
  155.0620  140.0393  157.2580 H   0  0  0  0  0  0  0  0  0  0  0  0  # atno 8008 bound_to 7997
  154.7052  140.2681  155.6657 H   0  0  0  0  0  0  0  0  0  0  0  0  # atno 8009 bound_to 7997
  156.2773  140.2732  156.1676 H   0  0  0  0  0  0  0  0  0  0  0  0  # atno 8010 bound_to 7997
  139.4960  144.3849  151.9582 H   0  0  0  0  0  0  0  0  0  0  0  0  # atno 10167 bound_to 10162
  157.5173  131.1097  150.9206 H   0  0  0  0  0  0  0  0  0  0  0  0  # atno 10718 bound_to 10713
  153.1441  135.4631  154.9539 H   0  0  0  0  0  0  0  0  0  0  0  0  # atno 10763 bound_to 10752
  154.7771  135.3176  154.8071 H   0  0  0  0  0  0  0  0  0  0  0  0  # atno 10764 bound_to 10752
  153.8588  135.6914  153.4839 H   0  0  0  0  0  0  0  0  0  0  0  0  # atno 10765 bound_to 10752
  140.9596  133.7172  156.1348 H   0  0  0  0  0  0  0  0  0  0  0  0  # atno 11005 bound_to 11000
  145.7570  139.1812  143.2288 LP  0  0  0  0  0  0  0  0  0  0  0  0  # atno 17320 bound_to 7965
  146.1016  140.7537  142.9546 LP  0  0  0  0  0  0  0  0  0  0  0  0  # atno 17321 bound_to 7965
  140.3285  144.3344  150.5992 LP  0  0  0  0  0  0  0  0  0  0  0  0  # atno 17342 bound_to 10162
  140.5664  143.2186  151.7676 LP  0  0  0  0  0  0  0  0  0  0  0  0  # atno 17343 bound_to 10162
  156.9828  130.5533  149.5297 LP  0  0  0  0  0  0  0  0  0  0  0  0  # atno 17370 bound_to 10713
  156.0329  130.5419  150.8579 LP  0  0  0  0  0  0  0  0  0  0  0  0  # atno 17371 bound_to 10713
  140.7486  134.4070  157.5544 LP  0  0  0  0  0  0  0  0  0  0  0  0  # atno 17394 bound_to 11000
  139.8874  134.8885  156.2533 LP  0  0  0  0  0  0  0  0  0  0  0  0  # atno 17395 bound_to 11000

$$$$
