AV-unprocessed.smi:66|AV-procd|sdf|626|dock10
  -GOLD-   2262016523D 1   1.00000     0.00000
 Structure written by MMmdl.
 27 29  0  0  0  0  0  0  0  0  3 V2000
  150.9820  140.1426  154.9731 O   0  0  0  0  0  0  0  0  0  0  0  0
  151.6912  139.8307  155.9548 C   0  0  0  0  0  0  0  0  0  0  0  0
  152.9424  139.8409  155.9757 O   0  5  0  0  0  0  0  0  0  0  0  0
  150.9537  139.3836  157.2256 C   0  0  1  0  0  0  0  0  0  0  0  0
  150.3094  137.9991  157.0628 C   0  0  0  0  0  0  0  0  0  0  0  0
  150.2583  137.4897  158.5000 C   0  0  1  0  0  0  0  0  0  0  0  0
  150.1579  136.0830  158.5778 O   0  0  0  0  0  0  0  0  0  0  0  0
  151.5546  138.0269  159.1107 C   0  0  0  0  0  0  0  0  0  0  0  0
  151.8428  139.2580  158.3839 N   0  0  0  0  0  0  0  0  0  0  0  0
  152.3179  140.3890  159.0855 C   0  0  0  0  0  0  0  0  0  0  0  0
  153.1931  140.1933  160.1053 N   0  0  0  0  0  0  0  0  0  0  0  0
  153.6424  141.2686  160.7615 C   0  0  0  0  0  0  0  0  0  0  0  0
  153.3278  142.5455  160.5250 N   0  0  0  0  0  0  0  0  0  0  0  0
  152.4556  142.7577  159.5186 C   0  0  0  0  0  0  0  0  0  0  0  0
  151.9247  143.8637  159.0225 N   0  5  0  0  0  0  0  0  0  0  0  0
  151.0941  143.4960  158.0137 C   0  0  0  0  0  0  0  0  0  0  0  0
  151.0496  142.1634  157.8115 N   0  0  0  0  0  0  0  0  0  0  0  0
  151.9192  141.7137  158.7652 C   0  0  0  0  0  0  0  0  0  0  0  0
  150.1695  140.1046  157.4617 H   0  0  0  0  0  0  0  0  0  0  0  0
  149.3242  138.0452  156.5981 H   0  0  0  0  0  0  0  0  0  0  0  0
  150.9374  137.3425  156.4572 H   0  0  0  0  0  0  0  0  0  0  0  0
  149.4043  137.9386  159.0093 H   0  0  0  0  0  0  0  0  0  0  0  0
  149.9213  135.7541  157.7245 H   0  0  0  0  0  0  0  0  0  0  0  0
  151.4393  138.1804  160.1845 H   0  0  0  0  0  0  0  0  0  0  0  0
  152.3839  137.3363  158.9512 H   0  0  0  0  0  0  0  0  0  0  0  0
  154.3399  141.0851  161.5652 H   0  0  0  0  0  0  0  0  0  0  0  0
  150.5478  144.2522  157.4638 H   0  0  0  0  0  0  0  0  0  0  0  0
  1  2  2  0  0  0  0
  2  3  1  0  0  0  0
  2  4  1  0  0  0  0
  4  5  1  0  0  0  0
  4 19  1  0  0  0  0
  4  9  1  0  0  0  0
  5  6  1  0  0  0  0
  5 20  1  0  0  0  0
  5 21  1  0  0  0  0
  6  7  1  0  0  0  0
  6  8  1  0  0  0  0
  6 22  1  0  0  0  0
  7 23  1  0  0  0  0
  8 24  1  0  0  0  0
  8 25  1  0  0  0  0
  8  9  1  0  0  0  0
  9 10  1  0  0  0  0
 10 11  1  0  0  0  0
 10 18  2  0  0  0  0
 11 12  2  0  0  0  0
 12 26  1  0  0  0  0
 12 13  1  0  0  0  0
 13 14  2  0  0  0  0
 14 15  1  0  0  0  0
 14 18  1  0  0  0  0
 15 16  1  0  0  0  0
 16 17  2  0  0  0  0
 16 27  1  0  0  0  0
 17 18  1  0  0  0  0
M  CHG  1   3  -1
M  CHG  1  15  -1
M  END
> <s_m_source_file>
AV-unprocessed.smi

> <i_m_source_file_index>
66

> <i_lp_mmshare_version>
43012

> <i_f3d_flags>
0

> <s_epik_input>
Tz1DKFtPSF0pW0NAQEhdMVtDSDJdW0NAQEhdKFtPSF0pW0NIMl1OMWMobltjSF1uMiljKGMyMylbbkhdW2NIXW4z

> <s_epik_cmdline>
J2VwaWtfcHl0aG9uJywgJy1waCcsICc3LjAnLCAnLXRuJywgJzgnLCAnLW1hJywgJzIwMCcsICctbWV0YWxfYmluZGluZycsICctaW1hZScsICc8aW5maWxlLm1hZT4nLCAnLW9tYWUnLCAnPG91dGZpbGUubWFlPic=

> <r_lp_tautomer_probability>
0.955585

> <r_epik_Ionization_Penalty>
7.65809

> <r_epik_Ionization_Penalty_Charging>
3.4974

> <r_epik_Ionization_Penalty_Neutral>
4.16069

> <r_epik_State_Penalty>
3.51624

> <r_epik_Charging_Adjusted_Penalty>
7.01364

> <i_epik_Tot_Q>
-2

> <i_epik_Tot_abs_Q>
2

> <r_epik_Metal_State_Penalty>
0.522662

> <b_epik_Metal_Only>
1

> <s_lp_Force_Field>
OPLS_2005

> <r_lp_Energy>
45.116

> <b_lp_Chiralities_Consistent>
1

> <s_lp_Variant>
AV-unprocessed.smi:66-10

> <Gold.Version>
5.8.1

> <Gold.Id.Protein>
6NUR|6NUR_protein|mol2

> <Gold.PLP.Fitness>
44.4030

> <Gold.PLP.PLP>
-30.1576

> <Gold.PLP.part.hbond>
-3.0000

> <Gold.PLP.part.metal>
0.0000

> <Gold.PLP.part.buried>
-6.1762

> <Gold.PLP.part.nonpolar>
-20.6957

> <Gold.PLP.part.repulsive>
0.1229

> <Gold.PLP.ligand.clash>
0.0000

> <Gold.PLP.ligand.torsion>
0.5053

> <Gold.PLP.Chemscore.Hbond>
4.0000

> <Gold.PLP.Chemscore.CHOScore>
0.9957

> <Gold.PLP.Chemscore.Metal>
0.0000

> <Gold.Chemscore.Hbonds>
donor molecule, donor type, donor heavy atom, donor atom, acceptor molecule, acceptor atom, score
      P1  H  6896  6907       L1     7  1.00
      P1  H  7989  7998       L1     1  1.00
      P1  H  7997  8010       L1     3  1.62
      L1  C    16    27       P1  8028  1.00

> <Gold.PLP.Chemscore.Internal.Correction>
0.2689

> <Gold.Rescore>
     Score         DG    S(hbond)    S(metal)    S(lipo)     H(rot)  DE(clash)    DE(int)     intcor
     10.93     -12.94       2.82        0.00      22.15       1.78       0.19       1.81       ----

> <Gold.Chemscore.Fitness>
10.9282

> <Gold.Chemscore.DG>
-12.9371

> <Gold.Chemscore.ZeroCoef>
-5.4800

> <Gold.Chemscore.Hbond>
2.8177

> <Gold.Chemscore.Metal>
0.0000

> <Gold.Chemscore.Lipo>
22.1467

> <Gold.Chemscore.Internal_Hbond>
0.0000

> <Gold.Chemscore.DEClash>
0.1941

> <Gold.Chemscore.DEInternal>
1.8148

> <Gold.Chemscore.Rot>
1.7754

> <Gold.Chemscore.Internal.Correction>
   9.000000E+99

> <Gold.Chemscore.Hbonds>
donor molecule, donor type, donor heavy atom, donor atom, acceptor molecule, acceptor atom, score
      P1  H  6896  6907       L1     7  0.79
      P1  H  7989  7998       L1     1  0.99
      P1  H  7997  8010       L1     3  0.80

> <Gold.Chemscore.Hbond.Weighted>
-9.4110

> <Gold.Chemscore.Metal.Weighted>
-0.0000

> <Gold.Chemscore.Lipo.Weighted>
-2.5912

> <Gold.Chemscore.Internal_Hbond.Weighted>
0.0000

> <Gold.Chemscore.DEClash.Weighted>
0.1941

> <Gold.Chemscore.DEInternal.Weighted>
1.8148

> <Gold.Chemscore.Rot.Weighted>
4.5451

> <Gold.Chemscore.Internal.Correction.Weighted>
   9.000000E+99

> <Gold.Protein.RotatedTorsions>
[ 6907 6896 6895 6894 ] final  -55.81 input  -60.11 | X-H torsion
[ 7974 7965 7964 7962 ] final  157.71 input  175.53 | X-H torsion
[ 8008 7997 7996 7995 ] final   83.12 input   59.86 | X-H torsion
[ 10167 10162 10161 10158 ] final  138.47 input  -65.29 | X-H torsion
[ 10718 10713 10712 10709 ] final  160.64 input   66.30 | X-H torsion
[ 10763 10752 10751 10750 ] final   25.67 input  -60.55 | X-H torsion
[ 11005 11000 10999 10996 ] final -148.70 input  -57.11 | X-H torsion

> <Gold.Protein.ActiveResidues>
 VAL166  LYS551  ARG553  GLY616  TRP617  ASP618  TYR619  PRO620  LYS621  CYS622 
 ASP623  PHE694  ASN695  SER759  ASP760  ASP761  ALA762  ILE779  LEU786  VAL792 
 PHE793  MET794  SER795  GLU796  ALA797  LYS798  CYS799  TRP800  GLU811  SER814 

> <Gold.Protein.RotatedAtoms>
  150.8220  134.7433  159.6780 H   0  0  0  0  0  0  0  0  0  0  0  0  # atno 6907 bound_to 6896
  152.4335  134.5728  159.9936 H   0  0  0  0  0  0  0  0  0  0  0  0  # atno 6908 bound_to 6896
  151.5910  133.3329  159.3063 H   0  0  0  0  0  0  0  0  0  0  0  0  # atno 6909 bound_to 6896
  144.7887  139.7378  143.6230 H   0  0  0  0  0  0  0  0  0  0  0  0  # atno 7974 bound_to 7965
  155.9197  140.3422  155.6163 H   0  0  0  0  0  0  0  0  0  0  0  0  # atno 8008 bound_to 7997
  155.7288  140.0793  157.2317 H   0  0  0  0  0  0  0  0  0  0  0  0  # atno 8009 bound_to 7997
  154.4068  140.1592  156.2473 H   0  0  0  0  0  0  0  0  0  0  0  0  # atno 8010 bound_to 7997
  139.5109  144.6351  151.5717 H   0  0  0  0  0  0  0  0  0  0  0  0  # atno 10167 bound_to 10162
  157.1476  131.0556  151.2296 H   0  0  0  0  0  0  0  0  0  0  0  0  # atno 10718 bound_to 10713
  153.0676  135.6578  154.0320 H   0  0  0  0  0  0  0  0  0  0  0  0  # atno 10763 bound_to 10752
  153.9973  135.2940  155.3407 H   0  0  0  0  0  0  0  0  0  0  0  0  # atno 10764 bound_to 10752
  154.7039  135.5233  153.8636 H   0  0  0  0  0  0  0  0  0  0  0  0  # atno 10765 bound_to 10752
  140.7585  134.3325  157.5108 H   0  0  0  0  0  0  0  0  0  0  0  0  # atno 11005 bound_to 11000
  146.2131  139.5500  142.9668 LP  0  0  0  0  0  0  0  0  0  0  0  0  # atno 17320 bound_to 7965
  145.5851  141.0377  143.2101 LP  0  0  0  0  0  0  0  0  0  0  0  0  # atno 17321 bound_to 7965
  140.6097  143.9458  150.6444 LP  0  0  0  0  0  0  0  0  0  0  0  0  # atno 17342 bound_to 10162
  140.2697  143.3465  152.1249 LP  0  0  0  0  0  0  0  0  0  0  0  0  # atno 17343 bound_to 10162
  157.4250  130.7458  149.6943 LP  0  0  0  0  0  0  0  0  0  0  0  0  # atno 17370 bound_to 10713
  155.9776  130.4060  150.3699 LP  0  0  0  0  0  0  0  0  0  0  0  0  # atno 17371 bound_to 10713
  139.8775  134.9187  156.3209 LP  0  0  0  0  0  0  0  0  0  0  0  0  # atno 17394 bound_to 11000
  140.9685  133.7343  156.0500 LP  0  0  0  0  0  0  0  0  0  0  0  0  # atno 17395 bound_to 11000

$$$$
