AV-unprocessed.smi:1771|AV-procd|sdf|7158|dock2
  -GOLD-   22720 8393D 1   1.00000     0.00000
 Structure written by MMmdl.
 31 32  0  0  0  0  0  0  0  0  1 V2000
  144.7893  137.6642  152.5547 O   0  0  0  0  0  0  0  0  0  0  0  0
  145.9546  137.3076  152.3790 C   0  0  0  0  0  0  0  0  0  0  0  0
  147.0151  137.9689  152.8647 N   0  0  0  0  0  0  0  0  0  0  0  0
  146.9599  139.1756  153.6848 C   0  0  0  0  0  0  0  0  0  0  0  0
  148.3593  139.7623  153.9550 C   0  0  1  0  0  0  0  0  0  0  0  0
  148.3431  141.1088  154.7103 C   0  0  0  0  0  0  0  0  0  0  0  0
  149.7679  141.4341  155.1723 C   0  0  0  0  0  0  0  0  0  0  0  0
  150.5624  139.8202  155.5150 S   0  0  0  0  0  0  0  0  0  0  0  0
  151.7899  139.7124  154.7119 O   0  0  0  0  0  0  0  0  0  0  0  0
  150.5826  139.5779  156.9654 O   0  0  0  0  0  0  0  0  0  0  0  0
  149.2453  138.7965  154.7566 C   0  0  0  0  0  0  0  0  0  0  0  0
  146.3336  136.2237  151.6823 N   0  0  0  0  0  0  0  0  0  0  0  0
  145.4965  135.2751  151.0423 C   0  0  0  0  0  0  0  0  0  0  0  0
  145.8553  133.9244  150.7830 C   0  0  0  0  0  0  0  0  0  0  0  0
  144.8742  133.2711  150.1772 N   0  0  0  0  0  0  0  0  0  0  0  0
  143.8927  134.1921  150.0468 N   0  0  0  0  0  0  0  0  0  0  0  0
  144.2267  135.4261  150.5596 C   0  0  0  0  0  0  0  0  0  0  0  0
  143.0096  133.9653  149.6116 H   0  0  0  0  0  0  0  0  0  0  0  0
  147.9336  137.6013  152.6636 H   0  0  0  0  0  0  0  0  0  0  0  0
  146.3100  139.9269  153.2328 H   0  0  0  0  0  0  0  0  0  0  0  0
  146.4928  138.9031  154.6315 H   0  0  0  0  0  0  0  0  0  0  0  0
  148.8529  139.9328  152.9968 H   0  0  0  0  0  0  0  0  0  0  0  0
  147.9367  141.9153  154.0995 H   0  0  0  0  0  0  0  0  0  0  0  0
  147.6998  141.0188  155.5868 H   0  0  0  0  0  0  0  0  0  0  0  0
  150.3308  141.9244  154.3777 H   0  0  0  0  0  0  0  0  0  0  0  0
  149.7943  142.0652  156.0607 H   0  0  0  0  0  0  0  0  0  0  0  0
  148.6830  138.3288  155.5655 H   0  0  0  0  0  0  0  0  0  0  0  0
  149.6862  138.0116  154.1421 H   0  0  0  0  0  0  0  0  0  0  0  0
  147.3260  136.0532  151.6089 H   0  0  0  0  0  0  0  0  0  0  0  0
  146.7759  133.4070  151.0103 H   0  0  0  0  0  0  0  0  0  0  0  0
  143.5484  136.2662  150.5332 H   0  0  0  0  0  0  0  0  0  0  0  0
  1  2  2  0  0  0  0
  2  3  1  0  0  0  0
  2 12  1  0  0  0  0
  3  4  1  0  0  0  0
  3 19  1  0  0  0  0
  4  5  1  0  0  0  0
  4 20  1  0  0  0  0
  4 21  1  0  0  0  0
  5 11  1  0  0  0  0
  5  6  1  0  0  0  0
  5 22  1  0  0  0  0
  6  7  1  0  0  0  0
  6 23  1  0  0  0  0
  6 24  1  0  0  0  0
  7  8  1  0  0  0  0
  7 25  1  0  0  0  0
  7 26  1  0  0  0  0
  8  9  2  0  0  0  0
  8 10  2  0  0  0  0
  8 11  1  0  0  0  0
 11 27  1  0  0  0  0
 11 28  1  0  0  0  0
 12 13  1  0  0  0  0
 12 29  1  0  0  0  0
 13 17  2  0  0  0  0
 13 14  1  0  0  0  0
 14 15  2  0  0  0  0
 14 30  1  0  0  0  0
 15 16  1  0  0  0  0
 16 18  1  0  0  0  0
 16 17  1  0  0  0  0
 17 31  1  0  0  0  0
M  END
> <s_m_source_file>
AV-unprocessed.smi

> <i_m_source_file_index>
1771

> <i_lp_mmshare_version>
43012

> <i_f3d_flags>
0

> <s_epik_input>
W2NIXTFbbkhdbltjSF1jMVtOSF1DKD1PKVtOSF1bQ0gyXVtDQEBIXShbQ0gyXTIpW0NIMl1bQ0gyXVMyKD1PKT1P

> <s_epik_cmdline>
J2VwaWtfcHl0aG9uJywgJy1waCcsICc3LjAnLCAnLXRuJywgJzgnLCAnLW1hJywgJzIwMCcsICctbWV0YWxfYmluZGluZycsICctaW1hZScsICc8aW5maWxlLm1hZT4nLCAnLW9tYWUnLCAnPG91dGZpbGUubWFlPic=

> <r_lp_tautomer_probability>
1

> <r_epik_Ionization_Penalty>
4.89708e-05

> <r_epik_Ionization_Penalty_Charging>
0

> <r_epik_Ionization_Penalty_Neutral>
4.89708e-05

> <r_epik_State_Penalty>
-0

> <r_epik_Charging_Adjusted_Penalty>
0

> <i_epik_Tot_Q>
0

> <i_epik_Tot_abs_Q>
0

> <r_epik_Metal_State_Penalty>
-0

> <b_epik_Metal_Only>
0

> <s_lp_Force_Field>
OPLS_2005

> <r_lp_Energy>
7.81667

> <b_lp_Chiralities_Consistent>
1

> <s_lp_Variant>
AV-unprocessed.smi:1771-2

> <Gold.Version>
5.8.1

> <Gold.Id.Protein>
6NUR|6NUR_protein|mol2

> <Gold.PLP.Fitness>
40.6308

> <Gold.PLP.PLP>
-26.3720

> <Gold.PLP.part.hbond>
-4.0000

> <Gold.PLP.part.metal>
0.0000

> <Gold.PLP.part.buried>
-4.2658

> <Gold.PLP.part.nonpolar>
-20.4306

> <Gold.PLP.part.repulsive>
1.7257

> <Gold.PLP.ligand.clash>
0.0000

> <Gold.PLP.ligand.torsion>
0.1684

> <Gold.PLP.Chemscore.Hbond>
3.8640

> <Gold.PLP.Chemscore.CHOScore>
1.0000

> <Gold.PLP.Chemscore.Metal>
0.0000

> <Gold.Chemscore.Hbonds>
donor molecule, donor type, donor heavy atom, donor atom, acceptor molecule, acceptor atom, score
      L1  H     3    19       P1  7948  0.96
      L1  H    12    29       P1  7948  1.00
      L1  H    16    18       P1 10186  0.84
      P1  H  7989  7998       L1     9  1.00
      L1  C    17    31       P1 10171  1.00

> <Gold.PLP.Chemscore.Internal.Correction>
0.0036

> <Gold.Rescore>
     Score         DG    S(hbond)    S(metal)    S(lipo)     H(rot)  DE(clash)    DE(int)     intcor
     18.54     -19.05       3.55        0.00      45.11       1.39       0.26       0.25       ----

> <Gold.Chemscore.Fitness>
18.5439

> <Gold.Chemscore.DG>
-19.0542

> <Gold.Chemscore.ZeroCoef>
-5.4800

> <Gold.Chemscore.Hbond>
3.5500

> <Gold.Chemscore.Metal>
0.0000

> <Gold.Chemscore.Lipo>
45.1055

> <Gold.Chemscore.Internal_Hbond>
0.0000

> <Gold.Chemscore.DEClash>
0.2564

> <Gold.Chemscore.DEInternal>
0.2539

> <Gold.Chemscore.Rot>
1.3908

> <Gold.Chemscore.Internal.Correction>
   9.000000E+99

> <Gold.Chemscore.Hbonds>
donor molecule, donor type, donor heavy atom, donor atom, acceptor molecule, acceptor atom, score
      L1  H     3    19       P1  7948  0.92
      L1  H    12    29       P1  7948  0.99
      L1  H    16    18       P1 10186  0.79
      P1  H  7989  7998       L1     9  0.58

> <Gold.Chemscore.Hbond.Weighted>
-11.8572

> <Gold.Chemscore.Metal.Weighted>
-0.0000

> <Gold.Chemscore.Lipo.Weighted>
-5.2773

> <Gold.Chemscore.Internal_Hbond.Weighted>
0.0000

> <Gold.Chemscore.DEClash.Weighted>
0.2564

> <Gold.Chemscore.DEInternal.Weighted>
0.2539

> <Gold.Chemscore.Rot.Weighted>
3.5603

> <Gold.Chemscore.Internal.Correction.Weighted>
   9.000000E+99

> <Gold.Protein.RotatedTorsions>
[ 6907 6896 6895 6894 ] final  -27.53 input  -60.11 | X-H torsion
[ 7974 7965 7964 7962 ] final -124.81 input  175.53 | X-H torsion
[ 8008 7997 7996 7995 ] final   37.60 input   59.86 | X-H torsion
[ 10167 10162 10161 10158 ] final  -69.34 input  -65.29 | X-H torsion
[ 10718 10713 10712 10709 ] final -135.87 input   66.30 | X-H torsion
[ 10763 10752 10751 10750 ] final -122.64 input  -60.55 | X-H torsion
[ 11005 11000 10999 10996 ] final  107.25 input  -57.11 | X-H torsion

> <Gold.Protein.ActiveResidues>
 VAL166  LYS551  ARG553  GLY616  TRP617  ASP618  TYR619  PRO620  LYS621  CYS622 
 ASP623  PHE694  ASN695  SER759  ASP760  ASP761  ALA762  ILE779  LEU786  VAL792 
 PHE793  MET794  SER795  GLU796  ALA797  LYS798  CYS799  TRP800  GLU811  SER814 

> <Gold.Protein.RotatedAtoms>
  151.1456  135.0202  159.8645 H   0  0  0  0  0  0  0  0  0  0  0  0  # atno 6907 bound_to 6896
  152.5453  134.1448  159.8504 H   0  0  0  0  0  0  0  0  0  0  0  0  # atno 6908 bound_to 6896
  151.1528  133.4851  159.2628 H   0  0  0  0  0  0  0  0  0  0  0  0  # atno 6909 bound_to 6896
  145.0042  140.7848  143.4478 H   0  0  0  0  0  0  0  0  0  0  0  0  # atno 7974 bound_to 7965
  155.2064  140.3320  155.4335 H   0  0  0  0  0  0  0  0  0  0  0  0  # atno 8008 bound_to 7997
  156.2387  140.1885  156.7097 H   0  0  0  0  0  0  0  0  0  0  0  0  # atno 8009 bound_to 7997
  154.6107  140.0609  156.9476 H   0  0  0  0  0  0  0  0  0  0  0  0  # atno 8010 bound_to 7997
  140.5438  143.2314  151.7040 H   0  0  0  0  0  0  0  0  0  0  0  0  # atno 10167 bound_to 10162
  156.2708  130.7264  151.1231 H   0  0  0  0  0  0  0  0  0  0  0  0  # atno 10718 bound_to 10713
  154.8693  135.4126  154.2815 H   0  0  0  0  0  0  0  0  0  0  0  0  # atno 10763 bound_to 10752
  153.3707  135.7007  153.6646 H   0  0  0  0  0  0  0  0  0  0  0  0  # atno 10764 bound_to 10752
  153.5508  135.3629  155.2731 H   0  0  0  0  0  0  0  0  0  0  0  0  # atno 10765 bound_to 10752
  139.8825  134.9395  156.5791 H   0  0  0  0  0  0  0  0  0  0  0  0  # atno 11005 bound_to 11000
  145.2111  139.2204  143.5142 LP  0  0  0  0  0  0  0  0  0  0  0  0  # atno 17320 bound_to 7965
  146.3458  140.1950  142.8589 LP  0  0  0  0  0  0  0  0  0  0  0  0  # atno 17321 bound_to 7965
  139.4999  144.3927  152.0263 LP  0  0  0  0  0  0  0  0  0  0  0  0  # atno 17342 bound_to 10162
  140.3038  144.3616  150.6053 LP  0  0  0  0  0  0  0  0  0  0  0  0  # atno 17343 bound_to 10162
  157.7283  131.0633  150.5826 LP  0  0  0  0  0  0  0  0  0  0  0  0  # atno 17370 bound_to 10713
  156.5922  130.4332  149.5932 LP  0  0  0  0  0  0  0  0  0  0  0  0  # atno 17371 bound_to 10713
  140.8040  133.8482  155.8752 LP  0  0  0  0  0  0  0  0  0  0  0  0  # atno 17394 bound_to 11000
  140.9566  134.1709  157.4686 LP  0  0  0  0  0  0  0  0  0  0  0  0  # atno 17395 bound_to 11000

$$$$
