AV-unprocessed.smi:2351|AV-procd|sdf|9376|dock8
  -GOLD-   2272013 03D 1   1.00000     0.00000
 Structure written by MMmdl.
 47 49  0  0  0  0  0  0  0  0  2 V2000
  149.8899  140.3359  156.3960 O   0  0  0  0  0  0  0  0  0  0  0  0
  149.5877  141.5242  156.2945 C   0  0  0  0  0  0  0  0  0  0  0  0
  150.1159  142.5298  157.0130 N   0  0  0  0  0  0  0  0  0  0  0  0
  151.0946  142.4752  158.0437 C   0  0  0  0  0  0  0  0  0  0  0  0
  151.4741  141.2925  158.7241 C   0  0  0  0  0  0  0  0  0  0  0  0
  152.4691  141.3761  159.7188 C   0  0  0  0  0  0  0  0  0  0  0  0
  153.0895  142.5263  160.0568 N   0  0  0  0  0  0  0  0  0  0  0  0
  152.7345  143.6492  159.3974 C   0  0  0  0  0  0  0  0  0  0  0  0
  151.7526  143.6755  158.3867 C   0  0  0  0  0  0  0  0  0  0  0  0
  151.4462  144.8378  157.7609 F   0  0  0  0  0  0  0  0  0  0  0  0
  148.6532  141.9759  155.4450 N   0  0  0  0  0  0  0  0  0  0  0  0
  147.8754  141.1477  154.5231 C   0  0  2  0  0  0  0  0  0  0  0  0
  147.2261  142.0186  153.4342 C   0  0  0  0  0  0  0  0  0  0  0  0
  146.0751  142.8776  153.9903 C   0  0  0  0  0  0  0  0  0  0  0  0
  145.0531  142.0411  154.6715 N   0  3  2  0  0  0  0  0  0  0  0  0
  143.8713  142.8360  155.0939 C   0  0  0  0  0  0  0  0  0  0  0  0
  144.2250  144.2954  155.4424 C   0  0  2  0  0  0  0  0  0  0  0  0
  143.6394  144.7892  156.7512 C   0  0  0  0  0  0  0  0  0  0  0  0
  143.7095  146.3042  156.5818 C   0  0  0  0  0  0  0  0  0  0  0  0
  143.5939  146.5467  155.1824 O   0  0  0  0  0  0  0  0  0  0  0  0
  143.6409  145.3168  154.4668 C   0  0  0  0  0  0  0  0  0  0  0  0
  145.6493  141.2388  155.7725 C   0  0  0  0  0  0  0  0  0  0  0  0
  146.7836  140.3390  155.2522 C   0  0  0  0  0  0  0  0  0  0  0  0
  149.7205  143.4444  156.8519 H   0  0  0  0  0  0  0  0  0  0  0  0
  151.0387  140.3311  158.5013 H   0  0  0  0  0  0  0  0  0  0  0  0
  152.7788  140.4912  160.2550 H   0  0  0  0  0  0  0  0  0  0  0  0
  153.2492  144.5548  159.6828 H   0  0  0  0  0  0  0  0  0  0  0  0
  148.4734  142.9692  155.4270 H   0  0  0  0  0  0  0  0  0  0  0  0
  148.5642  140.4539  154.0374 H   0  0  0  0  0  0  0  0  0  0  0  0
  147.9747  142.6551  152.9604 H   0  0  0  0  0  0  0  0  0  0  0  0
  146.8371  141.3728  152.6457 H   0  0  0  0  0  0  0  0  0  0  0  0
  146.4594  143.6240  154.6871 H   0  0  0  0  0  0  0  0  0  0  0  0
  145.6134  143.4241  153.1671 H   0  0  0  0  0  0  0  0  0  0  0  0
  143.1110  142.8043  154.3120 H   0  0  0  0  0  0  0  0  0  0  0  0
  143.4217  142.3736  155.9739 H   0  0  0  0  0  0  0  0  0  0  0  0
  145.3060  144.4363  155.4627 H   0  0  0  0  0  0  0  0  0  0  0  0
  142.6000  144.4725  156.8487 H   0  0  0  0  0  0  0  0  0  0  0  0
  144.1865  144.4371  157.6263 H   0  0  0  0  0  0  0  0  0  0  0  0
  142.9296  146.8207  157.1419 H   0  0  0  0  0  0  0  0  0  0  0  0
  144.6755  146.6816  156.9194 H   0  0  0  0  0  0  0  0  0  0  0  0
  144.2306  145.4092  153.5543 H   0  0  0  0  0  0  0  0  0  0  0  0
  142.6222  145.0467  154.1841 H   0  0  0  0  0  0  0  0  0  0  0  0
  146.0219  141.9045  156.5523 H   0  0  0  0  0  0  0  0  0  0  0  0
  144.8926  140.6072  156.2359 H   0  0  0  0  0  0  0  0  0  0  0  0
  146.3650  139.6046  154.5627 H   0  0  0  0  0  0  0  0  0  0  0  0
  147.2108  139.7640  156.0744 H   0  0  0  0  0  0  0  0  0  0  0  0
  144.7208  141.3862  153.9781 H   0  0  0  0  0  0  0  0  0  0  0  0
  1  2  2  0  0  0  0
  2  3  1  0  0  0  0
  2 11  1  0  0  0  0
  3  4  1  0  0  0  0
  3 24  1  0  0  0  0
  4  9  1  0  0  0  0
  4  5  2  0  0  0  0
  5  6  1  0  0  0  0
  5 25  1  0  0  0  0
  6  7  2  0  0  0  0
  6 26  1  0  0  0  0
  7  8  1  0  0  0  0
  8  9  2  0  0  0  0
  8 27  1  0  0  0  0
  9 10  1  0  0  0  0
 11 12  1  0  0  0  0
 11 28  1  0  0  0  0
 12 23  1  0  0  0  0
 12 13  1  0  0  0  0
 12 29  1  0  0  0  0
 13 14  1  0  0  0  0
 13 30  1  0  0  0  0
 13 31  1  0  0  0  0
 14 15  1  0  0  0  0
 14 32  1  0  0  0  0
 14 33  1  0  0  0  0
 15 16  1  0  0  0  0
 15 22  1  0  0  0  0
 15 47  1  0  0  0  0
 16 17  1  0  0  0  0
 16 34  1  0  0  0  0
 16 35  1  0  0  0  0
 17 21  1  0  0  0  0
 17 18  1  0  0  0  0
 17 36  1  0  0  0  0
 18 19  1  0  0  0  0
 18 37  1  0  0  0  0
 18 38  1  0  0  0  0
 19 20  1  0  0  0  0
 19 39  1  0  0  0  0
 19 40  1  0  0  0  0
 20 21  1  0  0  0  0
 21 41  1  0  0  0  0
 21 42  1  0  0  0  0
 22 23  1  0  0  0  0
 22 43  1  0  0  0  0
 22 44  1  0  0  0  0
 23 45  1  0  0  0  0
 23 46  1  0  0  0  0
M  CHG  1  15   1
M  END
> <s_m_source_file>
AV-unprocessed.smi

> <i_m_source_file_index>
2351

> <i_lp_mmshare_version>
43012

> <i_f3d_flags>
0

> <s_epik_input>
RmMxW2NIXW5bY0hdW2NIXWMxW05IXUMoPU8pW05IXVtDSF0yW0NIMl1bQ0gyXU4oW0NIMl1bQ0gyXTIpW0NIMl1bQ0BASF0zW0NIMl1bQ0gyXU9bQ0gyXTM=

> <s_epik_cmdline>
J2VwaWtfcHl0aG9uJywgJy1waCcsICc3LjAnLCAnLXRuJywgJzgnLCAnLW1hJywgJzIwMCcsICctbWV0YWxfYmluZGluZycsICctaW1hZScsICc8aW5maWxlLm1hZT4nLCAnLW9tYWUnLCAnPG91dGZpbGUubWFlPic=

> <r_epik_Ionization_Penalty>
0.0102464

> <r_epik_Ionization_Penalty_Charging>
0.00747775

> <r_epik_Ionization_Penalty_Neutral>
0.00276864

> <r_epik_State_Penalty>
0.00558817

> <r_epik_Charging_Adjusted_Penalty>
0.0130659

> <i_epik_Tot_Q>
1

> <i_epik_Tot_abs_Q>
1

> <r_epik_Metal_State_Penalty>
-0

> <b_epik_Metal_Only>
0

> <s_lp_Force_Field>
OPLS_2005

> <r_lp_Energy>
39.3269

> <b_lp_Chiralities_Consistent>
1

> <s_lp_Variant>
AV-unprocessed.smi:2351-3

> <Gold.Version>
5.8.1

> <Gold.Id.Protein>
6NUR|6NUR_protein|mol2

> <Gold.PLP.Fitness>
50.6924

> <Gold.PLP.PLP>
-41.6387

> <Gold.PLP.part.hbond>
-4.0000

> <Gold.PLP.part.metal>
0.0000

> <Gold.PLP.part.buried>
-8.3452

> <Gold.PLP.part.nonpolar>
-31.1607

> <Gold.PLP.part.repulsive>
0.1878

> <Gold.PLP.ligand.clash>
0.1373

> <Gold.PLP.ligand.torsion>
1.3915

> <Gold.PLP.Chemscore.Hbond>
3.9825

> <Gold.PLP.Chemscore.CHOScore>
0.0000

> <Gold.PLP.Chemscore.Metal>
0.0000

> <Gold.Chemscore.Hbonds>
donor molecule, donor type, donor heavy atom, donor atom, acceptor molecule, acceptor atom, score
      L1  H     3    24       P1  8028  1.00
      L1  H    11    28       P1  8028  1.00
      L1  H    15    47       P1 10175  2.00

> <Gold.PLP.Chemscore.Internal.Correction>
0.0264

> <Gold.Rescore>
     Score         DG    S(hbond)    S(metal)    S(lipo)     H(rot)  DE(clash)    DE(int)     intcor
     18.90     -22.36       2.63        0.00     101.04       1.45       0.98       2.48       ----

> <Gold.Chemscore.Fitness>
18.9010

> <Gold.Chemscore.DG>
-22.3631

> <Gold.Chemscore.ZeroCoef>
-5.4800

> <Gold.Chemscore.Hbond>
2.6255

> <Gold.Chemscore.Metal>
0.0000

> <Gold.Chemscore.Lipo>
101.0404

> <Gold.Chemscore.Internal_Hbond>
0.0000

> <Gold.Chemscore.DEClash>
0.9796

> <Gold.Chemscore.DEInternal>
2.4824

> <Gold.Chemscore.Rot>
1.4483

> <Gold.Chemscore.Internal.Correction>
   9.000000E+99

> <Gold.Chemscore.Hbonds>
donor molecule, donor type, donor heavy atom, donor atom, acceptor molecule, acceptor atom, score
      L1  H     3    24       P1  8028  0.94
      L1  H    11    28       P1  8028  0.98
      L1  H    15    47       P1 10175  0.37

> <Gold.Chemscore.Hbond.Weighted>
-8.7691

> <Gold.Chemscore.Metal.Weighted>
-0.0000

> <Gold.Chemscore.Lipo.Weighted>
-11.8217

> <Gold.Chemscore.Internal_Hbond.Weighted>
0.0000

> <Gold.Chemscore.DEClash.Weighted>
0.9796

> <Gold.Chemscore.DEInternal.Weighted>
2.4824

> <Gold.Chemscore.Rot.Weighted>
3.7077

> <Gold.Chemscore.Internal.Correction.Weighted>
   9.000000E+99

> <Gold.Protein.RotatedTorsions>
[ 6907 6896 6895 6894 ] final  -54.49 input  -60.11 | X-H torsion
[ 7974 7965 7964 7962 ] final   49.49 input  175.53 | X-H torsion
[ 8008 7997 7996 7995 ] final   23.29 input   59.86 | X-H torsion
[ 10167 10162 10161 10158 ] final -115.86 input  -65.29 | X-H torsion
[ 10718 10713 10712 10709 ] final  141.78 input   66.30 | X-H torsion
[ 10763 10752 10751 10750 ] final   85.40 input  -60.55 | X-H torsion
[ 11005 11000 10999 10996 ] final -106.65 input  -57.11 | X-H torsion

> <Gold.Protein.ActiveResidues>
 VAL166  LYS551  ARG553  GLY616  TRP617  ASP618  TYR619  PRO620  LYS621  CYS622 
 ASP623  PHE694  ASN695  SER759  ASP760  ASP761  ALA762  ILE779  LEU786  VAL792 
 PHE793  MET794  SER795  GLU796  ALA797  LYS798  CYS799  TRP800  GLU811  SER814 

> <Gold.Protein.RotatedAtoms>
  150.8333  134.7596  159.6871 H   0  0  0  0  0  0  0  0  0  0  0  0  # atno 6907 bound_to 6896
  152.4434  134.5541  159.9885 H   0  0  0  0  0  0  0  0  0  0  0  0  # atno 6908 bound_to 6896
  151.5697  133.3354  159.3023 H   0  0  0  0  0  0  0  0  0  0  0  0  # atno 6909 bound_to 6896
  146.0103  139.4536  142.9960 H   0  0  0  0  0  0  0  0  0  0  0  0  # atno 7974 bound_to 7965
  154.9787  140.3099  155.4956 H   0  0  0  0  0  0  0  0  0  0  0  0  # atno 8008 bound_to 7997
  156.2956  140.2270  156.4824 H   0  0  0  0  0  0  0  0  0  0  0  0  # atno 8009 bound_to 7997
  154.7810  140.0446  157.1115 H   0  0  0  0  0  0  0  0  0  0  0  0  # atno 8010 bound_to 7997
  140.0855  143.4748  152.1900 H   0  0  0  0  0  0  0  0  0  0  0  0  # atno 10167 bound_to 10162
  157.3881  131.1001  151.0673 H   0  0  0  0  0  0  0  0  0  0  0  0  # atno 10718 bound_to 10713
  153.1471  135.4619  154.9582 H   0  0  0  0  0  0  0  0  0  0  0  0  # atno 10763 bound_to 10752
  154.7795  135.3184  154.8023 H   0  0  0  0  0  0  0  0  0  0  0  0  # atno 10764 bound_to 10752
  153.8535  135.6919  153.4844 H   0  0  0  0  0  0  0  0  0  0  0  0  # atno 10765 bound_to 10752
  141.0994  133.8912  157.1882 H   0  0  0  0  0  0  0  0  0  0  0  0  # atno 11005 bound_to 11000
  145.7351  141.0028  143.1331 LP  0  0  0  0  0  0  0  0  0  0  0  0  # atno 17320 bound_to 7965
  144.6951  139.9032  143.7459 LP  0  0  0  0  0  0  0  0  0  0  0  0  # atno 17321 bound_to 7965
  139.5754  144.7485  151.3778 LP  0  0  0  0  0  0  0  0  0  0  0  0  # atno 17342 bound_to 10162
  140.7055  143.7523  150.7475 LP  0  0  0  0  0  0  0  0  0  0  0  0  # atno 17343 bound_to 10162
  157.1717  130.6270  149.5643 LP  0  0  0  0  0  0  0  0  0  0  0  0  # atno 17370 bound_to 10713
  155.9791  130.4783  150.6698 LP  0  0  0  0  0  0  0  0  0  0  0  0  # atno 17371 bound_to 10713
  139.9840  135.0088  156.9818 LP  0  0  0  0  0  0  0  0  0  0  0  0  # atno 17394 bound_to 11000
  140.5060  134.1049  155.7260 LP  0  0  0  0  0  0  0  0  0  0  0  0  # atno 17395 bound_to 11000

$$$$
