#       Name:                AV-unprocessed.smi:1254
#       Creating user name   scv26
#       Creation time:       Fri Mar 27 04:39:08 2020


#       File generated by GOLD software.
#

@<TRIPOS>MOLECULE
AV-unprocessed.smi:1254
    53    54     1
SMALL
NO_CHARGES


@<TRIPOS>ATOM
      1 ****        -4.3955   7.0354   2.2030 C.3            1 S1                 0.0000
      2 ****        -3.9636   5.6633   1.8128 C.2            1 S1                 0.0000
      3 ****        -3.6091   5.1048   0.6169 C.2            1 S1                 0.0000
      4 ****        -3.3073   3.7621   0.9680 C.2            1 S1                 0.0000
      5 ****        -2.8854   2.8308  -0.0146 N.am           1 S1                 0.0000
      6 ****        -2.5400   1.5453   0.1697 C.2            1 S1                 0.0000
      7 ****        -2.5452   0.9565   1.2513 O.2            1 S1                 0.0000
      8 ****        -2.1754   0.9692  -0.9845 N.am           1 S1                 0.0000
      9 ****        -1.7066  -0.4054  -1.1222 C.3            1 S1                 0.0000
     10 ****        -0.2233  -0.5389  -0.7375 C.3            1 S1                 0.0000
     11 ****         0.2645  -1.9987  -0.8124 C.3            1 S1                 0.0000
     12 ****         1.6864  -2.1186  -0.5072 N.3            1 S1                 0.0000
     13 ****         2.1185  -3.5158  -0.5686 C.3            1 S1                 0.0000
     14 ****         3.5312  -3.8072  -0.0178 C.3            1 S1                 0.0000
     15 ****         3.9082  -5.2760  -0.2605 C.3            1 S1                 0.0000
     16 ****         3.6414  -3.4637   1.4768 C.3            1 S1                 0.0000
     17 ****         2.4398  -1.2529  -1.4117 C.3            1 S1                 0.0000
     18 ****         1.9462   0.2027  -1.3557 C.3            1 S1                 0.0000
     19 ****         0.5524   0.2457  -1.6407 O.3            1 S1                 0.0000
     20 ****        -3.4659   3.5219   2.2607 N.2            1 S1                 0.0000
     21 ****        -3.8863   4.7395   2.8089 O.3            1 S1                 0.0000
     22 ****        -4.7070   7.6087   1.3295 H              1 S1                 0.0000
     23 ****        -3.5803   7.5728   2.6876 H              1 S1                 0.0000
     24 ****        -5.2352   6.9956   2.8973 H              1 S1                 0.0000
     25 ****        -3.5705   5.5832  -0.3506 H              1 S1                 0.0000
     26 ****        -2.8298   3.1843  -0.9582 H              1 S1                 0.0000
     27 ****        -2.1975   1.5269  -1.8255 H              1 S1                 0.0000
     28 ****        -2.3195  -1.0675  -0.5080 H              1 S1                 0.0000
     29 ****        -1.8550  -0.7178  -2.1562 H              1 S1                 0.0000
     30 ****        -0.0772  -0.1657   0.2781 H              1 S1                 0.0000
     31 ****        -0.3127  -2.6050  -0.1132 H              1 S1                 0.0000
     32 ****         0.0660  -2.3984  -1.8083 H              1 S1                 0.0000
     33 ****         1.4122  -4.1296  -0.0076 H              1 S1                 0.0000
     34 ****         2.0545  -3.8642  -1.6008 H              1 S1                 0.0000
     35 ****         4.2613  -3.2052  -0.5580 H              1 S1                 0.0000
     36 ****         3.2242  -5.9515   0.2544 H              1 S1                 0.0000
     37 ****         4.9165  -5.4875   0.0967 H              1 S1                 0.0000
     38 ****         3.8797  -5.5188  -1.3231 H              1 S1                 0.0000
     39 ****         2.9317  -4.0417   2.0697 H              1 S1                 0.0000
     40 ****         3.4420  -2.4068   1.6568 H              1 S1                 0.0000
     41 ****         4.6416  -3.6745   1.8561 H              1 S1                 0.0000
     42 ****         3.4991  -1.2670  -1.1591 H              1 S1                 0.0000
     43 ****         2.3554  -1.6230  -2.4345 H              1 S1                 0.0000
     44 ****         2.1371   0.6383  -0.3736 H              1 S1                 0.0000
     45 ****         2.4786   0.8124  -2.0857 H              1 S1                 0.0000
     46 ****        -2.8224   1.4393   2.0821 LP             1 S1                 0.0000
     47 ****        -2.2723  -0.0043   1.2989 LP             1 S1                 0.0000
     48 ****         1.8626  -1.8171   0.4299 LP             1 S1                 0.0000
     49 ****         0.2443   1.1954  -1.5840 LP             1 S1                 0.0000
     50 ****         0.4057  -0.0974  -2.5684 LP             1 S1                 0.0000
     51 ****        -3.3175   2.6577   2.7413 LP             1 S1                 0.0000
     52 ****        -4.7850   4.6254   3.2324 LP             1 S1                 0.0000
     53 ****        -3.2289   5.0428   3.4987 LP             1 S1                 0.0000
@<TRIPOS>BOND
    1    1    2 1     
    2    1   22 1     
    3    1   23 1     
    4    1   24 1     
    5    2   21 1     
    6    2    3 2     
    7    3    4 1     
    8    3   25 1     
    9    4    5 1     
   10    4   20 2     
   11    5    6 am    
   12    5   26 1     
   13    6    7 2     
   14    6    8 am    
   15    8    9 1     
   16    8   27 1     
   17    9   10 1     
   18    9   28 1     
   19    9   29 1     
   20   10   19 1     
   21   10   11 1     
   22   10   30 1     
   23   11   12 1     
   24   11   31 1     
   25   11   32 1     
   26   12   13 1     
   27   12   17 1     
   28   13   14 1     
   29   13   33 1     
   30   13   34 1     
   31   14   15 1     
   32   14   16 1     
   33   14   35 1     
   34   15   36 1     
   35   15   37 1     
   36   15   38 1     
   37   16   39 1     
   38   16   40 1     
   39   16   41 1     
   40   17   18 1     
   41   17   42 1     
   42   17   43 1     
   43   18   19 1     
   44   18   44 1     
   45   18   45 1     
   46   20   21 1     
   47    7   46 1     
   48    7   47 1     
   49   12   48 1     
   50   19   49 1     
   51   19   50 1     
   52   20   51 1     
   53   21   52 1     
   54   21   53 1     
@<TRIPOS>SUBSTRUCTURE
      1 S1             1
@<TRIPOS>SET
LONE_PAIRS      STATIC     ATOMS    <user>   **** ""
8 46 47 48 49 50 51 52 53
DONOR_HYDROGENS      STATIC     ATOMS    <user>   **** ""
2 26 27
ATOM$BLUE        STATIC     ATOMS    COLORGROUP SYSTEM
8 46 47 48 49 50 51 52 53
ATOM$RED        STATIC     ATOMS    COLORGROUP SYSTEM
2 26 27
