AV-unprocessed.smi:554|AV-procd|sdf|2909|dock2
  -GOLD-   2262023403D 1   1.00000     0.00000
 Structure written by MMmdl.
 27 28  0  0  0  0  0  0  0  0  1 V2000
  149.8653  145.1371  160.0457 C   0  0  0  0  0  0  0  0  0  0  0  0
  150.9648  144.4452  159.2701 C   0  0  1  0  0  0  0  0  0  0  0  0
  152.3542  145.0341  159.2064 C   0  0  0  0  0  0  0  0  0  0  0  0
  152.1087  143.7679  159.9933 C   0  0  2  0  0  0  0  0  0  0  0  0
  152.6699  142.4450  159.5081 C   0  0  0  0  0  0  0  0  0  0  0  0
  152.2561  142.0595  158.1653 N   0  0  0  0  0  0  0  0  0  0  0  0
  151.9783  140.8063  157.7784 C   0  0  0  0  0  0  0  0  0  0  0  0
  152.0329  139.8345  158.5329 O   0  0  0  0  0  0  0  0  0  0  0  0
  151.6405  140.7623  156.4777 N   0  0  0  0  0  0  0  0  0  0  0  0
  151.2826  139.6293  155.7007 C   0  0  0  0  0  0  0  0  0  0  0  0
  150.7105  139.6916  154.4925 N   0  0  0  0  0  0  0  0  0  0  0  0
  150.4696  138.4225  153.9603 C   0  0  0  0  0  0  0  0  0  0  0  0
  150.8677  137.3977  154.7824 C   0  0  0  0  0  0  0  0  0  0  0  0
  151.5657  137.9896  156.2663 S   0  0  0  0  0  0  0  0  0  0  0  0
  150.2637  145.6150  160.9414 H   0  0  0  0  0  0  0  0  0  0  0  0
  149.1086  144.4123  160.3460 H   0  0  0  0  0  0  0  0  0  0  0  0
  149.3923  145.8989  159.4258 H   0  0  0  0  0  0  0  0  0  0  0  0
  150.6146  143.9585  158.3617 H   0  0  0  0  0  0  0  0  0  0  0  0
  152.8900  144.9500  158.2631 H   0  0  0  0  0  0  0  0  0  0  0  0
  152.5463  145.9446  159.7704 H   0  0  0  0  0  0  0  0  0  0  0  0
  152.1374  143.8827  161.0756 H   0  0  0  0  0  0  0  0  0  0  0  0
  153.7591  142.4610  159.5722 H   0  0  0  0  0  0  0  0  0  0  0  0
  152.3361  141.6643  160.1918 H   0  0  0  0  0  0  0  0  0  0  0  0
  152.1838  142.7983  157.4811 H   0  0  0  0  0  0  0  0  0  0  0  0
  151.6423  141.6426  155.9836 H   0  0  0  0  0  0  0  0  0  0  0  0
  150.0099  138.3402  152.9865 H   0  0  0  0  0  0  0  0  0  0  0  0
  150.7931  136.3351  154.6052 H   0  0  0  0  0  0  0  0  0  0  0  0
  1  2  1  0  0  0  0
  1 15  1  0  0  0  0
  1 16  1  0  0  0  0
  1 17  1  0  0  0  0
  2  4  1  0  0  0  0
  2  3  1  0  0  0  0
  2 18  1  0  0  0  0
  3  4  1  0  0  0  0
  3 19  1  0  0  0  0
  3 20  1  0  0  0  0
  4  5  1  0  0  0  0
  4 21  1  0  0  0  0
  5  6  1  0  0  0  0
  5 22  1  0  0  0  0
  5 23  1  0  0  0  0
  6  7  1  0  0  0  0
  6 24  1  0  0  0  0
  7  8  2  0  0  0  0
  7  9  1  0  0  0  0
  9 10  1  0  0  0  0
  9 25  1  0  0  0  0
 10 14  1  0  0  0  0
 10 11  2  0  0  0  0
 11 12  1  0  0  0  0
 12 13  2  0  0  0  0
 12 26  1  0  0  0  0
 13 14  1  0  0  0  0
 13 27  1  0  0  0  0
M  END
> <s_m_source_file>
AV-unprocessed.smi

> <i_m_source_file_index>
554

> <i_lp_mmshare_version>
43012

> <i_f3d_flags>
0

> <s_epik_input>
W0NIM11bQ0BASF0xW0NIMl1bQ0BIXTFbQ0gyXVtOSF1DKD1PKVtOSF1jMm5bY0hdW2NIXXMy

> <s_epik_cmdline>
J2VwaWtfcHl0aG9uJywgJy1waCcsICc3LjAnLCAnLXRuJywgJzgnLCAnLW1hJywgJzIwMCcsICctbWV0YWxfYmluZGluZycsICctaW1hZScsICc8aW5maWxlLm1hZT4nLCAnLW9tYWUnLCAnPG91dGZpbGUubWFlPic=

> <r_lp_tautomer_probability>
0.999

> <r_epik_Ionization_Penalty>
0.00042678

> <r_epik_Ionization_Penalty_Charging>
0

> <r_epik_Ionization_Penalty_Neutral>
0.00042678

> <r_epik_State_Penalty>
0.000177984

> <r_epik_Charging_Adjusted_Penalty>
0.000177984

> <i_epik_Tot_Q>
0

> <i_epik_Tot_abs_Q>
0

> <r_epik_Metal_State_Penalty>
-0

> <b_epik_Metal_Only>
0

> <s_lp_Force_Field>
OPLS_2005

> <r_lp_Energy>
12.8371

> <b_lp_Chiralities_Consistent>
1

> <s_lp_Variant>
AV-unprocessed.smi:554-4

> <Gold.Version>
5.8.1

> <Gold.Id.Protein>
6NUR|6NUR_protein|mol2

> <Gold.PLP.Fitness>
37.5124

> <Gold.PLP.PLP>
-29.0456

> <Gold.PLP.part.hbond>
-1.0000

> <Gold.PLP.part.metal>
0.0000

> <Gold.PLP.part.buried>
-4.3255

> <Gold.PLP.part.nonpolar>
-24.5440

> <Gold.PLP.part.repulsive>
0.3197

> <Gold.PLP.ligand.clash>
0.0000

> <Gold.PLP.ligand.torsion>
0.5321

> <Gold.PLP.Chemscore.Hbond>
1.0000

> <Gold.PLP.Chemscore.CHOScore>
1.9964

> <Gold.PLP.Chemscore.Metal>
0.0000

> <Gold.Chemscore.Hbonds>
donor molecule, donor type, donor heavy atom, donor atom, acceptor molecule, acceptor atom, score
      P1  H  7989  7998       L1    11  1.00
      L1  C    12    26       P1  7948  0.90
      L1  C    12    26       P1  7957  1.00

> <Gold.PLP.Chemscore.Internal.Correction>
0.5418

> <Gold.Rescore>
     Score         DG    S(hbond)    S(metal)    S(lipo)     H(rot)  DE(clash)    DE(int)     intcor
     12.46     -14.22       0.98        0.00      74.77       1.28       0.05       1.71       ----

> <Gold.Chemscore.Fitness>
12.4583

> <Gold.Chemscore.DG>
-14.2172

> <Gold.Chemscore.ZeroCoef>
-5.4800

> <Gold.Chemscore.Hbond>
0.9769

> <Gold.Chemscore.Metal>
0.0000

> <Gold.Chemscore.Lipo>
74.7700

> <Gold.Chemscore.Internal_Hbond>
0.0000

> <Gold.Chemscore.DEClash>
0.0462

> <Gold.Chemscore.DEInternal>
1.7127

> <Gold.Chemscore.Rot>
1.2788

> <Gold.Chemscore.Internal.Correction>
   9.000000E+99

> <Gold.Chemscore.Hbonds>
donor molecule, donor type, donor heavy atom, donor atom, acceptor molecule, acceptor atom, score
      P1  H  7989  7998       L1    11  0.67

> <Gold.Chemscore.Hbond.Weighted>
-3.2630

> <Gold.Chemscore.Metal.Weighted>
-0.0000

> <Gold.Chemscore.Lipo.Weighted>
-8.7481

> <Gold.Chemscore.Internal_Hbond.Weighted>
0.0000

> <Gold.Chemscore.DEClash.Weighted>
0.0462

> <Gold.Chemscore.DEInternal.Weighted>
1.7127

> <Gold.Chemscore.Rot.Weighted>
3.2738

> <Gold.Chemscore.Internal.Correction.Weighted>
   9.000000E+99

> <Gold.Protein.RotatedTorsions>
[ 6907 6896 6895 6894 ] final  -51.20 input  -60.11 | X-H torsion
[ 7974 7965 7964 7962 ] final   80.75 input  175.53 | X-H torsion
[ 8008 7997 7996 7995 ] final   99.26 input   59.86 | X-H torsion
[ 10167 10162 10161 10158 ] final -128.13 input  -65.29 | X-H torsion
[ 10718 10713 10712 10709 ] final -178.71 input   66.30 | X-H torsion
[ 10763 10752 10751 10750 ] final -110.27 input  -60.55 | X-H torsion
[ 11005 11000 10999 10996 ] final  -73.46 input  -57.11 | X-H torsion

> <Gold.Protein.ActiveResidues>
 VAL166  LYS551  ARG553  GLY616  TRP617  ASP618  TYR619  PRO620  LYS621  CYS622 
 ASP623  PHE694  ASN695  SER759  ASP760  ASP761  ALA762  ILE779  LEU786  VAL792 
 PHE793  MET794  SER795  GLU796  ALA797  LYS798  CYS799  TRP800  GLU811  SER814 

> <Gold.Protein.RotatedAtoms>
  150.8634  134.7992  159.7099 H   0  0  0  0  0  0  0  0  0  0  0  0  # atno 6907 bound_to 6896
  152.4664  134.5063  159.9750 H   0  0  0  0  0  0  0  0  0  0  0  0  # atno 6908 bound_to 6896
  151.5163  133.3437  159.2929 H   0  0  0  0  0  0  0  0  0  0  0  0  # atno 6909 bound_to 6896
  145.6471  139.2439  143.1998 H   0  0  0  0  0  0  0  0  0  0  0  0  # atno 7974 bound_to 7965
  156.1087  140.3231  155.8042 H   0  0  0  0  0  0  0  0  0  0  0  0  # atno 8008 bound_to 7997
  155.4711  140.0546  157.2996 H   0  0  0  0  0  0  0  0  0  0  0  0  # atno 8009 bound_to 7997
  154.4745  140.2026  155.9927 H   0  0  0  0  0  0  0  0  0  0  0  0  # atno 8010 bound_to 7997
  139.9535  143.6029  152.2468 H   0  0  0  0  0  0  0  0  0  0  0  0  # atno 10167 bound_to 10162
  156.8484  130.9710  151.3094 H   0  0  0  0  0  0  0  0  0  0  0  0  # atno 10718 bound_to 10713
  154.8239  135.4570  154.0860 H   0  0  0  0  0  0  0  0  0  0  0  0  # atno 10763 bound_to 10752
  153.2191  135.6891  153.8028 H   0  0  0  0  0  0  0  0  0  0  0  0  # atno 10764 bound_to 10752
  153.7452  135.3306  155.3288 H   0  0  0  0  0  0  0  0  0  0  0  0  # atno 10765 bound_to 10752
  141.1623  133.6879  156.7216 H   0  0  0  0  0  0  0  0  0  0  0  0  # atno 11005 bound_to 11000
  146.1234  140.7280  142.9447 LP  0  0  0  0  0  0  0  0  0  0  0  0  # atno 17320 bound_to 7965
  144.7136  140.4129  143.7061 LP  0  0  0  0  0  0  0  0  0  0  0  0  # atno 17321 bound_to 7965
  139.6609  144.7662  151.1964 LP  0  0  0  0  0  0  0  0  0  0  0  0  # atno 17342 bound_to 10162
  140.7575  143.6011  150.8699 LP  0  0  0  0  0  0  0  0  0  0  0  0  # atno 17343 bound_to 10162
  157.6317  130.8734  149.9286 LP  0  0  0  0  0  0  0  0  0  0  0  0  # atno 17370 bound_to 10713
  156.0842  130.3670  150.0521 LP  0  0  0  0  0  0  0  0  0  0  0  0  # atno 17371 bound_to 10713
  140.2812  134.8315  157.3934 LP  0  0  0  0  0  0  0  0  0  0  0  0  # atno 17394 bound_to 11000
  140.1432  134.4945  155.8016 LP  0  0  0  0  0  0  0  0  0  0  0  0  # atno 17395 bound_to 11000

$$$$
