AV-unprocessed.smi:1295|AV-procd|sdf|5408|dock1
  -GOLD-   22720 4563D 1   1.00000     0.00000
 Structure written by MMmdl.
 43 44  0  0  0  0  0  0  0  0  1 V2000
  146.2829  138.1788  152.2678 C   0  0  0  0  0  0  0  0  0  0  0  0
  147.1347  139.1956  152.9964 C   0  0  0  0  0  0  0  0  0  0  0  0
  146.4658  140.3716  153.2936 N   0  0  0  0  0  0  0  0  0  0  0  0
  147.1648  141.3635  153.9584 C   0  0  0  0  0  0  0  0  0  0  0  0
  146.3602  142.6202  154.2429 C   0  0  0  0  0  0  0  0  0  0  0  0
  148.4652  141.1930  154.3078 C   0  0  0  0  0  0  0  0  0  0  0  0
  149.2715  142.2674  155.0351 C   0  0  0  0  0  0  0  0  0  0  0  0
  149.9407  141.8201  156.3367 C   0  0  0  0  0  0  0  0  0  0  0  0
  150.0899  140.6219  156.5757 O   0  0  0  0  0  0  0  0  0  0  0  0
  150.3411  142.7980  157.1641 N   0  0  0  0  0  0  0  0  0  0  0  0
  151.0383  142.6149  158.4364 C   0  0  1  0  0  0  0  0  0  0  0  0
  152.0776  141.4895  158.2674 C   0  0  0  0  0  0  0  0  0  0  0  0
  152.8982  141.2760  159.5472 C   0  0  0  0  0  0  0  0  0  0  0  0
  153.5772  142.5796  159.9871 C   0  0  0  0  0  0  0  0  0  0  0  0
  152.5447  143.7011  160.1744 C   0  0  0  0  0  0  0  0  0  0  0  0
  151.7064  143.9350  158.9008 C   0  0  2  0  0  0  0  0  0  0  0  0
  150.6892  145.0677  159.1281 C   0  0  0  0  0  0  0  0  0  0  0  0
  149.1285  139.9143  153.9591 C   0  0  0  0  0  0  0  0  0  0  0  0
  150.3076  139.7026  154.2388 O   0  0  0  0  0  0  0  0  0  0  0  0
  148.3735  138.9386  153.2880 N   0  0  0  0  0  0  0  0  0  0  0  0
  145.5009  140.5409  153.0489 H   0  0  0  0  0  0  0  0  0  0  0  0
  146.7962  137.2190  152.1982 H   0  0  0  0  0  0  0  0  0  0  0  0
  146.0644  138.5235  151.2568 H   0  0  0  0  0  0  0  0  0  0  0  0
  145.3399  138.0219  152.7926 H   0  0  0  0  0  0  0  0  0  0  0  0
  146.2923  142.7947  155.3168 H   0  0  0  0  0  0  0  0  0  0  0  0
  145.3445  142.5446  153.8525 H   0  0  0  0  0  0  0  0  0  0  0  0
  146.8311  143.4883  153.7812 H   0  0  0  0  0  0  0  0  0  0  0  0
  148.6521  143.1378  155.2527 H   0  0  0  0  0  0  0  0  0  0  0  0
  150.0379  142.6369  154.3526 H   0  0  0  0  0  0  0  0  0  0  0  0
  150.1661  143.7512  156.8806 H   0  0  0  0  0  0  0  0  0  0  0  0
  150.3335  142.2985  159.2077 H   0  0  0  0  0  0  0  0  0  0  0  0
  151.5780  140.5589  157.9951 H   0  0  0  0  0  0  0  0  0  0  0  0
  152.7521  141.7294  157.4440 H   0  0  0  0  0  0  0  0  0  0  0  0
  152.2467  140.9146  160.3440 H   0  0  0  0  0  0  0  0  0  0  0  0
  153.6478  140.5014  159.3842 H   0  0  0  0  0  0  0  0  0  0  0  0
  154.1229  142.4179  160.9169 H   0  0  0  0  0  0  0  0  0  0  0  0
  154.3156  142.8797  159.2426 H   0  0  0  0  0  0  0  0  0  0  0  0
  151.8857  143.4495  161.0066 H   0  0  0  0  0  0  0  0  0  0  0  0
  153.0578  144.6211  160.4570 H   0  0  0  0  0  0  0  0  0  0  0  0
  152.3892  144.2627  158.1154 H   0  0  0  0  0  0  0  0  0  0  0  0
  149.9431  144.7851  159.8713 H   0  0  0  0  0  0  0  0  0  0  0  0
  150.1625  145.3271  158.2098 H   0  0  0  0  0  0  0  0  0  0  0  0
  151.1833  145.9731  159.4811 H   0  0  0  0  0  0  0  0  0  0  0  0
  1 22  1  0  0  0  0
  1 23  1  0  0  0  0
  1 24  1  0  0  0  0
  1  2  1  0  0  0  0
  2  3  1  0  0  0  0
  2 20  2  0  0  0  0
  3  4  1  0  0  0  0
  3 21  1  0  0  0  0
  4  6  2  0  0  0  0
  4  5  1  0  0  0  0
  5 25  1  0  0  0  0
  5 26  1  0  0  0  0
  5 27  1  0  0  0  0
  6 18  1  0  0  0  0
  6  7  1  0  0  0  0
  7  8  1  0  0  0  0
  7 28  1  0  0  0  0
  7 29  1  0  0  0  0
  8  9  2  0  0  0  0
  8 10  1  0  0  0  0
 10 11  1  0  0  0  0
 10 30  1  0  0  0  0
 11 16  1  0  0  0  0
 11 12  1  0  0  0  0
 11 31  1  0  0  0  0
 12 13  1  0  0  0  0
 12 32  1  0  0  0  0
 12 33  1  0  0  0  0
 13 14  1  0  0  0  0
 13 34  1  0  0  0  0
 13 35  1  0  0  0  0
 14 15  1  0  0  0  0
 14 36  1  0  0  0  0
 14 37  1  0  0  0  0
 15 16  1  0  0  0  0
 15 38  1  0  0  0  0
 15 39  1  0  0  0  0
 16 17  1  0  0  0  0
 16 40  1  0  0  0  0
 17 41  1  0  0  0  0
 17 42  1  0  0  0  0
 17 43  1  0  0  0  0
 18 19  2  0  0  0  0
 18 20  1  0  0  0  0
M  END
> <s_m_source_file>
AV-unprocessed.smi

> <i_m_source_file_index>
1295

> <i_lp_mmshare_version>
43012

> <i_f3d_flags>
0

> <s_epik_input>
W0NIM11jMW5jKFtDSDNdKWMoYyg9TylbbkhdMSlbQ0gyXUMoPU8pW05IXVtDQEBIXTJbQ0gyXVtDSDJdW0NIMl1bQ0gyXVtDQEhdMltDSDNd

> <s_epik_cmdline>
J2VwaWtfcHl0aG9uJywgJy1waCcsICc3LjAnLCAnLXRuJywgJzgnLCAnLW1hJywgJzIwMCcsICctbWV0YWxfYmluZGluZycsICctaW1hZScsICc8aW5maWxlLm1hZT4nLCAnLW9tYWUnLCAnPG91dGZpbGUubWFlPic=

> <r_lp_tautomer_probability>
0.156392

> <r_epik_Ionization_Penalty>
0.0136057

> <r_epik_Ionization_Penalty_Charging>
0.0134742

> <r_epik_Ionization_Penalty_Neutral>
0.000131572

> <r_epik_State_Penalty>
1.15342

> <r_epik_Charging_Adjusted_Penalty>
1.16689

> <i_epik_Tot_Q>
0

> <i_epik_Tot_abs_Q>
0

> <r_epik_Metal_State_Penalty>
1.31351

> <b_epik_Metal_Only>
0

> <s_lp_Force_Field>
OPLS_2005

> <r_lp_Energy>
15.3725

> <b_lp_Chiralities_Consistent>
1

> <s_lp_Variant>
AV-unprocessed.smi:1295-8

> <Gold.Version>
5.8.1

> <Gold.Id.Protein>
6NUR|6NUR_protein|mol2

> <Gold.PLP.Fitness>
48.2613

> <Gold.PLP.PLP>
-41.0145

> <Gold.PLP.part.hbond>
-3.0000

> <Gold.PLP.part.metal>
0.0000

> <Gold.PLP.part.buried>
-0.1815

> <Gold.PLP.part.nonpolar>
-40.9393

> <Gold.PLP.part.repulsive>
3.0187

> <Gold.PLP.ligand.clash>
0.0000

> <Gold.PLP.ligand.torsion>
0.5133

> <Gold.PLP.Chemscore.Hbond>
2.7525

> <Gold.PLP.Chemscore.CHOScore>
0.0000

> <Gold.PLP.Chemscore.Metal>
0.0000

> <Gold.Chemscore.Hbonds>
donor molecule, donor type, donor heavy atom, donor atom, acceptor molecule, acceptor atom, score
      L1  H     3    21       P1 10175  1.00
      L1  H    10    30       P1  8028  0.77
      P1  H  7989  7998       L1    19  1.00

> <Gold.PLP.Chemscore.Internal.Correction>
0.0159

> <Gold.Rescore>
     Score         DG    S(hbond)    S(metal)    S(lipo)     H(rot)  DE(clash)    DE(int)     intcor
     16.00     -23.46       2.73        0.00     108.09       1.48       1.96       5.50       ----

> <Gold.Chemscore.Fitness>
16.0036

> <Gold.Chemscore.DG>
-23.4647

> <Gold.Chemscore.ZeroCoef>
-5.4800

> <Gold.Chemscore.Hbond>
2.7326

> <Gold.Chemscore.Metal>
0.0000

> <Gold.Chemscore.Lipo>
108.0926

> <Gold.Chemscore.Internal_Hbond>
0.0000

> <Gold.Chemscore.DEClash>
1.9597

> <Gold.Chemscore.DEInternal>
5.5014

> <Gold.Chemscore.Rot>
1.4801

> <Gold.Chemscore.Internal.Correction>
   9.000000E+99

> <Gold.Chemscore.Hbonds>
donor molecule, donor type, donor heavy atom, donor atom, acceptor molecule, acceptor atom, score
      L1  H     3    21       P1 10175  0.85
      L1  H    10    30       P1  8028  0.73
      P1  H  7989  7998       L1    19  0.95

> <Gold.Chemscore.Hbond.Weighted>
-9.1270

> <Gold.Chemscore.Metal.Weighted>
-0.0000

> <Gold.Chemscore.Lipo.Weighted>
-12.6468

> <Gold.Chemscore.Internal_Hbond.Weighted>
0.0000

> <Gold.Chemscore.DEClash.Weighted>
1.9597

> <Gold.Chemscore.DEInternal.Weighted>
5.5014

> <Gold.Chemscore.Rot.Weighted>
3.7891

> <Gold.Chemscore.Internal.Correction.Weighted>
   9.000000E+99

> <Gold.Protein.RotatedTorsions>
[ 6907 6896 6895 6894 ] final  -38.54 input  -60.11 | X-H torsion
[ 7974 7965 7964 7962 ] final    5.00 input  175.53 | X-H torsion
[ 8008 7997 7996 7995 ] final   63.85 input   59.86 | X-H torsion
[ 10167 10162 10161 10158 ] final -116.84 input  -65.29 | X-H torsion
[ 10718 10713 10712 10709 ] final -102.45 input   66.30 | X-H torsion
[ 10763 10752 10751 10750 ] final  -58.12 input  -60.55 | X-H torsion
[ 11005 11000 10999 10996 ] final   25.53 input  -57.11 | X-H torsion

> <Gold.Protein.ActiveResidues>
 VAL166  LYS551  ARG553  GLY616  TRP617  ASP618  TYR619  PRO620  LYS621  CYS622 
 ASP623  PHE694  ASN695  SER759  ASP760  ASP761  ALA762  ILE779  LEU786  VAL792 
 PHE793  MET794  SER795  GLU796  ALA797  LYS798  CYS799  TRP800  GLU811  SER814 

> <Gold.Protein.RotatedAtoms>
  151.0012  134.9324  159.7954 H   0  0  0  0  0  0  0  0  0  0  0  0  # atno 6907 bound_to 6896
  152.5278  134.3151  159.9138 H   0  0  0  0  0  0  0  0  0  0  0  0  # atno 6908 bound_to 6896
  151.3157  133.4020  159.2685 H   0  0  0  0  0  0  0  0  0  0  0  0  # atno 6909 bound_to 6896
  146.2442  140.0449  142.8379 H   0  0  0  0  0  0  0  0  0  0  0  0  # atno 7974 bound_to 7965
  155.6367  140.3496  155.4701 H   0  0  0  0  0  0  0  0  0  0  0  0  # atno 8008 bound_to 7997
  155.9959  140.1203  157.0617 H   0  0  0  0  0  0  0  0  0  0  0  0  # atno 8009 bound_to 7997
  154.4233  140.1110  156.5616 H   0  0  0  0  0  0  0  0  0  0  0  0  # atno 8010 bound_to 7997
  140.0749  143.4842  152.1959 H   0  0  0  0  0  0  0  0  0  0  0  0  # atno 10167 bound_to 10162
  156.0229  130.5420  150.7110 H   0  0  0  0  0  0  0  0  0  0  0  0  # atno 10718 bound_to 10713
  154.2331  135.6357  153.5182 H   0  0  0  0  0  0  0  0  0  0  0  0  # atno 10763 bound_to 10752
  152.9945  135.5524  154.5991 H   0  0  0  0  0  0  0  0  0  0  0  0  # atno 10764 bound_to 10752
  154.5479  135.2899  155.1010 H   0  0  0  0  0  0  0  0  0  0  0  0  # atno 10765 bound_to 10752
  140.3468  134.2272  155.7684 H   0  0  0  0  0  0  0  0  0  0  0  0  # atno 11005 bound_to 11000
  145.1036  140.9361  143.4698 LP  0  0  0  0  0  0  0  0  0  0  0  0  # atno 17320 bound_to 7965
  145.0647  139.3077  143.5862 LP  0  0  0  0  0  0  0  0  0  0  0  0  # atno 17321 bound_to 7965
  139.5814  144.7512  151.3631 LP  0  0  0  0  0  0  0  0  0  0  0  0  # atno 17342 bound_to 10162
  140.7107  143.7398  150.7562 LP  0  0  0  0  0  0  0  0  0  0  0  0  # atno 17343 bound_to 10162
  157.4748  131.0896  151.0602 LP  0  0  0  0  0  0  0  0  0  0  0  0  # atno 17370 bound_to 10713
  157.1053  130.5998  149.5469 LP  0  0  0  0  0  0  0  0  0  0  0  0  # atno 17371 bound_to 10713
  141.2023  133.7940  157.0396 LP  0  0  0  0  0  0  0  0  0  0  0  0  # atno 17394 bound_to 11000
  140.0736  134.9688  157.1508 LP  0  0  0  0  0  0  0  0  0  0  0  0  # atno 17395 bound_to 11000

$$$$
