AV-unprocessed.smi:938|AV-procd|sdf|4217|dock4
  -GOLD-   22720 2123D 1   1.00000     0.00000
 Structure written by MMmdl.
 42 43  0  0  0  0  0  0  0  0  1 V2000
  150.1144  134.4944  154.6303 C   0  0  0  0  0  0  0  0  0  0  0  0
  149.1134  135.0783  155.6356 C   0  0  0  0  0  0  0  0  0  0  0  0
  147.7500  135.3598  154.9891 C   0  0  0  0  0  0  0  0  0  0  0  0
  149.6537  136.3120  156.1997 N   0  0  0  0  0  0  0  0  0  0  0  0
  149.9871  136.5185  157.4860 C   0  0  0  0  0  0  0  0  0  0  0  0
  149.8603  135.6654  158.3654 O   0  0  0  0  0  0  0  0  0  0  0  0
  150.5048  137.8938  157.8155 C   0  0  0  0  0  0  0  0  0  0  0  0
  150.2969  138.9633  156.9169 C   0  0  0  0  0  0  0  0  0  0  0  0
  150.7923  140.2285  157.2751 C   0  0  0  0  0  0  0  0  0  0  0  0
  151.4617  140.3423  158.5080 C   0  0  0  0  0  0  0  0  0  0  0  0
  151.9741  141.5871  158.8979 N   0  0  0  0  0  0  0  0  0  0  0  0
  152.7329  141.5386  160.1392 C   0  0  0  0  0  0  0  0  0  0  0  0
  153.3939  142.9002  160.3991 C   0  0  0  0  0  0  0  0  0  0  0  0
  152.4078  143.9323  160.3896 O   0  0  0  0  0  0  0  0  0  0  0  0
  151.6266  144.0233  159.1918 C   0  0  0  0  0  0  0  0  0  0  0  0
  150.5345  145.0621  159.4901 C   0  0  0  0  0  0  0  0  0  0  0  0
  152.4861  144.5165  158.0079 C   0  0  0  0  0  0  0  0  0  0  0  0
  150.9759  142.6495  158.9037 C   0  0  0  0  0  0  0  0  0  0  0  0
  151.6289  139.2806  159.3346 N   0  0  0  0  0  0  0  0  0  0  0  0
  151.1553  138.0776  158.9933 N   0  0  0  0  0  0  0  0  0  0  0  0
  149.7461  133.5586  154.2090 H   0  0  0  0  0  0  0  0  0  0  0  0
  151.0722  134.2852  155.1080 H   0  0  0  0  0  0  0  0  0  0  0  0
  150.2967  135.1829  153.8045 H   0  0  0  0  0  0  0  0  0  0  0  0
  148.9641  134.3368  156.4220 H   0  0  0  0  0  0  0  0  0  0  0  0
  147.3164  134.4485  154.5762 H   0  0  0  0  0  0  0  0  0  0  0  0
  147.8360  136.0844  154.1785 H   0  0  0  0  0  0  0  0  0  0  0  0
  147.0441  135.7582  155.7189 H   0  0  0  0  0  0  0  0  0  0  0  0
  149.7887  137.0811  155.5589 H   0  0  0  0  0  0  0  0  0  0  0  0
  149.7769  138.8265  155.9799 H   0  0  0  0  0  0  0  0  0  0  0  0
  150.6632  141.0810  156.6243 H   0  0  0  0  0  0  0  0  0  0  0  0
  152.0696  141.2854  160.9677 H   0  0  0  0  0  0  0  0  0  0  0  0
  153.4917  140.7574  160.0817 H   0  0  0  0  0  0  0  0  0  0  0  0
  153.8840  142.8951  161.3726 H   0  0  0  0  0  0  0  0  0  0  0  0
  154.1724  143.1033  159.6636 H   0  0  0  0  0  0  0  0  0  0  0  0
  149.8709  145.1970  158.6353 H   0  0  0  0  0  0  0  0  0  0  0  0
  150.9682  146.0336  159.7298 H   0  0  0  0  0  0  0  0  0  0  0  0
  149.9215  144.7593  160.3398 H   0  0  0  0  0  0  0  0  0  0  0  0
  151.8693  144.6961  157.1269 H   0  0  0  0  0  0  0  0  0  0  0  0
  153.2490  143.7947  157.7176 H   0  0  0  0  0  0  0  0  0  0  0  0
  152.9920  145.4510  158.2517 H   0  0  0  0  0  0  0  0  0  0  0  0
  150.4506  142.6724  157.9476 H   0  0  0  0  0  0  0  0  0  0  0  0
  150.2298  142.4272  159.6687 H   0  0  0  0  0  0  0  0  0  0  0  0
  1  2  1  0  0  0  0
  1 21  1  0  0  0  0
  1 22  1  0  0  0  0
  1 23  1  0  0  0  0
  2  3  1  0  0  0  0
  2  4  1  0  0  0  0
  2 24  1  0  0  0  0
  3 25  1  0  0  0  0
  3 26  1  0  0  0  0
  3 27  1  0  0  0  0
  4  5  1  0  0  0  0
  4 28  1  0  0  0  0
  5  6  2  0  0  0  0
  5  7  1  0  0  0  0
  7 20  1  0  0  0  0
  7  8  2  0  0  0  0
  8  9  1  0  0  0  0
  8 29  1  0  0  0  0
  9 10  2  0  0  0  0
  9 30  1  0  0  0  0
 10 11  1  0  0  0  0
 10 19  1  0  0  0  0
 11 18  1  0  0  0  0
 11 12  1  0  0  0  0
 12 13  1  0  0  0  0
 12 31  1  0  0  0  0
 12 32  1  0  0  0  0
 13 14  1  0  0  0  0
 13 33  1  0  0  0  0
 13 34  1  0  0  0  0
 14 15  1  0  0  0  0
 15 16  1  0  0  0  0
 15 17  1  0  0  0  0
 15 18  1  0  0  0  0
 16 35  1  0  0  0  0
 16 36  1  0  0  0  0
 16 37  1  0  0  0  0
 17 38  1  0  0  0  0
 17 39  1  0  0  0  0
 17 40  1  0  0  0  0
 18 41  1  0  0  0  0
 18 42  1  0  0  0  0
 19 20  2  0  0  0  0
M  END
> <s_m_source_file>
AV-unprocessed.smi

> <i_m_source_file_index>
938

> <i_lp_mmshare_version>
43012

> <i_f3d_flags>
0

> <s_epik_input>
W0NIM11bQ0hdKFtDSDNdKVtOSF1DKD1PKWMxW2NIXVtjSF1jKG5uMSlOKFtDSDJdMilbQ0gyXVtDSDJdT0MyKFtDSDNdKVtDSDNd

> <s_epik_cmdline>
J2VwaWtfcHl0aG9uJywgJy1waCcsICc3LjAnLCAnLXRuJywgJzgnLCAnLW1hJywgJzIwMCcsICctbWV0YWxfYmluZGluZycsICctaW1hZScsICc8aW5maWxlLm1hZT4nLCAnLW9tYWUnLCAnPG91dGZpbGUubWFlPic=

> <r_lp_tautomer_probability>
1

> <r_epik_Ionization_Penalty>
1.44833e-06

> <r_epik_Ionization_Penalty_Charging>
0

> <r_epik_Ionization_Penalty_Neutral>
1.44833e-06

> <r_epik_State_Penalty>
-0

> <r_epik_Charging_Adjusted_Penalty>
0

> <i_epik_Tot_Q>
0

> <i_epik_Tot_abs_Q>
0

> <r_epik_Metal_State_Penalty>
-0

> <b_epik_Metal_Only>
0

> <s_lp_Force_Field>
OPLS_2005

> <r_lp_Energy>
32.4644

> <b_lp_Chiralities_Consistent>
1

> <s_lp_Variant>
AV-unprocessed.smi:938-1

> <Gold.Version>
5.8.1

> <Gold.Id.Protein>
6NUR|6NUR_protein|mol2

> <Gold.PLP.Fitness>
33.6598

> <Gold.PLP.PLP>
-30.9301

> <Gold.PLP.part.hbond>
-1.0000

> <Gold.PLP.part.metal>
0.0000

> <Gold.PLP.part.buried>
-6.1467

> <Gold.PLP.part.nonpolar>
-24.3265

> <Gold.PLP.part.repulsive>
0.0744

> <Gold.PLP.ligand.clash>
0.0000

> <Gold.PLP.ligand.torsion>
0.1850

> <Gold.PLP.Chemscore.Hbond>
1.0000

> <Gold.PLP.Chemscore.CHOScore>
0.0000

> <Gold.PLP.Chemscore.Metal>
0.0000

> <Gold.Chemscore.Hbonds>
donor molecule, donor type, donor heavy atom, donor atom, acceptor molecule, acceptor atom, score
      P1  H  6896  6909       L1     6  0.99

> <Gold.PLP.Chemscore.Internal.Correction>
0.0997

> <Gold.Rescore>
     Score         DG    S(hbond)    S(metal)    S(lipo)     H(rot)  DE(clash)    DE(int)     intcor
     15.72     -15.90       1.00        0.00      86.38       1.17       0.01       0.18       ----

> <Gold.Chemscore.Fitness>
15.7153

> <Gold.Chemscore.DG>
-15.9035

> <Gold.Chemscore.ZeroCoef>
-5.4800

> <Gold.Chemscore.Hbond>
0.9955

> <Gold.Chemscore.Metal>
0.0000

> <Gold.Chemscore.Lipo>
86.3777

> <Gold.Chemscore.Internal_Hbond>
0.0000

> <Gold.Chemscore.DEClash>
0.0112

> <Gold.Chemscore.DEInternal>
0.1769

> <Gold.Chemscore.Rot>
1.1749

> <Gold.Chemscore.Internal.Correction>
   9.000000E+99

> <Gold.Chemscore.Hbonds>
donor molecule, donor type, donor heavy atom, donor atom, acceptor molecule, acceptor atom, score
      P1  H  6896  6909       L1     6  0.94

> <Gold.Chemscore.Hbond.Weighted>
-3.3249

> <Gold.Chemscore.Metal.Weighted>
-0.0000

> <Gold.Chemscore.Lipo.Weighted>
-10.1062

> <Gold.Chemscore.Internal_Hbond.Weighted>
0.0000

> <Gold.Chemscore.DEClash.Weighted>
0.0112

> <Gold.Chemscore.DEInternal.Weighted>
0.1769

> <Gold.Chemscore.Rot.Weighted>
3.0076

> <Gold.Chemscore.Internal.Correction.Weighted>
   9.000000E+99

> <Gold.Protein.RotatedTorsions>
[ 6907 6896 6895 6894 ] final   43.40 input  -60.11 | X-H torsion
[ 7974 7965 7964 7962 ] final   92.76 input  175.53 | X-H torsion
[ 8008 7997 7996 7995 ] final  -98.41 input   59.86 | X-H torsion
[ 10167 10162 10161 10158 ] final  -96.41 input  -65.29 | X-H torsion
[ 10718 10713 10712 10709 ] final -101.82 input   66.30 | X-H torsion
[ 10763 10752 10751 10750 ] final  152.36 input  -60.55 | X-H torsion
[ 11005 11000 10999 10996 ] final   -1.51 input  -57.11 | X-H torsion

> <Gold.Protein.ActiveResidues>
 VAL166  LYS551  ARG553  GLY616  TRP617  ASP618  TYR619  PRO620  LYS621  CYS622 
 ASP623  PHE694  ASN695  SER759  ASP760  ASP761  ALA762  ILE779  LEU786  VAL792 
 PHE793  MET794  SER795  GLU796  ALA797  LYS798  CYS799  TRP800  GLU811  SER814 

> <Gold.Protein.RotatedAtoms>
  152.2198  134.8423  160.0487 H   0  0  0  0  0  0  0  0  0  0  0  0  # atno 6907 bound_to 6896
  151.9211  133.3580  159.3905 H   0  0  0  0  0  0  0  0  0  0  0  0  # atno 6908 bound_to 6896
  150.6997  134.4559  159.5402 H   0  0  0  0  0  0  0  0  0  0  0  0  # atno 6909 bound_to 6896
  145.4880  139.2277  143.2845 H   0  0  0  0  0  0  0  0  0  0  0  0  # atno 7974 bound_to 7965
  154.8008  140.0455  157.1271 H   0  0  0  0  0  0  0  0  0  0  0  0  # atno 8008 bound_to 7997
  154.9481  140.3061  155.5068 H   0  0  0  0  0  0  0  0  0  0  0  0  # atno 8009 bound_to 7997
  156.2961  140.2293  156.4556 H   0  0  0  0  0  0  0  0  0  0  0  0  # atno 8010 bound_to 7997
  140.2941  143.3203  152.0316 H   0  0  0  0  0  0  0  0  0  0  0  0  # atno 10167 bound_to 10162
  156.0207  130.5391  150.7018 H   0  0  0  0  0  0  0  0  0  0  0  0  # atno 10718 bound_to 10713
  154.1188  135.2834  155.3213 H   0  0  0  0  0  0  0  0  0  0  0  0  # atno 10763 bound_to 10752
  154.6438  135.5393  153.7824 H   0  0  0  0  0  0  0  0  0  0  0  0  # atno 10764 bound_to 10752
  153.0320  135.6493  154.1343 H   0  0  0  0  0  0  0  0  0  0  0  0  # atno 10765 bound_to 10752
  140.6481  133.9429  155.8364 H   0  0  0  0  0  0  0  0  0  0  0  0  # atno 11005 bound_to 11000
  146.2301  140.5672  142.8979 LP  0  0  0  0  0  0  0  0  0  0  0  0  # atno 17320 bound_to 7965
  144.7850  140.5918  143.6580 LP  0  0  0  0  0  0  0  0  0  0  0  0  # atno 17321 bound_to 7965
  139.4931  144.6504  151.6688 LP  0  0  0  0  0  0  0  0  0  0  0  0  # atno 17342 bound_to 10162
  140.5707  144.0113  150.6215 LP  0  0  0  0  0  0  0  0  0  0  0  0  # atno 17343 bound_to 10162
  157.4676  131.0890  151.0677 LP  0  0  0  0  0  0  0  0  0  0  0  0  # atno 17370 bound_to 10713
  157.1147  130.6036  149.5490 LP  0  0  0  0  0  0  0  0  0  0  0  0  # atno 17371 bound_to 10713
  141.0557  134.0420  157.3725 LP  0  0  0  0  0  0  0  0  0  0  0  0  # atno 17394 bound_to 11000
  139.9056  135.0178  156.7468 LP  0  0  0  0  0  0  0  0  0  0  0  0  # atno 17395 bound_to 11000

$$$$
