#       Name:                AV-unprocessed.smi:2126
#       Creating user name   scv26
#       Creation time:       Fri Mar 27 11:42:55 2020


#       File generated by GOLD software.
#

@<TRIPOS>MOLECULE
AV-unprocessed.smi:2126
    47    49     1
SMALL
NO_CHARGES


@<TRIPOS>ATOM
      1 ****        -4.1244   6.0716  -0.2598 C.3            1 S1                 0.0000
      2 ****        -2.7059   6.0131  -0.2982 O.3            1 S1                 0.0000
      3 ****        -2.1082   4.7710  -0.2999 C.ar           1 S1                 0.0000
      4 ****        -2.8169   3.5449  -0.2694 C.ar           1 S1                 0.0000
      5 ****        -2.1219   2.3201  -0.2731 C.ar           1 S1                 0.0000
      6 ****        -0.7140   2.2852  -0.3083 C.ar           1 S1                 0.0000
      7 ****        -0.1172   1.0428  -0.3090 O.3            1 S1                 0.0000
      8 ****         1.3025   0.9777  -0.3491 C.3            1 S1                 0.0000
      9 ****         1.7332  -0.4958  -0.3190 C.3            1 S1                 0.0000
     10 ****         3.1205  -0.5660  -0.5842 O.3            1 S1                 0.0000
     11 ****         1.4255  -1.1707   1.0320 C.3            1 S1                 0.0000
     12 ****         1.8244  -2.5662   1.0584 N.pl3          1 S1                 0.0000
     13 ****         2.8968  -3.0957   1.6783 C.2            1 S1                 0.0000
     14 ****         3.0756  -4.4093   1.5701 N.2            1 S1                 0.0000
     15 ****         1.9889  -4.7764   0.7950 C.ar           1 S1                 0.0000
     16 ****         1.5888  -6.0449   0.3169 C.ar           1 S1                 0.0000
     17 ****         0.4241  -6.1778  -0.4676 C.ar           1 S1                 0.0000
     18 ****        -0.3566  -5.0476  -0.7865 C.ar           1 S1                 0.0000
     19 ****         0.0224  -3.7732  -0.3227 C.ar           1 S1                 0.0000
     20 ****         1.1848  -3.6454   0.4597 C.ar           1 S1                 0.0000
     21 ****        -0.0054   3.5112  -0.3403 C.ar           1 S1                 0.0000
     22 ****        -0.7003   4.7359  -0.3351 C.ar           1 S1                 0.0000
     23 ****        -4.4413   7.1143  -0.2686 H              1 S1                 0.0000
     24 ****        -4.5176   5.6149   0.6495 H              1 S1                 0.0000
     25 ****        -4.5680   5.5848  -1.1295 H              1 S1                 0.0000
     26 ****        -3.8954   3.5160  -0.2429 H              1 S1                 0.0000
     27 ****        -2.6782   1.3944  -0.2492 H              1 S1                 0.0000
     28 ****         1.6581   1.4457  -1.2689 H              1 S1                 0.0000
     29 ****         1.7415   1.5129   0.4947 H              1 S1                 0.0000
     30 ****         1.2215  -1.0293  -1.1210 H              1 S1                 0.0000
     31 ****         3.3711  -1.4764  -0.6257 H              1 S1                 0.0000
     32 ****         1.9308  -0.6463   1.8446 H              1 S1                 0.0000
     33 ****         0.3574  -1.1212   1.2463 H              1 S1                 0.0000
     34 ****         3.5876  -2.4809   2.2370 H              1 S1                 0.0000
     35 ****         2.1790  -6.9174   0.5548 H              1 S1                 0.0000
     36 ****         0.1279  -7.1526  -0.8265 H              1 S1                 0.0000
     37 ****        -1.2469  -5.1595  -1.3879 H              1 S1                 0.0000
     38 ****        -0.5722  -2.9048  -0.5652 H              1 S1                 0.0000
     39 ****         1.0730   3.5410  -0.3691 H              1 S1                 0.0000
     40 ****        -0.1434   5.6611  -0.3589 H              1 S1                 0.0000
     41 ****        -2.3664   6.5051   0.5034 LP             1 S1                 0.0000
     42 ****        -2.4114   6.4857  -1.1288 LP             1 S1                 0.0000
     43 ****        -0.4590   0.5504  -1.1095 LP             1 S1                 0.0000
     44 ****        -0.4119   0.5721   0.5226 LP             1 S1                 0.0000
     45 ****         3.6275  -0.1093   0.1467 LP             1 S1                 0.0000
     46 ****         3.3203  -0.1207  -1.4570 LP             1 S1                 0.0000
     47 ****         3.8033  -4.9811   1.9488 LP             1 S1                 0.0000
@<TRIPOS>BOND
    1    1    2 1     
    2    1   23 1     
    3    1   24 1     
    4    1   25 1     
    5    2    3 1     
    6    3   22 ar    
    7    3    4 ar    
    8    4    5 ar    
    9    4   26 1     
   10    5    6 ar    
   11    5   27 1     
   12    6    7 1     
   13    6   21 ar    
   14    7    8 1     
   15    8    9 1     
   16    8   28 1     
   17    8   29 1     
   18    9   10 1     
   19    9   11 1     
   20    9   30 1     
   21   10   31 1     
   22   11   12 1     
   23   11   32 1     
   24   11   33 1     
   25   12   20 1     
   26   12   13 1     
   27   13   14 2     
   28   13   34 1     
   29   14   15 1     
   30   15   20 ar    
   31   15   16 ar    
   32   16   17 ar    
   33   16   35 1     
   34   17   18 ar    
   35   17   36 1     
   36   18   19 ar    
   37   18   37 1     
   38   19   20 ar    
   39   19   38 1     
   40   21   22 ar    
   41   21   39 1     
   42   22   40 1     
   43    2   41 1     
   44    2   42 1     
   45    7   43 1     
   46    7   44 1     
   47   10   45 1     
   48   10   46 1     
   49   14   47 1     
@<TRIPOS>SUBSTRUCTURE
      1 S1             1
@<TRIPOS>SET
LONE_PAIRS      STATIC     ATOMS    <user>   **** ""
7 41 42 43 44 45 46 47
DONOR_HYDROGENS      STATIC     ATOMS    <user>   **** ""
1 31
ATOM$BLUE        STATIC     ATOMS    COLORGROUP SYSTEM
7 41 42 43 44 45 46 47
ATOM$RED        STATIC     ATOMS    COLORGROUP SYSTEM
1 31
