AV-unprocessed.smi:758|AV-procd|sdf|3617|dock5
  -GOLD-   22720 1 13D 1   1.00000     0.00000
 Structure written by MMmdl.
 47 48  0  0  0  0  0  0  0  0  1 V2000
  150.5351  144.6040  159.7059 C   0  0  0  0  0  0  0  0  0  0  0  0
  151.7969  143.7946  159.3350 C   0  0  0  0  0  0  0  0  0  0  0  0
  152.4944  144.4961  158.1480 C   0  0  0  0  0  0  0  0  0  0  0  0
  152.7813  143.8510  160.5249 C   0  0  0  0  0  0  0  0  0  0  0  0
  151.4639  142.3055  158.9700 C   0  0  2  0  0  0  0  0  0  0  0  0
  152.7085  141.4163  158.7255 C   0  0  0  0  0  0  0  0  0  0  0  0
  152.3320  139.9434  158.4875 C   0  0  0  0  0  0  0  0  0  0  0  0
  151.3348  139.7492  157.3252 C   0  0  1  0  0  0  0  0  0  0  0  0
  152.0047  140.1002  156.1270 O   0  0  0  0  0  0  0  0  0  0  0  0
  150.9481  138.2528  157.2171 C   0  0  0  0  0  0  0  0  0  0  0  0
  149.7710  137.9053  158.0090 N   0  0  0  0  0  0  0  0  0  0  0  0
  149.7384  136.9780  158.9780 C   0  0  0  0  0  0  0  0  0  0  0  0
  150.7272  136.3432  159.3454 O   0  0  0  0  0  0  0  0  0  0  0  0
  148.3761  136.7089  159.6184 C   0  0  0  0  0  0  0  0  0  0  0  0
  148.5275  136.1230  160.9390 N   0  0  0  0  0  0  0  0  0  0  0  0
  148.3932  134.8607  161.3532 C   0  0  0  0  0  0  0  0  0  0  0  0
  148.5983  134.6982  162.6529 N   0  0  0  0  0  0  0  0  0  0  0  0
  148.8698  135.9905  163.0038 C   0  0  0  0  0  0  0  0  0  0  0  0
  148.8340  136.8846  162.0157 N   0  0  0  0  0  0  0  0  0  0  0  0
  150.1111  140.6746  157.5213 C   0  0  0  0  0  0  0  0  0  0  0  0
  150.4973  142.1436  157.7703 C   0  0  0  0  0  0  0  0  0  0  0  0
  150.7923  145.6341  159.9547 H   0  0  0  0  0  0  0  0  0  0  0  0
  150.0219  144.1879  160.5725 H   0  0  0  0  0  0  0  0  0  0  0  0
  149.8203  144.6459  158.8846 H   0  0  0  0  0  0  0  0  0  0  0  0
  151.8231  144.6421  157.3024 H   0  0  0  0  0  0  0  0  0  0  0  0
  153.3555  143.9260  157.7976 H   0  0  0  0  0  0  0  0  0  0  0  0
  152.8540  145.4871  158.4278 H   0  0  0  0  0  0  0  0  0  0  0  0
  153.1263  144.8697  160.7072 H   0  0  0  0  0  0  0  0  0  0  0  0
  153.6647  143.2381  160.3416 H   0  0  0  0  0  0  0  0  0  0  0  0
  152.3258  143.5115  161.4547 H   0  0  0  0  0  0  0  0  0  0  0  0
  150.9510  141.8855  159.8371 H   0  0  0  0  0  0  0  0  0  0  0  0
  153.2755  141.7838  157.8703 H   0  0  0  0  0  0  0  0  0  0  0  0
  153.3849  141.4487  159.5779 H   0  0  0  0  0  0  0  0  0  0  0  0
  153.2364  139.3595  158.3098 H   0  0  0  0  0  0  0  0  0  0  0  0
  151.8966  139.5471  159.4059 H   0  0  0  0  0  0  0  0  0  0  0  0
  151.3640  140.3988  155.4997 H   0  0  0  0  0  0  0  0  0  0  0  0
  150.8250  137.9560  156.1736 H   0  0  0  0  0  0  0  0  0  0  0  0
  151.7655  137.6421  157.6022 H   0  0  0  0  0  0  0  0  0  0  0  0
  148.9102  138.3787  157.7761 H   0  0  0  0  0  0  0  0  0  0  0  0
  147.8200  137.6448  159.6937 H   0  0  0  0  0  0  0  0  0  0  0  0
  147.7841  136.0301  159.0025 H   0  0  0  0  0  0  0  0  0  0  0  0
  148.1426  134.0449  160.6912 H   0  0  0  0  0  0  0  0  0  0  0  0
  149.0963  136.2817  164.0188 H   0  0  0  0  0  0  0  0  0  0  0  0
  149.4498  140.6261  156.6557 H   0  0  0  0  0  0  0  0  0  0  0  0
  149.5258  140.3180  158.3699 H   0  0  0  0  0  0  0  0  0  0  0  0
  149.5777  142.7030  157.9329 H   0  0  0  0  0  0  0  0  0  0  0  0
  150.9473  142.5504  156.8646 H   0  0  0  0  0  0  0  0  0  0  0  0
  1  2  1  0  0  0  0
  1 22  1  0  0  0  0
  1 23  1  0  0  0  0
  1 24  1  0  0  0  0
  2  3  1  0  0  0  0
  2  4  1  0  0  0  0
  2  5  1  0  0  0  0
  3 25  1  0  0  0  0
  3 26  1  0  0  0  0
  3 27  1  0  0  0  0
  4 28  1  0  0  0  0
  4 29  1  0  0  0  0
  4 30  1  0  0  0  0
  5 21  1  0  0  0  0
  5  6  1  0  0  0  0
  5 31  1  0  0  0  0
  6  7  1  0  0  0  0
  6 32  1  0  0  0  0
  6 33  1  0  0  0  0
  7  8  1  0  0  0  0
  7 34  1  0  0  0  0
  7 35  1  0  0  0  0
  8  9  1  0  0  0  0
  8 10  1  0  0  0  0
  8 20  1  0  0  0  0
  9 36  1  0  0  0  0
 10 11  1  0  0  0  0
 10 37  1  0  0  0  0
 10 38  1  0  0  0  0
 11 12  1  0  0  0  0
 11 39  1  0  0  0  0
 12 13  2  0  0  0  0
 12 14  1  0  0  0  0
 14 15  1  0  0  0  0
 14 40  1  0  0  0  0
 14 41  1  0  0  0  0
 15 19  1  0  0  0  0
 15 16  1  0  0  0  0
 16 17  2  0  0  0  0
 16 42  1  0  0  0  0
 17 18  1  0  0  0  0
 18 19  2  0  0  0  0
 18 43  1  0  0  0  0
 20 21  1  0  0  0  0
 20 44  1  0  0  0  0
 20 45  1  0  0  0  0
 21 46  1  0  0  0  0
 21 47  1  0  0  0  0
M  END
> <s_m_source_file>
AV-unprocessed.smi

> <i_m_source_file_index>
758

> <i_lp_mmshare_version>
43012

> <i_f3d_flags>
0

> <s_epik_input>
W0NIM11DKFtDSDNdKShbQ0gzXSlbQ0BASF0oW0NIMl1bQ0gyXTEpW0NIMl1bQ0gyXVtDQEBdMShbT0hdKVtDSDJdW05IXUMoPU8pW0NIMl1uMltjSF1uW2NIXW4y

> <s_epik_cmdline>
J2VwaWtfcHl0aG9uJywgJy1waCcsICc3LjAnLCAnLXRuJywgJzgnLCAnLW1hJywgJzIwMCcsICctbWV0YWxfYmluZGluZycsICctaW1hZScsICc8aW5maWxlLm1hZT4nLCAnLW9tYWUnLCAnPG91dGZpbGUubWFlPic=

> <r_lp_tautomer_probability>
1

> <r_epik_Ionization_Penalty>
1.04836e-05

> <r_epik_Ionization_Penalty_Charging>
0

> <r_epik_Ionization_Penalty_Neutral>
1.04836e-05

> <r_epik_State_Penalty>
-0

> <r_epik_Charging_Adjusted_Penalty>
0

> <i_epik_Tot_Q>
0

> <i_epik_Tot_abs_Q>
0

> <r_epik_Metal_State_Penalty>
-0

> <b_epik_Metal_Only>
0

> <s_lp_Force_Field>
OPLS_2005

> <r_lp_Energy>
23.8221

> <b_lp_Chiralities_Consistent>
1

> <s_lp_Variant>
AV-unprocessed.smi:758-1

> <Gold.Version>
5.8.1

> <Gold.Id.Protein>
6NUR|6NUR_protein|mol2

> <Gold.PLP.Fitness>
50.7469

> <Gold.PLP.PLP>
-41.9132

> <Gold.PLP.part.hbond>
-3.9747

> <Gold.PLP.part.metal>
0.0000

> <Gold.PLP.part.buried>
-5.6819

> <Gold.PLP.part.nonpolar>
-31.9480

> <Gold.PLP.part.repulsive>
0.0784

> <Gold.PLP.ligand.clash>
0.0000

> <Gold.PLP.ligand.torsion>
1.1179

> <Gold.PLP.Chemscore.Hbond>
3.6661

> <Gold.PLP.Chemscore.CHOScore>
0.0000

> <Gold.PLP.Chemscore.Metal>
0.0000

> <Gold.Chemscore.Hbonds>
donor molecule, donor type, donor heavy atom, donor atom, acceptor molecule, acceptor atom, score
      P1  H  6896  6908       L1    13  0.81
      P1  H  6931  6943       L1    19  0.60
      P1  H  7997  8008       L1     9  0.23

> <Gold.PLP.Chemscore.Internal.Correction>
0.0711

> <Gold.Rescore>
     Score         DG    S(hbond)    S(metal)    S(lipo)     H(rot)  DE(clash)    DE(int)     intcor
     18.18     -19.31       3.30        0.00      93.34       3.17       0.00       1.12       ----

> <Gold.Chemscore.Fitness>
18.1829

> <Gold.Chemscore.DG>
-19.3052

> <Gold.Chemscore.ZeroCoef>
-5.4800

> <Gold.Chemscore.Hbond>
3.2966

> <Gold.Chemscore.Metal>
0.0000

> <Gold.Chemscore.Lipo>
93.3358

> <Gold.Chemscore.Internal_Hbond>
0.0000

> <Gold.Chemscore.DEClash>
0.0009

> <Gold.Chemscore.DEInternal>
1.1214

> <Gold.Chemscore.Rot>
3.1663

> <Gold.Chemscore.Internal.Correction>
   9.000000E+99

> <Gold.Chemscore.Hbonds>
donor molecule, donor type, donor heavy atom, donor atom, acceptor molecule, acceptor atom, score
      P1  H  6896  6908       L1    13  0.76
      P1  H  6931  6943       L1    19  0.60
      P1  H  7997  8008       L1     9  0.20

> <Gold.Chemscore.Hbond.Weighted>
-11.0105

> <Gold.Chemscore.Metal.Weighted>
-0.0000

> <Gold.Chemscore.Lipo.Weighted>
-10.9203

> <Gold.Chemscore.Internal_Hbond.Weighted>
0.0000

> <Gold.Chemscore.DEClash.Weighted>
0.0009

> <Gold.Chemscore.DEInternal.Weighted>
1.1214

> <Gold.Chemscore.Rot.Weighted>
8.1056

> <Gold.Chemscore.Internal.Correction.Weighted>
   9.000000E+99

> <Gold.Protein.RotatedTorsions>
[ 6907 6896 6895 6894 ] final -172.25 input  -60.11 | X-H torsion
[ 7974 7965 7964 7962 ] final   17.40 input  175.53 | X-H torsion
[ 8008 7997 7996 7995 ] final  -44.45 input   59.86 | X-H torsion
[ 10167 10162 10161 10158 ] final -179.15 input  -65.29 | X-H torsion
[ 10718 10713 10712 10709 ] final  -58.34 input   66.30 | X-H torsion
[ 10763 10752 10751 10750 ] final -129.86 input  -60.55 | X-H torsion
[ 11005 11000 10999 10996 ] final -154.37 input  -57.11 | X-H torsion

> <Gold.Protein.ActiveResidues>
 VAL166  LYS551  ARG553  GLY616  TRP617  ASP618  TYR619  PRO620  LYS621  CYS622 
 ASP623  PHE694  ASN695  SER759  ASP760  ASP761  ALA762  ILE779  LEU786  VAL792 
 PHE793  MET794  SER795  GLU796  ALA797  LYS798  CYS799  TRP800  GLU811  SER814 

> <Gold.Protein.RotatedAtoms>
  151.5369  133.3439  159.2928 H   0  0  0  0  0  0  0  0  0  0  0  0  # atno 6907 bound_to 6896
  150.8559  134.7900  159.7056 H   0  0  0  0  0  0  0  0  0  0  0  0  # atno 6908 bound_to 6896
  152.4593  134.5230  159.9840 H   0  0  0  0  0  0  0  0  0  0  0  0  # atno 6909 bound_to 6896
  146.2219  139.8607  142.8605 H   0  0  0  0  0  0  0  0  0  0  0  0  # atno 7974 bound_to 7965
  154.3997  140.1422  156.3685 H   0  0  0  0  0  0  0  0  0  0  0  0  # atno 8008 bound_to 7997
  155.8115  140.3472  155.5439 H   0  0  0  0  0  0  0  0  0  0  0  0  # atno 8009 bound_to 7997
  155.8382  140.0922  157.1741 H   0  0  0  0  0  0  0  0  0  0  0  0  # atno 8010 bound_to 7997
  139.5399  144.2392  152.0873 H   0  0  0  0  0  0  0  0  0  0  0  0  # atno 10167 bound_to 10162
  156.1142  130.4172  150.0564 H   0  0  0  0  0  0  0  0  0  0  0  0  # atno 10718 bound_to 10713
  154.8757  135.3881  154.3989 H   0  0  0  0  0  0  0  0  0  0  0  0  # atno 10763 bound_to 10752
  153.4716  135.7030  153.5995 H   0  0  0  0  0  0  0  0  0  0  0  0  # atno 10764 bound_to 10752
  153.4450  135.3847  155.2218 H   0  0  0  0  0  0  0  0  0  0  0  0  # atno 10765 bound_to 10752
  140.6980  134.3968  157.5212 H   0  0  0  0  0  0  0  0  0  0  0  0  # atno 11005 bound_to 11000
  145.2707  141.0107  143.3773 LP  0  0  0  0  0  0  0  0  0  0  0  0  # atno 17320 bound_to 7965
  144.9226  139.4394  143.6534 LP  0  0  0  0  0  0  0  0  0  0  0  0  # atno 17321 bound_to 7965
  140.1869  144.4790  150.6499 LP  0  0  0  0  0  0  0  0  0  0  0  0  # atno 17342 bound_to 10162
  140.6624  143.2256  151.5824 LP  0  0  0  0  0  0  0  0  0  0  0  0  # atno 17343 bound_to 10162
  156.8520  130.9462  151.3625 LP  0  0  0  0  0  0  0  0  0  0  0  0  # atno 17370 bound_to 10713
  157.6325  130.8740  149.9299 LP  0  0  0  0  0  0  0  0  0  0  0  0  # atno 17371 bound_to 10713
  139.8904  134.8804  156.2369 LP  0  0  0  0  0  0  0  0  0  0  0  0  # atno 17394 bound_to 11000
  141.0187  133.7054  156.1231 LP  0  0  0  0  0  0  0  0  0  0  0  0  # atno 17395 bound_to 11000

$$$$
