AV-unprocessed.smi:942|AV-procd|sdf|4221|dock1
  -GOLD-   22720 2133D 1   1.00000     0.00000
 Structure written by MMmdl.
 43 45  0  0  0  0  0  0  0  0  2 V2000
  150.9641  140.0338  158.6224 O   0  0  0  0  0  0  0  0  0  0  0  0
  151.2235  140.8939  157.7798 C   0  0  0  0  0  0  0  0  0  0  0  0
  150.8650  140.7885  156.4907 N   0  0  0  0  0  0  0  0  0  0  0  0
  150.1336  139.6613  155.9189 C   0  0  2  0  0  0  0  0  0  0  0  0
  150.9455  138.3576  156.0497 C   0  0  0  0  0  0  0  0  0  0  0  0
  151.2854  137.9111  154.6248 C   0  0  0  0  0  0  0  0  0  0  0  0
  150.1626  138.4841  153.7654 C   0  0  0  0  0  0  0  0  0  0  0  0
  149.8878  139.8498  154.4028 C   0  0  1  0  0  0  0  0  0  0  0  0
  148.5663  140.4056  154.0740 N   0  0  0  0  0  0  0  0  0  0  0  0
  148.1356  141.6877  154.3040 C   0  0  0  0  0  0  0  0  0  0  0  0
  146.8419  141.7549  153.8555 C   0  0  0  0  0  0  0  0  0  0  0  0
  146.5362  140.5130  153.3678 N   0  3  0  0  0  0  0  0  0  0  0  0
  147.5848  139.6946  153.5001 C   0  0  0  0  0  0  0  0  0  0  0  0
  151.9866  142.1629  158.1796 C   0  0  0  0  0  0  0  0  0  0  0  0
  152.1936  142.2238  159.7083 C   0  0  0  0  0  0  0  0  0  0  0  0
  152.9432  143.5012  160.1202 C   0  0  0  0  0  0  0  0  0  0  0  0
  152.2136  144.7588  159.6222 C   0  0  0  0  0  0  0  0  0  0  0  0
  151.9927  144.7073  158.1023 C   0  0  0  0  0  0  0  0  0  0  0  0
  151.2479  143.4269  157.6895 C   0  0  0  0  0  0  0  0  0  0  0  0
  151.1155  141.5392  155.8633 H   0  0  0  0  0  0  0  0  0  0  0  0
  149.1962  139.5303  156.4626 H   0  0  0  0  0  0  0  0  0  0  0  0
  151.8428  138.4666  156.6609 H   0  0  0  0  0  0  0  0  0  0  0  0
  150.3275  137.5964  156.5276 H   0  0  0  0  0  0  0  0  0  0  0  0
  152.2377  138.3478  154.3209 H   0  0  0  0  0  0  0  0  0  0  0  0
  151.3729  136.8280  154.5345 H   0  0  0  0  0  0  0  0  0  0  0  0
  150.4382  138.5604  152.7132 H   0  0  0  0  0  0  0  0  0  0  0  0
  149.2882  137.8359  153.8353 H   0  0  0  0  0  0  0  0  0  0  0  0
  150.6324  140.5437  154.0067 H   0  0  0  0  0  0  0  0  0  0  0  0
  148.7632  142.4371  154.7642 H   0  0  0  0  0  0  0  0  0  0  0  0
  146.1345  142.5714  153.8486 H   0  0  0  0  0  0  0  0  0  0  0  0
  147.6268  138.6607  153.2071 H   0  0  0  0  0  0  0  0  0  0  0  0
  152.9694  142.1372  157.7049 H   0  0  0  0  0  0  0  0  0  0  0  0
  151.2308  142.1936  160.2211 H   0  0  0  0  0  0  0  0  0  0  0  0
  152.7511  141.3496  160.0476 H   0  0  0  0  0  0  0  0  0  0  0  0
  153.0484  143.5373  161.2050 H   0  0  0  0  0  0  0  0  0  0  0  0
  153.9542  143.4794  159.7119 H   0  0  0  0  0  0  0  0  0  0  0  0
  151.2515  144.8475  160.1288 H   0  0  0  0  0  0  0  0  0  0  0  0
  152.7852  145.6494  159.8852 H   0  0  0  0  0  0  0  0  0  0  0  0
  151.4316  145.5845  157.7791 H   0  0  0  0  0  0  0  0  0  0  0  0
  152.9552  144.7514  157.5916 H   0  0  0  0  0  0  0  0  0  0  0  0
  151.1415  143.4025  156.6042 H   0  0  0  0  0  0  0  0  0  0  0  0
  150.2364  143.4547  158.0979 H   0  0  0  0  0  0  0  0  0  0  0  0
  145.6444  140.2481  152.9685 H   0  0  0  0  0  0  0  0  0  0  0  0
  1  2  2  0  0  0  0
  2  3  1  0  0  0  0
  2 14  1  0  0  0  0
  3  4  1  0  0  0  0
  3 20  1  0  0  0  0
  4  8  1  0  0  0  0
  4  5  1  0  0  0  0
  4 21  1  0  0  0  0
  5  6  1  0  0  0  0
  5 22  1  0  0  0  0
  5 23  1  0  0  0  0
  6  7  1  0  0  0  0
  6 24  1  0  0  0  0
  6 25  1  0  0  0  0
  7  8  1  0  0  0  0
  7 26  1  0  0  0  0
  7 27  1  0  0  0  0
  8  9  1  0  0  0  0
  8 28  1  0  0  0  0
  9 13  1  0  0  0  0
  9 10  1  0  0  0  0
 10 11  2  0  0  0  0
 10 29  1  0  0  0  0
 11 12  1  0  0  0  0
 11 30  1  0  0  0  0
 12 13  2  0  0  0  0
 12 43  1  0  0  0  0
 13 31  1  0  0  0  0
 14 19  1  0  0  0  0
 14 15  1  0  0  0  0
 14 32  1  0  0  0  0
 15 16  1  0  0  0  0
 15 33  1  0  0  0  0
 15 34  1  0  0  0  0
 16 17  1  0  0  0  0
 16 35  1  0  0  0  0
 16 36  1  0  0  0  0
 17 18  1  0  0  0  0
 17 37  1  0  0  0  0
 17 38  1  0  0  0  0
 18 19  1  0  0  0  0
 18 39  1  0  0  0  0
 18 40  1  0  0  0  0
 19 41  1  0  0  0  0
 19 42  1  0  0  0  0
M  CHG  1  12   1
M  END
> <s_m_source_file>
AV-unprocessed.smi

> <i_m_source_file_index>
942

> <i_lp_mmshare_version>
43012

> <i_f3d_flags>
0

> <s_epik_input>
W0NIMl0xW0NIMl1bQ0gyXVtDSDJdW0NIMl1bQ0hdMUMoPU8pW05IXVtDQEBIXTJbQ0gyXVtDSDJdW0NIMl1bQ0BIXTJuM1tjSF1bY0hdbltjSF0z

> <s_epik_cmdline>
J2VwaWtfcHl0aG9uJywgJy1waCcsICc3LjAnLCAnLXRuJywgJzgnLCAnLW1hJywgJzIwMCcsICctbWV0YWxfYmluZGluZycsICctaW1hZScsICc8aW5maWxlLm1hZT4nLCAnLW9tYWUnLCAnPG91dGZpbGUubWFlPic=

> <r_lp_tautomer_probability>
1

> <r_epik_Ionization_Penalty>
0.185467

> <r_epik_Ionization_Penalty_Charging>
0

> <r_epik_Ionization_Penalty_Neutral>
0.185467

> <r_epik_State_Penalty>
0.175036

> <r_epik_Charging_Adjusted_Penalty>
0.175036

> <i_epik_Tot_Q>
1

> <i_epik_Tot_abs_Q>
1

> <r_epik_Metal_State_Penalty>
0.487091

> <b_epik_Metal_Only>
0

> <s_lp_Force_Field>
OPLS_2005

> <r_lp_Energy>
31.9707

> <b_lp_Chiralities_Consistent>
1

> <s_lp_Variant>
AV-unprocessed.smi:942-1

> <Gold.Version>
5.8.1

> <Gold.Id.Protein>
6NUR|6NUR_protein|mol2

> <Gold.PLP.Fitness>
50.2979

> <Gold.PLP.PLP>
-42.0026

> <Gold.PLP.part.hbond>
-1.0000

> <Gold.PLP.part.metal>
0.0000

> <Gold.PLP.part.buried>
-0.5821

> <Gold.PLP.part.nonpolar>
-39.0992

> <Gold.PLP.part.repulsive>
0.1009

> <Gold.PLP.ligand.clash>
0.0000

> <Gold.PLP.ligand.torsion>
0.3633

> <Gold.PLP.Chemscore.Hbond>
2.0000

> <Gold.PLP.Chemscore.CHOScore>
1.0000

> <Gold.PLP.Chemscore.Metal>
0.0000

> <Gold.Chemscore.Hbonds>
donor molecule, donor type, donor heavy atom, donor atom, acceptor molecule, acceptor atom, score
      L1  H    12    43       P1 10175  1.98
      L1  C    10    29       P1  8028  1.00

> <Gold.PLP.Chemscore.Internal.Correction>
0.0218

> <Gold.Rescore>
     Score         DG    S(hbond)    S(metal)    S(lipo)     H(rot)  DE(clash)    DE(int)     intcor
     18.23     -18.38       0.98        0.00     114.54       1.48       0.03       0.12       ----

> <Gold.Chemscore.Fitness>
18.2253

> <Gold.Chemscore.DG>
-18.3763

> <Gold.Chemscore.ZeroCoef>
-5.4800

> <Gold.Chemscore.Hbond>
0.9825

> <Gold.Chemscore.Metal>
0.0000

> <Gold.Chemscore.Lipo>
114.5385

> <Gold.Chemscore.Internal_Hbond>
0.0000

> <Gold.Chemscore.DEClash>
0.0312

> <Gold.Chemscore.DEInternal>
0.1198

> <Gold.Chemscore.Rot>
1.4790

> <Gold.Chemscore.Internal.Correction>
   9.000000E+99

> <Gold.Chemscore.Hbonds>
donor molecule, donor type, donor heavy atom, donor atom, acceptor molecule, acceptor atom, score
      L1  H    12    43       P1 10175  0.87

> <Gold.Chemscore.Hbond.Weighted>
-3.2817

> <Gold.Chemscore.Metal.Weighted>
-0.0000

> <Gold.Chemscore.Lipo.Weighted>
-13.4010

> <Gold.Chemscore.Internal_Hbond.Weighted>
0.0000

> <Gold.Chemscore.DEClash.Weighted>
0.0312

> <Gold.Chemscore.DEInternal.Weighted>
0.1198

> <Gold.Chemscore.Rot.Weighted>
3.7863

> <Gold.Chemscore.Internal.Correction.Weighted>
   9.000000E+99

> <Gold.Protein.RotatedTorsions>
[ 6907 6896 6895 6894 ] final   74.50 input  -60.11 | X-H torsion
[ 7974 7965 7964 7962 ] final -125.02 input  175.53 | X-H torsion
[ 8008 7997 7996 7995 ] final  -95.84 input   59.86 | X-H torsion
[ 10167 10162 10161 10158 ] final -105.68 input  -65.29 | X-H torsion
[ 10718 10713 10712 10709 ] final   96.22 input   66.30 | X-H torsion
[ 10763 10752 10751 10750 ] final  -77.04 input  -60.55 | X-H torsion
[ 11005 11000 10999 10996 ] final   23.44 input  -57.11 | X-H torsion

> <Gold.Protein.ActiveResidues>
 VAL166  LYS551  ARG553  GLY616  TRP617  ASP618  TYR619  PRO620  LYS621  CYS622 
 ASP623  PHE694  ASN695  SER759  ASP760  ASP761  ALA762  ILE779  LEU786  VAL792 
 PHE793  MET794  SER795  GLU796  ALA797  LYS798  CYS799  TRP800  GLU811  SER814 

> <Gold.Protein.RotatedAtoms>
  152.4979  134.4262  159.9496 H   0  0  0  0  0  0  0  0  0  0  0  0  # atno 6907 bound_to 6896
  151.4238  133.3684  159.2767 H   0  0  0  0  0  0  0  0  0  0  0  0  # atno 6908 bound_to 6896
  150.9203  134.8643  159.7544 H   0  0  0  0  0  0  0  0  0  0  0  0  # atno 6909 bound_to 6896
  145.0019  140.7828  143.4491 H   0  0  0  0  0  0  0  0  0  0  0  0  # atno 7974 bound_to 7965
  154.7667  140.0476  157.1018 H   0  0  0  0  0  0  0  0  0  0  0  0  # atno 8008 bound_to 7997
  154.9871  140.3108  155.4902 H   0  0  0  0  0  0  0  0  0  0  0  0  # atno 8009 bound_to 7997
  156.2914  140.2225  156.4974 H   0  0  0  0  0  0  0  0  0  0  0  0  # atno 8010 bound_to 7997
  140.1959  143.3856  152.1169 H   0  0  0  0  0  0  0  0  0  0  0  0  # atno 10167 bound_to 10162
  157.6929  131.0571  150.4458 H   0  0  0  0  0  0  0  0  0  0  0  0  # atno 10718 bound_to 10713
  154.5077  135.5777  153.6580 H   0  0  0  0  0  0  0  0  0  0  0  0  # atno 10763 bound_to 10752
  152.9891  135.6151  154.2919 H   0  0  0  0  0  0  0  0  0  0  0  0  # atno 10764 bound_to 10752
  154.2831  135.2850  155.2667 H   0  0  0  0  0  0  0  0  0  0  0  0  # atno 10765 bound_to 10752
  140.3696  134.2037  155.7667 H   0  0  0  0  0  0  0  0  0  0  0  0  # atno 11005 bound_to 11000
  145.2141  139.2190  143.5127 LP  0  0  0  0  0  0  0  0  0  0  0  0  # atno 17320 bound_to 7965
  146.3453  140.1985  142.8589 LP  0  0  0  0  0  0  0  0  0  0  0  0  # atno 17321 bound_to 7965
  139.5237  144.7074  151.5311 LP  0  0  0  0  0  0  0  0  0  0  0  0  # atno 17342 bound_to 10162
  140.6424  143.8863  150.6704 LP  0  0  0  0  0  0  0  0  0  0  0  0  # atno 17343 bound_to 10162
  156.4813  130.4074  149.6460 LP  0  0  0  0  0  0  0  0  0  0  0  0  # atno 17370 bound_to 10713
  156.3505  130.7429  151.2388 LP  0  0  0  0  0  0  0  0  0  0  0  0  # atno 17371 bound_to 10713
  141.1959  133.8096  157.0697 LP  0  0  0  0  0  0  0  0  0  0  0  0  # atno 17394 bound_to 11000
  140.0562  134.9779  157.1224 LP  0  0  0  0  0  0  0  0  0  0  0  0  # atno 17395 bound_to 11000

$$$$
