#       Name:                AV-unprocessed.smi:171
#       Creating user name   scv26
#       Creation time:       Thu Mar 26 19:17:46 2020


#       File generated by GOLD software.
#

@<TRIPOS>MOLECULE
AV-unprocessed.smi:171
    66    69     1
SMALL
NO_CHARGES


@<TRIPOS>ATOM
      1 ****        -4.1316  -1.7775   1.0315 C.3            1 S1                 0.0000
      2 ****        -2.7437  -1.1171   0.9850 C.3            1 S1                 0.0000
      3 ****        -1.6561  -2.1835   0.7782 C.3            1 S1                 0.0000
      4 ****        -2.4455  -0.2616   2.2455 C.3            1 S1                 0.0000
      5 ****        -2.8291   1.2453   2.1679 C.3            1 S1                 0.0000
      6 ****        -4.3557   1.4821   2.2253 C.2            1 S1                 0.0000
      7 ****        -5.0351   0.8933   3.0642 O.2            1 S1                 0.0000
      8 ****        -4.9147   2.3575   1.3721 N.am           1 S1                 0.0000
      9 ****        -4.2037   3.1065   0.3399 C.3            1 S1                 0.0000
     10 ****        -2.6986   3.2079   0.6243 C.3            1 S1                 0.0000
     11 ****        -2.1818   1.9051   1.0215 N.3            1 S1                 0.0000
     12 ****        -0.8326   1.8427   0.9675 C.ar           1 S1                 0.0000
     13 ****        -0.0868   2.2949   2.0090 N.ar           1 S1                 0.0000
     14 ****         1.2461   2.2070   1.9587 C.ar           1 S1                 0.0000
     15 ****         2.0143   1.7078   0.9872 N.ar           1 S1                 0.0000
     16 ****         1.2629   1.2582  -0.0592 C.ar           1 S1                 0.0000
     17 ****        -0.1548   1.3004  -0.1543 C.ar           1 S1                 0.0000
     18 ****        -0.5715   0.7647  -1.3656 N.2            1 S1                 0.0000
     19 ****         0.5399   0.4113  -1.9508 C.2            1 S1                 0.0000
     20 ****         1.6882   0.6571  -1.2309 N.pl3          1 S1                 0.0000
     21 ****         3.0516   0.3463  -1.6303 C.3            1 S1                 0.0000
     22 ****         3.4991  -1.0823  -1.2219 C.3            1 S1                 0.0000
     23 ****         3.4232  -1.1821   0.1904 O.3            1 S1                 0.0000
     24 ****         2.6236  -2.1859  -1.8118 C.3            1 S1                 0.0000
     25 ****         3.5848  -3.3569  -1.9438 C.3            1 S1                 0.0000
     26 ****         4.7769  -2.7233  -2.3714 O.3            1 S1                 0.0000
     27 ****         4.9336  -1.5049  -1.6491 C.3            1 S1                 0.0000
     28 ****         5.7096  -0.5250  -2.5429 C.3            1 S1                 0.0000
     29 ****        -4.2336  -2.4274   1.9012 H              1 S1                 0.0000
     30 ****        -4.3049  -2.3850   0.1430 H              1 S1                 0.0000
     31 ****        -4.9298  -1.0380   1.0715 H              1 S1                 0.0000
     32 ****        -2.7188  -0.4799   0.1017 H              1 S1                 0.0000
     33 ****        -1.6098  -2.8722   1.6224 H              1 S1                 0.0000
     34 ****        -0.6723  -1.7262   0.6654 H              1 S1                 0.0000
     35 ****        -1.8452  -2.7698  -0.1214 H              1 S1                 0.0000
     36 ****        -2.9094  -0.7235   3.1180 H              1 S1                 0.0000
     37 ****        -1.3782  -0.3162   2.4634 H              1 S1                 0.0000
     38 ****        -2.4518   1.7221   3.0741 H              1 S1                 0.0000
     39 ****        -5.9115   2.5055   1.4372 H              1 S1                 0.0000
     40 ****        -4.3643   2.5966  -0.6107 H              1 S1                 0.0000
     41 ****        -4.6411   4.1004   0.2442 H              1 S1                 0.0000
     42 ****        -2.1798   3.5826  -0.2599 H              1 S1                 0.0000
     43 ****        -2.5177   3.9232   1.4286 H              1 S1                 0.0000
     44 ****         1.7723   2.5854   2.8227 H              1 S1                 0.0000
     45 ****         0.5513  -0.0519  -2.9266 H              1 S1                 0.0000
     46 ****         3.1138   0.4722  -2.7116 H              1 S1                 0.0000
     47 ****         3.7139   1.0939  -1.1921 H              1 S1                 0.0000
     48 ****         3.6964  -2.0502   0.4449 H              1 S1                 0.0000
     49 ****         1.7408  -2.4183  -1.2141 H              1 S1                 0.0000
     50 ****         2.2839  -1.9017  -2.8085 H              1 S1                 0.0000
     51 ****         3.7479  -3.8460  -0.9823 H              1 S1                 0.0000
     52 ****         3.2454  -4.1034  -2.6619 H              1 S1                 0.0000
     53 ****         5.5427  -1.7226  -0.7696 H              1 S1                 0.0000
     54 ****         5.8723   0.4292  -2.0414 H              1 S1                 0.0000
     55 ****         5.1853  -0.3349  -3.4796 H              1 S1                 0.0000
     56 ****         6.6895  -0.9307  -2.7952 H              1 S1                 0.0000
     57 ****        -4.5999   0.2630   3.7072 LP             1 S1                 0.0000
     58 ****        -6.0228   1.0447   3.1035 LP             1 S1                 0.0000
     59 ****        -2.4968   1.2867   0.3015 LP             1 S1                 0.0000
     60 ****        -0.5334   2.6922   2.8107 LP             1 S1                 0.0000
     61 ****         3.0129   1.6685   1.0221 LP             1 S1                 0.0000
     62 ****        -1.5059   0.6714  -1.7095 LP             1 S1                 0.0000
     63 ****         2.4823  -1.0233   0.4897 LP             1 S1                 0.0000
     64 ****         4.0254  -0.5026   0.6094 LP             1 S1                 0.0000
     65 ****         4.7215  -2.5288  -3.3507 LP             1 S1                 0.0000
     66 ****         5.5580  -3.3220  -2.1941 LP             1 S1                 0.0000
@<TRIPOS>BOND
    1    1    2 1     
    2    1   29 1     
    3    1   30 1     
    4    1   31 1     
    5    2    3 1     
    6    2    4 1     
    7    2   32 1     
    8    3   33 1     
    9    3   34 1     
   10    3   35 1     
   11    4    5 1     
   12    4   36 1     
   13    4   37 1     
   14    5   11 1     
   15    5    6 1     
   16    5   38 1     
   17    6    7 2     
   18    6    8 am    
   19    8    9 1     
   20    8   39 1     
   21    9   10 1     
   22    9   40 1     
   23    9   41 1     
   24   10   11 1     
   25   10   42 1     
   26   10   43 1     
   27   11   12 1     
   28   12   17 ar    
   29   12   13 ar    
   30   13   14 ar    
   31   14   15 ar    
   32   14   44 1     
   33   15   16 ar    
   34   16   20 1     
   35   16   17 ar    
   36   17   18 1     
   37   18   19 2     
   38   19   20 1     
   39   19   45 1     
   40   20   21 1     
   41   21   22 1     
   42   21   46 1     
   43   21   47 1     
   44   22   27 1     
   45   22   23 1     
   46   22   24 1     
   47   23   48 1     
   48   24   25 1     
   49   24   49 1     
   50   24   50 1     
   51   25   26 1     
   52   25   51 1     
   53   25   52 1     
   54   26   27 1     
   55   27   28 1     
   56   27   53 1     
   57   28   54 1     
   58   28   55 1     
   59   28   56 1     
   60    7   57 1     
   61    7   58 1     
   62   11   59 1     
   63   13   60 1     
   64   15   61 1     
   65   18   62 1     
   66   23   63 1     
   67   23   64 1     
   68   26   65 1     
   69   26   66 1     
@<TRIPOS>SUBSTRUCTURE
      1 S1             1
@<TRIPOS>SET
LONE_PAIRS      STATIC     ATOMS    <user>   **** ""
10 57 58 59 60 61 62 63 64 65 66
DONOR_HYDROGENS      STATIC     ATOMS    <user>   **** ""
2 39 48
ATOM$BLUE        STATIC     ATOMS    COLORGROUP SYSTEM
10 57 58 59 60 61 62 63 64 65 66
ATOM$RED        STATIC     ATOMS    COLORGROUP SYSTEM
2 39 48
