AV-unprocessed.smi:2247|AV-procd|sdf|9089|dock5
  -GOLD-   2272012293D 1   1.00000     0.00000
 Structure written by MMmdl.
 34 35  0  0  0  0  0  0  0  0  1 V2000
  152.7362  143.1633  161.6747 C   0  0  0  0  0  0  0  0  0  0  0  0
  152.5522  142.1085  160.5711 C   0  0  0  0  0  0  0  0  0  0  0  0
  153.7415  141.1431  160.4563 C   0  0  0  0  0  0  0  0  0  0  0  0
  152.2457  142.7170  159.2696 N   0  0  0  0  0  0  0  0  0  0  0  0
  152.3617  144.1493  159.0429 C   0  0  0  0  0  0  0  0  0  0  0  0
  151.7005  144.3801  157.6807 C   0  0  0  0  0  0  0  0  0  0  0  0
  151.6832  143.0138  156.9773 C   0  0  2  0  0  0  0  0  0  0  0  0
  150.3935  142.8034  156.3213 N   0  0  0  0  0  0  0  0  0  0  0  0
  150.0440  141.7182  155.6139 C   0  0  0  0  0  0  0  0  0  0  0  0
  150.8300  140.7846  155.4242 O   0  0  0  0  0  0  0  0  0  0  0  0
  148.7462  141.8472  155.1457 N   0  0  0  0  0  0  0  0  0  0  0  0
  148.2018  140.8429  154.5322 C   0  0  0  0  0  0  0  0  0  0  0  0
  146.9170  140.7569  154.0203 N   0  0  0  0  0  0  0  0  0  0  0  0
  146.7688  139.5233  153.4490 C   0  0  0  0  0  0  0  0  0  0  0  0
  147.9130  138.8606  153.5916 C   0  0  0  0  0  0  0  0  0  0  0  0
  148.8131  139.6425  154.2506 O   0  0  0  0  0  0  0  0  0  0  0  0
  151.8631  142.0643  158.1628 C   0  0  0  0  0  0  0  0  0  0  0  0
  151.6969  140.8481  158.0679 O   0  0  0  0  0  0  0  0  0  0  0  0
  152.8107  142.6890  162.6535 H   0  0  0  0  0  0  0  0  0  0  0  0
  151.8910  143.8516  161.7069 H   0  0  0  0  0  0  0  0  0  0  0  0
  153.6438  143.7491  161.5286 H   0  0  0  0  0  0  0  0  0  0  0  0
  151.6938  141.5075  160.8759 H   0  0  0  0  0  0  0  0  0  0  0  0
  153.9222  140.6331  161.4027 H   0  0  0  0  0  0  0  0  0  0  0  0
  154.6574  141.6682  160.1834 H   0  0  0  0  0  0  0  0  0  0  0  0
  153.5565  140.3792  159.7004 H   0  0  0  0  0  0  0  0  0  0  0  0
  151.8760  144.7408  159.8186 H   0  0  0  0  0  0  0  0  0  0  0  0
  153.4170  144.4238  159.0127 H   0  0  0  0  0  0  0  0  0  0  0  0
  150.6850  144.7489  157.8379 H   0  0  0  0  0  0  0  0  0  0  0  0
  152.2282  145.1334  157.0949 H   0  0  0  0  0  0  0  0  0  0  0  0
  152.5268  142.9135  156.2922 H   0  0  0  0  0  0  0  0  0  0  0  0
  149.7048  143.5336  156.4306 H   0  0  0  0  0  0  0  0  0  0  0  0
  146.1848  141.4519  154.0485 H   0  0  0  0  0  0  0  0  0  0  0  0
  145.8326  139.2431  152.9892 H   0  0  0  0  0  0  0  0  0  0  0  0
  148.2308  137.8721  153.2950 H   0  0  0  0  0  0  0  0  0  0  0  0
  1  2  1  0  0  0  0
  1 19  1  0  0  0  0
  1 20  1  0  0  0  0
  1 21  1  0  0  0  0
  2  3  1  0  0  0  0
  2  4  1  0  0  0  0
  2 22  1  0  0  0  0
  3 23  1  0  0  0  0
  3 24  1  0  0  0  0
  3 25  1  0  0  0  0
  4 17  1  0  0  0  0
  4  5  1  0  0  0  0
  5  6  1  0  0  0  0
  5 26  1  0  0  0  0
  5 27  1  0  0  0  0
  6  7  1  0  0  0  0
  6 28  1  0  0  0  0
  6 29  1  0  0  0  0
  7  8  1  0  0  0  0
  7 17  1  0  0  0  0
  7 30  1  0  0  0  0
  8 31  1  0  0  0  0
  8  9  1  0  0  0  0
  9 11  1  0  0  0  0
  9 10  2  0  0  0  0
 11 12  2  0  0  0  0
 12 16  1  0  0  0  0
 12 13  1  0  0  0  0
 13 32  1  0  0  0  0
 13 14  1  0  0  0  0
 14 33  1  0  0  0  0
 14 15  2  0  0  0  0
 15 34  1  0  0  0  0
 15 16  1  0  0  0  0
 17 18  2  0  0  0  0
M  END
> <s_m_source_file>
AV-unprocessed.smi

> <i_m_source_file_index>
2247

> <i_lp_mmshare_version>
43012

> <i_f3d_flags>
0

> <s_epik_input>
W0NIM11bQ0hdKFtDSDNdKU4xW0NIMl1bQ0gyXVtDQEhdKEMxPU8pW05IXUMoPU8pW05IXWMybltjSF1bY0hdbzI=

> <s_epik_cmdline>
J2VwaWtfcHl0aG9uJywgJy1waCcsICc3LjAnLCAnLXRuJywgJzgnLCAnLW1hJywgJzIwMCcsICctbWV0YWxfYmluZGluZycsICctaW1hZScsICc8aW5maWxlLm1hZT4nLCAnLW9tYWUnLCAnPG91dGZpbGUubWFlPic=

> <r_lp_tautomer_probability>
0.107061

> <r_epik_Ionization_Penalty>
0.180736

> <r_epik_Ionization_Penalty_Charging>
0.180388

> <r_epik_Ionization_Penalty_Neutral>
0.000348501

> <r_epik_State_Penalty>
2.44396

> <r_epik_Charging_Adjusted_Penalty>
2.62435

> <i_epik_Tot_Q>
0

> <i_epik_Tot_abs_Q>
0

> <r_epik_Metal_State_Penalty>
4.38331

> <b_epik_Metal_Only>
0

> <s_lp_Force_Field>
OPLS_2005

> <r_lp_Energy>
45.2886

> <b_lp_Chiralities_Consistent>
1

> <s_lp_Variant>
AV-unprocessed.smi:2247-4

> <Gold.Version>
5.8.1

> <Gold.Id.Protein>
6NUR|6NUR_protein|mol2

> <Gold.PLP.Fitness>
47.2623

> <Gold.PLP.PLP>
-36.2535

> <Gold.PLP.part.hbond>
-1.9579

> <Gold.PLP.part.metal>
0.0000

> <Gold.PLP.part.buried>
-4.6051

> <Gold.PLP.part.nonpolar>
-30.4708

> <Gold.PLP.part.repulsive>
1.9583

> <Gold.PLP.ligand.clash>
0.0000

> <Gold.PLP.ligand.torsion>
0.1485

> <Gold.PLP.Chemscore.Hbond>
1.7369

> <Gold.PLP.Chemscore.CHOScore>
2.0000

> <Gold.PLP.Chemscore.Metal>
0.0000

> <Gold.Chemscore.Hbonds>
donor molecule, donor type, donor heavy atom, donor atom, acceptor molecule, acceptor atom, score
      L1  H     8    31       P1  8028  0.90
      P1  H  7989  7998       L1    10  0.72
      L1  C    14    33       P1 10175  1.00
      L1  C    15    34       P1  7948  1.00

> <Gold.PLP.Chemscore.Internal.Correction>
0.0953

> <Gold.Rescore>
     Score         DG    S(hbond)    S(metal)    S(lipo)     H(rot)  DE(clash)    DE(int)     intcor
     11.61     -16.15       1.39        0.00      80.60       1.33       1.40       3.14       ----

> <Gold.Chemscore.Fitness>
11.6100

> <Gold.Chemscore.DG>
-16.1516

> <Gold.Chemscore.ZeroCoef>
-5.4800

> <Gold.Chemscore.Hbond>
1.3941

> <Gold.Chemscore.Metal>
0.0000

> <Gold.Chemscore.Lipo>
80.5960

> <Gold.Chemscore.Internal_Hbond>
0.0000

> <Gold.Chemscore.DEClash>
1.3971

> <Gold.Chemscore.DEInternal>
3.1445

> <Gold.Chemscore.Rot>
1.3338

> <Gold.Chemscore.Internal.Correction>
   9.000000E+99

> <Gold.Chemscore.Hbonds>
donor molecule, donor type, donor heavy atom, donor atom, acceptor molecule, acceptor atom, score
      L1  H     8    31       P1  8028  0.88
      P1  H  7989  7998       L1    10  0.52

> <Gold.Chemscore.Hbond.Weighted>
-4.6563

> <Gold.Chemscore.Metal.Weighted>
-0.0000

> <Gold.Chemscore.Lipo.Weighted>
-9.4297

> <Gold.Chemscore.Internal_Hbond.Weighted>
0.0000

> <Gold.Chemscore.DEClash.Weighted>
1.3971

> <Gold.Chemscore.DEInternal.Weighted>
3.1445

> <Gold.Chemscore.Rot.Weighted>
3.4145

> <Gold.Chemscore.Internal.Correction.Weighted>
   9.000000E+99

> <Gold.Protein.RotatedTorsions>
[ 6907 6896 6895 6894 ] final -155.90 input  -60.11 | X-H torsion
[ 7974 7965 7964 7962 ] final  -31.66 input  175.53 | X-H torsion
[ 8008 7997 7996 7995 ] final   97.57 input   59.86 | X-H torsion
[ 10167 10162 10161 10158 ] final   90.53 input  -65.29 | X-H torsion
[ 10718 10713 10712 10709 ] final  117.31 input   66.30 | X-H torsion
[ 10763 10752 10751 10750 ] final -155.17 input  -60.55 | X-H torsion
[ 11005 11000 10999 10996 ] final   44.75 input  -57.11 | X-H torsion

> <Gold.Protein.ActiveResidues>
 VAL166  LYS551  ARG553  GLY616  TRP617  ASP618  TYR619  PRO620  LYS621  CYS622 
 ASP623  PHE694  ASN695  SER759  ASP760  ASP761  ALA762  ILE779  LEU786  VAL792 
 PHE793  MET794  SER795  GLU796  ALA797  LYS798  CYS799  TRP800  GLU811  SER814 

> <Gold.Protein.RotatedAtoms>
  151.2794  133.4217  159.2625 H   0  0  0  0  0  0  0  0  0  0  0  0  # atno 6907 bound_to 6896
  151.0374  134.9583  159.8153 H   0  0  0  0  0  0  0  0  0  0  0  0  # atno 6908 bound_to 6896
  152.5358  134.2753  159.9039 H   0  0  0  0  0  0  0  0  0  0  0  0  # atno 6909 bound_to 6896
  146.1050  140.5695  142.8804 H   0  0  0  0  0  0  0  0  0  0  0  0  # atno 7974 bound_to 7965
  156.0915  140.3256  155.7822 H   0  0  0  0  0  0  0  0  0  0  0  0  # atno 8008 bound_to 7997
  155.4988  140.0567  157.2959 H   0  0  0  0  0  0  0  0  0  0  0  0  # atno 8009 bound_to 7997
  154.4641  140.1980  156.0182 H   0  0  0  0  0  0  0  0  0  0  0  0  # atno 8010 bound_to 7997
  139.8464  144.6615  150.9222 H   0  0  0  0  0  0  0  0  0  0  0  0  # atno 10167 bound_to 10162
  157.6104  131.1036  150.7597 H   0  0  0  0  0  0  0  0  0  0  0  0  # atno 10718 bound_to 10713
  154.7806  135.3173  154.7997 H   0  0  0  0  0  0  0  0  0  0  0  0  # atno 10763 bound_to 10752
  153.8709  135.6844  153.4779 H   0  0  0  0  0  0  0  0  0  0  0  0  # atno 10764 bound_to 10752
  153.1442  135.4726  154.9478 H   0  0  0  0  0  0  0  0  0  0  0  0  # atno 10765 bound_to 10752
  140.1523  134.4446  155.8373 H   0  0  0  0  0  0  0  0  0  0  0  0  # atno 11005 bound_to 11000
  144.7463  140.5077  143.6833 LP  0  0  0  0  0  0  0  0  0  0  0  0  # atno 17320 bound_to 7965
  145.5779  139.1487  143.3252 LP  0  0  0  0  0  0  0  0  0  0  0  0  # atno 17321 bound_to 7965
  140.7792  143.3866  151.1382 LP  0  0  0  0  0  0  0  0  0  0  0  0  # atno 17342 bound_to 10162
  139.7508  143.8781  152.3076 LP  0  0  0  0  0  0  0  0  0  0  0  0  # atno 17343 bound_to 10162
  156.7976  130.4910  149.5375 LP  0  0  0  0  0  0  0  0  0  0  0  0  # atno 17370 bound_to 10713
  156.1205  130.6106  151.0186 LP  0  0  0  0  0  0  0  0  0  0  0  0  # atno 17371 bound_to 10713
  141.2200  133.6877  156.7444 LP  0  0  0  0  0  0  0  0  0  0  0  0  # atno 17394 bound_to 11000
  140.2590  134.8482  157.3740 LP  0  0  0  0  0  0  0  0  0  0  0  0  # atno 17395 bound_to 11000

$$$$
