AV-unprocessed.smi:671|AV-procd|sdf|3277|dock2
  -GOLD-   22720 0233D 1   1.00000     0.00000
 Structure written by MMmdl.
 49 50  0  0  0  0  0  0  0  0  1 V2000
  151.3524  139.5448  154.4182 C   0  0  0  0  0  0  0  0  0  0  0  0
  150.0128  139.8356  155.0329 C   0  0  0  0  0  0  0  0  0  0  0  0
  149.2188  140.7163  154.4480 N   0  0  0  0  0  0  0  0  0  0  0  0
  148.1175  140.7565  155.2243 N   0  0  0  0  0  0  0  0  0  0  0  0
  147.0251  141.6394  154.8637 C   0  0  0  0  0  0  0  0  0  0  0  0
  148.2146  139.8979  156.3018 C   0  0  0  0  0  0  0  0  0  0  0  0
  147.1182  139.7600  157.3087 C   0  0  0  0  0  0  0  0  0  0  0  0
  149.4338  139.2802  156.2125 C   0  0  0  0  0  0  0  0  0  0  0  0
  150.0436  138.2531  157.1317 C   0  0  0  0  0  0  0  0  0  0  0  0
  151.5110  138.5812  157.4879 C   0  0  2  0  0  0  0  0  0  0  0  0
  152.2200  137.4137  158.1919 C   0  0  0  0  0  0  0  0  0  0  0  0
  151.5773  139.7639  158.3508 N   0  0  0  0  0  0  0  0  0  0  0  0
  152.6638  140.4771  158.7010 C   0  0  0  0  0  0  0  0  0  0  0  0
  153.7900  140.1805  158.3073 O   0  0  0  0  0  0  0  0  0  0  0  0
  152.4076  141.5178  159.5115 N   0  0  0  0  0  0  0  0  0  0  0  0
  153.3878  142.4446  160.0751 C   0  0  2  0  0  0  0  0  0  0  0  0
  154.0720  141.7979  161.2957 C   0  0  0  0  0  0  0  0  0  0  0  0
  153.5685  142.5443  162.5394 C   0  0  0  0  0  0  0  0  0  0  0  0
  152.3938  143.4011  162.0677 C   0  0  0  0  0  0  0  0  0  0  0  0
  152.7288  143.7314  160.6129 C   0  0  2  0  0  0  0  0  0  0  0  0
  151.5387  144.2813  159.8078 C   0  0  0  0  0  0  0  0  0  0  0  0
  151.8657  138.7389  154.9403 H   0  0  0  0  0  0  0  0  0  0  0  0
  151.9985  140.4221  154.4531 H   0  0  0  0  0  0  0  0  0  0  0  0
  151.2502  139.2458  153.3749 H   0  0  0  0  0  0  0  0  0  0  0  0
  146.1359  141.0495  154.6404 H   0  0  0  0  0  0  0  0  0  0  0  0
  147.2831  142.2344  153.9865 H   0  0  0  0  0  0  0  0  0  0  0  0
  146.8080  142.3119  155.6939 H   0  0  0  0  0  0  0  0  0  0  0  0
  147.3072  138.9323  157.9918 H   0  0  0  0  0  0  0  0  0  0  0  0
  146.1623  139.5719  156.8196 H   0  0  0  0  0  0  0  0  0  0  0  0
  147.0224  140.6694  157.9022 H   0  0  0  0  0  0  0  0  0  0  0  0
  149.4489  138.1882  158.0432 H   0  0  0  0  0  0  0  0  0  0  0  0
  149.9918  137.2554  156.6950 H   0  0  0  0  0  0  0  0  0  0  0  0
  152.0650  138.7875  156.5706 H   0  0  0  0  0  0  0  0  0  0  0  0
  152.2654  136.5317  157.5528 H   0  0  0  0  0  0  0  0  0  0  0  0
  151.7057  137.1323  159.1115 H   0  0  0  0  0  0  0  0  0  0  0  0
  153.2458  137.6773  158.4513 H   0  0  0  0  0  0  0  0  0  0  0  0
  150.6980  140.0668  158.7442 H   0  0  0  0  0  0  0  0  0  0  0  0
  151.4451  141.6758  159.7716 H   0  0  0  0  0  0  0  0  0  0  0  0
  154.1374  142.6990  159.3236 H   0  0  0  0  0  0  0  0  0  0  0  0
  153.8496  140.7320  161.3668 H   0  0  0  0  0  0  0  0  0  0  0  0
  155.1561  141.8864  161.2213 H   0  0  0  0  0  0  0  0  0  0  0  0
  153.2830  141.8645  163.3426 H   0  0  0  0  0  0  0  0  0  0  0  0
  154.3601  143.1892  162.9224 H   0  0  0  0  0  0  0  0  0  0  0  0
  151.4716  142.8204  162.1160 H   0  0  0  0  0  0  0  0  0  0  0  0
  152.2571  144.2927  162.6802 H   0  0  0  0  0  0  0  0  0  0  0  0
  153.5003  144.5032  160.6262 H   0  0  0  0  0  0  0  0  0  0  0  0
  150.6907  143.5957  159.8143 H   0  0  0  0  0  0  0  0  0  0  0  0
  151.8194  144.4583  158.7693 H   0  0  0  0  0  0  0  0  0  0  0  0
  151.1955  145.2288  160.2236 H   0  0  0  0  0  0  0  0  0  0  0  0
  1  2  1  0  0  0  0
  1 22  1  0  0  0  0
  1 23  1  0  0  0  0
  1 24  1  0  0  0  0
  2  8  1  0  0  0  0
  2  3  2  0  0  0  0
  3  4  1  0  0  0  0
  4  5  1  0  0  0  0
  4  6  1  0  0  0  0
  5 25  1  0  0  0  0
  5 26  1  0  0  0  0
  5 27  1  0  0  0  0
  6  7  1  0  0  0  0
  6  8  2  0  0  0  0
  7 28  1  0  0  0  0
  7 29  1  0  0  0  0
  7 30  1  0  0  0  0
  8  9  1  0  0  0  0
  9 10  1  0  0  0  0
  9 31  1  0  0  0  0
  9 32  1  0  0  0  0
 10 11  1  0  0  0  0
 10 12  1  0  0  0  0
 10 33  1  0  0  0  0
 11 34  1  0  0  0  0
 11 35  1  0  0  0  0
 11 36  1  0  0  0  0
 12 13  1  0  0  0  0
 12 37  1  0  0  0  0
 13 14  2  0  0  0  0
 13 15  1  0  0  0  0
 15 16  1  0  0  0  0
 15 38  1  0  0  0  0
 16 20  1  0  0  0  0
 16 17  1  0  0  0  0
 16 39  1  0  0  0  0
 17 18  1  0  0  0  0
 17 40  1  0  0  0  0
 17 41  1  0  0  0  0
 18 19  1  0  0  0  0
 18 42  1  0  0  0  0
 18 43  1  0  0  0  0
 19 20  1  0  0  0  0
 19 44  1  0  0  0  0
 19 45  1  0  0  0  0
 20 21  1  0  0  0  0
 20 46  1  0  0  0  0
 21 47  1  0  0  0  0
 21 48  1  0  0  0  0
 21 49  1  0  0  0  0
M  END
> <s_m_source_file>
AV-unprocessed.smi

> <i_m_source_file_index>
671

> <i_lp_mmshare_version>
43012

> <i_f3d_flags>
0

> <s_epik_input>
W0NIM11jMW5uKFtDSDNdKWMoW0NIM10pYzFbQ0gyXVtDQEhdKFtDSDNdKVtOSF1DKD1PKVtOSF1bQ0BASF0yW0NIMl1bQ0gyXVtDSDJdW0NASF0yW0NIM10=

> <s_epik_cmdline>
J2VwaWtfcHl0aG9uJywgJy1waCcsICc3LjAnLCAnLXRuJywgJzgnLCAnLW1hJywgJzIwMCcsICctbWV0YWxfYmluZGluZycsICctaW1hZScsICc8aW5maWxlLm1hZT4nLCAnLW9tYWUnLCAnPG91dGZpbGUubWFlPic=

> <r_lp_tautomer_probability>
1

> <r_epik_Ionization_Penalty>
0.0126855

> <r_epik_Ionization_Penalty_Charging>
0

> <r_epik_Ionization_Penalty_Neutral>
0.0126855

> <r_epik_State_Penalty>
0.00977547

> <r_epik_Charging_Adjusted_Penalty>
0.00977547

> <i_epik_Tot_Q>
0

> <i_epik_Tot_abs_Q>
0

> <r_epik_Metal_State_Penalty>
0.00957132

> <b_epik_Metal_Only>
0

> <s_lp_Force_Field>
OPLS_2005

> <r_lp_Energy>
22.3824

> <b_lp_Chiralities_Consistent>
1

> <s_lp_Variant>
AV-unprocessed.smi:671-5

> <Gold.Version>
5.8.1

> <Gold.Id.Protein>
6NUR|6NUR_protein|mol2

> <Gold.PLP.Fitness>
47.5453

> <Gold.PLP.PLP>
-42.6953

> <Gold.PLP.part.hbond>
-2.0000

> <Gold.PLP.part.metal>
0.0000

> <Gold.PLP.part.buried>
-6.3915

> <Gold.PLP.part.nonpolar>
-35.6466

> <Gold.PLP.part.repulsive>
1.3780

> <Gold.PLP.ligand.clash>
0.0000

> <Gold.PLP.ligand.torsion>
0.5433

> <Gold.PLP.Chemscore.Hbond>
1.9600

> <Gold.PLP.Chemscore.CHOScore>
0.0000

> <Gold.PLP.Chemscore.Metal>
0.0000

> <Gold.Chemscore.Hbonds>
donor molecule, donor type, donor heavy atom, donor atom, acceptor molecule, acceptor atom, score
      P1  H  7997  8008       L1    14  0.74

> <Gold.PLP.Chemscore.Internal.Correction>
0.0567

> <Gold.Rescore>
     Score         DG    S(hbond)    S(metal)    S(lipo)     H(rot)  DE(clash)    DE(int)     intcor
     18.86     -19.77       1.62        0.00     107.72       1.45       0.27       0.65       ----

> <Gold.Chemscore.Fitness>
18.8552

> <Gold.Chemscore.DG>
-19.7718

> <Gold.Chemscore.ZeroCoef>
-5.4800

> <Gold.Chemscore.Hbond>
1.6167

> <Gold.Chemscore.Metal>
0.0000

> <Gold.Chemscore.Lipo>
107.7236

> <Gold.Chemscore.Internal_Hbond>
0.0000

> <Gold.Chemscore.DEClash>
0.2667

> <Gold.Chemscore.DEInternal>
0.6499

> <Gold.Chemscore.Rot>
1.4499

> <Gold.Chemscore.Internal.Correction>
   9.000000E+99

> <Gold.Chemscore.Hbonds>
donor molecule, donor type, donor heavy atom, donor atom, acceptor molecule, acceptor atom, score
      P1  H  7997  8008       L1    14  0.71

> <Gold.Chemscore.Hbond.Weighted>
-5.3999

> <Gold.Chemscore.Metal.Weighted>
-0.0000

> <Gold.Chemscore.Lipo.Weighted>
-12.6037

> <Gold.Chemscore.Internal_Hbond.Weighted>
0.0000

> <Gold.Chemscore.DEClash.Weighted>
0.2667

> <Gold.Chemscore.DEInternal.Weighted>
0.6499

> <Gold.Chemscore.Rot.Weighted>
3.7118

> <Gold.Chemscore.Internal.Correction.Weighted>
   9.000000E+99

> <Gold.Protein.RotatedTorsions>
[ 6907 6896 6895 6894 ] final -177.17 input  -60.11 | X-H torsion
[ 7974 7965 7964 7962 ] final  123.25 input  175.53 | X-H torsion
[ 8008 7997 7996 7995 ] final -112.96 input   59.86 | X-H torsion
[ 10167 10162 10161 10158 ] final  -81.76 input  -65.29 | X-H torsion
[ 10718 10713 10712 10709 ] final -132.95 input   66.30 | X-H torsion
[ 10763 10752 10751 10750 ] final   24.64 input  -60.55 | X-H torsion
[ 11005 11000 10999 10996 ] final   81.98 input  -57.11 | X-H torsion

> <Gold.Protein.ActiveResidues>
 VAL166  LYS551  ARG553  GLY616  TRP617  ASP618  TYR619  PRO620  LYS621  CYS622 
 ASP623  PHE694  ASN695  SER759  ASP760  ASP761  ALA762  ILE779  LEU786  VAL792 
 PHE793  MET794  SER795  GLU796  ALA797  LYS798  CYS799  TRP800  GLU811  SER814 

> <Gold.Protein.RotatedAtoms>
  151.6166  133.3342  159.3078 H   0  0  0  0  0  0  0  0  0  0  0  0  # atno 6907 bound_to 6896
  150.8128  134.7296  159.6714 H   0  0  0  0  0  0  0  0  0  0  0  0  # atno 6908 bound_to 6896
  152.4224  134.5935  160.0032 H   0  0  0  0  0  0  0  0  0  0  0  0  # atno 6909 bound_to 6896
  145.0981  139.3538  143.4826 H   0  0  0  0  0  0  0  0  0  0  0  0  # atno 7974 bound_to 7965
  155.0133  140.0393  157.2408 H   0  0  0  0  0  0  0  0  0  0  0  0  # atno 8008 bound_to 7997
  154.7441  140.2754  155.6324 H   0  0  0  0  0  0  0  0  0  0  0  0  # atno 8009 bound_to 7997
  156.2871  140.2659  156.2177 H   0  0  0  0  0  0  0  0  0  0  0  0  # atno 8010 bound_to 7997
  140.4382  143.2524  151.8663 H   0  0  0  0  0  0  0  0  0  0  0  0  # atno 10167 bound_to 10162
  156.2399  130.7089  151.0946 H   0  0  0  0  0  0  0  0  0  0  0  0  # atno 10718 bound_to 10713
  153.0749  135.6601  154.0168 H   0  0  0  0  0  0  0  0  0  0  0  0  # atno 10763 bound_to 10752
  153.9804  135.2956  155.3422 H   0  0  0  0  0  0  0  0  0  0  0  0  # atno 10764 bound_to 10752
  154.7134  135.5195  153.8771 H   0  0  0  0  0  0  0  0  0  0  0  0  # atno 10765 bound_to 10752
  139.9079  134.8038  156.2114 H   0  0  0  0  0  0  0  0  0  0  0  0  # atno 11005 bound_to 11000
  146.3530  140.0845  142.8616 LP  0  0  0  0  0  0  0  0  0  0  0  0  # atno 17320 bound_to 7965
  145.0988  140.9332  143.4725 LP  0  0  0  0  0  0  0  0  0  0  0  0  # atno 17321 bound_to 7965
  139.4788  144.5259  151.8736 LP  0  0  0  0  0  0  0  0  0  0  0  0  # atno 17342 bound_to 10162
  140.4349  144.2066  150.5889 LP  0  0  0  0  0  0  0  0  0  0  0  0  # atno 17343 bound_to 10162
  157.7170  131.0704  150.6286 LP  0  0  0  0  0  0  0  0  0  0  0  0  # atno 17370 bound_to 10713
  156.6359  130.4445  149.5770 LP  0  0  0  0  0  0  0  0  0  0  0  0  # atno 17371 bound_to 10713
  141.0463  133.6911  156.1689 LP  0  0  0  0  0  0  0  0  0  0  0  0  # atno 17394 bound_to 11000
  140.6879  134.4697  157.5589 LP  0  0  0  0  0  0  0  0  0  0  0  0  # atno 17395 bound_to 11000

$$$$
