AV-unprocessed.smi:3318|AV-procd|sdf|12762|dock2
  -GOLD-   2272019103D 1   1.00000     0.00000
 Structure written by MMmdl.
 45 46  0  0  0  0  0  0  0  0  3 V2000
  144.3227  131.8171  150.4679 C   0  0  0  0  0  0  0  0  0  0  0  0
  144.5384  133.2382  150.9999 C   0  0  0  0  0  0  0  0  0  0  0  0
  146.0298  133.5997  151.1140 C   0  0  0  0  0  0  0  0  0  0  0  0
  146.2453  134.9759  151.6300 N   0  3  2  0  0  0  0  0  0  0  0  0
  145.8566  135.1073  153.0582 C   0  0  0  0  0  0  0  0  0  0  0  0
  146.2129  136.4994  153.6085 C   0  0  0  0  0  0  0  0  0  0  0  0
  145.5577  137.6169  152.7799 C   0  0  1  0  0  0  0  0  0  0  0  0
  145.9594  138.9413  153.3075 N   0  3  0  0  0  0  0  0  0  0  0  0
  147.3179  139.3903  152.9311 C   0  0  0  0  0  0  0  0  0  0  0  0
  147.7726  140.5888  153.7791 C   0  0  0  0  0  0  0  0  0  0  0  0
  149.1169  140.3661  154.4489 C   0  0  0  0  0  0  0  0  0  0  0  0
  149.6617  141.3365  155.3171 C   0  0  0  0  0  0  0  0  0  0  0  0
  150.9120  141.0773  155.9118 C   0  0  0  0  0  0  0  0  0  0  0  0
  151.5669  139.8668  155.6136 C   0  0  0  0  0  0  0  0  0  0  0  0
  150.9398  138.9642  154.7320 C   0  0  0  0  0  0  0  0  0  0  0  0
  149.7417  139.2039  154.1559 N   0  0  0  0  0  0  0  0  0  0  0  0
  145.9507  137.4366  151.3005 C   0  0  0  0  0  0  0  0  0  0  0  0
  145.6016  136.0252  150.7951 C   0  0  0  0  0  0  0  0  0  0  0  0
  143.2596  131.5857  150.3985 H   0  0  0  0  0  0  0  0  0  0  0  0
  144.7821  131.0766  151.1232 H   0  0  0  0  0  0  0  0  0  0  0  0
  144.7532  131.6982  149.4732 H   0  0  0  0  0  0  0  0  0  0  0  0
  144.0390  133.9462  150.3374 H   0  0  0  0  0  0  0  0  0  0  0  0
  144.0472  133.3225  151.9689 H   0  0  0  0  0  0  0  0  0  0  0  0
  146.5580  132.8786  151.7400 H   0  0  0  0  0  0  0  0  0  0  0  0
  146.4689  133.5217  150.1182 H   0  0  0  0  0  0  0  0  0  0  0  0
  144.7865  134.9217  153.1648 H   0  0  0  0  0  0  0  0  0  0  0  0
  146.3697  134.3491  153.6513 H   0  0  0  0  0  0  0  0  0  0  0  0
  145.8968  136.5721  154.6500 H   0  0  0  0  0  0  0  0  0  0  0  0
  147.2974  136.6216  153.6064 H   0  0  0  0  0  0  0  0  0  0  0  0
  144.4746  137.5256  152.8782 H   0  0  0  0  0  0  0  0  0  0  0  0
  145.3105  139.6241  152.9414 H   0  0  0  0  0  0  0  0  0  0  0  0
  148.0234  138.5709  153.0667 H   0  0  0  0  0  0  0  0  0  0  0  0
  147.3362  139.6566  151.8732 H   0  0  0  0  0  0  0  0  0  0  0  0
  147.8166  141.4874  153.1618 H   0  0  0  0  0  0  0  0  0  0  0  0
  147.0298  140.7910  154.5521 H   0  0  0  0  0  0  0  0  0  0  0  0
  149.1356  142.2559  155.5291 H   0  0  0  0  0  0  0  0  0  0  0  0
  151.3601  141.7934  156.5847 H   0  0  0  0  0  0  0  0  0  0  0  0
  152.5258  139.6341  156.0528 H   0  0  0  0  0  0  0  0  0  0  0  0
  151.4124  138.0257  154.4826 H   0  0  0  0  0  0  0  0  0  0  0  0
  145.4400  138.1687  150.6749 H   0  0  0  0  0  0  0  0  0  0  0  0
  147.0199  137.6134  151.1751 H   0  0  0  0  0  0  0  0  0  0  0  0
  145.9238  135.9368  149.7583 H   0  0  0  0  0  0  0  0  0  0  0  0
  144.5198  135.8828  150.8010 H   0  0  0  0  0  0  0  0  0  0  0  0
  147.2420  135.1363  151.5932 H   0  0  0  0  0  0  0  0  0  0  0  0
  145.8809  138.9361  154.3144 H   0  0  0  0  0  0  0  0  0  0  0  0
  1  2  1  0  0  0  0
  1 19  1  0  0  0  0
  1 20  1  0  0  0  0
  1 21  1  0  0  0  0
  2  3  1  0  0  0  0
  2 22  1  0  0  0  0
  2 23  1  0  0  0  0
  3  4  1  0  0  0  0
  3 24  1  0  0  0  0
  3 25  1  0  0  0  0
  4 18  1  0  0  0  0
  4  5  1  0  0  0  0
  4 44  1  0  0  0  0
  5  6  1  0  0  0  0
  5 26  1  0  0  0  0
  5 27  1  0  0  0  0
  6  7  1  0  0  0  0
  6 28  1  0  0  0  0
  6 29  1  0  0  0  0
  7  8  1  0  0  0  0
  7 17  1  0  0  0  0
  7 30  1  0  0  0  0
  8  9  1  0  0  0  0
  8 31  1  0  0  0  0
  8 45  1  0  0  0  0
  9 10  1  0  0  0  0
  9 32  1  0  0  0  0
  9 33  1  0  0  0  0
 10 11  1  0  0  0  0
 10 34  1  0  0  0  0
 10 35  1  0  0  0  0
 11 16  1  0  0  0  0
 11 12  2  0  0  0  0
 12 13  1  0  0  0  0
 12 36  1  0  0  0  0
 13 14  2  0  0  0  0
 13 37  1  0  0  0  0
 14 15  1  0  0  0  0
 14 38  1  0  0  0  0
 15 16  2  0  0  0  0
 15 39  1  0  0  0  0
 17 18  1  0  0  0  0
 17 40  1  0  0  0  0
 17 41  1  0  0  0  0
 18 42  1  0  0  0  0
 18 43  1  0  0  0  0
M  CHG  1   4   1
M  CHG  1   8   1
M  END
> <s_m_source_file>
AV-unprocessed.smi

> <i_m_source_file_index>
3318

> <i_lp_mmshare_version>
43012

> <i_f3d_flags>
0

> <s_epik_input>
W0NIM11bQ0gyXVtDSDJdTjFbQ0gyXVtDSDJdW0NIXShbQ0gyXVtDSDJdMSlbTkhdW0NIMl1bQ0gyXWMyW2NIXVtjSF1bY0hdW2NIXW4y

> <s_epik_cmdline>
J2VwaWtfcHl0aG9uJywgJy1waCcsICc3LjAnLCAnLXRuJywgJzgnLCAnLW1hJywgJzIwMCcsICctbWV0YWxfYmluZGluZycsICctaW1hZScsICc8aW5maWxlLm1hZT4nLCAnLW9tYWUnLCAnPG91dGZpbGUubWFlPic=

> <r_epik_Ionization_Penalty>
0.0638186

> <r_epik_Ionization_Penalty_Charging>
0.0628538

> <r_epik_Ionization_Penalty_Neutral>
0.000964829

> <r_epik_State_Penalty>
0.0518488

> <r_epik_Charging_Adjusted_Penalty>
0.114703

> <i_epik_Tot_Q>
2

> <i_epik_Tot_abs_Q>
2

> <r_epik_Metal_State_Penalty>
0.0535981

> <b_epik_Metal_Only>
0

> <s_lp_Force_Field>
OPLS_2005

> <r_lp_Energy>
28.1617

> <b_lp_Chiralities_Consistent>
1

> <s_lp_Variant>
AV-unprocessed.smi:3318-1

> <Gold.Version>
5.8.1

> <Gold.Id.Protein>
6NUR|6NUR_protein|mol2

> <Gold.PLP.Fitness>
47.5232

> <Gold.PLP.PLP>
-36.5845

> <Gold.PLP.part.hbond>
-2.0000

> <Gold.PLP.part.metal>
0.0000

> <Gold.PLP.part.buried>
1.1047

> <Gold.PLP.part.nonpolar>
-35.6740

> <Gold.PLP.part.repulsive>
0.4562

> <Gold.PLP.ligand.clash>
0.0000

> <Gold.PLP.ligand.torsion>
0.5797

> <Gold.PLP.Chemscore.Hbond>
4.0000

> <Gold.PLP.Chemscore.CHOScore>
0.0000

> <Gold.PLP.Chemscore.Metal>
0.0000

> <Gold.Chemscore.Hbonds>
donor molecule, donor type, donor heavy atom, donor atom, acceptor molecule, acceptor atom, score
      L1  H     4    44       P1  7948  2.00
      L1  H     8    31       P1 10175  2.00

> <Gold.PLP.Chemscore.Internal.Correction>
0.0980

> <Gold.Rescore>
     Score         DG    S(hbond)    S(metal)    S(lipo)     H(rot)  DE(clash)    DE(int)     intcor
     17.97     -19.20       1.95        0.00      95.56       1.55       0.64       0.60       ----

> <Gold.Chemscore.Fitness>
17.9676

> <Gold.Chemscore.DG>
-19.2037

> <Gold.Chemscore.ZeroCoef>
-5.4800

> <Gold.Chemscore.Hbond>
1.9519

> <Gold.Chemscore.Metal>
0.0000

> <Gold.Chemscore.Lipo>
95.5602

> <Gold.Chemscore.Internal_Hbond>
0.0000

> <Gold.Chemscore.DEClash>
0.6396

> <Gold.Chemscore.DEInternal>
0.5965

> <Gold.Chemscore.Rot>
1.5532

> <Gold.Chemscore.Internal.Correction>
   9.000000E+99

> <Gold.Chemscore.Hbonds>
donor molecule, donor type, donor heavy atom, donor atom, acceptor molecule, acceptor atom, score
      L1  H     4    44       P1  7948  0.83
      L1  H     8    31       P1 10175  1.00

> <Gold.Chemscore.Hbond.Weighted>
-6.5194

> <Gold.Chemscore.Metal.Weighted>
-0.0000

> <Gold.Chemscore.Lipo.Weighted>
-11.1805

> <Gold.Chemscore.Internal_Hbond.Weighted>
0.0000

> <Gold.Chemscore.DEClash.Weighted>
0.6396

> <Gold.Chemscore.DEInternal.Weighted>
0.5965

> <Gold.Chemscore.Rot.Weighted>
3.9762

> <Gold.Chemscore.Internal.Correction.Weighted>
   9.000000E+99

> <Gold.Protein.RotatedTorsions>
[ 6907 6896 6895 6894 ] final  139.08 input  -60.11 | X-H torsion
[ 7974 7965 7964 7962 ] final -139.14 input  175.53 | X-H torsion
[ 8008 7997 7996 7995 ] final   -5.67 input   59.86 | X-H torsion
[ 10167 10162 10161 10158 ] final   87.92 input  -65.29 | X-H torsion
[ 10718 10713 10712 10709 ] final  132.42 input   66.30 | X-H torsion
[ 10763 10752 10751 10750 ] final -162.27 input  -60.55 | X-H torsion
[ 11005 11000 10999 10996 ] final   -9.98 input  -57.11 | X-H torsion

> <Gold.Protein.ActiveResidues>
 VAL166  LYS551  ARG553  GLY616  TRP617  ASP618  TYR619  PRO620  LYS621  CYS622 
 ASP623  PHE694  ASN695  SER759  ASP760  ASP761  ALA762  ILE779  LEU786  VAL792 
 PHE793  MET794  SER795  GLU796  ALA797  LYS798  CYS799  TRP800  GLU811  SER814 

> <Gold.Protein.RotatedAtoms>
  152.2591  133.5281  159.5370 H   0  0  0  0  0  0  0  0  0  0  0  0  # atno 6907 bound_to 6896
  150.7119  134.0855  159.3922 H   0  0  0  0  0  0  0  0  0  0  0  0  # atno 6908 bound_to 6896
  151.8773  135.0467  160.0536 H   0  0  0  0  0  0  0  0  0  0  0  0  # atno 6909 bound_to 6896
  144.8701  140.6353  143.5272 H   0  0  0  0  0  0  0  0  0  0  0  0  # atno 7974 bound_to 7965
  154.6015  140.2452  155.7787 H   0  0  0  0  0  0  0  0  0  0  0  0  # atno 8008 bound_to 7997
  156.2314  140.2965  156.0150 H   0  0  0  0  0  0  0  0  0  0  0  0  # atno 8009 bound_to 7997
  155.2203  140.0400  157.2938 H   0  0  0  0  0  0  0  0  0  0  0  0  # atno 8010 bound_to 7997
  139.8725  144.6485  150.8933 H   0  0  0  0  0  0  0  0  0  0  0  0  # atno 10167 bound_to 10162
  157.4872  131.1089  150.9604 H   0  0  0  0  0  0  0  0  0  0  0  0  # atno 10718 bound_to 10713
  154.7229  135.3029  154.9018 H   0  0  0  0  0  0  0  0  0  0  0  0  # atno 10763 bound_to 10752
  153.9884  135.6721  153.4757 H   0  0  0  0  0  0  0  0  0  0  0  0  # atno 10764 bound_to 10752
  153.0849  135.4989  154.8496 H   0  0  0  0  0  0  0  0  0  0  0  0  # atno 10765 bound_to 10752
  140.7399  133.8679  155.8959 H   0  0  0  0  0  0  0  0  0  0  0  0  # atno 11005 bound_to 11000
  145.4147  139.1574  143.4107 LP  0  0  0  0  0  0  0  0  0  0  0  0  # atno 17320 bound_to 7965
  146.2924  140.4253  142.8734 LP  0  0  0  0  0  0  0  0  0  0  0  0  # atno 17321 bound_to 7965
  140.7758  143.3652  151.1752 LP  0  0  0  0  0  0  0  0  0  0  0  0  # atno 17342 bound_to 10162
  139.7271  143.9132  152.3006 LP  0  0  0  0  0  0  0  0  0  0  0  0  # atno 17343 bound_to 10162
  157.0317  130.5714  149.5344 LP  0  0  0  0  0  0  0  0  0  0  0  0  # atno 17370 bound_to 10713
  156.0153  130.5247  150.8117 LP  0  0  0  0  0  0  0  0  0  0  0  0  # atno 17371 bound_to 10713
  140.9846  134.1359  157.4463 LP  0  0  0  0  0  0  0  0  0  0  0  0  # atno 17394 bound_to 11000
  139.8808  135.0021  156.6109 LP  0  0  0  0  0  0  0  0  0  0  0  0  # atno 17395 bound_to 11000

$$$$
