AV-unprocessed.smi:281|AV-procd|sdf|2110|dock2
  -GOLD-   2262021403D 1   1.00000     0.00000
 Structure written by MMmdl.
 55 59  0  0  0  0  0  0  0  0  1 V2000
  155.5249  137.4161  157.7980 C   0  0  0  0  0  0  0  0  0  0  0  0
  154.2080  137.3218  157.0211 C   0  0  1  0  0  0  0  0  0  0  0  0
  153.5268  135.9583  157.2043 C   0  0  0  0  0  0  0  0  0  0  0  0
  152.2395  135.9475  156.5174 N   0  0  0  0  0  0  0  0  0  0  0  0
  151.6168  134.7493  156.3654 C   0  0  0  0  0  0  0  0  0  0  0  0
  152.1814  133.6213  156.8759 N   0  0  0  0  0  0  0  0  0  0  0  0
  151.5746  132.4387  156.7419 C   0  0  0  0  0  0  0  0  0  0  0  0
  150.4178  132.1586  156.1405 N   0  0  0  0  0  0  0  0  0  0  0  0
  149.8492  133.2814  155.6159 C   0  0  0  0  0  0  0  0  0  0  0  0
  150.3737  134.6037  155.6850 C   0  0  0  0  0  0  0  0  0  0  0  0
  149.5161  135.4824  155.0338 N   0  0  0  0  0  0  0  0  0  0  0  0
  148.5389  134.7272  154.6139 C   0  0  0  0  0  0  0  0  0  0  0  0
  148.6630  133.3890  154.9100 N   0  0  0  0  0  0  0  0  0  0  0  0
  147.7327  132.3255  154.5621 C   0  0  0  0  0  0  0  0  0  0  0  0
  147.6135  132.0776  153.0396 C   0  0  1  0  0  0  0  0  0  0  0  0
  148.8333  131.5397  152.5585 O   0  0  0  0  0  0  0  0  0  0  0  0
  146.4907  131.1104  152.6865 C   0  0  0  0  0  0  0  0  0  0  0  0
  146.0854  131.5614  151.2901 C   0  0  0  0  0  0  0  0  0  0  0  0
  146.1583  132.9740  151.3816 O   0  0  0  0  0  0  0  0  0  0  0  0
  147.2669  133.3276  152.2038 C   0  0  0  0  0  0  0  0  0  0  0  0
  151.3643  137.0395  156.9331 C   0  0  0  0  0  0  0  0  0  0  0  0
  152.0707  138.4177  156.8378 C   0  0  2  0  0  0  0  0  0  0  0  0
  151.2630  139.4792  157.5787 C   0  0  0  0  0  0  0  0  0  0  0  0
  151.5900  140.7601  156.8305 C   0  0  0  0  0  0  0  0  0  0  0  0
  151.5809  140.3207  155.4863 O   0  0  0  0  0  0  0  0  0  0  0  0
  152.2392  139.0599  155.4265 C   0  0  2  0  0  0  0  0  0  0  0  0
  151.6792  138.2820  154.2275 C   0  0  0  0  0  0  0  0  0  0  0  0
  153.3382  138.3470  157.4999 O   0  0  0  0  0  0  0  0  0  0  0  0
  156.2323  136.6561  157.4658 H   0  0  0  0  0  0  0  0  0  0  0  0
  155.3629  137.2789  158.8674 H   0  0  0  0  0  0  0  0  0  0  0  0
  155.9926  138.3904  157.6540 H   0  0  0  0  0  0  0  0  0  0  0  0
  154.4238  137.4757  155.9635 H   0  0  0  0  0  0  0  0  0  0  0  0
  154.1698  135.1719  156.8061 H   0  0  0  0  0  0  0  0  0  0  0  0
  153.3759  135.7529  158.2654 H   0  0  0  0  0  0  0  0  0  0  0  0
  152.0900  131.5960  157.1785 H   0  0  0  0  0  0  0  0  0  0  0  0
  147.6977  135.1310  154.0697 H   0  0  0  0  0  0  0  0  0  0  0  0
  148.0523  131.4127  155.0669 H   0  0  0  0  0  0  0  0  0  0  0  0
  146.7571  132.5784  154.9794 H   0  0  0  0  0  0  0  0  0  0  0  0
  148.8590  131.6457  151.6198 H   0  0  0  0  0  0  0  0  0  0  0  0
  146.7840  130.0606  152.7314 H   0  0  0  0  0  0  0  0  0  0  0  0
  145.6459  131.2482  153.3634 H   0  0  0  0  0  0  0  0  0  0  0  0
  146.7940  131.2044  150.5411 H   0  0  0  0  0  0  0  0  0  0  0  0
  145.0867  131.2265  151.0094 H   0  0  0  0  0  0  0  0  0  0  0  0
  146.9662  134.1704  152.8252 H   0  0  0  0  0  0  0  0  0  0  0  0
  148.1036  133.6588  151.5867 H   0  0  0  0  0  0  0  0  0  0  0  0
  150.4337  137.0532  156.3680 H   0  0  0  0  0  0  0  0  0  0  0  0
  151.0816  136.8533  157.9705 H   0  0  0  0  0  0  0  0  0  0  0  0
  150.1948  139.2790  157.4829 H   0  0  0  0  0  0  0  0  0  0  0  0
  151.4955  139.5356  158.6426 H   0  0  0  0  0  0  0  0  0  0  0  0
  150.8594  141.5506  157.0028 H   0  0  0  0  0  0  0  0  0  0  0  0
  152.5806  141.1328  157.0962 H   0  0  0  0  0  0  0  0  0  0  0  0
  153.2918  139.2752  155.2407 H   0  0  0  0  0  0  0  0  0  0  0  0
  152.1673  137.3141  154.1159 H   0  0  0  0  0  0  0  0  0  0  0  0
  151.8415  138.8348  153.3021 H   0  0  0  0  0  0  0  0  0  0  0  0
  150.6062  138.1187  154.3241 H   0  0  0  0  0  0  0  0  0  0  0  0
  1  2  1  0  0  0  0
  1 29  1  0  0  0  0
  1 30  1  0  0  0  0
  1 31  1  0  0  0  0
  2 28  1  0  0  0  0
  2  3  1  0  0  0  0
  2 32  1  0  0  0  0
  3  4  1  0  0  0  0
  3 33  1  0  0  0  0
  3 34  1  0  0  0  0
  4  5  1  0  0  0  0
  4 21  1  0  0  0  0
  5 10  1  0  0  0  0
  5  6  2  0  0  0  0
  6  7  1  0  0  0  0
  7  8  2  0  0  0  0
  7 35  1  0  0  0  0
  8  9  1  0  0  0  0
  9 13  1  0  0  0  0
  9 10  2  0  0  0  0
 10 11  1  0  0  0  0
 11 12  2  0  0  0  0
 12 13  1  0  0  0  0
 12 36  1  0  0  0  0
 13 14  1  0  0  0  0
 14 15  1  0  0  0  0
 14 37  1  0  0  0  0
 14 38  1  0  0  0  0
 15 20  1  0  0  0  0
 15 16  1  0  0  0  0
 15 17  1  0  0  0  0
 16 39  1  0  0  0  0
 17 18  1  0  0  0  0
 17 40  1  0  0  0  0
 17 41  1  0  0  0  0
 18 19  1  0  0  0  0
 18 42  1  0  0  0  0
 18 43  1  0  0  0  0
 19 20  1  0  0  0  0
 20 44  1  0  0  0  0
 20 45  1  0  0  0  0
 21 22  1  0  0  0  0
 21 46  1  0  0  0  0
 21 47  1  0  0  0  0
 22 26  1  0  0  0  0
 22 23  1  0  0  0  0
 22 28  1  0  0  0  0
 23 24  1  0  0  0  0
 23 48  1  0  0  0  0
 23 49  1  0  0  0  0
 24 25  1  0  0  0  0
 24 50  1  0  0  0  0
 24 51  1  0  0  0  0
 25 26  1  0  0  0  0
 26 27  1  0  0  0  0
 26 52  1  0  0  0  0
 27 53  1  0  0  0  0
 27 54  1  0  0  0  0
 27 55  1  0  0  0  0
M  END
> <s_m_source_file>
AV-unprocessed.smi

> <i_m_source_file_index>
281

> <i_lp_mmshare_version>
43012

> <i_f3d_flags>
0

> <s_epik_input>
W0NIM11bQ0BASF0xT1tDSDJdW0NIMl1bQ0BAXTEyW0NIMl1OKFtDSDJdW0NASF0oTzIpW0NIM10pYyhuW2NIXW4zKWMoYzM0KW5bY0hdbjRbQ0gyXVtDQEBdNShbT0hdKVtDSDJdW0NIMl1PW0NIMl01

> <s_epik_cmdline>
J2VwaWtfcHl0aG9uJywgJy1waCcsICc3LjAnLCAnLXRuJywgJzgnLCAnLW1hJywgJzIwMCcsICctbWV0YWxfYmluZGluZycsICctaW1hZScsICc8aW5maWxlLm1hZT4nLCAnLW9tYWUnLCAnPG91dGZpbGUubWFlPic=

> <r_lp_tautomer_probability>
1

> <r_epik_Ionization_Penalty>
0.00571331

> <r_epik_Ionization_Penalty_Charging>
0

> <r_epik_Ionization_Penalty_Neutral>
0.00571331

> <r_epik_State_Penalty>
0.00399586

> <r_epik_Charging_Adjusted_Penalty>
0.00399586

> <i_epik_Tot_Q>
0

> <i_epik_Tot_abs_Q>
0

> <r_epik_Metal_State_Penalty>
-0

> <b_epik_Metal_Only>
0

> <s_lp_Force_Field>
OPLS_2005

> <r_lp_Energy>
52.955

> <b_lp_Chiralities_Consistent>
1

> <s_lp_Variant>
AV-unprocessed.smi:281-10

> <Gold.Version>
5.8.1

> <Gold.Id.Protein>
6NUR|6NUR_protein|mol2

> <Gold.PLP.Fitness>
41.2573

> <Gold.PLP.PLP>
-32.4904

> <Gold.PLP.part.hbond>
-4.6079

> <Gold.PLP.part.metal>
0.0000

> <Gold.PLP.part.buried>
-3.2555

> <Gold.PLP.part.nonpolar>
-24.2083

> <Gold.PLP.part.repulsive>
0.3257

> <Gold.PLP.ligand.clash>
0.0000

> <Gold.PLP.ligand.torsion>
0.2511

> <Gold.PLP.Chemscore.Hbond>
2.6858

> <Gold.PLP.Chemscore.CHOScore>
0.3169

> <Gold.PLP.Chemscore.Metal>
0.0000

> <Gold.Chemscore.Hbonds>
donor molecule, donor type, donor heavy atom, donor atom, acceptor molecule, acceptor atom, score
      L1  H    16    39       P1 10747  0.86
      P1  H  7989  7998       L1    25  0.81
      P1  H  7997  8008       L1    28  0.55
      P1  H 10752 10765       L1     4  0.11
      L1  C    12    36       P1  7948  0.18

> <Gold.PLP.Chemscore.Internal.Correction>
0.2612

> <Gold.Rescore>
     Score         DG    S(hbond)    S(metal)    S(lipo)     H(rot)  DE(clash)    DE(int)     intcor
     14.74     -15.19       1.70        0.00      80.27       2.09       0.24       0.21       ----

> <Gold.Chemscore.Fitness>
14.7447

> <Gold.Chemscore.DG>
-15.1894

> <Gold.Chemscore.ZeroCoef>
-5.4800

> <Gold.Chemscore.Hbond>
1.6992

> <Gold.Chemscore.Metal>
0.0000

> <Gold.Chemscore.Lipo>
80.2672

> <Gold.Chemscore.Internal_Hbond>
0.0000

> <Gold.Chemscore.DEClash>
0.2371

> <Gold.Chemscore.DEInternal>
0.2076

> <Gold.Chemscore.Rot>
2.0927

> <Gold.Chemscore.Internal.Correction>
   9.000000E+99

> <Gold.Chemscore.Hbonds>
donor molecule, donor type, donor heavy atom, donor atom, acceptor molecule, acceptor atom, score
      L1  H    16    39       P1 10747  0.76
      P1  H  7989  7998       L1    25  0.23
      P1  H  7997  8008       L1    28  0.07

> <Gold.Chemscore.Hbond.Weighted>
-5.6754

> <Gold.Chemscore.Metal.Weighted>
-0.0000

> <Gold.Chemscore.Lipo.Weighted>
-9.3913

> <Gold.Chemscore.Internal_Hbond.Weighted>
0.0000

> <Gold.Chemscore.DEClash.Weighted>
0.2371

> <Gold.Chemscore.DEInternal.Weighted>
0.2076

> <Gold.Chemscore.Rot.Weighted>
5.3573

> <Gold.Chemscore.Internal.Correction.Weighted>
   9.000000E+99

> <Gold.Protein.RotatedTorsions>
[ 6907 6896 6895 6894 ] final  -28.58 input  -60.11 | X-H torsion
[ 7974 7965 7964 7962 ] final  171.26 input  175.53 | X-H torsion
[ 8008 7997 7996 7995 ] final  -89.73 input   59.86 | X-H torsion
[ 10167 10162 10161 10158 ] final  117.45 input  -65.29 | X-H torsion
[ 10718 10713 10712 10709 ] final  -36.30 input   66.30 | X-H torsion
[ 10763 10752 10751 10750 ] final -160.86 input  -60.55 | X-H torsion
[ 11005 11000 10999 10996 ] final   54.05 input  -57.11 | X-H torsion

> <Gold.Protein.ActiveResidues>
 VAL166  LYS551  ARG553  GLY616  TRP617  ASP618  TYR619  PRO620  LYS621  CYS622 
 ASP623  PHE694  ASN695  SER759  ASP760  ASP761  ALA762  ILE779  LEU786  VAL792 
 PHE793  MET794  SER795  GLU796  ALA797  LYS798  CYS799  TRP800  GLU811  SER814 

> <Gold.Protein.RotatedAtoms>
  151.1310  135.0130  159.8582 H   0  0  0  0  0  0  0  0  0  0  0  0  # atno 6907 bound_to 6896
  152.5451  134.1610  159.8568 H   0  0  0  0  0  0  0  0  0  0  0  0  # atno 6908 bound_to 6896
  151.1677  133.4759  159.2627 H   0  0  0  0  0  0  0  0  0  0  0  0  # atno 6909 bound_to 6896
  144.7300  139.9324  143.6425 H   0  0  0  0  0  0  0  0  0  0  0  0  # atno 7974 bound_to 7965
  154.6901  140.0538  157.0354 H   0  0  0  0  0  0  0  0  0  0  0  0  # atno 8008 bound_to 7997
  155.0829  140.3211  155.4577 H   0  0  0  0  0  0  0  0  0  0  0  0  # atno 8009 bound_to 7997
  156.2725  140.2061  156.5957 H   0  0  0  0  0  0  0  0  0  0  0  0  # atno 8010 bound_to 7997
  139.6178  144.7095  151.2701 H   0  0  0  0  0  0  0  0  0  0  0  0  # atno 10167 bound_to 10162
  156.3285  130.4276  149.7895 H   0  0  0  0  0  0  0  0  0  0  0  0  # atno 10718 bound_to 10713
  154.7354  135.3056  154.8821 H   0  0  0  0  0  0  0  0  0  0  0  0  # atno 10763 bound_to 10752
  153.9651  135.6748  153.4750 H   0  0  0  0  0  0  0  0  0  0  0  0  # atno 10764 bound_to 10752
  153.0957  135.4937  154.8697 H   0  0  0  0  0  0  0  0  0  0  0  0  # atno 10765 bound_to 10752
  140.0718  134.5459  155.9039 H   0  0  0  0  0  0  0  0  0  0  0  0  # atno 11005 bound_to 11000
  146.0847  139.3835  143.0442 LP  0  0  0  0  0  0  0  0  0  0  0  0  # atno 17320 bound_to 7965
  145.7792  140.9863  143.1108 LP  0  0  0  0  0  0  0  0  0  0  0  0  # atno 17321 bound_to 7965
  140.7362  143.6714  150.8079 LP  0  0  0  0  0  0  0  0  0  0  0  0  # atno 17342 bound_to 10162
  140.0319  143.5434  152.2756 LP  0  0  0  0  0  0  0  0  0  0  0  0  # atno 17343 bound_to 10162
  156.5176  130.8200  151.3192 LP  0  0  0  0  0  0  0  0  0  0  0  0  # atno 17370 bound_to 10713
  157.7426  130.9893  150.2527 LP  0  0  0  0  0  0  0  0  0  0  0  0  # atno 17371 bound_to 10713
  141.2014  133.6618  156.5951 LP  0  0  0  0  0  0  0  0  0  0  0  0  # atno 17394 bound_to 11000
  140.3616  134.7682  157.4538 LP  0  0  0  0  0  0  0  0  0  0  0  0  # atno 17395 bound_to 11000

$$$$
